AV-unprocessed.smi:3222|AV-procd|sdf|12303|dock7
  -GOLD-   2272018143D 1   1.00000     0.00000
 Structure written by MMmdl.
 41 42  0  0  0  0  0  0  0  0  2 V2000
  147.3331  142.0370  155.2825 C   0  0  0  0  0  0  0  0  0  0  0  0
  148.5983  141.1778  155.4727 C   0  0  2  0  0  0  0  0  0  0  0  0
  149.7399  142.0399  155.8619 N   0  3  0  0  0  0  0  0  0  0  0  0
  150.2337  141.8571  157.2420 C   0  0  0  0  0  0  0  0  0  0  0  0
  151.2959  142.9135  157.5837 C   0  0  0  0  0  0  0  0  0  0  0  0
  152.1209  142.5022  158.7163 N   0  0  0  0  0  0  0  0  0  0  0  0
  152.2504  143.3505  159.8890 C   0  0  0  0  0  0  0  0  0  0  0  0
  153.3132  142.6669  160.7615 C   0  0  0  0  0  0  0  0  0  0  0  0
  153.5002  141.2640  160.1728 C   0  0  0  0  0  0  0  0  0  0  0  0
  152.7755  141.3416  158.8399 C   0  0  0  0  0  0  0  0  0  0  0  0
  152.8071  140.4366  158.0075 O   0  0  0  0  0  0  0  0  0  0  0  0
  148.9632  140.3675  154.2008 C   0  0  2  0  0  0  0  0  0  0  0  0
  147.8027  139.5105  153.6602 C   0  0  0  0  0  0  0  0  0  0  0  0
  150.1293  139.5235  154.4411 N   0  0  0  0  0  0  0  0  0  0  0  0
  150.2313  138.1471  154.3840 C   0  0  0  0  0  0  0  0  0  0  0  0
  151.5119  137.8173  154.7235 C   0  0  0  0  0  0  0  0  0  0  0  0
  152.1263  139.0733  154.9850 C   0  0  0  0  0  0  0  0  0  0  0  0
  151.2944  140.0898  154.8260 N   0  0  0  0  0  0  0  0  0  0  0  0
  146.4554  141.4221  155.0853 H   0  0  0  0  0  0  0  0  0  0  0  0
  147.4476  142.7320  154.4500 H   0  0  0  0  0  0  0  0  0  0  0  0
  147.1036  142.6228  156.1721 H   0  0  0  0  0  0  0  0  0  0  0  0
  148.4168  140.4679  156.2816 H   0  0  0  0  0  0  0  0  0  0  0  0
  150.5060  141.8200  155.2406 H   0  0  0  0  0  0  0  0  0  0  0  0
  149.3999  141.9232  157.9406 H   0  0  0  0  0  0  0  0  0  0  0  0
  150.6618  140.8587  157.3429 H   0  0  0  0  0  0  0  0  0  0  0  0
  151.9350  143.0921  156.7177 H   0  0  0  0  0  0  0  0  0  0  0  0
  150.8188  143.8671  157.8165 H   0  0  0  0  0  0  0  0  0  0  0  0
  152.5446  144.3644  159.6149 H   0  0  0  0  0  0  0  0  0  0  0  0
  151.2917  143.4002  160.4070 H   0  0  0  0  0  0  0  0  0  0  0  0
  154.2525  143.2190  160.7099 H   0  0  0  0  0  0  0  0  0  0  0  0
  153.0119  142.6316  161.8091 H   0  0  0  0  0  0  0  0  0  0  0  0
  154.5524  141.0102  160.0402 H   0  0  0  0  0  0  0  0  0  0  0  0
  153.0318  140.5032  160.7981 H   0  0  0  0  0  0  0  0  0  0  0  0
  149.2288  141.0752  153.4129 H   0  0  0  0  0  0  0  0  0  0  0  0
  146.9824  140.1275  153.2945 H   0  0  0  0  0  0  0  0  0  0  0  0
  147.4035  138.8445  154.4258 H   0  0  0  0  0  0  0  0  0  0  0  0
  148.1310  138.8943  152.8222 H   0  0  0  0  0  0  0  0  0  0  0  0
  149.3945  137.5218  154.1091 H   0  0  0  0  0  0  0  0  0  0  0  0
  151.9442  136.8292  154.7782 H   0  0  0  0  0  0  0  0  0  0  0  0
  153.1431  139.2748  155.2884 H   0  0  0  0  0  0  0  0  0  0  0  0
  149.4856  143.0071  155.7197 H   0  0  0  0  0  0  0  0  0  0  0  0
  1  2  1  0  0  0  0
  1 19  1  0  0  0  0
  1 20  1  0  0  0  0
  1 21  1  0  0  0  0
  2  3  1  0  0  0  0
  2 12  1  0  0  0  0
  2 22  1  0  0  0  0
  3  4  1  0  0  0  0
  3 23  1  0  0  0  0
  3 41  1  0  0  0  0
  4  5  1  0  0  0  0
  4 24  1  0  0  0  0
  4 25  1  0  0  0  0
  5  6  1  0  0  0  0
  5 26  1  0  0  0  0
  5 27  1  0  0  0  0
  6 10  1  0  0  0  0
  6  7  1  0  0  0  0
  7  8  1  0  0  0  0
  7 28  1  0  0  0  0
  7 29  1  0  0  0  0
  8  9  1  0  0  0  0
  8 30  1  0  0  0  0
  8 31  1  0  0  0  0
  9 10  1  0  0  0  0
  9 32  1  0  0  0  0
  9 33  1  0  0  0  0
 10 11  2  0  0  0  0
 12 13  1  0  0  0  0
 12 14  1  0  0  0  0
 12 34  1  0  0  0  0
 13 35  1  0  0  0  0
 13 36  1  0  0  0  0
 13 37  1  0  0  0  0
 14 18  1  0  0  0  0
 14 15  1  0  0  0  0
 15 16  2  0  0  0  0
 15 38  1  0  0  0  0
 16 17  1  0  0  0  0
 16 39  1  0  0  0  0
 17 18  2  0  0  0  0
 17 40  1  0  0  0  0
M  CHG  1   3   1
M  END
> <s_m_source_file>
AV-unprocessed.smi

> <i_m_source_file_index>
3222

> <i_lp_mmshare_version>
43012

> <i_f3d_flags>
0

> <s_epik_input>
bjFbY0hdW2NIXVtjSF1uMVtDQEBIXShbQ0gzXSlbQ0BIXShbQ0gzXSlbTkhdW0NIMl1bQ0gyXU4yW0NIMl1bQ0gyXVtDSDJdQzI9Tw==

> <s_epik_cmdline>
J2VwaWtfcHl0aG9uJywgJy1waCcsICc3LjAnLCAnLXRuJywgJzgnLCAnLW1hJywgJzIwMCcsICctbWV0YWxfYmluZGluZycsICctaW1hZScsICc8aW5maWxlLm1hZT4nLCAnLW9tYWUnLCAnPG91dGZpbGUubWFlPic=

> <r_lp_tautomer_probability>
1

> <r_epik_Ionization_Penalty>
0.0064019

> <r_epik_Ionization_Penalty_Charging>
0.00639164

> <r_epik_Ionization_Penalty_Neutral>
1.02567e-05

> <r_epik_State_Penalty>
0.00472531

> <r_epik_Charging_Adjusted_Penalty>
0.011117

> <i_epik_Tot_Q>
1

> <i_epik_Tot_abs_Q>
1

> <r_epik_Metal_State_Penalty>
-0

> <b_epik_Metal_Only>
0

> <s_lp_Force_Field>
OPLS_2005

> <r_lp_Energy>
24.5342

> <b_lp_Chiralities_Consistent>
1

> <s_lp_Variant>
AV-unprocessed.smi:3222-1

> <Gold.Version>
5.8.1

> <Gold.Id.Protein>
6NUR|6NUR_protein|mol2

> <Gold.PLP.Fitness>
54.4165

> <Gold.PLP.PLP>
-41.4473

> <Gold.PLP.part.hbond>
-3.0000

> <Gold.PLP.part.metal>
0.0000

> <Gold.PLP.part.buried>
-1.1146

> <Gold.PLP.part.nonpolar>
-36.8838

> <Gold.PLP.part.repulsive>
0.1881

> <Gold.PLP.ligand.clash>
0.0000

> <Gold.PLP.ligand.torsion>
0.9304

> <Gold.PLP.Chemscore.Hbond>
3.9280

> <Gold.PLP.Chemscore.CHOScore>
0.9683

> <Gold.PLP.Chemscore.Metal>
0.0000

> <Gold.Chemscore.Hbonds>
donor molecule, donor type, donor heavy atom, donor atom, acceptor molecule, acceptor atom, score
      L1  H     3    41       P1  8028  2.00
      P1  H  7989  7998       L1    18  0.95
      P1  H  7997  8010       L1    11  0.83
      L1  C    15    38       P1  7948  0.78

> <Gold.PLP.Chemscore.Internal.Correction>
0.1410

> <Gold.Rescore>
     Score         DG    S(hbond)    S(metal)    S(lipo)     H(rot)  DE(clash)    DE(int)     intcor
     15.43     -19.69       2.52        0.00      93.24       1.99       0.12       4.14       ----

> <Gold.Chemscore.Fitness>
15.4342

> <Gold.Chemscore.DG>
-19.6899

> <Gold.Chemscore.ZeroCoef>
-5.4800

> <Gold.Chemscore.Hbond>
2.5154

> <Gold.Chemscore.Metal>
0.0000

> <Gold.Chemscore.Lipo>
93.2361

> <Gold.Chemscore.Internal_Hbond>
0.0000

> <Gold.Chemscore.DEClash>
0.1171

> <Gold.Chemscore.DEInternal>
4.1385

> <Gold.Chemscore.Rot>
1.9922

> <Gold.Chemscore.Internal.Correction>
   9.000000E+99

> <Gold.Chemscore.Hbonds>
donor molecule, donor type, donor heavy atom, donor atom, acceptor molecule, acceptor atom, score
      L1  H     3    41       P1  8028  1.00
      P1  H  7989  7998       L1    18  0.16
      P1  H  7997  8010       L1    11  0.75

> <Gold.Chemscore.Hbond.Weighted>
-8.4014

> <Gold.Chemscore.Metal.Weighted>
-0.0000

> <Gold.Chemscore.Lipo.Weighted>
-10.9086

> <Gold.Chemscore.Internal_Hbond.Weighted>
0.0000

> <Gold.Chemscore.DEClash.Weighted>
0.1171

> <Gold.Chemscore.DEInternal.Weighted>
4.1385

> <Gold.Chemscore.Rot.Weighted>
5.1002

> <Gold.Chemscore.Internal.Correction.Weighted>
   9.000000E+99

> <Gold.Protein.RotatedTorsions>
[ 6907 6896 6895 6894 ] final  -50.39 input  -60.11 | X-H torsion
[ 7974 7965 7964 7962 ] final   98.79 input  175.53 | X-H torsion
[ 8008 7997 7996 7995 ] final   46.68 input   59.86 | X-H torsion
[ 10167 10162 10161 10158 ] final   63.19 input  -65.29 | X-H torsion
[ 10718 10713 10712 10709 ] final  -78.07 input   66.30 | X-H torsion
[ 10763 10752 10751 10750 ] final  -39.84 input  -60.55 | X-H torsion
[ 11005 11000 10999 10996 ] final  -11.52 input  -57.11 | X-H torsion

> <Gold.Protein.ActiveResidues>
 VAL166  LYS551  ARG553  GLY616  TRP617  ASP618  TYR619  PRO620  LYS621  CYS622 
 ASP623  PHE694  ASN695  SER759  ASP760  ASP761  ALA762  ILE779  LEU786  VAL792 
 PHE793  MET794  SER795  GLU796  ALA797  LYS798  CYS799  TRP800  GLU811  SER814 

> <Gold.Protein.RotatedAtoms>
  150.8712  134.8086  159.7155 H   0  0  0  0  0  0  0  0  0  0  0  0  # atno 6907 bound_to 6896
  152.4716  134.4944  159.9715 H   0  0  0  0  0  0  0  0  0  0  0  0  # atno 6908 bound_to 6896
  151.5032  133.3461  159.2908 H   0  0  0  0  0  0  0  0  0  0  0  0  # atno 6909 bound_to 6896
  145.4075  139.2338  143.3266 H   0  0  0  0  0  0  0  0  0  0  0  0  # atno 7974 bound_to 7965
  155.3564  140.3416  155.4240 H   0  0  0  0  0  0  0  0  0  0  0  0  # atno 8008 bound_to 7997
  156.1737  140.1640  156.8437 H   0  0  0  0  0  0  0  0  0  0  0  0  # atno 8009 bound_to 7997
  154.5259  140.0756  156.8240 H   0  0  0  0  0  0  0  0  0  0  0  0  # atno 8010 bound_to 7997
  140.1358  144.4600  150.6839 H   0  0  0  0  0  0  0  0  0  0  0  0  # atno 10167 bound_to 10162
  156.0127  130.4508  150.3441 H   0  0  0  0  0  0  0  0  0  0  0  0  # atno 10718 bound_to 10713
  153.9360  135.6766  153.4745 H   0  0  0  0  0  0  0  0  0  0  0  0  # atno 10763 bound_to 10752
  153.0955  135.4853  154.8768 H   0  0  0  0  0  0  0  0  0  0  0  0  # atno 10764 bound_to 10752
  154.7402  135.3159  154.8698 H   0  0  0  0  0  0  0  0  0  0  0  0  # atno 10765 bound_to 10752
  140.7561  133.8553  155.9085 H   0  0  0  0  0  0  0  0  0  0  0  0  # atno 11005 bound_to 11000
  146.2721  140.4781  142.8810 LP  0  0  0  0  0  0  0  0  0  0  0  0  # atno 17320 bound_to 7965
  144.8332  140.6740  143.6277 LP  0  0  0  0  0  0  0  0  0  0  0  0  # atno 17321 bound_to 7965
  140.6790  143.2318  151.5433 LP  0  0  0  0  0  0  0  0  0  0  0  0  # atno 17342 bound_to 10162
  139.5497  144.2429  152.1507 LP  0  0  0  0  0  0  0  0  0  0  0  0  # atno 17343 bound_to 10162
  157.1535  131.0327  151.2874 LP  0  0  0  0  0  0  0  0  0  0  0  0  # atno 17370 bound_to 10713
  157.4371  130.7523  149.7038 LP  0  0  0  0  0  0  0  0  0  0  0  0  # atno 17371 bound_to 10713
  140.9706  134.1536  157.4579 LP  0  0  0  0  0  0  0  0  0  0  0  0  # atno 17394 bound_to 11000
  139.8779  134.9977  156.5861 LP  0  0  0  0  0  0  0  0  0  0  0  0  # atno 17395 bound_to 11000

$$$$
