AV-unprocessed.smi:1897|AV-procd|sdf|7688|dock3
  -GOLD-   22720 9423D 1   1.00000     0.00000
 Structure written by MMmdl.
 39 41  0  0  0  0  0  0  0  0  2 V2000
  143.1205  143.2014  161.3531 C   0  0  0  0  0  0  0  0  0  0  0  0
  144.4154  143.0662  160.6276 C   0  0  0  0  0  0  0  0  0  0  0  0
  145.0190  141.8868  160.4371 N   0  0  0  0  0  0  0  0  0  0  0  0
  146.2136  142.0144  159.7442 N   0  0  0  0  0  0  0  0  0  0  0  0
  146.4732  143.2892  159.4180 C   0  0  0  0  0  0  0  0  0  0  0  0
  147.6426  143.7201  158.7265 N   0  0  0  0  0  0  0  0  0  0  0  0
  148.8522  143.1388  158.5832 C   0  0  0  0  0  0  0  0  0  0  0  0
  149.0993  142.0484  159.0946 O   0  0  0  0  0  0  0  0  0  0  0  0
  149.7518  143.8220  157.8555 N   0  0  0  0  0  0  0  0  0  0  0  0
  151.0981  143.3706  157.5121 C   0  0  2  0  0  0  0  0  0  0  0  0
  151.0937  142.1216  156.6089 C   0  0  0  0  0  0  0  0  0  0  0  0
  152.1855  141.2153  157.1873 C   0  0  0  0  0  0  0  0  0  0  0  0
  152.1389  141.5182  158.6224 N   0  3  1  0  0  0  0  0  0  0  0  0
  153.2272  141.0129  159.4838 C   0  0  0  0  0  0  0  0  0  0  0  0
  152.8632  141.3065  160.9549 C   0  0  0  0  0  0  0  0  0  0  0  0
  152.5067  142.7927  161.1842 C   0  0  0  0  0  0  0  0  0  0  0  0
  151.4554  143.2923  160.1699 C   0  0  0  0  0  0  0  0  0  0  0  0
  151.9431  142.9731  158.7447 C   0  0  2  0  0  0  0  0  0  0  0  0
  145.2756  144.4506  159.9650 S   0  0  0  0  0  0  0  0  0  0  0  0
  142.5401  142.2816  161.2740 H   0  0  0  0  0  0  0  0  0  0  0  0
  142.5359  144.0185  160.9301 H   0  0  0  0  0  0  0  0  0  0  0  0
  143.3055  143.4108  162.4069 H   0  0  0  0  0  0  0  0  0  0  0  0
  147.5807  144.6559  158.3519 H   0  0  0  0  0  0  0  0  0  0  0  0
  149.4635  144.7148  157.4807 H   0  0  0  0  0  0  0  0  0  0  0  0
  151.6206  144.1684  156.9802 H   0  0  0  0  0  0  0  0  0  0  0  0
  150.1317  141.6101  156.6738 H   0  0  0  0  0  0  0  0  0  0  0  0
  151.2664  142.3623  155.5594 H   0  0  0  0  0  0  0  0  0  0  0  0
  152.0071  140.1585  156.9863 H   0  0  0  0  0  0  0  0  0  0  0  0
  153.1634  141.4853  156.7852 H   0  0  0  0  0  0  0  0  0  0  0  0
  153.3482  139.9395  159.3327 H   0  0  0  0  0  0  0  0  0  0  0  0
  154.1714  141.4878  159.2136 H   0  0  0  0  0  0  0  0  0  0  0  0
  152.0105  140.6890  161.2412 H   0  0  0  0  0  0  0  0  0  0  0  0
  153.6853  141.0140  161.6090 H   0  0  0  0  0  0  0  0  0  0  0  0
  152.1446  142.9386  162.2022 H   0  0  0  0  0  0  0  0  0  0  0  0
  153.4108  143.3962  161.0914 H   0  0  0  0  0  0  0  0  0  0  0  0
  150.4949  142.8116  160.3615 H   0  0  0  0  0  0  0  0  0  0  0  0
  151.3048  144.3654  160.2918 H   0  0  0  0  0  0  0  0  0  0  0  0
  152.9186  143.4466  158.6122 H   0  0  0  0  0  0  0  0  0  0  0  0
  151.2863  141.0940  158.9587 H   0  0  0  0  0  0  0  0  0  0  0  0
  1  2  1  0  0  0  0
  1 20  1  0  0  0  0
  1 21  1  0  0  0  0
  1 22  1  0  0  0  0
  2 19  1  0  0  0  0
  2  3  2  0  0  0  0
  3  4  1  0  0  0  0
  4  5  2  0  0  0  0
  5  6  1  0  0  0  0
  5 19  1  0  0  0  0
  6  7  1  0  0  0  0
  6 23  1  0  0  0  0
  7  8  2  0  0  0  0
  7  9  1  0  0  0  0
  9 10  1  0  0  0  0
  9 24  1  0  0  0  0
 10 18  1  0  0  0  0
 10 11  1  0  0  0  0
 10 25  1  0  0  0  0
 11 12  1  0  0  0  0
 11 26  1  0  0  0  0
 11 27  1  0  0  0  0
 12 13  1  0  0  0  0
 12 28  1  0  0  0  0
 12 29  1  0  0  0  0
 13 18  1  0  0  0  0
 13 14  1  0  0  0  0
 13 39  1  0  0  0  0
 14 15  1  0  0  0  0
 14 30  1  0  0  0  0
 14 31  1  0  0  0  0
 15 16  1  0  0  0  0
 15 32  1  0  0  0  0
 15 33  1  0  0  0  0
 16 17  1  0  0  0  0
 16 34  1  0  0  0  0
 16 35  1  0  0  0  0
 17 18  1  0  0  0  0
 17 36  1  0  0  0  0
 17 37  1  0  0  0  0
 18 38  1  0  0  0  0
M  CHG  1  13   1
M  END
> <s_m_source_file>
AV-unprocessed.smi

> <i_m_source_file_index>
1897

> <i_lp_mmshare_version>
43012

> <i_f3d_flags>
0

> <s_epik_input>
W0NIM11jMW5uYyhzMSlbTkhdQyg9TylbTkhdW0NASF0oW0NIMl1bQ0gyXTIpW0NAQEhdKE4yMylbQ0gyXVtDSDJdW0NIMl1bQ0gyXTM=

> <s_epik_cmdline>
J2VwaWtfcHl0aG9uJywgJy1waCcsICc3LjAnLCAnLXRuJywgJzgnLCAnLW1hJywgJzIwMCcsICctbWV0YWxfYmluZGluZycsICctaW1hZScsICc8aW5maWxlLm1hZT4nLCAnLW9tYWUnLCAnPG91dGZpbGUubWFlPic=

> <r_lp_tautomer_probability>
1

> <r_epik_Ionization_Penalty>
0.00228891

> <r_epik_Ionization_Penalty_Charging>
0.00107044

> <r_epik_Ionization_Penalty_Neutral>
0.00121847

> <r_epik_State_Penalty>
-0

> <r_epik_Charging_Adjusted_Penalty>
0.00107044

> <i_epik_Tot_Q>
1

> <i_epik_Tot_abs_Q>
1

> <r_epik_Metal_State_Penalty>
0.304057

> <b_epik_Metal_Only>
0

> <s_lp_Force_Field>
OPLS_2005

> <r_lp_Energy>
42.5593

> <b_lp_Chiralities_Consistent>
1

> <s_lp_Variant>
AV-unprocessed.smi:1897-5

> <Gold.Version>
5.8.1

> <Gold.Id.Protein>
6NUR|6NUR_protein|mol2

> <Gold.PLP.Fitness>
41.0874

> <Gold.PLP.PLP>
-30.5738

> <Gold.PLP.part.hbond>
-6.1616

> <Gold.PLP.part.metal>
0.0000

> <Gold.PLP.part.buried>
2.9047

> <Gold.PLP.part.nonpolar>
-28.0670

> <Gold.PLP.part.repulsive>
0.2700

> <Gold.PLP.ligand.clash>
0.0000

> <Gold.PLP.ligand.torsion>
0.1323

> <Gold.PLP.Chemscore.Hbond>
3.5924

> <Gold.PLP.Chemscore.CHOScore>
0.0000

> <Gold.PLP.Chemscore.Metal>
0.0000

> <Gold.Chemscore.Hbonds>
donor molecule, donor type, donor heavy atom, donor atom, acceptor molecule, acceptor atom, score
      L1  H     6    23       P1  8029  1.00
      L1  H     9    24       P1  8028  0.11
      P1  H  6934  6946       L1     4  0.50

> <Gold.PLP.Chemscore.Internal.Correction>
0.0011

> <Gold.Rescore>
     Score         DG    S(hbond)    S(metal)    S(lipo)     H(rot)  DE(clash)    DE(int)     intcor
     14.95     -18.13       1.50        0.00      87.11       1.00       0.25       2.93       ----

> <Gold.Chemscore.Fitness>
14.9490

> <Gold.Chemscore.DG>
-18.1267

> <Gold.Chemscore.ZeroCoef>
-5.4800

> <Gold.Chemscore.Hbond>
1.5015

> <Gold.Chemscore.Metal>
0.0000

> <Gold.Chemscore.Lipo>
87.1092

> <Gold.Chemscore.Internal_Hbond>
0.0000

> <Gold.Chemscore.DEClash>
0.2465

> <Gold.Chemscore.DEInternal>
2.9313

> <Gold.Chemscore.Rot>
1.0000

> <Gold.Chemscore.Internal.Correction>
   9.000000E+99

> <Gold.Chemscore.Hbonds>
donor molecule, donor type, donor heavy atom, donor atom, acceptor molecule, acceptor atom, score
      L1  H     6    23       P1  8029  0.92
      P1  H  6934  6946       L1     4  0.02

> <Gold.Chemscore.Hbond.Weighted>
-5.0149

> <Gold.Chemscore.Metal.Weighted>
-0.0000

> <Gold.Chemscore.Lipo.Weighted>
-10.1918

> <Gold.Chemscore.Internal_Hbond.Weighted>
0.0000

> <Gold.Chemscore.DEClash.Weighted>
0.2465

> <Gold.Chemscore.DEInternal.Weighted>
2.9313

> <Gold.Chemscore.Rot.Weighted>
2.5600

> <Gold.Chemscore.Internal.Correction.Weighted>
   9.000000E+99

> <Gold.Protein.RotatedTorsions>
[ 6907 6896 6895 6894 ] final  162.00 input  -60.11 | X-H torsion
[ 7974 7965 7964 7962 ] final   51.54 input  175.53 | X-H torsion
[ 8008 7997 7996 7995 ] final   27.58 input   59.86 | X-H torsion
[ 10167 10162 10161 10158 ] final  165.90 input  -65.29 | X-H torsion
[ 10718 10713 10712 10709 ] final -155.03 input   66.30 | X-H torsion
[ 10763 10752 10751 10750 ] final  141.12 input  -60.55 | X-H torsion
[ 11005 11000 10999 10996 ] final -103.95 input  -57.11 | X-H torsion

> <Gold.Protein.ActiveResidues>
 VAL166  LYS551  ARG553  GLY616  TRP617  ASP618  TYR619  PRO620  LYS621  CYS622 
 ASP623  PHE694  ASN695  SER759  ASP760  ASP761  ALA762  ILE779  LEU786  VAL792 
 PHE793  MET794  SER795  GLU796  ALA797  LYS798  CYS799  TRP800  GLU811  SER814 

> <Gold.Protein.RotatedAtoms>
  151.9471  133.3655  159.3985 H   0  0  0  0  0  0  0  0  0  0  0  0  # atno 6907 bound_to 6896
  150.6987  134.4379  159.5288 H   0  0  0  0  0  0  0  0  0  0  0  0  # atno 6908 bound_to 6896
  152.2046  134.8557  160.0555 H   0  0  0  0  0  0  0  0  0  0  0  0  # atno 6909 bound_to 6896
  145.9903  139.4332  143.0077 H   0  0  0  0  0  0  0  0  0  0  0  0  # atno 7974 bound_to 7965
  155.0451  140.3173  155.4711 H   0  0  0  0  0  0  0  0  0  0  0  0  # atno 8008 bound_to 7997
  156.2846  140.2156  156.5519 H   0  0  0  0  0  0  0  0  0  0  0  0  # atno 8009 bound_to 7997
  154.7257  140.0485  157.0668 H   0  0  0  0  0  0  0  0  0  0  0  0  # atno 8010 bound_to 7997
  139.4914  144.4084  151.9328 H   0  0  0  0  0  0  0  0  0  0  0  0  # atno 10167 bound_to 10162
  156.5073  130.8419  151.2633 H   0  0  0  0  0  0  0  0  0  0  0  0  # atno 10718 bound_to 10713
  153.9340  135.2987  155.3445 H   0  0  0  0  0  0  0  0  0  0  0  0  # atno 10763 bound_to 10752
  154.7512  135.4979  153.9295 H   0  0  0  0  0  0  0  0  0  0  0  0  # atno 10764 bound_to 10752
  153.1077  135.6751  153.9662 H   0  0  0  0  0  0  0  0  0  0  0  0  # atno 10765 bound_to 10752
  141.1122  133.8683  157.1550 H   0  0  0  0  0  0  0  0  0  0  0  0  # atno 11005 bound_to 11000
  145.7639  140.9924  143.1185 LP  0  0  0  0  0  0  0  0  0  0  0  0  # atno 17320 bound_to 7965
  144.6887  139.9364  143.7473 LP  0  0  0  0  0  0  0  0  0  0  0  0  # atno 17321 bound_to 7965
  140.3525  144.3072  150.5947 LP  0  0  0  0  0  0  0  0  0  0  0  0  # atno 17342 bound_to 10162
  140.5473  143.2212  151.7986 LP  0  0  0  0  0  0  0  0  0  0  0  0  # atno 17343 bound_to 10162
  157.7455  130.9961  150.2769 LP  0  0  0  0  0  0  0  0  0  0  0  0  # atno 17370 bound_to 10713
  156.3274  130.3795  149.7521 LP  0  0  0  0  0  0  0  0  0  0  0  0  # atno 17371 bound_to 10713
  140.0023  135.0023  157.0217 LP  0  0  0  0  0  0  0  0  0  0  0  0  # atno 17394 bound_to 11000
  140.4743  134.1354  155.7207 LP  0  0  0  0  0  0  0  0  0  0  0  0  # atno 17395 bound_to 11000

$$$$
