AV-unprocessed.smi:1158|AV-procd|sdf|4913|dock2
  -GOLD-   22720 3493D 1   1.00000     0.00000
 Structure written by MMmdl.
 43 44  0  0  0  0  0  0  0  0  2 V2000
  152.0006  145.4564  158.7974 C   0  0  0  0  0  0  0  0  0  0  0  0
  151.4287  144.3731  158.0724 O   0  0  0  0  0  0  0  0  0  0  0  0
  151.7472  143.0832  158.4528 C   0  0  0  0  0  0  0  0  0  0  0  0
  152.6476  142.9092  159.4525 N   0  0  0  0  0  0  0  0  0  0  0  0
  152.9638  141.6509  159.8205 C   0  0  0  0  0  0  0  0  0  0  0  0
  152.4108  140.5088  159.2131 C   0  0  0  0  0  0  0  0  0  0  0  0
  151.4754  140.6864  158.1769 C   0  0  0  0  0  0  0  0  0  0  0  0
  151.1218  142.0017  157.7889 C   0  0  0  0  0  0  0  0  0  0  0  0
  150.2020  142.3016  156.7460 N   0  0  0  0  0  0  0  0  0  0  0  0
  149.6353  141.4715  155.8546 C   0  0  0  0  0  0  0  0  0  0  0  0
  149.8356  140.2601  155.7754 O   0  0  0  0  0  0  0  0  0  0  0  0
  148.7940  142.1351  155.0491 N   0  0  0  0  0  0  0  0  0  0  0  0
  147.9892  141.5388  153.9835 C   0  0  2  0  0  0  0  0  0  0  0  0
  147.1221  142.5863  153.2596 C   0  0  0  0  0  0  0  0  0  0  0  0
  145.9945  143.1184  154.1610 C   0  0  0  0  0  0  0  0  0  0  0  0
  145.1431  142.0147  154.6782 N   0  3  2  0  0  0  0  0  0  0  0  0
  143.9795  142.5322  155.4457 C   0  0  0  0  0  0  0  0  0  0  0  0
  144.2849  143.8215  156.2286 C   0  0  0  0  0  0  0  0  0  0  0  0
  143.1974  144.3124  156.8210 F   0  0  0  0  0  0  0  0  0  0  0  0
  145.1932  143.5632  157.1685 F   0  0  0  0  0  0  0  0  0  0  0  0
  145.9473  141.0085  155.4227 C   0  0  0  0  0  0  0  0  0  0  0  0
  147.0829  140.4357  154.5532 C   0  0  0  0  0  0  0  0  0  0  0  0
  151.6548  146.3978  158.3710 H   0  0  0  0  0  0  0  0  0  0  0  0
  153.0898  145.4468  158.7369 H   0  0  0  0  0  0  0  0  0  0  0  0
  151.6995  145.4378  159.8458 H   0  0  0  0  0  0  0  0  0  0  0  0
  153.6844  141.5519  160.6188 H   0  0  0  0  0  0  0  0  0  0  0  0
  152.7011  139.5185  159.5314 H   0  0  0  0  0  0  0  0  0  0  0  0
  151.0635  139.8133  157.6959 H   0  0  0  0  0  0  0  0  0  0  0  0
  149.8811  143.2585  156.7250 H   0  0  0  0  0  0  0  0  0  0  0  0
  148.6853  143.1274  155.1996 H   0  0  0  0  0  0  0  0  0  0  0  0
  148.6701  141.0824  153.2628 H   0  0  0  0  0  0  0  0  0  0  0  0
  147.7354  143.4133  152.8999 H   0  0  0  0  0  0  0  0  0  0  0  0
  146.6822  142.1320  152.3708 H   0  0  0  0  0  0  0  0  0  0  0  0
  146.4117  143.6812  154.9977 H   0  0  0  0  0  0  0  0  0  0  0  0
  145.3845  143.8164  153.5863 H   0  0  0  0  0  0  0  0  0  0  0  0
  143.1175  142.6672  154.7906 H   0  0  0  0  0  0  0  0  0  0  0  0
  143.6916  141.7734  156.1748 H   0  0  0  0  0  0  0  0  0  0  0  0
  144.7024  144.5999  155.5892 H   0  0  0  0  0  0  0  0  0  0  0  0
  146.3534  141.4621  156.3281 H   0  0  0  0  0  0  0  0  0  0  0  0
  145.3173  140.1805  155.7410 H   0  0  0  0  0  0  0  0  0  0  0  0
  146.6479  139.8690  153.7287 H   0  0  0  0  0  0  0  0  0  0  0  0
  147.6731  139.7226  155.1304 H   0  0  0  0  0  0  0  0  0  0  0  0
  144.7662  141.5467  153.8661 H   0  0  0  0  0  0  0  0  0  0  0  0
  1  2  1  0  0  0  0
  1 23  1  0  0  0  0
  1 24  1  0  0  0  0
  1 25  1  0  0  0  0
  2  3  1  0  0  0  0
  3  8  1  0  0  0  0
  3  4  2  0  0  0  0
  4  5  1  0  0  0  0
  5  6  2  0  0  0  0
  5 26  1  0  0  0  0
  6  7  1  0  0  0  0
  6 27  1  0  0  0  0
  7  8  2  0  0  0  0
  7 28  1  0  0  0  0
  8  9  1  0  0  0  0
  9 10  1  0  0  0  0
  9 29  1  0  0  0  0
 10 11  2  0  0  0  0
 10 12  1  0  0  0  0
 12 13  1  0  0  0  0
 12 30  1  0  0  0  0
 13 22  1  0  0  0  0
 13 14  1  0  0  0  0
 13 31  1  0  0  0  0
 14 15  1  0  0  0  0
 14 32  1  0  0  0  0
 14 33  1  0  0  0  0
 15 16  1  0  0  0  0
 15 34  1  0  0  0  0
 15 35  1  0  0  0  0
 16 17  1  0  0  0  0
 16 21  1  0  0  0  0
 16 43  1  0  0  0  0
 17 18  1  0  0  0  0
 17 36  1  0  0  0  0
 17 37  1  0  0  0  0
 18 19  1  0  0  0  0
 18 20  1  0  0  0  0
 18 38  1  0  0  0  0
 21 22  1  0  0  0  0
 21 39  1  0  0  0  0
 21 40  1  0  0  0  0
 22 41  1  0  0  0  0
 22 42  1  0  0  0  0
M  CHG  1  16   1
M  END
> <s_m_source_file>
AV-unprocessed.smi

> <i_m_source_file_index>
1158

> <i_lp_mmshare_version>
43012

> <i_f3d_flags>
0

> <s_epik_input>
W0NIM11PYzFuW2NIXVtjSF1bY0hdYzFbTkhdQyg9TylbTkhdW0NIXTJbQ0gyXVtDSDJdTihbQ0gyXVtDSF0oRilGKVtDSDJdW0NIMl0y

> <s_epik_cmdline>
J2VwaWtfcHl0aG9uJywgJy1waCcsICc3LjAnLCAnLXRuJywgJzgnLCAnLW1hJywgJzIwMCcsICctbWV0YWxfYmluZGluZycsICctaW1hZScsICc8aW5maWxlLm1hZT4nLCAnLW9tYWUnLCAnPG91dGZpbGUubWFlPic=

> <r_lp_tautomer_probability>
1

> <r_epik_Ionization_Penalty>
0.802109

> <r_epik_Ionization_Penalty_Charging>
0.802031

> <r_epik_Ionization_Penalty_Neutral>
7.83352e-05

> <r_epik_State_Penalty>
0.833408

> <r_epik_Charging_Adjusted_Penalty>
1.63544

> <i_epik_Tot_Q>
1

> <i_epik_Tot_abs_Q>
1

> <r_epik_Metal_State_Penalty>
0.833416

> <b_epik_Metal_Only>
0

> <s_lp_Force_Field>
OPLS_2005

> <r_lp_Energy>
20.396

> <b_lp_Chiralities_Consistent>
1

> <s_lp_Variant>
AV-unprocessed.smi:1158-3

> <Gold.Version>
5.8.1

> <Gold.Id.Protein>
6NUR|6NUR_protein|mol2

> <Gold.PLP.Fitness>
46.0575

> <Gold.PLP.PLP>
-35.3240

> <Gold.PLP.part.hbond>
-3.0000

> <Gold.PLP.part.metal>
0.0000

> <Gold.PLP.part.buried>
-7.4648

> <Gold.PLP.part.nonpolar>
-24.5189

> <Gold.PLP.part.repulsive>
0.4052

> <Gold.PLP.ligand.clash>
0.0000

> <Gold.PLP.ligand.torsion>
0.4136

> <Gold.PLP.Chemscore.Hbond>
3.8447

> <Gold.PLP.Chemscore.CHOScore>
0.0000

> <Gold.PLP.Chemscore.Metal>
0.0000

> <Gold.Chemscore.Hbonds>
donor molecule, donor type, donor heavy atom, donor atom, acceptor molecule, acceptor atom, score
      L1  H     9    29       P1  8028  0.87
      L1  H    12    30       P1  8028  1.00
      L1  H    16    43       P1 10175  1.78

> <Gold.PLP.Chemscore.Internal.Correction>
0.0264

> <Gold.Rescore>
     Score         DG    S(hbond)    S(metal)    S(lipo)     H(rot)  DE(clash)    DE(int)     intcor
     14.78     -18.55       2.49        0.00      75.14       1.58       2.11       1.66       ----

> <Gold.Chemscore.Fitness>
14.7780

> <Gold.Chemscore.DG>
-18.5468

> <Gold.Chemscore.ZeroCoef>
-5.4800

> <Gold.Chemscore.Hbond>
2.4889

> <Gold.Chemscore.Metal>
0.0000

> <Gold.Chemscore.Lipo>
75.1373

> <Gold.Chemscore.Internal_Hbond>
0.0000

> <Gold.Chemscore.DEClash>
2.1127

> <Gold.Chemscore.DEInternal>
1.6561

> <Gold.Chemscore.Rot>
1.5770

> <Gold.Chemscore.Internal.Correction>
   9.000000E+99

> <Gold.Chemscore.Hbonds>
donor molecule, donor type, donor heavy atom, donor atom, acceptor molecule, acceptor atom, score
      L1  H     9    29       P1  8028  0.81
      L1  H    12    30       P1  8028  1.00
      L1  H    16    43       P1 10175  0.17

> <Gold.Chemscore.Hbond.Weighted>
-8.3128

> <Gold.Chemscore.Metal.Weighted>
-0.0000

> <Gold.Chemscore.Lipo.Weighted>
-8.7911

> <Gold.Chemscore.Internal_Hbond.Weighted>
0.0000

> <Gold.Chemscore.DEClash.Weighted>
2.1127

> <Gold.Chemscore.DEInternal.Weighted>
1.6561

> <Gold.Chemscore.Rot.Weighted>
4.0371

> <Gold.Chemscore.Internal.Correction.Weighted>
   9.000000E+99

> <Gold.Protein.RotatedTorsions>
[ 6907 6896 6895 6894 ] final  115.60 input  -60.11 | X-H torsion
[ 7974 7965 7964 7962 ] final  -88.23 input  175.53 | X-H torsion
[ 8008 7997 7996 7995 ] final   91.92 input   59.86 | X-H torsion
[ 10167 10162 10161 10158 ] final  136.97 input  -65.29 | X-H torsion
[ 10718 10713 10712 10709 ] final  -86.97 input   66.30 | X-H torsion
[ 10763 10752 10751 10750 ] final -155.71 input  -60.55 | X-H torsion
[ 11005 11000 10999 10996 ] final   98.34 input  -57.11 | X-H torsion

> <Gold.Protein.ActiveResidues>
 VAL166  LYS551  ARG553  GLY616  TRP617  ASP618  TYR619  PRO620  LYS621  CYS622 
 ASP623  PHE694  ASN695  SER759  ASP760  ASP761  ALA762  ILE779  LEU786  VAL792 
 PHE793  MET794  SER795  GLU796  ALA797  LYS798  CYS799  TRP800  GLU811  SER814 

> <Gold.Protein.RotatedAtoms>
  152.4731  133.8076  159.6986 H   0  0  0  0  0  0  0  0  0  0  0  0  # atno 6907 bound_to 6896
  150.8732  133.7466  159.2961 H   0  0  0  0  0  0  0  0  0  0  0  0  # atno 6908 bound_to 6896
  151.4994  135.1064  159.9877 H   0  0  0  0  0  0  0  0  0  0  0  0  # atno 6909 bound_to 6896
  145.4559  140.9561  143.1996 H   0  0  0  0  0  0  0  0  0  0  0  0  # atno 7974 bound_to 7965
  156.0294  140.3332  155.7124 H   0  0  0  0  0  0  0  0  0  0  0  0  # atno 8008 bound_to 7997
  155.5906  140.0646  157.2777 H   0  0  0  0  0  0  0  0  0  0  0  0  # atno 8009 bound_to 7997
  154.4347  140.1828  156.1059 H   0  0  0  0  0  0  0  0  0  0  0  0  # atno 8010 bound_to 7997
  139.5161  144.6436  151.5502 H   0  0  0  0  0  0  0  0  0  0  0  0  # atno 10167 bound_to 10162
  155.9987  130.4783  150.4796 H   0  0  0  0  0  0  0  0  0  0  0  0  # atno 10718 bound_to 10713
  154.7767  135.3161  154.8078 H   0  0  0  0  0  0  0  0  0  0  0  0  # atno 10763 bound_to 10752
  153.8799  135.6836  153.4772 H   0  0  0  0  0  0  0  0  0  0  0  0  # atno 10764 bound_to 10752
  153.1392  135.4746  154.9406 H   0  0  0  0  0  0  0  0  0  0  0  0  # atno 10765 bound_to 10752
  139.8772  134.9044  156.4441 H   0  0  0  0  0  0  0  0  0  0  0  0  # atno 11005 bound_to 11000
  144.8032  139.6100  143.7062 LP  0  0  0  0  0  0  0  0  0  0  0  0  # atno 17320 bound_to 7965
  146.2478  139.6135  142.9448 LP  0  0  0  0  0  0  0  0  0  0  0  0  # atno 17321 bound_to 7965
  140.6212  143.9255  150.6527 LP  0  0  0  0  0  0  0  0  0  0  0  0  # atno 17342 bound_to 10162
  140.2529  143.3580  152.1390 LP  0  0  0  0  0  0  0  0  0  0  0  0  # atno 17343 bound_to 10162
  157.2803  131.0605  151.2202 LP  0  0  0  0  0  0  0  0  0  0  0  0  # atno 17370 bound_to 10713
  157.3251  130.6957  149.6291 LP  0  0  0  0  0  0  0  0  0  0  0  0  # atno 17371 bound_to 10713
  140.8978  133.7801  155.9645 LP  0  0  0  0  0  0  0  0  0  0  0  0  # atno 17394 bound_to 11000
  140.8684  134.2756  157.5202 LP  0  0  0  0  0  0  0  0  0  0  0  0  # atno 17395 bound_to 11000

$$$$
