AV-unprocessed.smi:2442|AV-procd|sdf|9626|dock2
  -GOLD-   2272013253D 1   1.00000     0.00000
 Structure written by MMmdl.
 46 47  0  0  0  0  0  0  0  0  1 V2000
  149.6898  140.7605  155.0294 C   0  0  0  0  0  0  0  0  0  0  0  0
  150.3245  139.9670  154.0394 O   0  0  0  0  0  0  0  0  0  0  0  0
  150.9905  138.8156  154.5456 C   0  0  1  0  0  0  0  0  0  0  0  0
  152.1494  139.2472  155.4699 C   0  0  0  0  0  0  0  0  0  0  0  0
  152.8039  138.0429  156.1628 C   0  0  0  0  0  0  0  0  0  0  0  0
  151.7656  137.2278  156.9454 C   0  0  0  0  0  0  0  0  0  0  0  0
  150.6215  136.7738  156.0280 C   0  0  0  0  0  0  0  0  0  0  0  0
  149.9533  137.9661  155.3160 C   0  0  2  0  0  0  0  0  0  0  0  0
  148.9387  137.4527  154.3982 N   0  0  0  0  0  0  0  0  0  0  0  0
  147.6890  137.1063  154.7351 C   0  0  0  0  0  0  0  0  0  0  0  0
  147.2281  137.1952  155.8734 O   0  0  0  0  0  0  0  0  0  0  0  0
  147.0072  136.6314  153.6826 N   0  0  0  0  0  0  0  0  0  0  0  0
  145.6438  136.1084  153.7266 C   0  0  0  0  0  0  0  0  0  0  0  0
  145.6011  134.5817  153.9474 C   0  0  0  0  0  0  0  0  0  0  0  0
  145.3009  133.7714  152.6913 C   0  0  0  0  0  0  0  0  0  0  0  0
  146.3447  133.0607  152.0602 C   0  0  0  0  0  0  0  0  0  0  0  0
  146.0510  132.2953  150.9157 C   0  0  0  0  0  0  0  0  0  0  0  0
  144.8161  132.2074  150.3808 N   0  0  0  0  0  0  0  0  0  0  0  0
  143.8201  132.8911  150.9822 C   0  0  0  0  0  0  0  0  0  0  0  0
  144.0007  133.6888  152.1332 C   0  0  0  0  0  0  0  0  0  0  0  0
  142.8123  134.4157  152.7361 C   0  0  0  0  0  0  0  0  0  0  0  0
  149.2365  141.6320  154.5571 H   0  0  0  0  0  0  0  0  0  0  0  0
  150.4082  141.1182  155.7680 H   0  0  0  0  0  0  0  0  0  0  0  0
  148.8994  140.2143  155.5437 H   0  0  0  0  0  0  0  0  0  0  0  0
  151.3856  138.2165  153.7227 H   0  0  0  0  0  0  0  0  0  0  0  0
  152.9082  139.7895  154.9066 H   0  0  0  0  0  0  0  0  0  0  0  0
  151.7737  139.9385  156.2254 H   0  0  0  0  0  0  0  0  0  0  0  0
  153.2839  137.4071  155.4177 H   0  0  0  0  0  0  0  0  0  0  0  0
  153.5922  138.3837  156.8344 H   0  0  0  0  0  0  0  0  0  0  0  0
  152.2409  136.3603  157.4043 H   0  0  0  0  0  0  0  0  0  0  0  0
  151.3646  137.8301  157.7618 H   0  0  0  0  0  0  0  0  0  0  0  0
  151.0127  136.0729  155.2888 H   0  0  0  0  0  0  0  0  0  0  0  0
  149.8803  136.2256  156.6112 H   0  0  0  0  0  0  0  0  0  0  0  0
  149.4862  138.5901  156.0808 H   0  0  0  0  0  0  0  0  0  0  0  0
  149.2168  137.3416  153.4345 H   0  0  0  0  0  0  0  0  0  0  0  0
  147.4754  136.6035  152.7888 H   0  0  0  0  0  0  0  0  0  0  0  0
  145.0669  136.6210  154.4968 H   0  0  0  0  0  0  0  0  0  0  0  0
  145.1572  136.3508  152.7818 H   0  0  0  0  0  0  0  0  0  0  0  0
  146.5409  134.2451  154.3850 H   0  0  0  0  0  0  0  0  0  0  0  0
  144.8393  134.3536  154.6939 H   0  0  0  0  0  0  0  0  0  0  0  0
  147.3512  133.0889  152.4510 H   0  0  0  0  0  0  0  0  0  0  0  0
  146.8293  131.7363  150.4178 H   0  0  0  0  0  0  0  0  0  0  0  0
  142.8453  132.7961  150.5269 H   0  0  0  0  0  0  0  0  0  0  0  0
  141.9262  134.3036  152.1107 H   0  0  0  0  0  0  0  0  0  0  0  0
  143.0162  135.4818  152.8313 H   0  0  0  0  0  0  0  0  0  0  0  0
  142.5755  134.0136  153.7205 H   0  0  0  0  0  0  0  0  0  0  0  0
  1  2  1  0  0  0  0
  1 22  1  0  0  0  0
  1 23  1  0  0  0  0
  1 24  1  0  0  0  0
  2  3  1  0  0  0  0
  3  8  1  0  0  0  0
  3  4  1  0  0  0  0
  3 25  1  0  0  0  0
  4  5  1  0  0  0  0
  4 26  1  0  0  0  0
  4 27  1  0  0  0  0
  5  6  1  0  0  0  0
  5 28  1  0  0  0  0
  5 29  1  0  0  0  0
  6  7  1  0  0  0  0
  6 30  1  0  0  0  0
  6 31  1  0  0  0  0
  7  8  1  0  0  0  0
  7 32  1  0  0  0  0
  7 33  1  0  0  0  0
  8  9  1  0  0  0  0
  8 34  1  0  0  0  0
  9 10  1  0  0  0  0
  9 35  1  0  0  0  0
 10 11  2  0  0  0  0
 10 12  1  0  0  0  0
 12 13  1  0  0  0  0
 12 36  1  0  0  0  0
 13 14  1  0  0  0  0
 13 37  1  0  0  0  0
 13 38  1  0  0  0  0
 14 15  1  0  0  0  0
 14 39  1  0  0  0  0
 14 40  1  0  0  0  0
 15 20  1  0  0  0  0
 15 16  2  0  0  0  0
 16 17  1  0  0  0  0
 16 41  1  0  0  0  0
 17 18  2  0  0  0  0
 17 42  1  0  0  0  0
 18 19  1  0  0  0  0
 19 20  2  0  0  0  0
 19 43  1  0  0  0  0
 20 21  1  0  0  0  0
 21 44  1  0  0  0  0
 21 45  1  0  0  0  0
 21 46  1  0  0  0  0
M  END
> <s_m_source_file>
AV-unprocessed.smi

> <i_m_source_file_index>
2442

> <i_lp_mmshare_version>
43012

> <i_f3d_flags>
0

> <s_epik_input>
W0NIM11PW0NAQEhdMVtDSDJdW0NIMl1bQ0gyXVtDSDJdW0NASF0xW05IXUMoPU8pW05IXVtDSDJdW0NIMl1jMltjSF1bY0hdbltjSF1jMltDSDNd

> <s_epik_cmdline>
J2VwaWtfcHl0aG9uJywgJy1waCcsICc3LjAnLCAnLXRuJywgJzgnLCAnLW1hJywgJzIwMCcsICctbWV0YWxfYmluZGluZycsICctaW1hZScsICc8aW5maWxlLm1hZT4nLCAnLW9tYWUnLCAnPG91dGZpbGUubWFlPic=

> <r_epik_Ionization_Penalty>
0.106136

> <r_epik_Ionization_Penalty_Charging>
0

> <r_epik_Ionization_Penalty_Neutral>
0.106136

> <r_epik_State_Penalty>
0.0959393

> <r_epik_Charging_Adjusted_Penalty>
0.0959393

> <i_epik_Tot_Q>
0

> <i_epik_Tot_abs_Q>
0

> <r_epik_Metal_State_Penalty>
0.0812517

> <b_epik_Metal_Only>
0

> <s_lp_Force_Field>
OPLS_2005

> <r_lp_Energy>
10.54

> <b_lp_Chiralities_Consistent>
1

> <s_lp_Variant>
AV-unprocessed.smi:2442-4

> <Gold.Version>
5.8.1

> <Gold.Id.Protein>
6NUR|6NUR_protein|mol2

> <Gold.PLP.Fitness>
43.3162

> <Gold.PLP.PLP>
-30.7822

> <Gold.PLP.part.hbond>
-3.0000

> <Gold.PLP.part.metal>
0.0000

> <Gold.PLP.part.buried>
-5.9827

> <Gold.PLP.part.nonpolar>
-23.0082

> <Gold.PLP.part.repulsive>
0.9172

> <Gold.PLP.ligand.clash>
0.0000

> <Gold.PLP.ligand.torsion>
1.0220

> <Gold.PLP.Chemscore.Hbond>
2.8400

> <Gold.PLP.Chemscore.CHOScore>
2.0000

> <Gold.PLP.Chemscore.Metal>
0.0000

> <Gold.Chemscore.Hbonds>
donor molecule, donor type, donor heavy atom, donor atom, acceptor molecule, acceptor atom, score
      L1  H     9    35       P1  7948  0.88
      L1  H    12    36       P1  7948  0.98
      P1  H  7989  7998       L1     2  1.00
      L1  C    17    42       P1 10747  1.00
      L1  C    19    43       P1 10186  0.73

> <Gold.PLP.Chemscore.Internal.Correction>
0.0580

> <Gold.Rescore>
     Score         DG    S(hbond)    S(metal)    S(lipo)     H(rot)  DE(clash)    DE(int)     intcor
     18.14     -19.29       2.66        0.00      77.85       1.64       0.01       1.13       ----

> <Gold.Chemscore.Fitness>
18.1391

> <Gold.Chemscore.DG>
-19.2856

> <Gold.Chemscore.ZeroCoef>
-5.4800

> <Gold.Chemscore.Hbond>
2.6617

> <Gold.Chemscore.Metal>
0.0000

> <Gold.Chemscore.Lipo>
77.8549

> <Gold.Chemscore.Internal_Hbond>
0.0000

> <Gold.Chemscore.DEClash>
0.0149

> <Gold.Chemscore.DEInternal>
1.1316

> <Gold.Chemscore.Rot>
1.6380

> <Gold.Chemscore.Internal.Correction>
   9.000000E+99

> <Gold.Chemscore.Hbonds>
donor molecule, donor type, donor heavy atom, donor atom, acceptor molecule, acceptor atom, score
      L1  H     9    35       P1  7948  0.86
      L1  H    12    36       P1  7948  0.93
      P1  H  7989  7998       L1     2  0.16

> <Gold.Chemscore.Hbond.Weighted>
-8.8900

> <Gold.Chemscore.Metal.Weighted>
-0.0000

> <Gold.Chemscore.Lipo.Weighted>
-9.1090

> <Gold.Chemscore.Internal_Hbond.Weighted>
0.0000

> <Gold.Chemscore.DEClash.Weighted>
0.0149

> <Gold.Chemscore.DEInternal.Weighted>
1.1316

> <Gold.Chemscore.Rot.Weighted>
4.1934

> <Gold.Chemscore.Internal.Correction.Weighted>
   9.000000E+99

> <Gold.Protein.RotatedTorsions>
[ 6907 6896 6895 6894 ] final  110.77 input  -60.11 | X-H torsion
[ 7974 7965 7964 7962 ] final -141.00 input  175.53 | X-H torsion
[ 8008 7997 7996 7995 ] final   -0.23 input   59.86 | X-H torsion
[ 10167 10162 10161 10158 ] final   84.85 input  -65.29 | X-H torsion
[ 10718 10713 10712 10709 ] final  -81.70 input   66.30 | X-H torsion
[ 10763 10752 10751 10750 ] final    9.65 input  -60.55 | X-H torsion
[ 11005 11000 10999 10996 ] final  -72.88 input  -57.11 | X-H torsion

> <Gold.Protein.ActiveResidues>
 VAL166  LYS551  ARG553  GLY616  TRP617  ASP618  TYR619  PRO620  LYS621  CYS622 
 ASP623  PHE694  ASN695  SER759  ASP760  ASP761  ALA762  ILE779  LEU786  VAL792 
 PHE793  MET794  SER795  GLU796  ALA797  LYS798  CYS799  TRP800  GLU811  SER814 

> <Gold.Protein.RotatedAtoms>
  152.5003  133.8752  159.7318 H   0  0  0  0  0  0  0  0  0  0  0  0  # atno 6907 bound_to 6896
  150.9229  133.6850  159.2835 H   0  0  0  0  0  0  0  0  0  0  0  0  # atno 6908 bound_to 6896
  151.4221  135.1003  159.9669 H   0  0  0  0  0  0  0  0  0  0  0  0  # atno 6909 bound_to 6896
  144.8553  140.6132  143.5363 H   0  0  0  0  0  0  0  0  0  0  0  0  # atno 7974 bound_to 7965
  154.6604  140.2589  155.7115 H   0  0  0  0  0  0  0  0  0  0  0  0  # atno 8008 bound_to 7997
  156.2616  140.2849  156.0996 H   0  0  0  0  0  0  0  0  0  0  0  0  # atno 8009 bound_to 7997
  155.1316  140.0378  157.2766 H   0  0  0  0  0  0  0  0  0  0  0  0  # atno 8010 bound_to 7997
  139.9038  144.6314  150.8609 H   0  0  0  0  0  0  0  0  0  0  0  0  # atno 10167 bound_to 10162
  156.0046  130.4612  150.3992 H   0  0  0  0  0  0  0  0  0  0  0  0  # atno 10718 bound_to 10713
  153.2117  135.6870  153.8106 H   0  0  0  0  0  0  0  0  0  0  0  0  # atno 10763 bound_to 10752
  153.7337  135.3249  155.3292 H   0  0  0  0  0  0  0  0  0  0  0  0  # atno 10764 bound_to 10752
  154.8225  135.4642  154.0927 H   0  0  0  0  0  0  0  0  0  0  0  0  # atno 10765 bound_to 10752
  141.1615  133.6860  156.7126 H   0  0  0  0  0  0  0  0  0  0  0  0  # atno 11005 bound_to 11000
  145.4419  139.1534  143.3966 LP  0  0  0  0  0  0  0  0  0  0  0  0  # atno 17320 bound_to 7965
  146.2818  140.4540  142.8773 LP  0  0  0  0  0  0  0  0  0  0  0  0  # atno 17321 bound_to 7965
  140.7701  143.3417  151.2194 LP  0  0  0  0  0  0  0  0  0  0  0  0  # atno 17342 bound_to 10162
  139.7002  143.9545  152.2902 LP  0  0  0  0  0  0  0  0  0  0  0  0  # atno 17343 bound_to 10162
  157.2062  131.0449  151.2624 LP  0  0  0  0  0  0  0  0  0  0  0  0  # atno 17370 bound_to 10713
  157.3930  130.7292  149.6711 LP  0  0  0  0  0  0  0  0  0  0  0  0  # atno 17371 bound_to 10713
  140.2875  134.8267  157.3988 LP  0  0  0  0  0  0  0  0  0  0  0  0  # atno 17394 bound_to 11000
  140.1376  134.5013  155.8056 LP  0  0  0  0  0  0  0  0  0  0  0  0  # atno 17395 bound_to 11000

$$$$
