#       Name:                AV-unprocessed.smi:255
#       Creating user name   scv26
#       Creation time:       Thu Mar 26 21:09:48 2020


#       File generated by GOLD software.
#

@<TRIPOS>MOLECULE
AV-unprocessed.smi:255
    54    57     1
SMALL
NO_CHARGES


@<TRIPOS>ATOM
      1 ****        -3.3761  -0.4594   3.0653 O.3            1 S1                 0.0000
      2 ****        -2.6286  -0.0412   1.9436 C.3            1 S1                 0.0000
      3 ****        -3.4371   0.9899   1.1264 C.3            1 S1                 0.0000
      4 ****        -3.7064   2.3150   1.8409 C.3            1 S1                 0.0000
      5 ****        -4.1698   3.2101   0.6913 C.3            1 S1                 0.0000
      6 ****        -3.7810   4.4729   0.8665 F              1 S1                 0.0000
      7 ****        -3.5624   2.5856  -0.5768 C.3            1 S1                 0.0000
      8 ****        -2.8620   1.3685  -0.1659 N.3            1 S1                 0.0000
      9 ****        -1.5088   1.4274  -0.2399 C.ar           1 S1                 0.0000
     10 ****        -0.8313   2.5001   0.2505 N.ar           1 S1                 0.0000
     11 ****         0.5030   2.5359   0.1839 C.ar           1 S1                 0.0000
     12 ****         1.3388   1.6240  -0.3179 N.ar           1 S1                 0.0000
     13 ****         0.6615   0.5437  -0.8028 C.ar           1 S1                 0.0000
     14 ****        -0.7504   0.3688  -0.8052 C.ar           1 S1                 0.0000
     15 ****        -1.0805  -0.8494  -1.3844 N.2            1 S1                 0.0000
     16 ****         0.0731  -1.3659  -1.7102 C.2            1 S1                 0.0000
     17 ****         1.1728  -0.6019  -1.3881 N.pl3          1 S1                 0.0000
     18 ****         2.5668  -0.9337  -1.6383 C.3            1 S1                 0.0000
     19 ****         3.2670  -1.6503  -0.4553 C.3            1 S1                 0.0000
     20 ****         3.2540  -0.8150   0.6866 O.3            1 S1                 0.0000
     21 ****         4.7005  -2.0316  -0.7865 C.3            1 S1                 0.0000
     22 ****         4.5402  -3.3763  -1.4926 C.3            1 S1                 0.0000
     23 ****         3.3490  -3.9556  -0.9679 O.3            1 S1                 0.0000
     24 ****         2.6846  -3.0283  -0.1152 C.3            1 S1                 0.0000
     25 ****        -4.3991   0.5316   0.8904 H              1 S1                 0.0000
     26 ****        -5.2580   3.2130   0.6218 H              1 S1                 0.0000
     27 ****        -3.5445   0.2933   3.6111 H              1 S1                 0.0000
     28 ****        -1.6788   0.3718   2.2854 H              1 S1                 0.0000
     29 ****        -2.4055  -0.9200   1.3379 H              1 S1                 0.0000
     30 ****        -4.4493   2.2295   2.6342 H              1 S1                 0.0000
     31 ****        -2.7863   2.7030   2.2803 H              1 S1                 0.0000
     32 ****        -4.3504   2.3167  -1.2809 H              1 S1                 0.0000
     33 ****        -2.9071   3.2889  -1.0933 H              1 S1                 0.0000
     34 ****         0.9673   3.4212   0.5927 H              1 S1                 0.0000
     35 ****         0.1546  -2.3286  -2.1937 H              1 S1                 0.0000
     36 ****         2.6069  -1.5522  -2.5356 H              1 S1                 0.0000
     37 ****         3.0957  -0.0117  -1.8834 H              1 S1                 0.0000
     38 ****         3.6895  -1.2656   1.3938 H              1 S1                 0.0000
     39 ****         5.2222  -1.2896  -1.3921 H              1 S1                 0.0000
     40 ****         5.2773  -2.1781   0.1284 H              1 S1                 0.0000
     41 ****         4.4149  -3.2350  -2.5665 H              1 S1                 0.0000
     42 ****         5.3997  -4.0287  -1.3374 H              1 S1                 0.0000
     43 ****         2.9318  -3.3018   0.9121 H              1 S1                 0.0000
     44 ****         1.6018  -3.0928  -0.2120 H              1 S1                 0.0000
     45 ****        -2.8572  -1.1409   3.5813 LP             1 S1                 0.0000
     46 ****        -4.2423  -0.8580   2.7638 LP             1 S1                 0.0000
     47 ****        -3.0132   0.6291  -0.8220 LP             1 S1                 0.0000
     48 ****        -1.3318   3.2623   0.6610 LP             1 S1                 0.0000
     49 ****         2.3340   1.7205  -0.3361 LP             1 S1                 0.0000
     50 ****        -1.9908  -1.2402  -1.5204 LP             1 S1                 0.0000
     51 ****         2.3095  -0.6136   0.9461 LP             1 S1                 0.0000
     52 ****         3.7336   0.0390   0.4850 LP             1 S1                 0.0000
     53 ****         3.5829  -4.7755  -0.4455 LP             1 S1                 0.0000
     54 ****         2.7420  -4.2033  -1.7230 LP             1 S1                 0.0000
@<TRIPOS>BOND
    1    1    2 1     
    2    1   27 1     
    3    2    3 1     
    4    2   28 1     
    5    2   29 1     
    6    3   25 1     
    7    3    8 1     
    8    3    4 1     
    9    4    5 1     
   10    4   30 1     
   11    4   31 1     
   12    5   26 1     
   13    5    6 1     
   14    5    7 1     
   15    7    8 1     
   16    7   32 1     
   17    7   33 1     
   18    8    9 1     
   19    9   14 ar    
   20    9   10 ar    
   21   10   11 ar    
   22   11   12 ar    
   23   11   34 1     
   24   12   13 ar    
   25   13   17 1     
   26   13   14 ar    
   27   14   15 1     
   28   15   16 2     
   29   16   17 1     
   30   16   35 1     
   31   17   18 1     
   32   18   19 1     
   33   18   36 1     
   34   18   37 1     
   35   19   24 1     
   36   19   20 1     
   37   19   21 1     
   38   20   38 1     
   39   21   22 1     
   40   21   39 1     
   41   21   40 1     
   42   22   23 1     
   43   22   41 1     
   44   22   42 1     
   45   23   24 1     
   46   24   43 1     
   47   24   44 1     
   48    1   45 1     
   49    1   46 1     
   50    8   47 1     
   51   10   48 1     
   52   12   49 1     
   53   15   50 1     
   54   20   51 1     
   55   20   52 1     
   56   23   53 1     
   57   23   54 1     
@<TRIPOS>SUBSTRUCTURE
      1 S1             1
@<TRIPOS>SET
LONE_PAIRS      STATIC     ATOMS    <user>   **** ""
10 45 46 47 48 49 50 51 52 53 54
DONOR_HYDROGENS      STATIC     ATOMS    <user>   **** ""
2 27 38
ATOM$BLUE        STATIC     ATOMS    COLORGROUP SYSTEM
10 45 46 47 48 49 50 51 52 53 54
ATOM$RED        STATIC     ATOMS    COLORGROUP SYSTEM
2 27 38
