#       Name:                AV-unprocessed.smi:219
#       Creating user name   scv26
#       Creation time:       Thu Mar 26 20:11:30 2020


#       File generated by GOLD software.
#

@<TRIPOS>MOLECULE
AV-unprocessed.smi:219
    60    63     1
SMALL
NO_CHARGES


@<TRIPOS>ATOM
      1 ****        -1.1871  -1.1865  -3.3332 N.am           1 S1                 0.0000
      2 ****        -1.1017  -1.2050  -2.0009 C.2            1 S1                 0.0000
      3 ****        -0.0481  -1.4474  -1.4156 O.2            1 S1                 0.0000
      4 ****        -2.3933  -0.9475  -1.2145 C.3            1 S1                 0.0000
      5 ****        -2.9198   0.5178  -1.2662 C.3            1 S1                 0.0000
      6 ****        -4.4550   0.5025  -1.0777 C.3            1 S1                 0.0000
      7 ****        -5.0560   1.9141  -1.0898 C.3            1 S1                 0.0000
      8 ****        -4.3671   2.7800  -0.0310 C.3            1 S1                 0.0000
      9 ****        -2.8516   2.7898  -0.2638 C.3            1 S1                 0.0000
     10 ****        -2.3058   1.4310  -0.2817 N.3            1 S1                 0.0000
     11 ****        -0.9547   1.4511  -0.2469 C.ar           1 S1                 0.0000
     12 ****        -0.2568   2.0521  -1.2471 N.ar           1 S1                 0.0000
     13 ****         1.0793   2.0417  -1.2243 C.ar           1 S1                 0.0000
     14 ****         1.8950   1.4919  -0.3217 N.ar           1 S1                 0.0000
     15 ****         1.1927   0.8880   0.6804 C.ar           1 S1                 0.0000
     16 ****        -0.2232   0.8342   0.8003 C.ar           1 S1                 0.0000
     17 ****        -0.5826   0.1451   1.9506 N.2            1 S1                 0.0000
     18 ****         0.5602  -0.2039   2.4758 C.2            1 S1                 0.0000
     19 ****         1.6771   0.1857   1.7698 N.pl3          1 S1                 0.0000
     20 ****         3.0640  -0.0886   2.1120 C.3            1 S1                 0.0000
     21 ****         3.5250  -1.5098   1.7097 C.3            1 S1                 0.0000
     22 ****         2.7830  -2.4610   2.4542 O.3            1 S1                 0.0000
     23 ****         5.0060  -1.7506   1.9702 C.3            1 S1                 0.0000
     24 ****         5.3639  -2.7965   0.9230 C.3            1 S1                 0.0000
     25 ****         4.6318  -2.3728  -0.2145 O.3            1 S1                 0.0000
     26 ****         3.3790  -1.8424   0.2095 C.3            1 S1                 0.0000
     27 ****        -0.3596  -1.3466  -3.8892 H              1 S1                 0.0000
     28 ****        -2.0747  -1.0085  -3.7802 H              1 S1                 0.0000
     29 ****        -3.1405  -1.6214  -1.6359 H              1 S1                 0.0000
     30 ****        -2.2672  -1.2679  -0.1793 H              1 S1                 0.0000
     31 ****        -2.7166   0.9280  -2.2568 H              1 S1                 0.0000
     32 ****        -4.9244  -0.0930  -1.8616 H              1 S1                 0.0000
     33 ****        -4.7016   0.0166  -0.1324 H              1 S1                 0.0000
     34 ****        -4.9285   2.3623  -2.0761 H              1 S1                 0.0000
     35 ****        -6.1287   1.8697  -0.9007 H              1 S1                 0.0000
     36 ****        -4.7578   3.7971  -0.0626 H              1 S1                 0.0000
     37 ****        -4.5844   2.3911   0.9647 H              1 S1                 0.0000
     38 ****        -2.6338   3.2841  -1.2118 H              1 S1                 0.0000
     39 ****        -2.3670   3.3743   0.5200 H              1 S1                 0.0000
     40 ****         1.5642   2.5379  -2.0520 H              1 S1                 0.0000
     41 ****         0.6200  -0.7714   3.3930 H              1 S1                 0.0000
     42 ****         3.6897   0.6604   1.6250 H              1 S1                 0.0000
     43 ****         3.1885   0.0605   3.1852 H              1 S1                 0.0000
     44 ****         3.0528  -3.3261   2.1862 H              1 S1                 0.0000
     45 ****         5.5778  -0.8425   1.7743 H              1 S1                 0.0000
     46 ****         5.2277  -2.0688   2.9899 H              1 S1                 0.0000
     47 ****         6.4338  -2.8426   0.7192 H              1 S1                 0.0000
     48 ****         5.0261  -3.7884   1.2271 H              1 S1                 0.0000
     49 ****         2.5791  -2.5595   0.0188 H              1 S1                 0.0000
     50 ****         3.1726  -0.9588  -0.3927 H              1 S1                 0.0000
     51 ****         0.7820  -1.6393  -1.9391 LP             1 S1                 0.0000
     52 ****        -0.0212  -1.4527  -0.4159 LP             1 S1                 0.0000
     53 ****        -2.5917   0.9918   0.5700 LP             1 S1                 0.0000
     54 ****        -0.7420   2.5007  -1.9977 LP             1 S1                 0.0000
     55 ****         2.8933   1.5192  -0.3734 LP             1 S1                 0.0000
     56 ****        -1.5025  -0.0406   2.2962 LP             1 S1                 0.0000
     57 ****         1.8062  -2.3416   2.2762 LP             1 S1                 0.0000
     58 ****         2.9612  -2.3390   3.4306 LP             1 S1                 0.0000
     59 ****         4.4774  -3.1514  -0.8226 LP             1 S1                 0.0000
     60 ****         5.1470  -1.6671  -0.7008 LP             1 S1                 0.0000
@<TRIPOS>BOND
    1    1    2 am    
    2    1   27 1     
    3    1   28 1     
    4    2    3 2     
    5    2    4 1     
    6    4    5 1     
    7    4   29 1     
    8    4   30 1     
    9    5   10 1     
   10    5    6 1     
   11    5   31 1     
   12    6    7 1     
   13    6   32 1     
   14    6   33 1     
   15    7    8 1     
   16    7   34 1     
   17    7   35 1     
   18    8    9 1     
   19    8   36 1     
   20    8   37 1     
   21    9   10 1     
   22    9   38 1     
   23    9   39 1     
   24   10   11 1     
   25   11   16 ar    
   26   11   12 ar    
   27   12   13 ar    
   28   13   14 ar    
   29   13   40 1     
   30   14   15 ar    
   31   15   19 1     
   32   15   16 ar    
   33   16   17 1     
   34   17   18 2     
   35   18   19 1     
   36   18   41 1     
   37   19   20 1     
   38   20   21 1     
   39   20   42 1     
   40   20   43 1     
   41   21   26 1     
   42   21   22 1     
   43   21   23 1     
   44   22   44 1     
   45   23   24 1     
   46   23   45 1     
   47   23   46 1     
   48   24   25 1     
   49   24   47 1     
   50   24   48 1     
   51   25   26 1     
   52   26   49 1     
   53   26   50 1     
   54    3   51 1     
   55    3   52 1     
   56   10   53 1     
   57   12   54 1     
   58   14   55 1     
   59   17   56 1     
   60   22   57 1     
   61   22   58 1     
   62   25   59 1     
   63   25   60 1     
@<TRIPOS>SUBSTRUCTURE
      1 S1             1
@<TRIPOS>SET
LONE_PAIRS      STATIC     ATOMS    <user>   **** ""
10 51 52 53 54 55 56 57 58 59 60
DONOR_HYDROGENS      STATIC     ATOMS    <user>   **** ""
3 27 28 44
ATOM$BLUE        STATIC     ATOMS    COLORGROUP SYSTEM
10 51 52 53 54 55 56 57 58 59 60
ATOM$RED        STATIC     ATOMS    COLORGROUP SYSTEM
3 27 28 44
