AV-unprocessed.smi:247|AV-procd|sdf|1891|dock6
  -GOLD-   2262020553D 1   1.00000     0.00000
 Structure written by MMmdl.
 61 65  0  0  0  0  0  0  0  0  1 V2000
  150.1554  139.5754  153.7655 O   0  0  0  0  0  0  0  0  0  0  0  0
  149.3731  140.2938  154.6992 C   0  0  0  0  0  0  0  0  0  0  0  0
  149.9374  140.2448  156.1464 C   0  0  0  0  0  0  0  0  0  0  0  0
  149.3435  138.9947  156.8697 C   0  0  0  0  0  0  0  0  0  0  0  0
  149.2856  137.7823  156.0648 N   0  0  0  0  0  0  0  0  0  0  0  0
  150.3495  137.1139  155.5030 C   0  0  0  0  0  0  0  0  0  0  0  0
  150.0392  136.0437  154.8252 N   0  0  0  0  0  0  0  0  0  0  0  0
  148.6573  135.9471  154.9473 C   0  0  0  0  0  0  0  0  0  0  0  0
  147.6752  135.0339  154.4625 C   0  0  0  0  0  0  0  0  0  0  0  0
  147.9744  133.9538  153.6913 N   0  0  0  0  0  0  0  0  0  0  0  0
  149.2442  133.2664  153.8948 C   0  0  0  0  0  0  0  0  0  0  0  0
  148.9964  131.8067  153.5161 C   0  0  0  0  0  0  0  0  0  0  0  0
  147.4781  131.6733  153.6012 C   0  0  0  0  0  0  0  0  0  0  0  0
  146.9599  133.0486  153.1424 C   0  0  2  0  0  0  0  0  0  0  0  0
  146.8162  133.1862  151.5883 C   0  0  1  0  0  0  0  0  0  0  0  0
  146.0953  131.9633  150.9684 C   0  0  0  0  0  0  0  0  0  0  0  0
  144.7446  131.9051  151.4211 O   0  0  0  0  0  0  0  0  0  0  0  0
  143.9560  133.0053  150.9775 C   0  0  0  0  0  0  0  0  0  0  0  0
  144.5483  134.3313  151.4813 C   0  0  0  0  0  0  0  0  0  0  0  0
  146.0276  134.4254  151.0840 C   0  0  1  0  0  0  0  0  0  0  0  0
  146.5810  135.6646  151.4768 O   0  0  0  0  0  0  0  0  0  0  0  0
  146.3809  135.2877  154.7895 N   0  0  0  0  0  0  0  0  0  0  0  0
  146.0624  136.3450  155.5404 C   0  0  0  0  0  0  0  0  0  0  0  0
  146.8686  137.2707  156.0607 N   0  0  0  0  0  0  0  0  0  0  0  0
  148.1700  137.0333  155.7297 C   0  0  0  0  0  0  0  0  0  0  0  0
  151.4874  140.2107  156.1044 C   0  0  0  0  0  0  0  0  0  0  0  0
  152.1156  140.3965  157.4969 C   0  0  0  0  0  0  0  0  0  0  0  0
  151.6687  141.6200  158.0683 O   0  0  0  0  0  0  0  0  0  0  0  0
  150.2612  141.6599  158.2718 C   0  0  0  0  0  0  0  0  0  0  0  0
  149.5241  141.5201  156.9259 C   0  0  0  0  0  0  0  0  0  0  0  0
  149.6712  139.5071  152.9570 H   0  0  0  0  0  0  0  0  0  0  0  0
  149.3018  141.3261  154.3552 H   0  0  0  0  0  0  0  0  0  0  0  0
  148.3666  139.8772  154.6618 H   0  0  0  0  0  0  0  0  0  0  0  0
  149.9029  138.7531  157.7721 H   0  0  0  0  0  0  0  0  0  0  0  0
  148.3312  139.2151  157.2114 H   0  0  0  0  0  0  0  0  0  0  0  0
  151.3705  137.4515  155.6045 H   0  0  0  0  0  0  0  0  0  0  0  0
  150.0344  133.7076  153.2869 H   0  0  0  0  0  0  0  0  0  0  0  0
  149.5398  133.3339  154.9427 H   0  0  0  0  0  0  0  0  0  0  0  0
  149.3282  131.6260  152.4932 H   0  0  0  0  0  0  0  0  0  0  0  0
  149.5210  131.1074  154.1676 H   0  0  0  0  0  0  0  0  0  0  0  0
  147.1019  130.8180  153.0453 H   0  0  0  0  0  0  0  0  0  0  0  0
  147.1946  131.5175  154.6431 H   0  0  0  0  0  0  0  0  0  0  0  0
  145.9809  133.2002  153.5953 H   0  0  0  0  0  0  0  0  0  0  0  0
  147.8180  133.2372  151.1602 H   0  0  0  0  0  0  0  0  0  0  0  0
  146.1109  132.0215  149.8788 H   0  0  0  0  0  0  0  0  0  0  0  0
  146.5883  131.0249  151.2103 H   0  0  0  0  0  0  0  0  0  0  0  0
  143.8978  132.9995  149.8880 H   0  0  0  0  0  0  0  0  0  0  0  0
  142.9386  132.8838  151.3492 H   0  0  0  0  0  0  0  0  0  0  0  0
  143.9880  135.1684  151.0638 H   0  0  0  0  0  0  0  0  0  0  0  0
  144.4382  134.3951  152.5631 H   0  0  0  0  0  0  0  0  0  0  0  0
  146.0763  134.4306  149.9939 H   0  0  0  0  0  0  0  0  0  0  0  0
  147.5228  135.5893  151.4690 H   0  0  0  0  0  0  0  0  0  0  0  0
  145.0104  136.4659  155.7537 H   0  0  0  0  0  0  0  0  0  0  0  0
  151.8507  139.2931  155.6434 H   0  0  0  0  0  0  0  0  0  0  0  0
  151.8577  141.0176  155.4716 H   0  0  0  0  0  0  0  0  0  0  0  0
  151.8836  139.5623  158.1592 H   0  0  0  0  0  0  0  0  0  0  0  0
  153.2016  140.4317  157.4097 H   0  0  0  0  0  0  0  0  0  0  0  0
  149.9615  140.8876  158.9804 H   0  0  0  0  0  0  0  0  0  0  0  0
  150.0065  142.6144  158.7326 H   0  0  0  0  0  0  0  0  0  0  0  0
  149.7503  142.4108  156.3393 H   0  0  0  0  0  0  0  0  0  0  0  0
  148.4457  141.5357  157.0877 H   0  0  0  0  0  0  0  0  0  0  0  0
  1  2  1  0  0  0  0
  1 31  1  0  0  0  0
  2  3  1  0  0  0  0
  2 32  1  0  0  0  0
  2 33  1  0  0  0  0
  3 30  1  0  0  0  0
  3  4  1  0  0  0  0
  3 26  1  0  0  0  0
  4  5  1  0  0  0  0
  4 34  1  0  0  0  0
  4 35  1  0  0  0  0
  5 25  1  0  0  0  0
  5  6  1  0  0  0  0
  6  7  2  0  0  0  0
  6 36  1  0  0  0  0
  7  8  1  0  0  0  0
  8 25  2  0  0  0  0
  8  9  1  0  0  0  0
  9 10  1  0  0  0  0
  9 22  2  0  0  0  0
 10 14  1  0  0  0  0
 10 11  1  0  0  0  0
 11 12  1  0  0  0  0
 11 37  1  0  0  0  0
 11 38  1  0  0  0  0
 12 13  1  0  0  0  0
 12 39  1  0  0  0  0
 12 40  1  0  0  0  0
 13 14  1  0  0  0  0
 13 41  1  0  0  0  0
 13 42  1  0  0  0  0
 14 15  1  0  0  0  0
 14 43  1  0  0  0  0
 15 20  1  0  0  0  0
 15 16  1  0  0  0  0
 15 44  1  0  0  0  0
 16 17  1  0  0  0  0
 16 45  1  0  0  0  0
 16 46  1  0  0  0  0
 17 18  1  0  0  0  0
 18 19  1  0  0  0  0
 18 47  1  0  0  0  0
 18 48  1  0  0  0  0
 19 20  1  0  0  0  0
 19 49  1  0  0  0  0
 19 50  1  0  0  0  0
 20 21  1  0  0  0  0
 20 51  1  0  0  0  0
 21 52  1  0  0  0  0
 22 23  1  0  0  0  0
 23 24  2  0  0  0  0
 23 53  1  0  0  0  0
 24 25  1  0  0  0  0
 26 27  1  0  0  0  0
 26 54  1  0  0  0  0
 26 55  1  0  0  0  0
 27 28  1  0  0  0  0
 27 56  1  0  0  0  0
 27 57  1  0  0  0  0
 28 29  1  0  0  0  0
 29 30  1  0  0  0  0
 29 58  1  0  0  0  0
 29 59  1  0  0  0  0
 30 60  1  0  0  0  0
 30 61  1  0  0  0  0
M  END
> <s_m_source_file>
AV-unprocessed.smi

> <i_m_source_file_index>
247

> <i_lp_mmshare_version>
43012

> <i_f3d_flags>
0

> <s_epik_input>
W0NIMl0xW0NIMl1PW0NIMl1bQ0gyXUMxKFtDSDJdW09IXSlbQ0gyXW4oW2NIXW4yKWMoYzIzKW5bY0hdbmMzTjRbQ0gyXVtDSDJdW0NIMl1bQ0BIXTRbQ0BASF01W0NIMl1PW0NIMl1bQ0gyXVtDQEhdNVtPSF0=

> <s_epik_cmdline>
J2VwaWtfcHl0aG9uJywgJy1waCcsICc3LjAnLCAnLXRuJywgJzgnLCAnLW1hJywgJzIwMCcsICctbWV0YWxfYmluZGluZycsICctaW1hZScsICc8aW5maWxlLm1hZT4nLCAnLW9tYWUnLCAnPG91dGZpbGUubWFlPic=

> <r_lp_tautomer_probability>
1

> <r_epik_Ionization_Penalty>
0.00362597

> <r_epik_Ionization_Penalty_Charging>
0

> <r_epik_Ionization_Penalty_Neutral>
0.00362597

> <r_epik_State_Penalty>
0.00241433

> <r_epik_Charging_Adjusted_Penalty>
0.00241433

> <i_epik_Tot_Q>
0

> <i_epik_Tot_abs_Q>
0

> <r_epik_Metal_State_Penalty>
-0

> <b_epik_Metal_Only>
0

> <s_lp_Force_Field>
OPLS_2005

> <r_lp_Energy>
63.0173

> <b_lp_Chiralities_Consistent>
1

> <s_lp_Variant>
AV-unprocessed.smi:247-4

> <Gold.Version>
5.8.1

> <Gold.Id.Protein>
6NUR|6NUR_protein|mol2

> <Gold.PLP.Fitness>
44.8468

> <Gold.PLP.PLP>
-38.4753

> <Gold.PLP.part.hbond>
-2.9020

> <Gold.PLP.part.metal>
0.0000

> <Gold.PLP.part.buried>
-4.3509

> <Gold.PLP.part.nonpolar>
-30.9693

> <Gold.PLP.part.repulsive>
0.3757

> <Gold.PLP.ligand.clash>
0.0000

> <Gold.PLP.ligand.torsion>
1.1804

> <Gold.PLP.Chemscore.Hbond>
2.8080

> <Gold.PLP.Chemscore.CHOScore>
0.0000

> <Gold.PLP.Chemscore.Metal>
0.0000

> <Gold.Chemscore.Hbonds>
donor molecule, donor type, donor heavy atom, donor atom, acceptor molecule, acceptor atom, score
      L1  H     1    31       P1  7957  0.90
      L1  H    21    52       P1  7948  0.99
      P1  H  7989  7998       L1     1  0.93

> <Gold.PLP.Chemscore.Internal.Correction>
0.3082

> <Gold.Rescore>
     Score         DG    S(hbond)    S(metal)    S(lipo)     H(rot)  DE(clash)    DE(int)     intcor
     14.10     -17.29       2.61        0.00      90.85       2.94       0.70       2.48       ----

> <Gold.Chemscore.Fitness>
14.1037

> <Gold.Chemscore.DG>
-17.2883

> <Gold.Chemscore.ZeroCoef>
-5.4800

> <Gold.Chemscore.Hbond>
2.6083

> <Gold.Chemscore.Metal>
0.0000

> <Gold.Chemscore.Lipo>
90.8452

> <Gold.Chemscore.Internal_Hbond>
0.0000

> <Gold.Chemscore.DEClash>
0.7023

> <Gold.Chemscore.DEInternal>
2.4824

> <Gold.Chemscore.Rot>
2.9423

> <Gold.Chemscore.Internal.Correction>
   9.000000E+99

> <Gold.Chemscore.Hbonds>
donor molecule, donor type, donor heavy atom, donor atom, acceptor molecule, acceptor atom, score
      L1  H     1    31       P1  7957  0.88
      L1  H    21    52       P1  7948  0.86
      P1  H  7989  7998       L1     1  0.14

> <Gold.Chemscore.Hbond.Weighted>
-8.7117

> <Gold.Chemscore.Metal.Weighted>
-0.0000

> <Gold.Chemscore.Lipo.Weighted>
-10.6289

> <Gold.Chemscore.Internal_Hbond.Weighted>
0.0000

> <Gold.Chemscore.DEClash.Weighted>
0.7023

> <Gold.Chemscore.DEInternal.Weighted>
2.4824

> <Gold.Chemscore.Rot.Weighted>
7.5323

> <Gold.Chemscore.Internal.Correction.Weighted>
   9.000000E+99

> <Gold.Protein.RotatedTorsions>
[ 6907 6896 6895 6894 ] final  -31.54 input  -60.11 | X-H torsion
[ 7974 7965 7964 7962 ] final -131.81 input  175.53 | X-H torsion
[ 8008 7997 7996 7995 ] final   27.97 input   59.86 | X-H torsion
[ 10167 10162 10161 10158 ] final   88.48 input  -65.29 | X-H torsion
[ 10718 10713 10712 10709 ] final -148.95 input   66.30 | X-H torsion
[ 10763 10752 10751 10750 ] final  -72.02 input  -60.55 | X-H torsion
[ 11005 11000 10999 10996 ] final   17.23 input  -57.11 | X-H torsion

> <Gold.Protein.ActiveResidues>
 VAL166  LYS551  ARG553  GLY616  TRP617  ASP618  TYR619  PRO620  LYS621  CYS622 
 ASP623  PHE694  ASN695  SER759  ASP760  ASP761  ALA762  ILE779  LEU786  VAL792 
 PHE793  MET794  SER795  GLU796  ALA797  LYS798  CYS799  TRP800  GLU811  SER814 

> <Gold.Protein.RotatedAtoms>
  151.0907  134.9915  159.8401 H   0  0  0  0  0  0  0  0  0  0  0  0  # atno 6907 bound_to 6896
  152.5429  134.2068  159.8744 H   0  0  0  0  0  0  0  0  0  0  0  0  # atno 6908 bound_to 6896
  151.2104  133.4515  159.2631 H   0  0  0  0  0  0  0  0  0  0  0  0  # atno 6909 bound_to 6896
  144.9344  140.7166  143.4886 H   0  0  0  0  0  0  0  0  0  0  0  0  # atno 7974 bound_to 7965
  155.0513  140.3180  155.4691 H   0  0  0  0  0  0  0  0  0  0  0  0  # atno 8008 bound_to 7997
  156.2834  140.2145  156.5582 H   0  0  0  0  0  0  0  0  0  0  0  0  # atno 8009 bound_to 7997
  154.7208  140.0489  157.0625 H   0  0  0  0  0  0  0  0  0  0  0  0  # atno 8010 bound_to 7997
  139.8668  144.6514  150.8994 H   0  0  0  0  0  0  0  0  0  0  0  0  # atno 10167 bound_to 10162
  156.4268  130.8056  151.2281 H   0  0  0  0  0  0  0  0  0  0  0  0  # atno 10718 bound_to 10713
  154.4399  135.5943  153.6122 H   0  0  0  0  0  0  0  0  0  0  0  0  # atno 10763 bound_to 10752
  152.9804  135.5995  154.3735 H   0  0  0  0  0  0  0  0  0  0  0  0  # atno 10764 bound_to 10752
  154.3584  135.2841  155.2312 H   0  0  0  0  0  0  0  0  0  0  0  0  # atno 10765 bound_to 10752
  140.4383  134.1348  155.7687 H   0  0  0  0  0  0  0  0  0  0  0  0  # atno 11005 bound_to 11000
  145.3090  139.1825  143.4649 LP  0  0  0  0  0  0  0  0  0  0  0  0  # atno 17320 bound_to 7965
  146.3260  140.3092  142.8625 LP  0  0  0  0  0  0  0  0  0  0  0  0  # atno 17321 bound_to 7965
  140.7767  143.3697  151.1672 LP  0  0  0  0  0  0  0  0  0  0  0  0  # atno 17342 bound_to 10162
  139.7321  143.9056  152.3023 LP  0  0  0  0  0  0  0  0  0  0  0  0  # atno 17343 bound_to 10162
  157.7508  131.0211  150.3735 LP  0  0  0  0  0  0  0  0  0  0  0  0  # atno 17370 bound_to 10713
  156.4064  130.3925  149.6923 LP  0  0  0  0  0  0  0  0  0  0  0  0  # atno 17371 bound_to 10713
  141.1716  133.8596  157.1551 LP  0  0  0  0  0  0  0  0  0  0  0  0  # atno 17394 bound_to 11000
  140.0087  134.9997  157.0349 LP  0  0  0  0  0  0  0  0  0  0  0  0  # atno 17395 bound_to 11000

$$$$
