AV-unprocessed.smi:2425|AV-procd|sdf|9575|dock8
  -GOLD-   2272013203D 1   1.00000     0.00000
 Structure written by MMmdl.
 35 36  0  0  0  0  0  0  0  0  3 V2000
  152.2240  144.6893  159.1825 C   0  0  0  0  0  0  0  0  0  0  0  0
  153.3679  143.6727  159.0518 C   0  0  0  0  0  0  0  0  0  0  0  0
  153.1125  142.3499  159.7899 C   0  0  0  0  0  0  0  0  0  0  0  0
  152.5357  141.3497  158.8784 N   0  0  0  0  0  0  0  0  0  0  0  0
  151.6154  141.5604  157.9235 C   0  0  0  0  0  0  0  0  0  0  0  0
  151.1105  142.6587  157.6915 O   0  0  0  0  0  0  0  0  0  0  0  0
  151.3184  140.4178  157.2812 N   0  0  0  0  0  0  0  0  0  0  0  0
  150.3767  140.2043  156.2336 C   0  0  0  0  0  0  0  0  0  0  0  0
  149.1703  140.9419  156.1461 C   0  0  0  0  0  0  0  0  0  0  0  0
  148.3091  140.7171  155.0560 C   0  0  0  0  0  0  0  0  0  0  0  0
  148.5768  139.8385  154.0702 N   0  0  0  0  0  0  0  0  0  0  0  0
  149.7325  139.1467  154.1430 C   0  0  0  0  0  0  0  0  0  0  0  0
  150.6703  139.2808  155.1925 C   0  0  0  0  0  0  0  0  0  0  0  0
  151.9015  138.4684  155.1647 N   0  3  0  0  0  0  0  0  0  0  0  0
  152.8912  138.8763  155.7641 O   0  0  0  0  0  0  0  0  0  0  0  0
  151.8639  137.4036  154.5573 O   0  5  0  0  0  0  0  0  0  0  0  0
  154.2865  141.7070  160.5564 C   0  0  0  0  0  0  0  0  0  0  0  0
  153.3159  141.2943  161.6658 C   0  0  0  0  0  0  0  0  0  0  0  0
  152.3659  142.3748  161.1439 C   0  0  0  0  0  0  0  0  0  0  0  0
  152.4431  145.5911  158.6108 H   0  0  0  0  0  0  0  0  0  0  0  0
  152.0693  144.9880  160.2193 H   0  0  0  0  0  0  0  0  0  0  0  0
  151.2861  144.2792  158.8071 H   0  0  0  0  0  0  0  0  0  0  0  0
  153.5257  143.4718  157.9916 H   0  0  0  0  0  0  0  0  0  0  0  0
  154.2944  144.1322  159.3959 H   0  0  0  0  0  0  0  0  0  0  0  0
  152.8772  140.4063  158.9892 H   0  0  0  0  0  0  0  0  0  0  0  0
  151.7490  139.5825  157.6505 H   0  0  0  0  0  0  0  0  0  0  0  0
  148.8983  141.6855  156.8792 H   0  0  0  0  0  0  0  0  0  0  0  0
  147.3847  141.2684  154.9678 H   0  0  0  0  0  0  0  0  0  0  0  0
  149.9098  138.4540  153.3334 H   0  0  0  0  0  0  0  0  0  0  0  0
  154.7790  140.8763  160.0492 H   0  0  0  0  0  0  0  0  0  0  0  0
  155.0154  142.4430  160.9003 H   0  0  0  0  0  0  0  0  0  0  0  0
  152.9237  140.2847  161.5340 H   0  0  0  0  0  0  0  0  0  0  0  0
  153.6828  141.4596  162.6792 H   0  0  0  0  0  0  0  0  0  0  0  0
  152.4910  143.3211  161.6728 H   0  0  0  0  0  0  0  0  0  0  0  0
  151.3167  142.0789  161.1228 H   0  0  0  0  0  0  0  0  0  0  0  0
  1  2  1  0  0  0  0
  1 20  1  0  0  0  0
  1 21  1  0  0  0  0
  1 22  1  0  0  0  0
  2  3  1  0  0  0  0
  2 23  1  0  0  0  0
  2 24  1  0  0  0  0
  3 19  1  0  0  0  0
  3  4  1  0  0  0  0
  3 17  1  0  0  0  0
  4  5  1  0  0  0  0
  4 25  1  0  0  0  0
  5  6  2  0  0  0  0
  5  7  1  0  0  0  0
  7  8  1  0  0  0  0
  7 26  1  0  0  0  0
  8 13  1  0  0  0  0
  8  9  2  0  0  0  0
  9 10  1  0  0  0  0
  9 27  1  0  0  0  0
 10 11  2  0  0  0  0
 10 28  1  0  0  0  0
 11 12  1  0  0  0  0
 12 13  2  0  0  0  0
 12 29  1  0  0  0  0
 13 14  1  0  0  0  0
 14 15  2  0  0  0  0
 14 16  1  0  0  0  0
 17 18  1  0  0  0  0
 17 30  1  0  0  0  0
 17 31  1  0  0  0  0
 18 19  1  0  0  0  0
 18 32  1  0  0  0  0
 18 33  1  0  0  0  0
 19 34  1  0  0  0  0
 19 35  1  0  0  0  0
M  CHG  1  14   1
M  CHG  1  16  -1
M  END
> <s_m_source_file>
AV-unprocessed.smi

> <i_m_source_file_index>
2425

> <i_lp_mmshare_version>
43012

> <i_f3d_flags>
0

> <s_epik_input>
W0NIMl0xW0NIMl1bQ0gyXUMxKFtDSDJdW0NIM10pW05IXUMoPU8pW05IXWMyW2NIXVtjSF1uW2NIXWMyW04rXSg9TylbTy1d

> <s_epik_cmdline>
J2VwaWtfcHl0aG9uJywgJy1waCcsICc3LjAnLCAnLXRuJywgJzgnLCAnLW1hJywgJzIwMCcsICctbWV0YWxfYmluZGluZycsICctaW1hZScsICc8aW5maWxlLm1hZT4nLCAnLW9tYWUnLCAnPG91dGZpbGUubWFlPic=

> <r_lp_tautomer_probability>
1

> <r_epik_Ionization_Penalty>
0.00016416

> <r_epik_Ionization_Penalty_Charging>
0

> <r_epik_Ionization_Penalty_Neutral>
0.00016416

> <r_epik_State_Penalty>
-0

> <r_epik_Charging_Adjusted_Penalty>
0

> <i_epik_Tot_Q>
0

> <i_epik_Tot_abs_Q>
2

> <r_epik_Metal_State_Penalty>
-0

> <b_epik_Metal_Only>
0

> <s_lp_Force_Field>
OPLS_2005

> <r_lp_Energy>
29.2252

> <b_lp_Chiralities_Consistent>
1

> <s_lp_Variant>
AV-unprocessed.smi:2425-1

> <Gold.Version>
5.8.1

> <Gold.Id.Protein>
6NUR|6NUR_protein|mol2

> <Gold.PLP.Fitness>
44.8147

> <Gold.PLP.PLP>
-37.6097

> <Gold.PLP.part.hbond>
-2.0000

> <Gold.PLP.part.metal>
0.0000

> <Gold.PLP.part.buried>
-5.1519

> <Gold.PLP.part.nonpolar>
-31.8426

> <Gold.PLP.part.repulsive>
1.5813

> <Gold.PLP.ligand.clash>
0.0000

> <Gold.PLP.ligand.torsion>
1.5237

> <Gold.PLP.Chemscore.Hbond>
1.9199

> <Gold.PLP.Chemscore.CHOScore>
1.3691

> <Gold.PLP.Chemscore.Metal>
0.0000

> <Gold.Chemscore.Hbonds>
donor molecule, donor type, donor heavy atom, donor atom, acceptor molecule, acceptor atom, score
      P1  H  7997  8009       L1    15  1.00
      P1  H 10752 10764       L1    16  0.79
      L1  C    12    29       P1  7948  0.36
      L1  C    12    29       P1  7957  0.27

> <Gold.PLP.Chemscore.Internal.Correction>
0.3857

> <Gold.Rescore>
     Score         DG    S(hbond)    S(metal)    S(lipo)     H(rot)  DE(clash)    DE(int)     intcor
     14.27     -20.21       1.82        0.00     100.85       1.23       0.20       5.74       ----

> <Gold.Chemscore.Fitness>
14.2706

> <Gold.Chemscore.DG>
-20.2110

> <Gold.Chemscore.ZeroCoef>
-5.4800

> <Gold.Chemscore.Hbond>
1.8192

> <Gold.Chemscore.Metal>
0.0000

> <Gold.Chemscore.Lipo>
100.8454

> <Gold.Chemscore.Internal_Hbond>
0.0000

> <Gold.Chemscore.DEClash>
0.2022

> <Gold.Chemscore.DEInternal>
5.7381

> <Gold.Chemscore.Rot>
1.2282

> <Gold.Chemscore.Internal.Correction>
   9.000000E+99

> <Gold.Chemscore.Hbonds>
donor molecule, donor type, donor heavy atom, donor atom, acceptor molecule, acceptor atom, score
      P1  H  7997  8009       L1    15  0.98
      P1  H 10752 10764       L1    16  0.75

> <Gold.Chemscore.Hbond.Weighted>
-6.0762

> <Gold.Chemscore.Metal.Weighted>
-0.0000

> <Gold.Chemscore.Lipo.Weighted>
-11.7989

> <Gold.Chemscore.Internal_Hbond.Weighted>
0.0000

> <Gold.Chemscore.DEClash.Weighted>
0.2022

> <Gold.Chemscore.DEInternal.Weighted>
5.7381

> <Gold.Chemscore.Rot.Weighted>
3.1441

> <Gold.Chemscore.Internal.Correction.Weighted>
   9.000000E+99

> <Gold.Protein.RotatedTorsions>
[ 6907 6896 6895 6894 ] final -125.01 input  -60.11 | X-H torsion
[ 7974 7965 7964 7962 ] final   33.00 input  175.53 | X-H torsion
[ 8008 7997 7996 7995 ] final -151.31 input   59.86 | X-H torsion
[ 10167 10162 10161 10158 ] final  169.45 input  -65.29 | X-H torsion
[ 10718 10713 10712 10709 ] final  125.41 input   66.30 | X-H torsion
[ 10763 10752 10751 10750 ] final  -85.65 input  -60.55 | X-H torsion
[ 11005 11000 10999 10996 ] final -163.49 input  -57.11 | X-H torsion

> <Gold.Protein.ActiveResidues>
 VAL166  LYS551  ARG553  GLY616  TRP617  ASP618  TYR619  PRO620  LYS621  CYS622 
 ASP623  PHE694  ASN695  SER759  ASP760  ASP761  ALA762  ILE779  LEU786  VAL792 
 PHE793  MET794  SER795  GLU796  ALA797  LYS798  CYS799  TRP800  GLU811  SER814 

> <Gold.Protein.RotatedAtoms>
  150.8825  133.7352  159.2927 H   0  0  0  0  0  0  0  0  0  0  0  0  # atno 6907 bound_to 6896
  151.4929  135.1057  159.9818 H   0  0  0  0  0  0  0  0  0  0  0  0  # atno 6908 bound_to 6896
  152.4769  133.8113  159.7060 H   0  0  0  0  0  0  0  0  0  0  0  0  # atno 6909 bound_to 6896
  146.1449  139.6453  142.9138 H   0  0  0  0  0  0  0  0  0  0  0  0  # atno 7974 bound_to 7965
  155.6374  140.0698  157.2629 H   0  0  0  0  0  0  0  0  0  0  0  0  # atno 8008 bound_to 7997
  154.4191  140.1756  156.1585 H   0  0  0  0  0  0  0  0  0  0  0  0  # atno 8009 bound_to 7997
  155.9884  140.3347  155.6732 H   0  0  0  0  0  0  0  0  0  0  0  0  # atno 8010 bound_to 7997
  139.4992  144.3705  151.9730 H   0  0  0  0  0  0  0  0  0  0  0  0  # atno 10167 bound_to 10162
  157.5505  131.1094  150.8710 H   0  0  0  0  0  0  0  0  0  0  0  0  # atno 10718 bound_to 10713
  154.6135  135.5477  153.7498 H   0  0  0  0  0  0  0  0  0  0  0  0  # atno 10763 bound_to 10752
  153.0205  135.6395  154.1544 H   0  0  0  0  0  0  0  0  0  0  0  0  # atno 10764 bound_to 10752
  154.1481  135.2904  155.3123 H   0  0  0  0  0  0  0  0  0  0  0  0  # atno 10765 bound_to 10752
  140.5975  134.4981  157.5201 H   0  0  0  0  0  0  0  0  0  0  0  0  # atno 11005 bound_to 11000
  145.4960  141.0438  143.2566 LP  0  0  0  0  0  0  0  0  0  0  0  0  # atno 17320 bound_to 7965
  144.7835  139.6476  143.7144 LP  0  0  0  0  0  0  0  0  0  0  0  0  # atno 17321 bound_to 7965
  140.3141  144.3504  150.6026 LP  0  0  0  0  0  0  0  0  0  0  0  0  # atno 17342 bound_to 10162
  140.5775  143.2175  151.7488 LP  0  0  0  0  0  0  0  0  0  0  0  0  # atno 17343 bound_to 10162
  156.9236  130.5324  149.5279 LP  0  0  0  0  0  0  0  0  0  0  0  0  # atno 17370 bound_to 10713
  156.0573  130.5632  150.9118 LP  0  0  0  0  0  0  0  0  0  0  0  0  # atno 17371 bound_to 10713
  139.9247  134.8080  156.1105 LP  0  0  0  0  0  0  0  0  0  0  0  0  # atno 17394 bound_to 11000
  141.0894  133.6720  156.2508 LP  0  0  0  0  0  0  0  0  0  0  0  0  # atno 17395 bound_to 11000

$$$$
