AV-unprocessed.smi:1535|AV-procd|sdf|6172|dock3
  -GOLD-   22720 6323D 1   1.00000     0.00000
 Structure written by MMmdl.
 46 47  0  0  0  0  0  0  0  0  1 V2000
  152.9187  142.9045  161.4257 C   0  0  0  0  0  0  0  0  0  0  0  0
  152.3540  142.5394  160.0642 C   0  0  0  0  0  0  0  0  0  0  0  0
  152.7524  141.3266  159.4582 C   0  0  0  0  0  0  0  0  0  0  0  0
  152.2499  140.9493  158.1935 C   0  0  0  0  0  0  0  0  0  0  0  0
  152.4990  139.8239  157.4275 N   0  0  0  0  0  0  0  0  0  0  0  0
  151.7386  140.0527  156.3608 C   0  0  0  0  0  0  0  0  0  0  0  0
  151.0276  141.1969  156.3432 N   0  0  0  0  0  0  0  0  0  0  0  0
  150.1374  141.6595  155.2904 C   0  0  0  0  0  0  0  0  0  0  0  0
  149.4453  140.5160  154.5175 C   0  0  2  0  0  0  0  0  0  0  0  0
  148.6401  141.0745  153.4981 O   0  0  0  0  0  0  0  0  0  0  0  0
  148.5472  139.6317  155.4119 C   0  0  0  0  0  0  0  0  0  0  0  0
  149.1450  139.1930  156.6761 N   0  0  0  0  0  0  0  0  0  0  0  0
  148.8411  140.1211  157.7642 C   0  0  0  0  0  0  0  0  0  0  0  0
  148.6999  137.8365  157.0034 C   0  0  0  0  0  0  0  0  0  0  0  0
  149.3754  137.1963  158.2312 C   0  0  1  0  0  0  0  0  0  0  0  0
  150.7430  137.8335  158.5059 C   0  0  0  0  0  0  0  0  0  0  0  0
  148.5154  137.2797  159.4237 C   0  0  0  0  0  0  0  0  0  0  0  0
  147.8396  137.3451  160.3607 N   0  0  0  0  0  0  0  0  0  0  0  0
  151.3315  141.8264  157.5458 C   0  0  0  0  0  0  0  0  0  0  0  0
  150.9282  143.0362  158.1387 C   0  0  0  0  0  0  0  0  0  0  0  0
  151.4398  143.3978  159.4025 C   0  0  0  0  0  0  0  0  0  0  0  0
  150.9963  144.7051  160.0344 C   0  0  0  0  0  0  0  0  0  0  0  0
  153.5520  142.1093  161.8196 H   0  0  0  0  0  0  0  0  0  0  0  0
  152.1148  143.0755  162.1417 H   0  0  0  0  0  0  0  0  0  0  0  0
  153.5211  143.8105  161.3570 H   0  0  0  0  0  0  0  0  0  0  0  0
  153.4493  140.6729  159.9615 H   0  0  0  0  0  0  0  0  0  0  0  0
  151.6986  139.3509  155.5404 H   0  0  0  0  0  0  0  0  0  0  0  0
  149.3925  142.3223  155.7333 H   0  0  0  0  0  0  0  0  0  0  0  0
  150.7160  142.2727  154.5989 H   0  0  0  0  0  0  0  0  0  0  0  0
  150.2256  139.9254  154.0406 H   0  0  0  0  0  0  0  0  0  0  0  0
  147.8545  140.5541  153.4222 H   0  0  0  0  0  0  0  0  0  0  0  0
  147.6186  140.1628  155.6254 H   0  0  0  0  0  0  0  0  0  0  0  0
  148.2567  138.7563  154.8290 H   0  0  0  0  0  0  0  0  0  0  0  0
  149.3264  139.8178  158.6905 H   0  0  0  0  0  0  0  0  0  0  0  0
  147.7669  140.1770  157.9465 H   0  0  0  0  0  0  0  0  0  0  0  0
  149.2001  141.1258  157.5486 H   0  0  0  0  0  0  0  0  0  0  0  0
  147.6170  137.8320  157.1384 H   0  0  0  0  0  0  0  0  0  0  0  0
  148.8951  137.1826  156.1520 H   0  0  0  0  0  0  0  0  0  0  0  0
  149.5439  136.1356  158.0499 H   0  0  0  0  0  0  0  0  0  0  0  0
  151.2231  137.3700  159.3682 H   0  0  0  0  0  0  0  0  0  0  0  0
  150.6483  138.9003  158.7110 H   0  0  0  0  0  0  0  0  0  0  0  0
  151.4101  137.7139  157.6521 H   0  0  0  0  0  0  0  0  0  0  0  0
  150.2310  143.6810  157.6248 H   0  0  0  0  0  0  0  0  0  0  0  0
  150.3460  145.2699  159.3657 H   0  0  0  0  0  0  0  0  0  0  0  0
  151.8580  145.3305  160.2685 H   0  0  0  0  0  0  0  0  0  0  0  0
  150.4456  144.5140  160.9557 H   0  0  0  0  0  0  0  0  0  0  0  0
  1  2  1  0  0  0  0
  1 23  1  0  0  0  0
  1 24  1  0  0  0  0
  1 25  1  0  0  0  0
  2 21  1  0  0  0  0
  2  3  2  0  0  0  0
  3  4  1  0  0  0  0
  3 26  1  0  0  0  0
  4 19  2  0  0  0  0
  4  5  1  0  0  0  0
  5  6  2  0  0  0  0
  6  7  1  0  0  0  0
  6 27  1  0  0  0  0
  7  8  1  0  0  0  0
  7 19  1  0  0  0  0
  8  9  1  0  0  0  0
  8 28  1  0  0  0  0
  8 29  1  0  0  0  0
  9 10  1  0  0  0  0
  9 11  1  0  0  0  0
  9 30  1  0  0  0  0
 10 31  1  0  0  0  0
 11 12  1  0  0  0  0
 11 32  1  0  0  0  0
 11 33  1  0  0  0  0
 12 13  1  0  0  0  0
 12 14  1  0  0  0  0
 13 34  1  0  0  0  0
 13 35  1  0  0  0  0
 13 36  1  0  0  0  0
 14 15  1  0  0  0  0
 14 37  1  0  0  0  0
 14 38  1  0  0  0  0
 15 16  1  0  0  0  0
 15 17  1  0  0  0  0
 15 39  1  0  0  0  0
 16 40  1  0  0  0  0
 16 41  1  0  0  0  0
 16 42  1  0  0  0  0
 17 18  3  0  0  0  0
 19 20  1  0  0  0  0
 20 21  2  0  0  0  0
 20 43  1  0  0  0  0
 21 22  1  0  0  0  0
 22 44  1  0  0  0  0
 22 45  1  0  0  0  0
 22 46  1  0  0  0  0
M  END
> <s_m_source_file>
AV-unprocessed.smi

> <i_m_source_file_index>
1535

> <i_lp_mmshare_version>
43012

> <i_f3d_flags>
0

> <s_epik_input>
W0NIM11jKFtjSF0xKWMoW0NIM10pW2NIXWMoYzEyKW4oW2NIXW4yKVtDSDJdW0NASF0oW09IXSlbQ0gyXU4oW0NIM10pW0NIMl1bQ0BIXShbQ0gzXSlDI04=

> <s_epik_cmdline>
J2VwaWtfcHl0aG9uJywgJy1waCcsICc3LjAnLCAnLXRuJywgJzgnLCAnLW1hJywgJzIwMCcsICctbWV0YWxfYmluZGluZycsICctaW1hZScsICc8aW5maWxlLm1hZT4nLCAnLW9tYWUnLCAnPG91dGZpbGUubWFlPic=

> <r_epik_Ionization_Penalty>
0.098511

> <r_epik_Ionization_Penalty_Charging>
0

> <r_epik_Ionization_Penalty_Neutral>
0.098511

> <r_epik_State_Penalty>
0.0881608

> <r_epik_Charging_Adjusted_Penalty>
0.0881608

> <i_epik_Tot_Q>
0

> <i_epik_Tot_abs_Q>
0

> <r_epik_Metal_State_Penalty>
0.0128087

> <b_epik_Metal_Only>
0

> <s_lp_Force_Field>
OPLS_2005

> <r_lp_Energy>
20.9194

> <b_lp_Chiralities_Consistent>
1

> <s_lp_Variant>
AV-unprocessed.smi:1535-3

> <Gold.Version>
5.8.1

> <Gold.Id.Protein>
6NUR|6NUR_protein|mol2

> <Gold.PLP.Fitness>
48.1729

> <Gold.PLP.PLP>
-41.7720

> <Gold.PLP.part.hbond>
-4.9279

> <Gold.PLP.part.metal>
0.0000

> <Gold.PLP.part.buried>
-4.6546

> <Gold.PLP.part.nonpolar>
-31.2598

> <Gold.PLP.part.repulsive>
0.0000

> <Gold.PLP.ligand.clash>
0.0000

> <Gold.PLP.ligand.torsion>
1.4444

> <Gold.PLP.Chemscore.Hbond>
2.9391

> <Gold.PLP.Chemscore.CHOScore>
0.0000

> <Gold.PLP.Chemscore.Metal>
0.0000

> <Gold.Chemscore.Hbonds>
donor molecule, donor type, donor heavy atom, donor atom, acceptor molecule, acceptor atom, score
      P1  H  6931  6943       L1    18  0.47
      P1  H  6934  6947       L1    18  0.80
      P1  H  7997  8008       L1     5  0.73
      P1  H  8011  8017       L1    10  0.75

> <Gold.PLP.Chemscore.Internal.Correction>
0.4725

> <Gold.Rescore>
     Score         DG    S(hbond)    S(metal)    S(lipo)     H(rot)  DE(clash)    DE(int)     intcor
     13.55     -18.54       2.18        0.00     104.40       2.51       0.49       4.50       ----

> <Gold.Chemscore.Fitness>
13.5525

> <Gold.Chemscore.DG>
-18.5433

> <Gold.Chemscore.ZeroCoef>
-5.4800

> <Gold.Chemscore.Hbond>
2.1790

> <Gold.Chemscore.Metal>
0.0000

> <Gold.Chemscore.Lipo>
104.3972

> <Gold.Chemscore.Internal_Hbond>
0.0000

> <Gold.Chemscore.DEClash>
0.4875

> <Gold.Chemscore.DEInternal>
4.5033

> <Gold.Chemscore.Rot>
2.5113

> <Gold.Chemscore.Internal.Correction>
   9.000000E+99

> <Gold.Chemscore.Hbonds>
donor molecule, donor type, donor heavy atom, donor atom, acceptor molecule, acceptor atom, score
      P1  H  6931  6943       L1    18  0.25
      P1  H  6934  6947       L1    18  0.77
      P1  H  7997  8008       L1     5  0.07
      P1  H  8011  8017       L1    10  0.54

> <Gold.Chemscore.Hbond.Weighted>
-7.2778

> <Gold.Chemscore.Metal.Weighted>
-0.0000

> <Gold.Chemscore.Lipo.Weighted>
-12.2145

> <Gold.Chemscore.Internal_Hbond.Weighted>
0.0000

> <Gold.Chemscore.DEClash.Weighted>
0.4875

> <Gold.Chemscore.DEInternal.Weighted>
4.5033

> <Gold.Chemscore.Rot.Weighted>
6.4289

> <Gold.Chemscore.Internal.Correction.Weighted>
   9.000000E+99

> <Gold.Protein.RotatedTorsions>
[ 6907 6896 6895 6894 ] final  -17.09 input  -60.11 | X-H torsion
[ 7974 7965 7964 7962 ] final  -83.41 input  175.53 | X-H torsion
[ 8008 7997 7996 7995 ] final  -50.94 input   59.86 | X-H torsion
[ 10167 10162 10161 10158 ] final   43.81 input  -65.29 | X-H torsion
[ 10718 10713 10712 10709 ] final  -69.72 input   66.30 | X-H torsion
[ 10763 10752 10751 10750 ] final -162.64 input  -60.55 | X-H torsion
[ 11005 11000 10999 10996 ] final   19.44 input  -57.11 | X-H torsion

> <Gold.Protein.ActiveResidues>
 VAL166  LYS551  ARG553  GLY616  TRP617  ASP618  TYR619  PRO620  LYS621  CYS622 
 ASP623  PHE694  ASN695  SER759  ASP760  ASP761  ALA762  ILE779  LEU786  VAL792 
 PHE793  MET794  SER795  GLU796  ALA797  LYS798  CYS799  TRP800  GLU811  SER814 

> <Gold.Protein.RotatedAtoms>
  151.2986  135.0762  159.9230 H   0  0  0  0  0  0  0  0  0  0  0  0  # atno 6907 bound_to 6896
  152.5302  133.9857  159.7837 H   0  0  0  0  0  0  0  0  0  0  0  0  # atno 6908 bound_to 6896
  151.0139  133.5888  159.2710 H   0  0  0  0  0  0  0  0  0  0  0  0  # atno 6909 bound_to 6896
  145.5203  140.9532  143.1659 H   0  0  0  0  0  0  0  0  0  0  0  0  # atno 7974 bound_to 7965
  154.4072  140.1260  156.4748 H   0  0  0  0  0  0  0  0  0  0  0  0  # atno 8008 bound_to 7997
  155.7143  140.3493  155.4968 H   0  0  0  0  0  0  0  0  0  0  0  0  # atno 8009 bound_to 7997
  155.9272  140.1063  157.1151 H   0  0  0  0  0  0  0  0  0  0  0  0  # atno 8010 bound_to 7997
  140.3406  144.2475  150.6156 H   0  0  0  0  0  0  0  0  0  0  0  0  # atno 10167 bound_to 10162
  156.0442  130.4318  150.2189 H   0  0  0  0  0  0  0  0  0  0  0  0  # atno 10718 bound_to 10713
  154.7196  135.3023  154.9069 H   0  0  0  0  0  0  0  0  0  0  0  0  # atno 10763 bound_to 10752
  153.9945  135.6714  153.4760 H   0  0  0  0  0  0  0  0  0  0  0  0  # atno 10764 bound_to 10752
  153.0822  135.5003  154.8443 H   0  0  0  0  0  0  0  0  0  0  0  0  # atno 10765 bound_to 10752
  140.4137  134.1591  155.7668 H   0  0  0  0  0  0  0  0  0  0  0  0  # atno 11005 bound_to 11000
  144.7679  139.6802  143.7207 LP  0  0  0  0  0  0  0  0  0  0  0  0  # atno 17320 bound_to 7965
  146.2110  139.5466  142.9681 LP  0  0  0  0  0  0  0  0  0  0  0  0  # atno 17321 bound_to 7965
  140.5312  143.2243  151.8235 LP  0  0  0  0  0  0  0  0  0  0  0  0  # atno 17342 bound_to 10162
  139.4841  144.4718  151.9416 LP  0  0  0  0  0  0  0  0  0  0  0  0  # atno 17343 bound_to 10162
  157.0280  130.9999  151.3320 LP  0  0  0  0  0  0  0  0  0  0  0  0  # atno 17370 bound_to 10713
  157.5297  130.8051  149.7903 LP  0  0  0  0  0  0  0  0  0  0  0  0  # atno 17371 bound_to 10713
  141.1811  133.8412  157.1254 LP  0  0  0  0  0  0  0  0  0  0  0  0  # atno 17394 bound_to 11000
  140.0249  134.9928  157.0666 LP  0  0  0  0  0  0  0  0  0  0  0  0  # atno 17395 bound_to 11000

$$$$
