AV-unprocessed.smi:2216|AV-procd|sdf|8967|dock6
  -GOLD-   2272012183D 1   1.00000     0.00000
 Structure written by MMmdl.
 40 41  0  0  0  0  0  0  0  0  2 V2000
  153.9058  141.3817  160.7874 C   0  0  0  0  0  0  0  0  0  0  0  0
  152.7968  142.2992  160.3010 C   0  0  0  0  0  0  0  0  0  0  0  0
  152.2340  142.1489  159.0758 C   0  0  0  0  0  0  0  0  0  0  0  0
  151.1606  143.0232  158.6035 C   0  0  0  0  0  0  0  0  0  0  0  0
  150.5002  142.9600  157.3696 N   0  0  0  0  0  0  0  0  0  0  0  0
  150.2747  141.8861  156.5923 C   0  0  0  0  0  0  0  0  0  0  0  0
  150.6525  140.7372  156.8205 O   0  0  0  0  0  0  0  0  0  0  0  0
  149.5774  142.2267  155.4992 N   0  0  0  0  0  0  0  0  0  0  0  0
  149.1851  141.3107  154.4344 C   0  0  0  0  0  0  0  0  0  0  0  0
  147.7581  140.7795  154.6503 C   0  0  0  0  0  0  0  0  0  0  0  0
  146.7684  141.8770  155.0715 C   0  0  1  0  0  0  0  0  0  0  0  0
  146.4084  142.8092  153.8982 C   0  0  0  0  0  0  0  0  0  0  0  0
  145.3619  143.8423  154.3309 C   0  0  0  0  0  0  0  0  0  0  0  0
  144.1593  143.1285  154.9571 C   0  0  0  0  0  0  0  0  0  0  0  0
  144.6240  142.1754  156.0696 C   0  0  0  0  0  0  0  0  0  0  0  0
  145.5788  141.2536  155.5527 O   0  0  0  0  0  0  0  0  0  0  0  0
  150.8049  143.9766  159.5360 C   0  0  0  0  0  0  0  0  0  0  0  0
  151.3170  144.1903  160.7672 N   0  5  0  0  0  0  0  0  0  0  0  0
  152.3229  143.3747  161.1953 C   0  0  0  0  0  0  0  0  0  0  0  0
  152.8414  143.5125  162.3026 O   0  0  0  0  0  0  0  0  0  0  0  0
  154.1637  140.6352  160.0355 H   0  0  0  0  0  0  0  0  0  0  0  0
  153.5960  140.8562  161.6912 H   0  0  0  0  0  0  0  0  0  0  0  0
  154.8045  141.9563  161.0131 H   0  0  0  0  0  0  0  0  0  0  0  0
  152.5982  141.3465  158.4552 H   0  0  0  0  0  0  0  0  0  0  0  0
  150.1533  143.8446  157.0290 H   0  0  0  0  0  0  0  0  0  0  0  0
  149.3064  143.1931  155.3923 H   0  0  0  0  0  0  0  0  0  0  0  0
  149.2723  141.8020  153.4639 H   0  0  0  0  0  0  0  0  0  0  0  0
  149.8931  140.4816  154.4252 H   0  0  0  0  0  0  0  0  0  0  0  0
  147.4104  140.3195  153.7246 H   0  0  0  0  0  0  0  0  0  0  0  0
  147.7648  139.9888  155.4019 H   0  0  0  0  0  0  0  0  0  0  0  0
  147.2161  142.4653  155.8747 H   0  0  0  0  0  0  0  0  0  0  0  0
  147.3005  143.3165  153.5298 H   0  0  0  0  0  0  0  0  0  0  0  0
  146.0178  142.2211  153.0667 H   0  0  0  0  0  0  0  0  0  0  0  0
  145.8007  144.5285  155.0563 H   0  0  0  0  0  0  0  0  0  0  0  0
  145.0460  144.4448  153.4787 H   0  0  0  0  0  0  0  0  0  0  0  0
  143.4516  143.8571  155.3534 H   0  0  0  0  0  0  0  0  0  0  0  0
  143.6292  142.5618  154.1906 H   0  0  0  0  0  0  0  0  0  0  0  0
  145.0546  142.7309  156.9040 H   0  0  0  0  0  0  0  0  0  0  0  0
  143.7745  141.6175  156.4638 H   0  0  0  0  0  0  0  0  0  0  0  0
  149.9896  144.6749  159.2480 H   0  0  0  0  0  0  0  0  0  0  0  0
  1  2  1  0  0  0  0
  1 21  1  0  0  0  0
  1 22  1  0  0  0  0
  1 23  1  0  0  0  0
  2 19  1  0  0  0  0
  2  3  2  0  0  0  0
  3  4  1  0  0  0  0
  3 24  1  0  0  0  0
  4  5  1  0  0  0  0
  4 17  2  0  0  0  0
  5  6  1  0  0  0  0
  5 25  1  0  0  0  0
  6  7  2  0  0  0  0
  6  8  1  0  0  0  0
  8  9  1  0  0  0  0
  8 26  1  0  0  0  0
  9 10  1  0  0  0  0
  9 27  1  0  0  0  0
  9 28  1  0  0  0  0
 10 11  1  0  0  0  0
 10 29  1  0  0  0  0
 10 30  1  0  0  0  0
 11 16  1  0  0  0  0
 11 12  1  0  0  0  0
 11 31  1  0  0  0  0
 12 13  1  0  0  0  0
 12 32  1  0  0  0  0
 12 33  1  0  0  0  0
 13 14  1  0  0  0  0
 13 34  1  0  0  0  0
 13 35  1  0  0  0  0
 14 15  1  0  0  0  0
 14 36  1  0  0  0  0
 14 37  1  0  0  0  0
 15 16  1  0  0  0  0
 15 38  1  0  0  0  0
 15 39  1  0  0  0  0
 17 18  1  0  0  0  0
 17 40  1  0  0  0  0
 18 19  1  0  0  0  0
 19 20  2  0  0  0  0
M  CHG  1  18  -1
M  END
> <s_m_source_file>
AV-unprocessed.smi

> <i_m_source_file_index>
2216

> <i_lp_mmshare_version>
43012

> <i_f3d_flags>
0

> <s_epik_input>
Tz1jMVtuSF1bY0hdYyhbY0hdYzFbQ0gzXSlbTkhdQyg9TylbTkhdW0NIMl1bQ0gyXVtDQEBIXTJbQ0gyXVtDSDJdW0NIMl1bQ0gyXU8y

> <s_epik_cmdline>
J2VwaWtfcHl0aG9uJywgJy1waCcsICc3LjAnLCAnLXRuJywgJzgnLCAnLW1hJywgJzIwMCcsICctbWV0YWxfYmluZGluZycsICctaW1hZScsICc8aW5maWxlLm1hZT4nLCAnLW9tYWUnLCAnPG91dGZpbGUubWFlPic=

> <r_lp_tautomer_probability>
1

> <r_epik_Ionization_Penalty>
7.55627

> <r_epik_Ionization_Penalty_Charging>
1.50531

> <r_epik_Ionization_Penalty_Neutral>
6.05097

> <r_epik_State_Penalty>
6.05091

> <r_epik_Charging_Adjusted_Penalty>
7.55622

> <i_epik_Tot_Q>
-1

> <i_epik_Tot_abs_Q>
1

> <r_epik_Metal_State_Penalty>
2.00009

> <b_epik_Metal_Only>
1

> <s_lp_Force_Field>
OPLS_2005

> <r_lp_Energy>
20.9745

> <b_lp_Chiralities_Consistent>
1

> <s_lp_Variant>
AV-unprocessed.smi:2216-4

> <Gold.Version>
5.8.1

> <Gold.Id.Protein>
6NUR|6NUR_protein|mol2

> <Gold.PLP.Fitness>
44.3858

> <Gold.PLP.PLP>
-39.7538

> <Gold.PLP.part.hbond>
-1.9935

> <Gold.PLP.part.metal>
0.0000

> <Gold.PLP.part.buried>
-5.1480

> <Gold.PLP.part.nonpolar>
-32.0029

> <Gold.PLP.part.repulsive>
0.5938

> <Gold.PLP.ligand.clash>
0.0000

> <Gold.PLP.ligand.torsion>
0.5102

> <Gold.PLP.Chemscore.Hbond>
1.8800

> <Gold.PLP.Chemscore.CHOScore>
0.0000

> <Gold.PLP.Chemscore.Metal>
0.0000

> <Gold.Chemscore.Hbonds>
donor molecule, donor type, donor heavy atom, donor atom, acceptor molecule, acceptor atom, score
      L1  H     5    25       P1  8028  0.86
      L1  H     8    26       P1  8028  1.00

> <Gold.PLP.Chemscore.Internal.Correction>
0.0125

> <Gold.Rescore>
     Score         DG    S(hbond)    S(metal)    S(lipo)     H(rot)  DE(clash)    DE(int)     intcor
     16.75     -17.83       1.93        0.00      82.55       1.47       0.04       1.05       ----

> <Gold.Chemscore.Fitness>
16.7487

> <Gold.Chemscore.DG>
-17.8326

> <Gold.Chemscore.ZeroCoef>
-5.4800

> <Gold.Chemscore.Hbond>
1.9339

> <Gold.Chemscore.Metal>
0.0000

> <Gold.Chemscore.Lipo>
82.5548

> <Gold.Chemscore.Internal_Hbond>
0.0000

> <Gold.Chemscore.DEClash>
0.0383

> <Gold.Chemscore.DEInternal>
1.0456

> <Gold.Chemscore.Rot>
1.4709

> <Gold.Chemscore.Internal.Correction>
   9.000000E+99

> <Gold.Chemscore.Hbonds>
donor molecule, donor type, donor heavy atom, donor atom, acceptor molecule, acceptor atom, score
      L1  H     5    25       P1  8028  0.79
      L1  H     8    26       P1  8028  0.99

> <Gold.Chemscore.Hbond.Weighted>
-6.4592

> <Gold.Chemscore.Metal.Weighted>
-0.0000

> <Gold.Chemscore.Lipo.Weighted>
-9.6589

> <Gold.Chemscore.Internal_Hbond.Weighted>
0.0000

> <Gold.Chemscore.DEClash.Weighted>
0.0383

> <Gold.Chemscore.DEInternal.Weighted>
1.0456

> <Gold.Chemscore.Rot.Weighted>
3.7654

> <Gold.Chemscore.Internal.Correction.Weighted>
   9.000000E+99

> <Gold.Protein.RotatedTorsions>
[ 6907 6896 6895 6894 ] final -163.50 input  -60.11 | X-H torsion
[ 7974 7965 7964 7962 ] final -162.03 input  175.53 | X-H torsion
[ 8008 7997 7996 7995 ] final   21.57 input   59.86 | X-H torsion
[ 10167 10162 10161 10158 ] final -164.26 input  -65.29 | X-H torsion
[ 10718 10713 10712 10709 ] final  -89.52 input   66.30 | X-H torsion
[ 10763 10752 10751 10750 ] final  -62.75 input  -60.55 | X-H torsion
[ 11005 11000 10999 10996 ] final   37.85 input  -57.11 | X-H torsion

> <Gold.Protein.ActiveResidues>
 VAL166  LYS551  ARG553  GLY616  TRP617  ASP618  TYR619  PRO620  LYS621  CYS622 
 ASP623  PHE694  ASN695  SER759  ASP760  ASP761  ALA762  ILE779  LEU786  VAL792 
 PHE793  MET794  SER795  GLU796  ALA797  LYS798  CYS799  TRP800  GLU811  SER814 

> <Gold.Protein.RotatedAtoms>
  151.3969  133.3770  159.2727 H   0  0  0  0  0  0  0  0  0  0  0  0  # atno 6907 bound_to 6896
  150.9462  134.8868  159.7654 H   0  0  0  0  0  0  0  0  0  0  0  0  # atno 6908 bound_to 6896
  152.5093  134.3922  159.9440 H   0  0  0  0  0  0  0  0  0  0  0  0  # atno 6909 bound_to 6896
  144.7371  140.3311  143.6153 H   0  0  0  0  0  0  0  0  0  0  0  0  # atno 7974 bound_to 7965
  154.9526  140.3067  155.5068 H   0  0  0  0  0  0  0  0  0  0  0  0  # atno 8008 bound_to 7997
  156.2985  140.2316  156.4543 H   0  0  0  0  0  0  0  0  0  0  0  0  # atno 8009 bound_to 7997
  154.8040  140.0432  157.1282 H   0  0  0  0  0  0  0  0  0  0  0  0  # atno 8010 bound_to 7997
  139.6263  144.0527  152.1977 H   0  0  0  0  0  0  0  0  0  0  0  0  # atno 10167 bound_to 10162
  155.9984  130.4875  150.5183 H   0  0  0  0  0  0  0  0  0  0  0  0  # atno 10718 bound_to 10713
  154.3046  135.6228  153.5439 H   0  0  0  0  0  0  0  0  0  0  0  0  # atno 10763 bound_to 10752
  152.9836  135.5687  154.5245 H   0  0  0  0  0  0  0  0  0  0  0  0  # atno 10764 bound_to 10752
  154.4883  135.2866  155.1493 H   0  0  0  0  0  0  0  0  0  0  0  0  # atno 10765 bound_to 10752
  140.2185  134.3669  155.8016 H   0  0  0  0  0  0  0  0  0  0  0  0  # atno 11005 bound_to 11000
  145.7470  139.1782  143.2343 LP  0  0  0  0  0  0  0  0  0  0  0  0  # atno 17320 bound_to 7965
  146.1090  140.7452  142.9512 LP  0  0  0  0  0  0  0  0  0  0  0  0  # atno 17321 bound_to 7965
  140.0181  144.6174  150.7590 LP  0  0  0  0  0  0  0  0  0  0  0  0  # atno 17342 bound_to 10162
  140.7412  143.2815  151.3584 LP  0  0  0  0  0  0  0  0  0  0  0  0  # atno 17343 bound_to 10162
  157.3148  131.0670  151.1975 LP  0  0  0  0  0  0  0  0  0  0  0  0  # atno 17370 bound_to 10713
  157.2909  130.6795  149.6113 LP  0  0  0  0  0  0  0  0  0  0  0  0  # atno 17371 bound_to 10713
  141.2224  133.7181  156.8536 LP  0  0  0  0  0  0  0  0  0  0  0  0  # atno 17394 bound_to 11000
  140.1875  134.8989  157.3021 LP  0  0  0  0  0  0  0  0  0  0  0  0  # atno 17395 bound_to 11000

$$$$
