AV-unprocessed.smi:646|AV-procd|sdf|3165|dock3
  -GOLD-   22720 0 83D 1   1.00000     0.00000
 Structure written by MMmdl.
 44 45  0  0  0  0  0  0  0  0  1 V2000
  144.6157  138.1692  160.7693 C   0  0  0  0  0  0  0  0  0  0  0  0
  145.7877  137.6032  161.3440 O   0  0  0  0  0  0  0  0  0  0  0  0
  145.8302  136.1765  161.4865 C   0  0  1  0  0  0  0  0  0  0  0  0
  144.6247  135.6884  162.3009 C   0  0  0  0  0  0  0  0  0  0  0  0
  146.1386  135.5168  160.1291 C   0  0  0  0  0  0  0  0  0  0  0  0
  147.6315  135.6517  160.4359 C   0  0  1  0  0  0  0  0  0  0  0  0
  148.1781  136.8806  159.8633 N   0  0  0  0  0  0  0  0  0  0  0  0
  149.2200  136.9454  159.0216 C   0  0  0  0  0  0  0  0  0  0  0  0
  149.8324  135.9559  158.6216 O   0  0  0  0  0  0  0  0  0  0  0  0
  149.6486  138.3442  158.5751 C   0  0  0  0  0  0  0  0  0  0  0  0
  150.9333  138.2712  157.7889 C   0  0  0  0  0  0  0  0  0  0  0  0
  152.1353  139.0019  158.0113 C   0  0  0  0  0  0  0  0  0  0  0  0
  152.4208  140.0192  159.0782 C   0  0  0  0  0  0  0  0  0  0  0  0
  153.0734  138.6896  157.1333 N   0  0  0  0  0  0  0  0  0  0  0  0
  152.5059  137.7267  156.2932 O   0  0  0  0  0  0  0  0  0  0  0  0
  151.2338  137.4929  156.7044 C   0  0  0  0  0  0  0  0  0  0  0  0
  150.4600  136.4790  155.9314 C   0  0  0  0  0  0  0  0  0  0  0  0
  147.2689  135.7631  161.9407 C   0  0  0  0  0  0  0  0  0  0  0  0
  148.0454  136.7699  162.8058 C   0  0  0  0  0  0  0  0  0  0  0  0
  147.3763  134.4241  162.6859 C   0  0  0  0  0  0  0  0  0  0  0  0
  144.7847  139.2309  160.5920 H   0  0  0  0  0  0  0  0  0  0  0  0
  143.7595  138.0899  161.4387 H   0  0  0  0  0  0  0  0  0  0  0  0
  144.3579  137.7128  159.8142 H   0  0  0  0  0  0  0  0  0  0  0  0
  144.6857  134.6228  162.5190 H   0  0  0  0  0  0  0  0  0  0  0  0
  143.6865  135.8312  161.7657 H   0  0  0  0  0  0  0  0  0  0  0  0
  144.5509  136.2132  163.2536 H   0  0  0  0  0  0  0  0  0  0  0  0
  145.8180  134.4746  160.0895 H   0  0  0  0  0  0  0  0  0  0  0  0
  145.8037  136.0547  159.2422 H   0  0  0  0  0  0  0  0  0  0  0  0
  148.1935  134.7512  160.1816 H   0  0  0  0  0  0  0  0  0  0  0  0
  147.7399  137.7461  160.1433 H   0  0  0  0  0  0  0  0  0  0  0  0
  148.8431  138.7836  157.9858 H   0  0  0  0  0  0  0  0  0  0  0  0
  149.7607  138.9809  159.4535 H   0  0  0  0  0  0  0  0  0  0  0  0
  151.6956  140.8323  159.0443 H   0  0  0  0  0  0  0  0  0  0  0  0
  153.4140  140.4562  158.9676 H   0  0  0  0  0  0  0  0  0  0  0  0
  152.3655  139.5678  160.0689 H   0  0  0  0  0  0  0  0  0  0  0  0
  149.5506  136.1919  156.4593 H   0  0  0  0  0  0  0  0  0  0  0  0
  151.0531  135.5782  155.7731 H   0  0  0  0  0  0  0  0  0  0  0  0
  150.1747  136.8732  154.9562 H   0  0  0  0  0  0  0  0  0  0  0  0
  149.0894  136.4751  162.9177 H   0  0  0  0  0  0  0  0  0  0  0  0
  147.6175  136.8483  163.8057 H   0  0  0  0  0  0  0  0  0  0  0  0
  148.0474  137.7751  162.3849 H   0  0  0  0  0  0  0  0  0  0  0  0
  148.4158  134.1171  162.8053 H   0  0  0  0  0  0  0  0  0  0  0  0
  146.8700  133.6188  162.1532 H   0  0  0  0  0  0  0  0  0  0  0  0
  146.9369  134.4795  163.6825 H   0  0  0  0  0  0  0  0  0  0  0  0
  1  2  1  0  0  0  0
  1 21  1  0  0  0  0
  1 22  1  0  0  0  0
  1 23  1  0  0  0  0
  2  3  1  0  0  0  0
  3 18  1  0  0  0  0
  3  4  1  0  0  0  0
  3  5  1  0  0  0  0
  4 24  1  0  0  0  0
  4 25  1  0  0  0  0
  4 26  1  0  0  0  0
  5  6  1  0  0  0  0
  5 27  1  0  0  0  0
  5 28  1  0  0  0  0
  6  7  1  0  0  0  0
  6 18  1  0  0  0  0
  6 29  1  0  0  0  0
  7  8  1  0  0  0  0
  7 30  1  0  0  0  0
  8  9  2  0  0  0  0
  8 10  1  0  0  0  0
 10 11  1  0  0  0  0
 10 31  1  0  0  0  0
 10 32  1  0  0  0  0
 11 16  2  0  0  0  0
 11 12  1  0  0  0  0
 12 13  1  0  0  0  0
 12 14  2  0  0  0  0
 13 33  1  0  0  0  0
 13 34  1  0  0  0  0
 13 35  1  0  0  0  0
 14 15  1  0  0  0  0
 15 16  1  0  0  0  0
 16 17  1  0  0  0  0
 17 36  1  0  0  0  0
 17 37  1  0  0  0  0
 17 38  1  0  0  0  0
 18 19  1  0  0  0  0
 18 20  1  0  0  0  0
 19 39  1  0  0  0  0
 19 40  1  0  0  0  0
 19 41  1  0  0  0  0
 20 42  1  0  0  0  0
 20 43  1  0  0  0  0
 20 44  1  0  0  0  0
M  END
> <s_m_source_file>
AV-unprocessed.smi

> <i_m_source_file_index>
646

> <i_lp_mmshare_version>
43012

> <i_f3d_flags>
0

> <s_epik_input>
W0NIM11PW0NAQF0xKFtDSDNdKVtDSDJdW0NASF0oQzEoW0NIM10pW0NIM10pW05IXUMoPU8pW0NIMl1jMmMoW0NIM10pbm9jMltDSDNd

> <s_epik_cmdline>
J2VwaWtfcHl0aG9uJywgJy1waCcsICc3LjAnLCAnLXRuJywgJzgnLCAnLW1hJywgJzIwMCcsICctbWV0YWxfYmluZGluZycsICctaW1hZScsICc8aW5maWxlLm1hZT4nLCAnLW9tYWUnLCAnPG91dGZpbGUubWFlPic=

> <r_lp_tautomer_probability>
1

> <r_epik_Ionization_Penalty>
2.13169e-08

> <r_epik_Ionization_Penalty_Charging>
0

> <r_epik_Ionization_Penalty_Neutral>
2.13169e-08

> <r_epik_State_Penalty>
-0

> <r_epik_Charging_Adjusted_Penalty>
0

> <i_epik_Tot_Q>
0

> <i_epik_Tot_abs_Q>
0

> <r_epik_Metal_State_Penalty>
-0

> <b_epik_Metal_Only>
0

> <s_lp_Force_Field>
OPLS_2005

> <r_lp_Energy>
17.7516

> <b_lp_Chiralities_Consistent>
1

> <s_lp_Variant>
AV-unprocessed.smi:646-1

> <Gold.Version>
5.8.1

> <Gold.Id.Protein>
6NUR|6NUR_protein|mol2

> <Gold.PLP.Fitness>
37.1649

> <Gold.PLP.PLP>
-28.4379

> <Gold.PLP.part.hbond>
-3.0000

> <Gold.PLP.part.metal>
0.0000

> <Gold.PLP.part.buried>
-3.2675

> <Gold.PLP.part.nonpolar>
-21.7061

> <Gold.PLP.part.repulsive>
0.2102

> <Gold.PLP.ligand.clash>
0.0000

> <Gold.PLP.ligand.torsion>
0.3287

> <Gold.PLP.Chemscore.Hbond>
2.9920

> <Gold.PLP.Chemscore.CHOScore>
0.0000

> <Gold.PLP.Chemscore.Metal>
0.0000

> <Gold.Chemscore.Hbonds>
donor molecule, donor type, donor heavy atom, donor atom, acceptor molecule, acceptor atom, score
      P1  H  6896  6907       L1     9  1.00
      P1  H  6934  6947       L1     2  0.99
      P1  H  7997  8008       L1    14  1.00

> <Gold.PLP.Chemscore.Internal.Correction>
0.4083

> <Gold.Rescore>
     Score         DG    S(hbond)    S(metal)    S(lipo)     H(rot)  DE(clash)    DE(int)     intcor
     16.52     -18.76       2.63        0.00      71.00       1.49       1.03       1.20       ----

> <Gold.Chemscore.Fitness>
16.5249

> <Gold.Chemscore.DG>
-18.7596

> <Gold.Chemscore.ZeroCoef>
-5.4800

> <Gold.Chemscore.Hbond>
2.6329

> <Gold.Chemscore.Metal>
0.0000

> <Gold.Chemscore.Lipo>
71.0022

> <Gold.Chemscore.Internal_Hbond>
0.0000

> <Gold.Chemscore.DEClash>
1.0345

> <Gold.Chemscore.DEInternal>
1.2002

> <Gold.Chemscore.Rot>
1.4928

> <Gold.Chemscore.Internal.Correction>
   9.000000E+99

> <Gold.Chemscore.Hbonds>
donor molecule, donor type, donor heavy atom, donor atom, acceptor molecule, acceptor atom, score
      P1  H  6896  6907       L1     9  0.95
      P1  H  6934  6947       L1     2  0.27
      P1  H  7997  8008       L1    14  0.93

> <Gold.Chemscore.Hbond.Weighted>
-8.7940

> <Gold.Chemscore.Metal.Weighted>
-0.0000

> <Gold.Chemscore.Lipo.Weighted>
-8.3073

> <Gold.Chemscore.Internal_Hbond.Weighted>
0.0000

> <Gold.Chemscore.DEClash.Weighted>
1.0345

> <Gold.Chemscore.DEInternal.Weighted>
1.2002

> <Gold.Chemscore.Rot.Weighted>
3.8217

> <Gold.Chemscore.Internal.Correction.Weighted>
   9.000000E+99

> <Gold.Protein.RotatedTorsions>
[ 6907 6896 6895 6894 ] final  -72.82 input  -60.11 | X-H torsion
[ 7974 7965 7964 7962 ] final  140.28 input  175.53 | X-H torsion
[ 8008 7997 7996 7995 ] final  -72.49 input   59.86 | X-H torsion
[ 10167 10162 10161 10158 ] final -111.66 input  -65.29 | X-H torsion
[ 10718 10713 10712 10709 ] final    6.02 input   66.30 | X-H torsion
[ 10763 10752 10751 10750 ] final  105.56 input  -60.55 | X-H torsion
[ 11005 11000 10999 10996 ] final  115.87 input  -57.11 | X-H torsion

> <Gold.Protein.ActiveResidues>
 VAL166  LYS551  ARG553  GLY616  TRP617  ASP618  TYR619  PRO620  LYS621  CYS622 
 ASP623  PHE694  ASN695  SER759  ASP760  ASP761  ALA762  ILE779  LEU786  VAL792 
 PHE793  MET794  SER795  GLU796  ALA797  LYS798  CYS799  TRP800  GLU811  SER814 

> <Gold.Protein.RotatedAtoms>
  150.7154  134.5107  159.5605 H   0  0  0  0  0  0  0  0  0  0  0  0  # atno 6907 bound_to 6896
  152.2684  134.7956  160.0427 H   0  0  0  0  0  0  0  0  0  0  0  0  # atno 6908 bound_to 6896
  151.8644  133.3428  159.3751 H   0  0  0  0  0  0  0  0  0  0  0  0  # atno 6909 bound_to 6896
  144.9201  139.5179  143.5667 H   0  0  0  0  0  0  0  0  0  0  0  0  # atno 7974 bound_to 7965
  154.5170  140.0796  156.8100 H   0  0  0  0  0  0  0  0  0  0  0  0  # atno 8008 bound_to 7997
  155.3658  140.3420  155.4224 H   0  0  0  0  0  0  0  0  0  0  0  0  # atno 8009 bound_to 7997
  156.1639  140.1597  156.8552 H   0  0  0  0  0  0  0  0  0  0  0  0  # atno 8010 bound_to 7997
  140.1312  143.4359  152.1626 H   0  0  0  0  0  0  0  0  0  0  0  0  # atno 10167 bound_to 10162
  156.9159  130.5773  149.5647 H   0  0  0  0  0  0  0  0  0  0  0  0  # atno 10718 bound_to 10713
  153.3810  135.3906  155.1857 H   0  0  0  0  0  0  0  0  0  0  0  0  # atno 10763 bound_to 10752
  154.8707  135.3725  154.4857 H   0  0  0  0  0  0  0  0  0  0  0  0  # atno 10764 bound_to 10752
  153.5334  135.7085  153.5733 H   0  0  0  0  0  0  0  0  0  0  0  0  # atno 10765 bound_to 10752
  139.9023  134.9590  156.7112 H   0  0  0  0  0  0  0  0  0  0  0  0  # atno 11005 bound_to 11000
  146.3201  139.8074  142.8953 LP  0  0  0  0  0  0  0  0  0  0  0  0  # atno 17320 bound_to 7965
  145.3310  141.0266  143.3446 LP  0  0  0  0  0  0  0  0  0  0  0  0  # atno 17321 bound_to 7965
  139.5518  144.7344  151.4411 LP  0  0  0  0  0  0  0  0  0  0  0  0  # atno 17342 bound_to 10162
  140.6816  143.8069  150.7129 LP  0  0  0  0  0  0  0  0  0  0  0  0  # atno 17343 bound_to 10162
  156.0513  130.5582  150.8996 LP  0  0  0  0  0  0  0  0  0  0  0  0  # atno 17370 bound_to 10713
  157.5938  131.0943  150.9075 LP  0  0  0  0  0  0  0  0  0  0  0  0  # atno 17371 bound_to 10713
  140.7074  133.9253  155.8063 LP  0  0  0  0  0  0  0  0  0  0  0  0  # atno 17394 bound_to 11000
  141.0326  134.0735  157.3997 LP  0  0  0  0  0  0  0  0  0  0  0  0  # atno 17395 bound_to 11000

$$$$
