AV-unprocessed.smi:2975|AV-procd|sdf|11356|dock8
  -GOLD-   2272016273D 1   1.00000     0.00000
 Structure written by MMmdl.
 39 41  0  0  0  0  0  0  0  0  1 V2000
  151.1145  136.3280  155.8013 C   0  0  0  0  0  0  0  0  0  0  0  0
  151.6038  137.4793  154.9112 C   0  0  1  0  0  0  0  0  0  0  0  0
  152.0826  136.9374  153.6981 O   0  0  0  0  0  0  0  0  0  0  0  0
  150.5287  138.5051  154.6782 C   0  0  0  0  0  0  0  0  0  0  0  0
  149.3977  138.1837  154.0451 N   0  0  0  0  0  0  0  0  0  0  0  0
  148.6934  139.3698  154.0482 C   0  0  0  0  0  0  0  0  0  0  0  0
  147.4120  139.6776  153.5379 C   0  0  0  0  0  0  0  0  0  0  0  0
  146.8899  140.9818  153.6601 C   0  0  0  0  0  0  0  0  0  0  0  0
  147.6402  141.9941  154.2924 C   0  0  0  0  0  0  0  0  0  0  0  0
  148.9198  141.7080  154.8060 C   0  0  0  0  0  0  0  0  0  0  0  0
  149.4368  140.4040  154.6817 C   0  0  0  0  0  0  0  0  0  0  0  0
  150.6338  139.8051  155.0653 N   0  0  0  0  0  0  0  0  0  0  0  0
  151.7340  140.4877  155.7346 C   0  0  0  0  0  0  0  0  0  0  0  0
  151.5340  140.5749  157.2542 C   0  0  0  0  0  0  0  0  0  0  0  0
  151.7632  141.9049  157.6996 O   0  0  0  0  0  0  0  0  0  0  0  0
  152.1607  142.0941  159.0067 C   0  0  0  0  0  0  0  0  0  0  0  0
  152.6461  141.0585  159.8459 C   0  0  0  0  0  0  0  0  0  0  0  0
  153.0406  141.3366  161.1691 C   0  0  0  0  0  0  0  0  0  0  0  0
  152.9533  142.6473  161.6720 C   0  0  0  0  0  0  0  0  0  0  0  0
  152.4705  143.6809  160.8488 C   0  0  0  0  0  0  0  0  0  0  0  0
  152.0767  143.4046  159.5252 C   0  0  0  0  0  0  0  0  0  0  0  0
  151.6049  144.4093  158.7496 F   0  0  0  0  0  0  0  0  0  0  0  0
  150.7456  136.7023  156.7562 H   0  0  0  0  0  0  0  0  0  0  0  0
  151.9194  135.6227  156.0101 H   0  0  0  0  0  0  0  0  0  0  0  0
  150.3017  135.7744  155.3301 H   0  0  0  0  0  0  0  0  0  0  0  0
  152.4591  137.9357  155.4039 H   0  0  0  0  0  0  0  0  0  0  0  0
  151.3545  136.8641  153.1000 H   0  0  0  0  0  0  0  0  0  0  0  0
  146.8298  138.9085  153.0526 H   0  0  0  0  0  0  0  0  0  0  0  0
  145.9091  141.2062  153.2669 H   0  0  0  0  0  0  0  0  0  0  0  0
  147.2330  142.9905  154.3825 H   0  0  0  0  0  0  0  0  0  0  0  0
  149.4960  142.4820  155.2905 H   0  0  0  0  0  0  0  0  0  0  0  0
  152.6813  140.0115  155.4852 H   0  0  0  0  0  0  0  0  0  0  0  0
  151.8015  141.4961  155.3257 H   0  0  0  0  0  0  0  0  0  0  0  0
  150.5128  140.2786  157.4985 H   0  0  0  0  0  0  0  0  0  0  0  0
  152.2132  139.8795  157.7501 H   0  0  0  0  0  0  0  0  0  0  0  0
  152.7304  140.0406  159.4978 H   0  0  0  0  0  0  0  0  0  0  0  0
  153.4122  140.5417  161.7990 H   0  0  0  0  0  0  0  0  0  0  0  0
  153.2557  142.8595  162.6870 H   0  0  0  0  0  0  0  0  0  0  0  0
  152.4005  144.6880  161.2330 H   0  0  0  0  0  0  0  0  0  0  0  0
  1  2  1  0  0  0  0
  1 23  1  0  0  0  0
  1 24  1  0  0  0  0
  1 25  1  0  0  0  0
  2  3  1  0  0  0  0
  2  4  1  0  0  0  0
  2 26  1  0  0  0  0
  3 27  1  0  0  0  0
  4 12  1  0  0  0  0
  4  5  2  0  0  0  0
  5  6  1  0  0  0  0
  6 11  2  0  0  0  0
  6  7  1  0  0  0  0
  7  8  2  0  0  0  0
  7 28  1  0  0  0  0
  8  9  1  0  0  0  0
  8 29  1  0  0  0  0
  9 10  2  0  0  0  0
  9 30  1  0  0  0  0
 10 11  1  0  0  0  0
 10 31  1  0  0  0  0
 11 12  1  0  0  0  0
 12 13  1  0  0  0  0
 13 14  1  0  0  0  0
 13 32  1  0  0  0  0
 13 33  1  0  0  0  0
 14 15  1  0  0  0  0
 14 34  1  0  0  0  0
 14 35  1  0  0  0  0
 15 16  1  0  0  0  0
 16 21  1  0  0  0  0
 16 17  2  0  0  0  0
 17 18  1  0  0  0  0
 17 36  1  0  0  0  0
 18 19  2  0  0  0  0
 18 37  1  0  0  0  0
 19 20  1  0  0  0  0
 19 38  1  0  0  0  0
 20 21  2  0  0  0  0
 20 39  1  0  0  0  0
 21 22  1  0  0  0  0
M  END
> <s_m_source_file>
AV-unprocessed.smi

> <i_m_source_file_index>
2975

> <i_lp_mmshare_version>
43012

> <i_f3d_flags>
0

> <s_epik_input>
W2NIXTFbY0hdW2NIXVtjSF1jKGMxMiluKGMobjIpW0NASF0oW0NIM10pW09IXSlbQ0gyXVtDSDJdT2MzW2NIXVtjSF1bY0hdW2NIXWMzRg==

> <s_epik_cmdline>
J2VwaWtfcHl0aG9uJywgJy1waCcsICc3LjAnLCAnLXRuJywgJzgnLCAnLW1hJywgJzIwMCcsICctbWV0YWxfYmluZGluZycsICctaW1hZScsICc8aW5maWxlLm1hZT4nLCAnLW9tYWUnLCAnPG91dGZpbGUubWFlPic=

> <r_lp_tautomer_probability>
1

> <r_epik_Ionization_Penalty>
0.0404035

> <r_epik_Ionization_Penalty_Charging>
0

> <r_epik_Ionization_Penalty_Neutral>
0.0404035

> <r_epik_State_Penalty>
0.0340039

> <r_epik_Charging_Adjusted_Penalty>
0.0340039

> <i_epik_Tot_Q>
0

> <i_epik_Tot_abs_Q>
0

> <r_epik_Metal_State_Penalty>
3.49976e-05

> <b_epik_Metal_Only>
0

> <s_lp_Force_Field>
OPLS_2005

> <r_lp_Energy>
14.7518

> <b_lp_Chiralities_Consistent>
1

> <s_lp_Variant>
AV-unprocessed.smi:2975-2

> <Gold.Version>
5.8.1

> <Gold.Id.Protein>
6NUR|6NUR_protein|mol2

> <Gold.PLP.Fitness>
54.1920

> <Gold.PLP.PLP>
-51.0949

> <Gold.PLP.part.hbond>
-1.9627

> <Gold.PLP.part.metal>
0.0000

> <Gold.PLP.part.buried>
-2.0981

> <Gold.PLP.part.nonpolar>
-47.7938

> <Gold.PLP.part.repulsive>
0.9842

> <Gold.PLP.ligand.clash>
0.0000

> <Gold.PLP.ligand.torsion>
1.0081

> <Gold.PLP.Chemscore.Hbond>
1.6864

> <Gold.PLP.Chemscore.CHOScore>
0.0000

> <Gold.PLP.Chemscore.Metal>
0.0000

> <Gold.Chemscore.Hbonds>
donor molecule, donor type, donor heavy atom, donor atom, acceptor molecule, acceptor atom, score
      L1  H     3    27       P1  7949  0.64
      P1  H 10752 10764       L1     3  1.00

> <Gold.PLP.Chemscore.Internal.Correction>
0.0541

> <Gold.Rescore>
     Score         DG    S(hbond)    S(metal)    S(lipo)     H(rot)  DE(clash)    DE(int)     intcor
     16.75     -17.81       0.94        0.00     126.90       2.21       0.06       1.00       ----

> <Gold.Chemscore.Fitness>
16.7539

> <Gold.Chemscore.DG>
-17.8115

> <Gold.Chemscore.ZeroCoef>
-5.4800

> <Gold.Chemscore.Hbond>
0.9376

> <Gold.Chemscore.Metal>
0.0000

> <Gold.Chemscore.Lipo>
126.9003

> <Gold.Chemscore.Internal_Hbond>
0.0000

> <Gold.Chemscore.DEClash>
0.0552

> <Gold.Chemscore.DEInternal>
1.0023

> <Gold.Chemscore.Rot>
2.2060

> <Gold.Chemscore.Internal.Correction>
   9.000000E+99

> <Gold.Chemscore.Hbonds>
donor molecule, donor type, donor heavy atom, donor atom, acceptor molecule, acceptor atom, score
      L1  H     3    27       P1  7949  0.50
      P1  H 10752 10764       L1     3  0.33

> <Gold.Chemscore.Hbond.Weighted>
-3.1315

> <Gold.Chemscore.Metal.Weighted>
-0.0000

> <Gold.Chemscore.Lipo.Weighted>
-14.8473

> <Gold.Chemscore.Internal_Hbond.Weighted>
0.0000

> <Gold.Chemscore.DEClash.Weighted>
0.0552

> <Gold.Chemscore.DEInternal.Weighted>
1.0023

> <Gold.Chemscore.Rot.Weighted>
5.6473

> <Gold.Chemscore.Internal.Correction.Weighted>
   9.000000E+99

> <Gold.Protein.RotatedTorsions>
[ 6907 6896 6895 6894 ] final  178.73 input  -60.11 | X-H torsion
[ 7974 7965 7964 7962 ] final -136.40 input  175.53 | X-H torsion
[ 8008 7997 7996 7995 ] final  162.50 input   59.86 | X-H torsion
[ 10167 10162 10161 10158 ] final -102.70 input  -65.29 | X-H torsion
[ 10718 10713 10712 10709 ] final -177.04 input   66.30 | X-H torsion
[ 10763 10752 10751 10750 ] final  -81.03 input  -60.55 | X-H torsion
[ 11005 11000 10999 10996 ] final   38.69 input  -57.11 | X-H torsion

> <Gold.Protein.ActiveResidues>
 VAL166  LYS551  ARG553  GLY616  TRP617  ASP618  TYR619  PRO620  LYS621  CYS622 
 ASP623  PHE694  ASN695  SER759  ASP760  ASP761  ALA762  ILE779  LEU786  VAL792 
 PHE793  MET794  SER795  GLU796  ALA797  LYS798  CYS799  TRP800  GLU811  SER814 

> <Gold.Protein.RotatedAtoms>
  151.6831  133.3311  159.3224 H   0  0  0  0  0  0  0  0  0  0  0  0  # atno 6907 bound_to 6896
  150.7813  134.6763  159.6429 H   0  0  0  0  0  0  0  0  0  0  0  0  # atno 6908 bound_to 6896
  152.3871  134.6503  160.0173 H   0  0  0  0  0  0  0  0  0  0  0  0  # atno 6909 bound_to 6896
  144.8930  140.6668  143.5133 H   0  0  0  0  0  0  0  0  0  0  0  0  # atno 7974 bound_to 7965
  156.2026  140.1748  156.7866 H   0  0  0  0  0  0  0  0  0  0  0  0  # atno 8008 bound_to 7997
  154.5612  140.0699  156.8853 H   0  0  0  0  0  0  0  0  0  0  0  0  # atno 8009 bound_to 7997
  155.2844  140.3351  155.4258 H   0  0  0  0  0  0  0  0  0  0  0  0  # atno 8010 bound_to 7997
  140.2278  143.3628  152.0913 H   0  0  0  0  0  0  0  0  0  0  0  0  # atno 10167 bound_to 10162
  156.8235  130.9628  151.3110 H   0  0  0  0  0  0  0  0  0  0  0  0  # atno 10718 bound_to 10713
  154.5586  135.5640  153.6986 H   0  0  0  0  0  0  0  0  0  0  0  0  # atno 10763 bound_to 10752
  153.0011  135.6268  154.2276 H   0  0  0  0  0  0  0  0  0  0  0  0  # atno 10764 bound_to 10752
  154.2213  135.2869  155.2903 H   0  0  0  0  0  0  0  0  0  0  0  0  # atno 10765 bound_to 10752
  140.2101  134.3765  155.8053 H   0  0  0  0  0  0  0  0  0  0  0  0  # atno 11005 bound_to 11000
  145.3749  139.1650  143.4312 LP  0  0  0  0  0  0  0  0  0  0  0  0  # atno 17320 bound_to 7965
  146.3065  140.3824  142.8685 LP  0  0  0  0  0  0  0  0  0  0  0  0  # atno 17321 bound_to 7965
  139.5121  144.6911  151.5758 LP  0  0  0  0  0  0  0  0  0  0  0  0  # atno 17342 bound_to 10162
  140.6207  143.9263  150.6524 LP  0  0  0  0  0  0  0  0  0  0  0  0  # atno 17343 bound_to 10162
  157.6444  130.8832  149.9510 LP  0  0  0  0  0  0  0  0  0  0  0  0  # atno 17370 bound_to 10713
  156.0975  130.3658  150.0279 LP  0  0  0  0  0  0  0  0  0  0  0  0  # atno 17371 bound_to 10713
  141.2226  133.7139  156.8404 LP  0  0  0  0  0  0  0  0  0  0  0  0  # atno 17394 bound_to 11000
  140.1960  134.8932  157.3114 LP  0  0  0  0  0  0  0  0  0  0  0  0  # atno 17395 bound_to 11000

$$$$
