AV-unprocessed.smi:2928|AV-procd|sdf|11236|dock4
  -GOLD-   2272016133D 1   1.00000     0.00000
 Structure written by MMmdl.
 56 59  0  0  0  0  0  0  0  0  3 V2000
  144.4444  134.5041  155.4745 C   0  0  0  0  0  0  0  0  0  0  0  0
  143.3991  134.4487  154.4249 N   0  3  2  0  0  0  0  0  0  0  0  0
  143.9042  134.5617  153.0351 C   0  0  1  0  0  0  0  0  0  0  0  0
  142.8123  134.0560  152.0634 C   0  0  0  0  0  0  0  0  0  0  0  0
  141.4428  134.7388  152.2555 C   0  0  0  0  0  0  0  0  0  0  0  0
  141.0763  134.9160  153.7435 C   0  0  0  0  0  0  0  0  0  0  0  0
  142.2585  135.3743  154.6298 C   0  0  2  0  0  0  0  0  0  0  0  0
  142.6878  136.8496  154.4286 C   0  0  0  0  0  0  0  0  0  0  0  0
  143.4381  137.1272  153.1059 C   0  0  1  0  0  0  0  0  0  0  0  0
  144.1511  138.3983  153.2173 N   0  0  0  0  0  0  0  0  0  0  0  0
  145.3652  138.5580  153.7642 C   0  0  0  0  0  0  0  0  0  0  0  0
  146.0179  137.6376  154.2558 O   0  0  0  0  0  0  0  0  0  0  0  0
  145.7563  139.8426  153.7230 N   0  0  0  0  0  0  0  0  0  0  0  0
  146.9679  140.3978  154.2231 C   0  0  0  0  0  0  0  0  0  0  0  0
  148.1697  139.6441  154.2263 C   0  0  0  0  0  0  0  0  0  0  0  0
  149.3710  140.2384  154.6560 C   0  0  0  0  0  0  0  0  0  0  0  0
  149.3573  141.5840  155.0607 C   0  0  0  0  0  0  0  0  0  0  0  0
  148.2008  142.2779  155.0350 N   0  3  0  0  0  0  0  0  0  0  0  0
  147.0093  141.7580  154.6469 C   0  0  0  0  0  0  0  0  0  0  0  0
  145.8755  142.6011  154.6870 N   0  0  0  0  0  0  0  0  0  0  0  0
  145.7852  143.7595  153.8056 C   0  0  0  0  0  0  0  0  0  0  0  0
  144.6472  144.6019  154.3752 C   0  0  0  0  0  0  0  0  0  0  0  0
  144.7912  144.3761  155.8772 C   0  0  0  0  0  0  0  0  0  0  0  0
  145.2884  142.9305  155.9823 C   0  0  0  0  0  0  0  0  0  0  0  0
  144.4249  135.9907  152.7395 C   0  0  0  0  0  0  0  0  0  0  0  0
  144.9503  135.4686  155.5052 H   0  0  0  0  0  0  0  0  0  0  0  0
  145.1969  133.7343  155.3015 H   0  0  0  0  0  0  0  0  0  0  0  0
  144.0070  134.3214  156.4562 H   0  0  0  0  0  0  0  0  0  0  0  0
  144.7491  133.8793  152.9310 H   0  0  0  0  0  0  0  0  0  0  0  0
  143.1418  134.1630  151.0295 H   0  0  0  0  0  0  0  0  0  0  0  0
  142.6828  132.9850  152.2246 H   0  0  0  0  0  0  0  0  0  0  0  0
  141.4216  135.6961  151.7419 H   0  0  0  0  0  0  0  0  0  0  0  0
  140.6715  134.1485  151.7600 H   0  0  0  0  0  0  0  0  0  0  0  0
  140.2357  135.6035  153.8426 H   0  0  0  0  0  0  0  0  0  0  0  0
  140.7211  133.9563  154.1216 H   0  0  0  0  0  0  0  0  0  0  0  0
  141.9267  135.2710  155.6641 H   0  0  0  0  0  0  0  0  0  0  0  0
  141.8181  137.5035  154.5034 H   0  0  0  0  0  0  0  0  0  0  0  0
  143.3289  137.1303  155.2654 H   0  0  0  0  0  0  0  0  0  0  0  0
  142.7038  137.2390  152.3117 H   0  0  0  0  0  0  0  0  0  0  0  0
  143.6896  139.2127  152.8390 H   0  0  0  0  0  0  0  0  0  0  0  0
  145.0764  140.5084  153.3856 H   0  0  0  0  0  0  0  0  0  0  0  0
  148.1924  138.6209  153.8823 H   0  0  0  0  0  0  0  0  0  0  0  0
  150.2914  139.6727  154.6619 H   0  0  0  0  0  0  0  0  0  0  0  0
  150.2298  142.1246  155.3983 H   0  0  0  0  0  0  0  0  0  0  0  0
  146.7129  144.3333  153.8303 H   0  0  0  0  0  0  0  0  0  0  0  0
  145.5906  143.4611  152.7749 H   0  0  0  0  0  0  0  0  0  0  0  0
  144.7121  145.6528  154.0916 H   0  0  0  0  0  0  0  0  0  0  0  0
  143.6871  144.2149  154.0310 H   0  0  0  0  0  0  0  0  0  0  0  0
  145.5459  145.0542  156.2778 H   0  0  0  0  0  0  0  0  0  0  0  0
  143.8636  144.5456  156.4245 H   0  0  0  0  0  0  0  0  0  0  0  0
  144.4485  142.2606  156.1678 H   0  0  0  0  0  0  0  0  0  0  0  0
  146.0024  142.8161  156.7994 H   0  0  0  0  0  0  0  0  0  0  0  0
  145.3510  136.1349  153.2976 H   0  0  0  0  0  0  0  0  0  0  0  0
  144.7094  136.0703  151.6897 H   0  0  0  0  0  0  0  0  0  0  0  0
  143.0113  133.5186  154.4987 H   0  0  0  0  0  0  0  0  0  0  0  0
  148.2236  143.2528  155.3342 H   0  0  0  0  0  0  0  0  0  0  0  0
  1  2  1  0  0  0  0
  1 26  1  0  0  0  0
  1 27  1  0  0  0  0
  1 28  1  0  0  0  0
  2  7  1  0  0  0  0
  2  3  1  0  0  0  0
  2 55  1  0  0  0  0
  3 25  1  0  0  0  0
  3  4  1  0  0  0  0
  3 29  1  0  0  0  0
  4  5  1  0  0  0  0
  4 30  1  0  0  0  0
  4 31  1  0  0  0  0
  5  6  1  0  0  0  0
  5 32  1  0  0  0  0
  5 33  1  0  0  0  0
  6  7  1  0  0  0  0
  6 34  1  0  0  0  0
  6 35  1  0  0  0  0
  7  8  1  0  0  0  0
  7 36  1  0  0  0  0
  8  9  1  0  0  0  0
  8 37  1  0  0  0  0
  8 38  1  0  0  0  0
  9 10  1  0  0  0  0
  9 25  1  0  0  0  0
  9 39  1  0  0  0  0
 10 11  1  0  0  0  0
 10 40  1  0  0  0  0
 11 12  2  0  0  0  0
 11 13  1  0  0  0  0
 13 14  1  0  0  0  0
 13 41  1  0  0  0  0
 14 19  1  0  0  0  0
 14 15  2  0  0  0  0
 15 16  1  0  0  0  0
 15 42  1  0  0  0  0
 16 17  2  0  0  0  0
 16 43  1  0  0  0  0
 17 18  1  0  0  0  0
 17 44  1  0  0  0  0
 18 19  2  0  0  0  0
 18 56  1  0  0  0  0
 19 20  1  0  0  0  0
 20 24  1  0  0  0  0
 20 21  1  0  0  0  0
 21 22  1  0  0  0  0
 21 45  1  0  0  0  0
 21 46  1  0  0  0  0
 22 23  1  0  0  0  0
 22 47  1  0  0  0  0
 22 48  1  0  0  0  0
 23 24  1  0  0  0  0
 23 49  1  0  0  0  0
 23 50  1  0  0  0  0
 24 51  1  0  0  0  0
 24 52  1  0  0  0  0
 25 53  1  0  0  0  0
 25 54  1  0  0  0  0
M  CHG  1   2   1
M  CHG  1  18   1
M  END
> <s_m_source_file>
AV-unprocessed.smi

> <i_m_source_file_index>
2928

> <i_lp_mmshare_version>
43012

> <i_f3d_flags>
0

> <s_epik_input>
W0NIMl0xW0NIMl1bQ0gyXVtDQEhdKE4oW0NIM10pW0NIXTEyKVtDSDJdW0NASF0oW0NIMl0yKVtOSF1DKD1PKVtOSF1jM1tjSF1bY0hdW2NIXW5jM040W0NIMl1bQ0gyXVtDSDJdW0NIMl00

> <s_epik_cmdline>
J2VwaWtfcHl0aG9uJywgJy1waCcsICc3LjAnLCAnLXRuJywgJzgnLCAnLW1hJywgJzIwMCcsICctbWV0YWxfYmluZGluZycsICctaW1hZScsICc8aW5maWxlLm1hZT4nLCAnLW9tYWUnLCAnPG91dGZpbGUubWFlPic=

> <r_lp_tautomer_probability>
0.999994

> <r_epik_Ionization_Penalty>
1.2404

> <r_epik_Ionization_Penalty_Charging>
1.24038

> <r_epik_Ionization_Penalty_Neutral>
1.86539e-05

> <r_epik_State_Penalty>
1.30821

> <r_epik_Charging_Adjusted_Penalty>
2.54859

> <i_epik_Tot_Q>
2

> <i_epik_Tot_abs_Q>
2

> <r_epik_Metal_State_Penalty>
1.3782

> <b_epik_Metal_Only>
0

> <s_lp_Force_Field>
OPLS_2005

> <r_lp_Energy>
72.136

> <b_lp_Chiralities_Consistent>
1

> <s_lp_Variant>
AV-unprocessed.smi:2928-6

> <Gold.Version>
5.8.1

> <Gold.Id.Protein>
6NUR|6NUR_protein|mol2

> <Gold.PLP.Fitness>
49.3382

> <Gold.PLP.PLP>
-32.5312

> <Gold.PLP.part.hbond>
-4.6048

> <Gold.PLP.part.metal>
0.0000

> <Gold.PLP.part.buried>
1.2069

> <Gold.PLP.part.nonpolar>
-29.7939

> <Gold.PLP.part.repulsive>
0.4884

> <Gold.PLP.ligand.clash>
0.0880

> <Gold.PLP.ligand.torsion>
0.7051

> <Gold.PLP.Chemscore.Hbond>
5.9760

> <Gold.PLP.Chemscore.CHOScore>
0.0000

> <Gold.PLP.Chemscore.Metal>
0.0000

> <Gold.Chemscore.Hbonds>
donor molecule, donor type, donor heavy atom, donor atom, acceptor molecule, acceptor atom, score
      L1  H     2    55       P1 10957  2.00
      L1  H    10    40       P1 10175  0.37
      L1  H    13    41       P1 10175  0.77
      L1  H    18    56       P1  8028  2.00

> <Gold.PLP.Chemscore.Internal.Correction>
0.3772

> <Gold.Rescore>
     Score         DG    S(hbond)    S(metal)    S(lipo)     H(rot)  DE(clash)    DE(int)     intcor
     20.92     -24.96       3.79        0.00      84.22       1.19       0.61       3.42       ----

> <Gold.Chemscore.Fitness>
20.9216

> <Gold.Chemscore.DG>
-24.9566

> <Gold.Chemscore.ZeroCoef>
-5.4800

> <Gold.Chemscore.Hbond>
3.7915

> <Gold.Chemscore.Metal>
0.0000

> <Gold.Chemscore.Lipo>
84.2227

> <Gold.Chemscore.Internal_Hbond>
0.0000

> <Gold.Chemscore.DEClash>
0.6115

> <Gold.Chemscore.DEInternal>
3.4235

> <Gold.Chemscore.Rot>
1.1879

> <Gold.Chemscore.Internal.Correction>
   9.000000E+99

> <Gold.Chemscore.Hbonds>
donor molecule, donor type, donor heavy atom, donor atom, acceptor molecule, acceptor atom, score
      L1  H     2    55       P1 10957  1.00
      L1  H    10    40       P1 10175  0.36
      L1  H    13    41       P1 10175  0.74
      L1  H    18    56       P1  8028  0.93

> <Gold.Chemscore.Hbond.Weighted>
-12.6636

> <Gold.Chemscore.Metal.Weighted>
-0.0000

> <Gold.Chemscore.Lipo.Weighted>
-9.8541

> <Gold.Chemscore.Internal_Hbond.Weighted>
0.0000

> <Gold.Chemscore.DEClash.Weighted>
0.6115

> <Gold.Chemscore.DEInternal.Weighted>
3.4235

> <Gold.Chemscore.Rot.Weighted>
3.0410

> <Gold.Chemscore.Internal.Correction.Weighted>
   9.000000E+99

> <Gold.Protein.RotatedTorsions>
[ 6907 6896 6895 6894 ] final   17.46 input  -60.11 | X-H torsion
[ 7974 7965 7964 7962 ] final -156.63 input  175.53 | X-H torsion
[ 8008 7997 7996 7995 ] final -155.23 input   59.86 | X-H torsion
[ 10167 10162 10161 10158 ] final  -88.12 input  -65.29 | X-H torsion
[ 10718 10713 10712 10709 ] final -126.74 input   66.30 | X-H torsion
[ 10763 10752 10751 10750 ] final   85.05 input  -60.55 | X-H torsion
[ 11005 11000 10999 10996 ] final  124.41 input  -57.11 | X-H torsion

> <Gold.Protein.ActiveResidues>
 VAL166  LYS551  ARG553  GLY616  TRP617  ASP618  TYR619  PRO620  LYS621  CYS622 
 ASP623  PHE694  ASN695  SER759  ASP760  ASP761  ALA762  ILE779  LEU786  VAL792 
 PHE793  MET794  SER795  GLU796  ALA797  LYS798  CYS799  TRP800  GLU811  SER814 

> <Gold.Protein.RotatedAtoms>
  151.8499  135.0561  160.0457 H   0  0  0  0  0  0  0  0  0  0  0  0  # atno 6907 bound_to 6896
  152.2744  133.5408  159.5467 H   0  0  0  0  0  0  0  0  0  0  0  0  # atno 6908 bound_to 6896
  150.7164  134.0568  159.3859 H   0  0  0  0  0  0  0  0  0  0  0  0  # atno 6909 bound_to 6896
  144.7584  140.4083  143.5994 H   0  0  0  0  0  0  0  0  0  0  0  0  # atno 7974 bound_to 7965
  155.6986  140.0764  157.2419 H   0  0  0  0  0  0  0  0  0  0  0  0  # atno 8008 bound_to 7997
  154.4077  140.1651  156.2218 H   0  0  0  0  0  0  0  0  0  0  0  0  # atno 8009 bound_to 7997
  155.9388  140.3386  155.6313 H   0  0  0  0  0  0  0  0  0  0  0  0  # atno 8010 bound_to 7997
  140.3778  143.2763  151.9422 H   0  0  0  0  0  0  0  0  0  0  0  0  # atno 10167 bound_to 10162
  156.1793  130.6721  151.0283 H   0  0  0  0  0  0  0  0  0  0  0  0  # atno 10718 bound_to 10713
  153.1439  135.4631  154.9536 H   0  0  0  0  0  0  0  0  0  0  0  0  # atno 10763 bound_to 10752
  154.7769  135.3176  154.8074 H   0  0  0  0  0  0  0  0  0  0  0  0  # atno 10764 bound_to 10752
  153.8592  135.6914  153.4838 H   0  0  0  0  0  0  0  0  0  0  0  0  # atno 10765 bound_to 10752
  139.9357  134.9639  156.8405 H   0  0  0  0  0  0  0  0  0  0  0  0  # atno 11005 bound_to 11000
  145.6700  139.1597  143.2760 LP  0  0  0  0  0  0  0  0  0  0  0  0  # atno 17320 bound_to 7965
  146.1621  140.6772  142.9272 LP  0  0  0  0  0  0  0  0  0  0  0  0  # atno 17321 bound_to 7965
  139.4798  144.5847  151.7873 LP  0  0  0  0  0  0  0  0  0  0  0  0  # atno 17342 bound_to 10162
  140.4969  144.1228  150.5962 LP  0  0  0  0  0  0  0  0  0  0  0  0  # atno 17343 bound_to 10162
  157.6857  131.0825  150.7249 LP  0  0  0  0  0  0  0  0  0  0  0  0  # atno 17370 bound_to 10713
  156.7306  130.4708  149.5500 LP  0  0  0  0  0  0  0  0  0  0  0  0  # atno 17371 bound_to 10713
  140.6081  134.0108  155.7565 LP  0  0  0  0  0  0  0  0  0  0  0  0  # atno 17394 bound_to 11000
  141.0970  133.9828  157.3143 LP  0  0  0  0  0  0  0  0  0  0  0  0  # atno 17395 bound_to 11000

$$$$
