AV-unprocessed.smi:2353|AV-procd|sdf|9381|dock7
  -GOLD-   2272013 13D 1   1.00000     0.00000
 Structure written by MMmdl.
 45 47  0  0  0  0  0  0  0  0  1 V2000
  153.3231  142.6695  163.1157 C   0  0  0  0  0  0  0  0  0  0  0  0
  152.8049  143.1978  161.7939 C   0  0  0  0  0  0  0  0  0  0  0  0
  152.3492  144.5260  161.6886 C   0  0  0  0  0  0  0  0  0  0  0  0
  151.8675  145.0075  160.4584 C   0  0  0  0  0  0  0  0  0  0  0  0
  151.8378  144.1659  159.3271 C   0  0  0  0  0  0  0  0  0  0  0  0
  151.3166  144.7038  158.0078 C   0  0  0  0  0  0  0  0  0  0  0  0
  152.2925  142.8298  159.4182 C   0  0  0  0  0  0  0  0  0  0  0  0
  152.2380  142.0612  158.2736 O   0  0  0  0  0  0  0  0  0  0  0  0
  152.0485  140.6584  158.4036 C   0  0  0  0  0  0  0  0  0  0  0  0
  151.7735  140.0664  157.0103 C   0  0  1  0  0  0  0  0  0  0  0  0
  152.7224  139.0374  156.8079 O   0  0  0  0  0  0  0  0  0  0  0  0
  150.3618  139.4461  156.9146 C   0  0  0  0  0  0  0  0  0  0  0  0
  149.4718  140.2395  156.0576 N   0  0  0  0  0  0  0  0  0  0  0  0
  148.4893  140.9292  156.7484 N   0  0  0  0  0  0  0  0  0  0  0  0
  147.6431  141.6802  156.1201 C   0  0  0  0  0  0  0  0  0  0  0  0
  146.5914  142.4288  156.7785 N   0  0  0  0  0  0  0  0  0  0  0  0
  145.6866  143.1627  156.0138 C   0  0  0  0  0  0  0  0  0  0  0  0
  144.8253  143.7534  156.9119 C   0  0  0  0  0  0  0  0  0  0  0  0
  145.1786  143.3991  158.2138 N   0  0  0  0  0  0  0  0  0  0  0  0
  146.2353  142.6114  158.0584 C   0  0  0  0  0  0  0  0  0  0  0  0
  147.7169  141.8069  154.6745 C   0  0  0  0  0  0  0  0  0  0  0  0
  148.6788  141.1312  154.0100 C   0  0  0  0  0  0  0  0  0  0  0  0
  149.6449  140.2805  154.7032 C   0  0  0  0  0  0  0  0  0  0  0  0
  150.5354  139.6626  154.1209 O   0  0  0  0  0  0  0  0  0  0  0  0
  152.7748  142.3546  160.6647 C   0  0  0  0  0  0  0  0  0  0  0  0
  153.5017  143.4791  163.8240 H   0  0  0  0  0  0  0  0  0  0  0  0
  154.2620  142.1344  162.9706 H   0  0  0  0  0  0  0  0  0  0  0  0
  152.5998  141.9824  163.5553 H   0  0  0  0  0  0  0  0  0  0  0  0
  152.3664  145.1797  162.5484 H   0  0  0  0  0  0  0  0  0  0  0  0
  151.5210  146.0280  160.3867 H   0  0  0  0  0  0  0  0  0  0  0  0
  152.1178  144.7287  157.2690 H   0  0  0  0  0  0  0  0  0  0  0  0
  150.9224  145.7148  158.1159 H   0  0  0  0  0  0  0  0  0  0  0  0
  150.5165  144.0683  157.6272 H   0  0  0  0  0  0  0  0  0  0  0  0
  152.9092  140.1733  158.8682 H   0  0  0  0  0  0  0  0  0  0  0  0
  151.1839  140.4936  159.0486 H   0  0  0  0  0  0  0  0  0  0  0  0
  151.8945  140.8434  156.2537 H   0  0  0  0  0  0  0  0  0  0  0  0
  152.2762  138.2815  156.4568 H   0  0  0  0  0  0  0  0  0  0  0  0
  150.4103  138.4014  156.6007 H   0  0  0  0  0  0  0  0  0  0  0  0
  149.9131  139.4136  157.9091 H   0  0  0  0  0  0  0  0  0  0  0  0
  145.7134  143.2149  154.9347 H   0  0  0  0  0  0  0  0  0  0  0  0
  143.9834  144.4029  156.7229 H   0  0  0  0  0  0  0  0  0  0  0  0
  146.7507  142.1660  158.8964 H   0  0  0  0  0  0  0  0  0  0  0  0
  147.0194  142.4274  154.1331 H   0  0  0  0  0  0  0  0  0  0  0  0
  148.7389  141.2217  152.9352 H   0  0  0  0  0  0  0  0  0  0  0  0
  153.1289  141.3415  160.7801 H   0  0  0  0  0  0  0  0  0  0  0  0
  1  2  1  0  0  0  0
  1 26  1  0  0  0  0
  1 27  1  0  0  0  0
  1 28  1  0  0  0  0
  2 25  1  0  0  0  0
  2  3  2  0  0  0  0
  3  4  1  0  0  0  0
  3 29  1  0  0  0  0
  4  5  2  0  0  0  0
  4 30  1  0  0  0  0
  5  6  1  0  0  0  0
  5  7  1  0  0  0  0
  6 31  1  0  0  0  0
  6 32  1  0  0  0  0
  6 33  1  0  0  0  0
  7  8  1  0  0  0  0
  7 25  2  0  0  0  0
  8  9  1  0  0  0  0
  9 10  1  0  0  0  0
  9 34  1  0  0  0  0
  9 35  1  0  0  0  0
 10 11  1  0  0  0  0
 10 12  1  0  0  0  0
 10 36  1  0  0  0  0
 11 37  1  0  0  0  0
 12 13  1  0  0  0  0
 12 38  1  0  0  0  0
 12 39  1  0  0  0  0
 13 23  1  0  0  0  0
 13 14  1  0  0  0  0
 14 15  2  0  0  0  0
 15 16  1  0  0  0  0
 15 21  1  0  0  0  0
 16 20  1  0  0  0  0
 16 17  1  0  0  0  0
 17 18  2  0  0  0  0
 17 40  1  0  0  0  0
 18 19  1  0  0  0  0
 18 41  1  0  0  0  0
 19 20  2  0  0  0  0
 20 42  1  0  0  0  0
 21 22  2  0  0  0  0
 21 43  1  0  0  0  0
 22 23  1  0  0  0  0
 22 44  1  0  0  0  0
 23 24  2  0  0  0  0
 25 45  1  0  0  0  0
M  END
> <s_m_source_file>
AV-unprocessed.smi

> <i_m_source_file_index>
2353

> <i_lp_mmshare_version>
43012

> <i_f3d_flags>
0

> <s_epik_input>
W0NIM11jMVtjSF1bY0hdYyhbQ0gzXSljKFtjSF0xKU9bQ0gyXVtDQEhdKFtPSF0pW0NIMl1uMm5jKFtjSF1bY0hdYzI9TyktbjNbY0hdW2NIXW5bY0hdMw==

> <s_epik_cmdline>
J2VwaWtfcHl0aG9uJywgJy1waCcsICc3LjAnLCAnLXRuJywgJzgnLCAnLW1hJywgJzIwMCcsICctbWV0YWxfYmluZGluZycsICctaW1hZScsICc8aW5maWxlLm1hZT4nLCAnLW9tYWUnLCAnPG91dGZpbGUubWFlPic=

> <r_lp_tautomer_probability>
1

> <r_epik_Ionization_Penalty>
0.03707

> <r_epik_Ionization_Penalty_Charging>
0.0370699

> <r_epik_Ionization_Penalty_Neutral>
1.17174e-07

> <r_epik_State_Penalty>
0.0310055

> <r_epik_Charging_Adjusted_Penalty>
0.0680754

> <i_epik_Tot_Q>
0

> <i_epik_Tot_abs_Q>
0

> <r_epik_Metal_State_Penalty>
0.0291724

> <b_epik_Metal_Only>
0

> <s_lp_Force_Field>
OPLS_2005

> <r_lp_Energy>
35.5456

> <b_lp_Chiralities_Consistent>
1

> <s_lp_Variant>
AV-unprocessed.smi:2353-2

> <Gold.Version>
5.8.1

> <Gold.Id.Protein>
6NUR|6NUR_protein|mol2

> <Gold.PLP.Fitness>
52.1993

> <Gold.PLP.PLP>
-49.9488

> <Gold.PLP.part.hbond>
-2.0000

> <Gold.PLP.part.metal>
0.0000

> <Gold.PLP.part.buried>
-3.9973

> <Gold.PLP.part.nonpolar>
-42.5629

> <Gold.PLP.part.repulsive>
0.4082

> <Gold.PLP.ligand.clash>
0.0000

> <Gold.PLP.ligand.torsion>
1.9421

> <Gold.PLP.Chemscore.Hbond>
2.0000

> <Gold.PLP.Chemscore.CHOScore>
0.0000

> <Gold.PLP.Chemscore.Metal>
0.0000

> <Gold.Chemscore.Hbonds>
donor molecule, donor type, donor heavy atom, donor atom, acceptor molecule, acceptor atom, score
      P1  H  7989  7998       L1    24  1.00
      P1  H  7997  8008       L1    11  1.00

> <Gold.PLP.Chemscore.Internal.Correction>
0.1347

> <Gold.Rescore>
     Score         DG    S(hbond)    S(metal)    S(lipo)     H(rot)  DE(clash)    DE(int)     intcor
     16.83     -19.56       1.68        0.00     129.33       2.60       0.83       1.90       ----

> <Gold.Chemscore.Fitness>
16.8312

> <Gold.Chemscore.DG>
-19.5582

> <Gold.Chemscore.ZeroCoef>
-5.4800

> <Gold.Chemscore.Hbond>
1.6762

> <Gold.Chemscore.Metal>
0.0000

> <Gold.Chemscore.Lipo>
129.3329

> <Gold.Chemscore.Internal_Hbond>
0.0000

> <Gold.Chemscore.DEClash>
0.8305

> <Gold.Chemscore.DEInternal>
1.8965

> <Gold.Chemscore.Rot>
2.5986

> <Gold.Chemscore.Internal.Correction>
   9.000000E+99

> <Gold.Chemscore.Hbonds>
donor molecule, donor type, donor heavy atom, donor atom, acceptor molecule, acceptor atom, score
      P1  H  7989  7998       L1    24  0.55
      P1  H  7997  8008       L1    11  0.30

> <Gold.Chemscore.Hbond.Weighted>
-5.5986

> <Gold.Chemscore.Metal.Weighted>
-0.0000

> <Gold.Chemscore.Lipo.Weighted>
-15.1319

> <Gold.Chemscore.Internal_Hbond.Weighted>
0.0000

> <Gold.Chemscore.DEClash.Weighted>
0.8305

> <Gold.Chemscore.DEInternal.Weighted>
1.8965

> <Gold.Chemscore.Rot.Weighted>
6.6524

> <Gold.Chemscore.Internal.Correction.Weighted>
   9.000000E+99

> <Gold.Protein.RotatedTorsions>
[ 6907 6896 6895 6894 ] final -103.25 input  -60.11 | X-H torsion
[ 7974 7965 7964 7962 ] final  -20.04 input  175.53 | X-H torsion
[ 8008 7997 7996 7995 ] final  -55.92 input   59.86 | X-H torsion
[ 10167 10162 10161 10158 ] final  -36.56 input  -65.29 | X-H torsion
[ 10718 10713 10712 10709 ] final  -33.92 input   66.30 | X-H torsion
[ 10763 10752 10751 10750 ] final   -0.38 input  -60.55 | X-H torsion
[ 11005 11000 10999 10996 ] final  108.24 input  -57.11 | X-H torsion

> <Gold.Protein.ActiveResidues>
 VAL166  LYS551  ARG553  GLY616  TRP617  ASP618  TYR619  PRO620  LYS621  CYS622 
 ASP623  PHE694  ASN695  SER759  ASP760  ASP761  ALA762  ILE779  LEU786  VAL792 
 PHE793  MET794  SER795  GLU796  ALA797  LYS798  CYS799  TRP800  GLU811  SER814 

> <Gold.Protein.RotatedAtoms>
  150.7232  134.0458  159.3781 H   0  0  0  0  0  0  0  0  0  0  0  0  # atno 6907 bound_to 6896
  151.8433  135.0580  160.0460 H   0  0  0  0  0  0  0  0  0  0  0  0  # atno 6908 bound_to 6896
  152.2846  133.5466  159.5555 H   0  0  0  0  0  0  0  0  0  0  0  0  # atno 6909 bound_to 6896
  146.1809  140.4146  142.8495 H   0  0  0  0  0  0  0  0  0  0  0  0  # atno 7974 bound_to 7965
  154.4211  140.1142  156.5554 H   0  0  0  0  0  0  0  0  0  0  0  0  # atno 8008 bound_to 7997
  155.6367  140.3496  155.4682 H   0  0  0  0  0  0  0  0  0  0  0  0  # atno 8009 bound_to 7997
  155.9904  140.1178  157.0633 H   0  0  0  0  0  0  0  0  0  0  0  0  # atno 8010 bound_to 7997
  140.7139  143.3400  151.2378 H   0  0  0  0  0  0  0  0  0  0  0  0  # atno 10167 bound_to 10162
  156.3568  130.4317  149.7657 H   0  0  0  0  0  0  0  0  0  0  0  0  # atno 10718 bound_to 10713
  153.3311  135.6975  153.6947 H   0  0  0  0  0  0  0  0  0  0  0  0  # atno 10763 bound_to 10752
  153.5749  135.3509  155.2853 H   0  0  0  0  0  0  0  0  0  0  0  0  # atno 10764 bound_to 10752
  154.8618  135.4281  154.2500 H   0  0  0  0  0  0  0  0  0  0  0  0  # atno 10765 bound_to 10752
  139.8841  134.9424  156.5942 H   0  0  0  0  0  0  0  0  0  0  0  0  # atno 11005 bound_to 11000
  144.8314  140.6713  143.6288 LP  0  0  0  0  0  0  0  0  0  0  0  0  # atno 17320 bound_to 7965
  145.4077  139.1586  143.4142 LP  0  0  0  0  0  0  0  0  0  0  0  0  # atno 17321 bound_to 7965
  139.6905  143.9700  152.2857 LP  0  0  0  0  0  0  0  0  0  0  0  0  # atno 17342 bound_to 10162
  139.9360  144.6712  150.8315 LP  0  0  0  0  0  0  0  0  0  0  0  0  # atno 17343 bound_to 10162
  156.4837  130.8053  151.3066 LP  0  0  0  0  0  0  0  0  0  0  0  0  # atno 17370 bound_to 10713
  157.7468  130.9997  150.2901 LP  0  0  0  0  0  0  0  0  0  0  0  0  # atno 17371 bound_to 10713
  140.7932  133.8565  155.8664 LP  0  0  0  0  0  0  0  0  0  0  0  0  # atno 17394 bound_to 11000
  140.9658  134.1596  157.4617 LP  0  0  0  0  0  0  0  0  0  0  0  0  # atno 17395 bound_to 11000

$$$$
