#       Name:                AV-unprocessed.smi:3234
#       Creating user name   scv26
#       Creation time:       Fri Mar 27 18:21:51 2020


#       File generated by GOLD software.
#

@<TRIPOS>MOLECULE
AV-unprocessed.smi:3234
    40    42     1
SMALL
NO_CHARGES


@<TRIPOS>ATOM
      1 ****        -0.6130   1.5561   0.9786 O.2            1 S1                 0.0000
      2 ****        -1.1542   0.4522   0.8476 C.2            1 S1                 0.0000
      3 ****        -2.4952   0.3466   0.8583 N.am           1 S1                 0.0000
      4 ****        -3.4728   1.3570   1.0668 C.ar           1 S1                 0.0000
      5 ****        -4.7527   1.1560   0.5045 C.ar           1 S1                 0.0000
      6 ****        -5.7591   2.1228   0.7035 C.ar           1 S1                 0.0000
      7 ****        -5.4970   3.2250   1.4387 N.pl3          1 S1                 1.0000
      8 ****        -4.2952   3.4515   2.0114 C.ar           1 S1                 0.0000
      9 ****        -3.2503   2.5198   1.8473 C.ar           1 S1                 0.0000
     10 ****        -0.5456  -0.7496   0.6551 N.pl3          1 S1                -1.0000
     11 ****         0.9039  -0.9566   0.6399 C.3            1 S1                 0.0000
     12 ****         1.2635  -2.4431   0.6631 C.3            1 S1                 0.0000
     13 ****         2.6331  -2.5153  -0.0294 C.3            1 S1                 0.0000
     14 ****         2.8258  -1.2228  -0.7282 N.4            1 S1                 1.0000
     15 ****         3.3979  -1.3389  -2.0867 C.3            1 S1                 0.0000
     16 ****         4.9065  -1.3996  -2.1020 C.3            1 S1                 0.0000
     17 ****         4.1942  -0.1282  -2.5110 C.3            1 S1                 0.0000
     18 ****         1.5445  -0.4936  -0.6694 C.3            1 S1                 0.0000
     19 ****        -2.8563  -0.5696   0.6365 H              1 S1                 0.0000
     20 ****        -4.9617   0.2713  -0.0799 H              1 S1                 0.0000
     21 ****        -6.7592   2.0463   0.3025 H              1 S1                 0.0000
     22 ****        -4.2074   4.3614   2.5869 H              1 S1                 0.0000
     23 ****        -2.3041   2.7054   2.3323 H              1 S1                 0.0000
     24 ****         1.4072  -0.4643   1.4739 H              1 S1                 0.0000
     25 ****         1.2831  -2.8523   1.6738 H              1 S1                 0.0000
     26 ****         0.5401  -3.0224   0.0861 H              1 S1                 0.0000
     27 ****         3.4402  -2.6516   0.6920 H              1 S1                 0.0000
     28 ****         2.6664  -3.3591  -0.7207 H              1 S1                 0.0000
     29 ****         2.8126  -1.8980  -2.8148 H              1 S1                 0.0000
     30 ****         5.4313  -1.3976  -1.1481 H              1 S1                 0.0000
     31 ****         5.3776  -1.9829  -2.8907 H              1 S1                 0.0000
     32 ****         4.1943   0.1259  -3.5691 H              1 S1                 0.0000
     33 ****         4.2448   0.7193  -1.8295 H              1 S1                 0.0000
     34 ****         0.9242  -0.7774  -1.5223 H              1 S1                 0.0000
     35 ****         1.6968   0.5856  -0.7044 H              1 S1                 0.0000
     36 ****         3.4744  -0.6920  -0.1648 H              1 S1                 0.0000
     37 ****        -6.2394   3.9119   1.5726 H              1 S1                 0.0000
     38 ****        -1.1726   2.3769   1.0933 LP             1 S1                 0.0000
     39 ****         0.3844   1.6282   0.9698 LP             1 S1                 0.0000
     40 ****        -1.1301  -1.5486   0.5139 LP             1 S1                 0.0000
@<TRIPOS>BOND
    1    1    2 2     
    2    2    3 am    
    3    2   10 1     
    4    3    4 1     
    5    3   19 1     
    6    4    9 ar    
    7    4    5 ar    
    8    5    6 ar    
    9    5   20 1     
   10    6    7 ar    
   11    6   21 1     
   12    7    8 ar    
   13    7   37 1     
   14    8    9 ar    
   15    8   22 1     
   16    9   23 1     
   17   10   11 1     
   18   11   18 1     
   19   11   12 1     
   20   11   24 1     
   21   12   13 1     
   22   12   25 1     
   23   12   26 1     
   24   13   14 1     
   25   13   27 1     
   26   13   28 1     
   27   14   15 1     
   28   14   18 1     
   29   14   36 1     
   30   15   17 1     
   31   15   16 1     
   32   15   29 1     
   33   16   17 1     
   34   16   30 1     
   35   16   31 1     
   36   17   32 1     
   37   17   33 1     
   38   18   34 1     
   39   18   35 1     
   40    1   38 1     
   41    1   39 1     
   42   10   40 1     
@<TRIPOS>SUBSTRUCTURE
      1 S1             1
@<TRIPOS>SET
LONE_PAIRS      STATIC     ATOMS    <user>   **** ""
3 38 39 40
DONOR_HYDROGENS      STATIC     ATOMS    <user>   **** ""
3 19 37 36
ATOM$BLUE        STATIC     ATOMS    COLORGROUP SYSTEM
3 38 39 40
ATOM$RED        STATIC     ATOMS    COLORGROUP SYSTEM
3 19 37 36
