AV-unprocessed.smi:72|AV-procd|sdf|721|dock2
  -GOLD-   2262017 43D 1   1.00000     0.00000
 Structure written by MMmdl.
 28 29  0  0  0  0  0  0  0  0  2 V2000
  154.1354  138.0394  154.8990 N   0  0  0  0  0  0  0  0  0  0  0  0
  152.9135  138.3481  154.9209 C   0  0  0  0  0  0  0  0  0  0  0  0
  151.9245  137.4391  154.3836 N   0  0  0  0  0  0  0  0  0  0  0  0
  150.6796  137.8025  154.4311 C   0  0  0  0  0  0  0  0  0  0  0  0
  150.2723  139.0799  155.0029 N   0  0  0  0  0  0  0  0  0  0  0  0
  148.8170  139.5157  155.0614 C   0  0  2  0  0  0  0  0  0  0  0  0
  147.9878  138.4912  154.5897 O   0  0  0  0  0  0  0  0  0  0  0  0
  147.4298  138.8547  153.3320 C   0  0  1  0  0  0  0  0  0  0  0  0
  146.1540  138.0456  153.0400 C   0  0  0  0  0  0  0  0  0  0  0  0
  145.1071  138.4510  153.8962 O   0  0  0  0  0  0  0  0  0  0  0  0
  147.2837  140.3786  153.4287 C   0  0  1  0  0  0  0  0  0  0  0  0
  146.1086  140.7404  154.1311 O   0  0  0  0  0  0  0  0  0  0  0  0
  148.5227  140.7819  154.2173 C   0  0  2  0  0  0  0  0  0  0  0  0
  149.5640  141.1283  153.3198 O   0  0  0  0  0  0  0  0  0  0  0  0
  151.2667  139.9530  155.5189 C   0  0  0  0  0  0  0  0  0  0  0  0
  150.9033  141.0335  155.9844 O   0  0  0  0  0  0  0  0  0  0  0  0
  152.5714  139.5649  155.4674 N   0  5  0  0  0  0  0  0  0  0  0  0
  148.5946  139.6463  156.1218 H   0  0  0  0  0  0  0  0  0  0  0  0
  148.1740  138.6284  152.5665 H   0  0  0  0  0  0  0  0  0  0  0  0
  147.2421  140.8459  152.4437 H   0  0  0  0  0  0  0  0  0  0  0  0
  148.3425  141.6313  154.8774 H   0  0  0  0  0  0  0  0  0  0  0  0
  154.2935  137.1334  154.4822 H   0  0  0  0  0  0  0  0  0  0  0  0
  149.8737  137.1772  154.0483 H   0  0  0  0  0  0  0  0  0  0  0  0
  145.8387  138.2137  152.0100 H   0  0  0  0  0  0  0  0  0  0  0  0
  146.3233  136.9739  153.1469 H   0  0  0  0  0  0  0  0  0  0  0  0
  144.6448  139.1669  153.4875 H   0  0  0  0  0  0  0  0  0  0  0  0
  145.3680  140.6044  153.5602 H   0  0  0  0  0  0  0  0  0  0  0  0
  149.6573  140.4291  152.6899 H   0  0  0  0  0  0  0  0  0  0  0  0
  1  2  2  0  0  0  0
  1 22  1  0  0  0  0
  2 17  1  0  0  0  0
  2  3  1  0  0  0  0
  3  4  2  0  0  0  0
  4  5  1  0  0  0  0
  4 23  1  0  0  0  0
  5  6  1  0  0  0  0
  5 15  1  0  0  0  0
  6 18  1  0  0  0  0
  6 13  1  0  0  0  0
  6  7  1  0  0  0  0
  7  8  1  0  0  0  0
  8 19  1  0  0  0  0
  8  9  1  0  0  0  0
  8 11  1  0  0  0  0
  9 10  1  0  0  0  0
  9 24  1  0  0  0  0
  9 25  1  0  0  0  0
 10 26  1  0  0  0  0
 11 20  1  0  0  0  0
 11 12  1  0  0  0  0
 11 13  1  0  0  0  0
 12 27  1  0  0  0  0
 13 21  1  0  0  0  0
 13 14  1  0  0  0  0
 14 28  1  0  0  0  0
 15 16  2  0  0  0  0
 15 17  1  0  0  0  0
M  CHG  1  17  -1
M  END
> <s_m_source_file>
AV-unprocessed.smi

> <i_m_source_file_index>
72

> <i_lp_mmshare_version>
43012

> <i_f3d_flags>
0

> <s_epik_input>
W05IMl1jMW5bY0hdbihjKD1PKW4xKVtDQEBIXTJPW0NASF0oW0NIMl1bT0hdKVtDQEBIXShbT0hdKVtDQEhdMltPSF0=

> <s_epik_cmdline>
J2VwaWtfcHl0aG9uJywgJy1waCcsICc3LjAnLCAnLXRuJywgJzgnLCAnLW1hJywgJzIwMCcsICctbWV0YWxfYmluZGluZycsICctaW1hZScsICc8aW5maWxlLm1hZT4nLCAnLW9tYWUnLCAnPG91dGZpbGUubWFlPic=

> <r_lp_tautomer_probability>
7.17554e-07

> <r_epik_Ionization_Penalty>
12.8705

> <r_epik_Ionization_Penalty_Charging>
5.64144

> <r_epik_Ionization_Penalty_Neutral>
7.22905

> <r_epik_State_Penalty>
3.30104

> <r_epik_Charging_Adjusted_Penalty>
8.94249

> <i_epik_Tot_Q>
-1

> <i_epik_Tot_abs_Q>
1

> <r_epik_Metal_State_Penalty>
0.529074

> <b_epik_Metal_Only>
1

> <s_epik_Chemistry_Notes>
This compound contains an acetal/aminal-like group ( X-CH(R)-Y where X, Y are N, S, or O) that may be acid/base labile, releasing an aldehyde.

> <s_lp_Force_Field>
OPLS_2005

> <r_lp_Energy>
36.7485

> <b_lp_Chiralities_Consistent>
1

> <s_lp_Variant>
AV-unprocessed.smi:72-59

> <Gold.Version>
5.8.1

> <Gold.Id.Protein>
6NUR|6NUR_protein|mol2

> <Gold.PLP.Fitness>
53.8216

> <Gold.PLP.PLP>
-30.4745

> <Gold.PLP.part.hbond>
-8.8880

> <Gold.PLP.part.metal>
0.0000

> <Gold.PLP.part.buried>
-3.5916

> <Gold.PLP.part.nonpolar>
-20.1842

> <Gold.PLP.part.repulsive>
0.3198

> <Gold.PLP.ligand.clash>
0.0000

> <Gold.PLP.ligand.torsion>
0.0881

> <Gold.PLP.Chemscore.Hbond>
6.8201

> <Gold.PLP.Chemscore.CHOScore>
1.0000

> <Gold.PLP.Chemscore.Metal>
0.0000

> <Gold.Chemscore.Hbonds>
donor molecule, donor type, donor heavy atom, donor atom, acceptor molecule, acceptor atom, score
      L1  H    10    26       P1 10175  1.00
      L1  H    12    27       P1 10175  1.00
      L1  H    14    28       P1  7957  0.90
      P1  H  7989  7998       L1    14  0.01
      P1  H  7997  8008       L1    17  2.00
      P1  H  8011  8017       L1    14  0.95
      P1  H 10752 10765       L1     3  0.89
      L1  C     4    23       P1  7948  1.00

> <Gold.PLP.Chemscore.Internal.Correction>
0.0629

> <Gold.Rescore>
     Score         DG    S(hbond)    S(metal)    S(lipo)     H(rot)  DE(clash)    DE(int)     intcor
     10.83     -11.46       3.96        0.00      26.42       4.04       0.25       0.37       ----

> <Gold.Chemscore.Fitness>
10.8335

> <Gold.Chemscore.DG>
-11.4561

> <Gold.Chemscore.ZeroCoef>
-5.4800

> <Gold.Chemscore.Hbond>
3.9603

> <Gold.Chemscore.Metal>
0.0000

> <Gold.Chemscore.Lipo>
26.4244

> <Gold.Chemscore.Internal_Hbond>
0.0000

> <Gold.Chemscore.DEClash>
0.2477

> <Gold.Chemscore.DEInternal>
0.3750

> <Gold.Chemscore.Rot>
4.0403

> <Gold.Chemscore.Internal.Correction>
   9.000000E+99

> <Gold.Chemscore.Hbonds>
donor molecule, donor type, donor heavy atom, donor atom, acceptor molecule, acceptor atom, score
      L1  H    10    26       P1 10175  1.00
      L1  H    12    27       P1 10175  0.92
      L1  H    14    28       P1  7957  0.86
      P1  H  7997  8008       L1    17  0.25
      P1  H  8011  8017       L1    14  0.21
      P1  H 10752 10765       L1     3  0.32

> <Gold.Chemscore.Hbond.Weighted>
-13.2276

> <Gold.Chemscore.Metal.Weighted>
-0.0000

> <Gold.Chemscore.Lipo.Weighted>
-3.0917

> <Gold.Chemscore.Internal_Hbond.Weighted>
0.0000

> <Gold.Chemscore.DEClash.Weighted>
0.2477

> <Gold.Chemscore.DEInternal.Weighted>
0.3750

> <Gold.Chemscore.Rot.Weighted>
10.3431

> <Gold.Chemscore.Internal.Correction.Weighted>
   9.000000E+99

> <Gold.Protein.RotatedTorsions>
[ 6907 6896 6895 6894 ] final -103.52 input  -60.11 | X-H torsion
[ 7974 7965 7964 7962 ] final  162.95 input  175.53 | X-H torsion
[ 8008 7997 7996 7995 ] final  -30.18 input   59.86 | X-H torsion
[ 10167 10162 10161 10158 ] final  124.15 input  -65.29 | X-H torsion
[ 10718 10713 10712 10709 ] final  120.00 input   66.30 | X-H torsion
[ 10763 10752 10751 10750 ] final  154.43 input  -60.55 | X-H torsion
[ 11005 11000 10999 10996 ] final   25.65 input  -57.11 | X-H torsion

> <Gold.Protein.ActiveResidues>
 VAL166  LYS551  ARG553  GLY616  TRP617  ASP618  TYR619  PRO620  LYS621  CYS622 
 ASP623  PHE694  ASN695  SER759  ASP760  ASP761  ALA762  ILE779  LEU786  VAL792 
 PHE793  MET794  SER795  GLU796  ALA797  LYS798  CYS799  TRP800  GLU811  SER814 

> <Gold.Protein.RotatedAtoms>
  150.7244  134.0416  159.3767 H   0  0  0  0  0  0  0  0  0  0  0  0  # atno 6907 bound_to 6896
  151.8390  135.0594  160.0455 H   0  0  0  0  0  0  0  0  0  0  0  0  # atno 6908 bound_to 6896
  152.2877  133.5495  159.5574 H   0  0  0  0  0  0  0  0  0  0  0  0  # atno 6909 bound_to 6896
  144.7612  139.8113  143.6332 H   0  0  0  0  0  0  0  0  0  0  0  0  # atno 7974 bound_to 7965
  154.4260  140.1798  156.1366 H   0  0  0  0  0  0  0  0  0  0  0  0  # atno 8008 bound_to 7997
  156.0025  140.3358  155.6834 H   0  0  0  0  0  0  0  0  0  0  0  0  # atno 8009 bound_to 7997
  155.6223  140.0661  157.2665 H   0  0  0  0  0  0  0  0  0  0  0  0  # atno 8010 bound_to 7997
  139.5758  144.6962  151.3657 H   0  0  0  0  0  0  0  0  0  0  0  0  # atno 10167 bound_to 10162
  157.5922  131.1063  150.7975 H   0  0  0  0  0  0  0  0  0  0  0  0  # atno 10718 bound_to 10713
  154.1522  135.2814  155.3132 H   0  0  0  0  0  0  0  0  0  0  0  0  # atno 10763 bound_to 10752
  154.6209  135.5467  153.7577 H   0  0  0  0  0  0  0  0  0  0  0  0  # atno 10764 bound_to 10752
  153.0217  135.6438  154.1666 H   0  0  0  0  0  0  0  0  0  0  0  0  # atno 10765 bound_to 10752
  140.3455  134.2286  155.7685 H   0  0  0  0  0  0  0  0  0  0  0  0  # atno 11005 bound_to 11000
  146.1677  139.4815  142.9947 LP  0  0  0  0  0  0  0  0  0  0  0  0  # atno 17320 bound_to 7965
  145.6612  141.0240  143.1708 LP  0  0  0  0  0  0  0  0  0  0  0  0  # atno 17321 bound_to 7965
  140.7040  143.7559  150.7451 LP  0  0  0  0  0  0  0  0  0  0  0  0  # atno 17342 bound_to 10162
  140.1079  143.4727  152.2387 LP  0  0  0  0  0  0  0  0  0  0  0  0  # atno 17343 bound_to 10162
  156.8394  130.5043  149.5323 LP  0  0  0  0  0  0  0  0  0  0  0  0  # atno 17370 bound_to 10713
  156.0978  130.5946  150.9843 LP  0  0  0  0  0  0  0  0  0  0  0  0  # atno 17371 bound_to 10713
  141.2027  133.7932  157.0379 LP  0  0  0  0  0  0  0  0  0  0  0  0  # atno 17394 bound_to 11000
  140.0746  134.9683  157.1524 LP  0  0  0  0  0  0  0  0  0  0  0  0  # atno 17395 bound_to 11000

$$$$
