AV-unprocessed.smi:2026|AV-procd|sdf|8203|dock1
  -GOLD-   2272010463D 1   1.00000     0.00000
 Structure written by MMmdl.
 47 49  0  0  0  0  0  0  0  0  2 V2000
  152.2717  144.4104  161.3537 C   0  0  0  0  0  0  0  0  0  0  0  0
  152.1556  143.4068  160.2191 C   0  0  0  0  0  0  0  0  0  0  0  0
  151.3156  143.7182  159.1253 C   0  0  0  0  0  0  0  0  0  0  0  0
  151.2310  142.7799  158.1030 C   0  0  0  0  0  0  0  0  0  0  0  0
  150.5070  142.7855  156.9082 N   0  3  0  0  0  0  0  0  0  0  0  0
  150.7499  141.6329  156.2232 C   0  0  0  0  0  0  0  0  0  0  0  0
  151.6170  140.8923  156.9648 N   0  0  0  0  0  0  0  0  0  0  0  0
  152.2095  139.5754  156.7048 C   0  0  0  0  0  0  0  0  0  0  0  0
  151.2046  138.5969  156.0618 C   0  0  2  0  0  0  0  0  0  0  0  0
  151.7686  137.3017  156.0303 O   0  0  0  0  0  0  0  0  0  0  0  0
  150.7854  138.9870  154.6296 C   0  0  0  0  0  0  0  0  0  0  0  0
  149.3384  139.2041  154.5058 N   0  0  0  0  0  0  0  0  0  0  0  0
  148.4037  138.2621  154.7272 C   0  0  0  0  0  0  0  0  0  0  0  0
  148.6041  137.0951  155.0595 O   0  0  0  0  0  0  0  0  0  0  0  0
  147.1986  138.8061  154.5136 N   0  0  0  0  0  0  0  0  0  0  0  0
  147.2691  140.1989  154.1165 C   0  0  0  0  0  0  0  0  0  0  0  0
  146.6966  140.3947  152.7012 C   0  0  0  0  0  0  0  0  0  0  0  0
  146.5803  141.1019  155.1554 C   0  0  0  0  0  0  0  0  0  0  0  0
  148.7805  140.3669  154.1414 C   0  0  0  0  0  0  0  0  0  0  0  0
  149.3616  141.4134  153.8541 O   0  0  0  0  0  0  0  0  0  0  0  0
  151.9454  141.5678  158.1441 C   0  0  0  0  0  0  0  0  0  0  0  0
  152.7781  141.2454  159.2123 C   0  0  0  0  0  0  0  0  0  0  0  0
  152.8786  142.1862  160.2612 C   0  0  0  0  0  0  0  0  0  0  0  0
  153.7815  141.8618  161.4392 C   0  0  0  0  0  0  0  0  0  0  0  0
  151.6489  145.2878  161.1766 H   0  0  0  0  0  0  0  0  0  0  0  0
  153.3022  144.7499  161.4601 H   0  0  0  0  0  0  0  0  0  0  0  0
  151.9551  143.9620  162.2957 H   0  0  0  0  0  0  0  0  0  0  0  0
  150.7644  144.6465  159.0856 H   0  0  0  0  0  0  0  0  0  0  0  0
  150.3325  141.3582  155.2652 H   0  0  0  0  0  0  0  0  0  0  0  0
  153.0832  139.7271  156.0708 H   0  0  0  0  0  0  0  0  0  0  0  0
  152.5806  139.1796  157.6513 H   0  0  0  0  0  0  0  0  0  0  0  0
  150.3121  138.5338  156.6844 H   0  0  0  0  0  0  0  0  0  0  0  0
  152.5354  137.2939  156.5826 H   0  0  0  0  0  0  0  0  0  0  0  0
  151.3372  139.8734  154.3112 H   0  0  0  0  0  0  0  0  0  0  0  0
  151.0753  138.1974  153.9339 H   0  0  0  0  0  0  0  0  0  0  0  0
  146.3251  138.3092  154.6118 H   0  0  0  0  0  0  0  0  0  0  0  0
  146.7847  141.4328  152.3784 H   0  0  0  0  0  0  0  0  0  0  0  0
  145.6396  140.1294  152.6668 H   0  0  0  0  0  0  0  0  0  0  0  0
  147.2123  139.7751  151.9667 H   0  0  0  0  0  0  0  0  0  0  0  0
  146.6348  142.1516  154.8647 H   0  0  0  0  0  0  0  0  0  0  0  0
  147.0398  141.0083  156.1407 H   0  0  0  0  0  0  0  0  0  0  0  0
  145.5261  140.8448  155.2605 H   0  0  0  0  0  0  0  0  0  0  0  0
  153.3305  140.3184  159.2398 H   0  0  0  0  0  0  0  0  0  0  0  0
  154.2929  140.9091  161.2996 H   0  0  0  0  0  0  0  0  0  0  0  0
  153.2007  141.7971  162.3594 H   0  0  0  0  0  0  0  0  0  0  0  0
  154.5436  142.6315  161.5625 H   0  0  0  0  0  0  0  0  0  0  0  0
  149.8935  143.5205  156.5810 H   0  0  0  0  0  0  0  0  0  0  0  0
  1  2  1  0  0  0  0
  1 25  1  0  0  0  0
  1 26  1  0  0  0  0
  1 27  1  0  0  0  0
  2 23  1  0  0  0  0
  2  3  2  0  0  0  0
  3  4  1  0  0  0  0
  3 28  1  0  0  0  0
  4 21  2  0  0  0  0
  4  5  1  0  0  0  0
  5  6  2  0  0  0  0
  5 47  1  0  0  0  0
  6  7  1  0  0  0  0
  6 29  1  0  0  0  0
  7  8  1  0  0  0  0
  7 21  1  0  0  0  0
  8  9  1  0  0  0  0
  8 30  1  0  0  0  0
  8 31  1  0  0  0  0
  9 10  1  0  0  0  0
  9 11  1  0  0  0  0
  9 32  1  0  0  0  0
 10 33  1  0  0  0  0
 11 12  1  0  0  0  0
 11 34  1  0  0  0  0
 11 35  1  0  0  0  0
 12 19  1  0  0  0  0
 12 13  1  0  0  0  0
 13 14  2  0  0  0  0
 13 15  1  0  0  0  0
 15 16  1  0  0  0  0
 15 36  1  0  0  0  0
 16 17  1  0  0  0  0
 16 18  1  0  0  0  0
 16 19  1  0  0  0  0
 17 37  1  0  0  0  0
 17 38  1  0  0  0  0
 17 39  1  0  0  0  0
 18 40  1  0  0  0  0
 18 41  1  0  0  0  0
 18 42  1  0  0  0  0
 19 20  2  0  0  0  0
 21 22  1  0  0  0  0
 22 23  2  0  0  0  0
 22 43  1  0  0  0  0
 23 24  1  0  0  0  0
 24 44  1  0  0  0  0
 24 45  1  0  0  0  0
 24 46  1  0  0  0  0
M  CHG  1   5   1
M  END
> <s_m_source_file>
AV-unprocessed.smi

> <i_m_source_file_index>
2026

> <i_lp_mmshare_version>
43012

> <i_f3d_flags>
0

> <s_epik_input>
W0NIM11jKFtjSF0xKWMoW0NIM10pW2NIXWMoYzEyKW4oW2NIXW4yKVtDSDJdW0NASF0oW09IXSlbQ0gyXU4oQzM9TylDKD1PKVtOSF1DMyhbQ0gzXSlbQ0gzXQ==

> <s_epik_cmdline>
J2VwaWtfcHl0aG9uJywgJy1waCcsICc3LjAnLCAnLXRuJywgJzgnLCAnLW1hJywgJzIwMCcsICctbWV0YWxfYmluZGluZycsICctaW1hZScsICc8aW5maWxlLm1hZT4nLCAnLW9tYWUnLCAnPG91dGZpbGUubWFlPic=

> <r_lp_tautomer_probability>
1

> <r_epik_Ionization_Penalty>
1.08255

> <r_epik_Ionization_Penalty_Charging>
1.08249

> <r_epik_Ionization_Penalty_Neutral>
6.65731e-05

> <r_epik_State_Penalty>
1.13805

> <r_epik_Charging_Adjusted_Penalty>
2.22054

> <i_epik_Tot_Q>
1

> <i_epik_Tot_abs_Q>
1

> <r_epik_Metal_State_Penalty>
1.29676

> <b_epik_Metal_Only>
0

> <s_lp_Force_Field>
OPLS_2005

> <r_lp_Energy>
25.6396

> <b_lp_Chiralities_Consistent>
1

> <s_lp_Variant>
AV-unprocessed.smi:2026-3

> <Gold.Version>
5.8.1

> <Gold.Id.Protein>
6NUR|6NUR_protein|mol2

> <Gold.PLP.Fitness>
51.7987

> <Gold.PLP.PLP>
-45.2999

> <Gold.PLP.part.hbond>
-3.0000

> <Gold.PLP.part.metal>
0.0000

> <Gold.PLP.part.buried>
-1.2574

> <Gold.PLP.part.nonpolar>
-41.0290

> <Gold.PLP.part.repulsive>
1.2971

> <Gold.PLP.ligand.clash>
0.0000

> <Gold.PLP.ligand.torsion>
1.0788

> <Gold.PLP.Chemscore.Hbond>
2.8745

> <Gold.PLP.Chemscore.CHOScore>
0.0000

> <Gold.PLP.Chemscore.Metal>
0.0000

> <Gold.Chemscore.Hbonds>
donor molecule, donor type, donor heavy atom, donor atom, acceptor molecule, acceptor atom, score
      L1  H     5    47       P1  8028  2.00
      P1  H  7989  7998       L1    20  0.06
      P1  H  8011  8017       L1    20  0.77

> <Gold.PLP.Chemscore.Internal.Correction>
0.0330

> <Gold.Rescore>
     Score         DG    S(hbond)    S(metal)    S(lipo)     H(rot)  DE(clash)    DE(int)     intcor
     16.41     -19.26       1.90        0.00     118.16       2.49       0.35       2.51       ----

> <Gold.Chemscore.Fitness>
16.4061

> <Gold.Chemscore.DG>
-19.2589

> <Gold.Chemscore.ZeroCoef>
-5.4800

> <Gold.Chemscore.Hbond>
1.8972

> <Gold.Chemscore.Metal>
0.0000

> <Gold.Chemscore.Lipo>
118.1554

> <Gold.Chemscore.Internal_Hbond>
0.0000

> <Gold.Chemscore.DEClash>
0.3452

> <Gold.Chemscore.DEInternal>
2.5076

> <Gold.Chemscore.Rot>
2.4929

> <Gold.Chemscore.Internal.Correction>
   9.000000E+99

> <Gold.Chemscore.Hbonds>
donor molecule, donor type, donor heavy atom, donor atom, acceptor molecule, acceptor atom, score
      L1  H     5    47       P1  8028  1.00
      P1  H  7989  7998       L1    20  0.04
      P1  H  8011  8017       L1    20  0.78

> <Gold.Chemscore.Hbond.Weighted>
-6.3366

> <Gold.Chemscore.Metal.Weighted>
-0.0000

> <Gold.Chemscore.Lipo.Weighted>
-13.8242

> <Gold.Chemscore.Internal_Hbond.Weighted>
0.0000

> <Gold.Chemscore.DEClash.Weighted>
0.3452

> <Gold.Chemscore.DEInternal.Weighted>
2.5076

> <Gold.Chemscore.Rot.Weighted>
6.3819

> <Gold.Chemscore.Internal.Correction.Weighted>
   9.000000E+99

> <Gold.Protein.RotatedTorsions>
[ 6907 6896 6895 6894 ] final  168.21 input  -60.11 | X-H torsion
[ 7974 7965 7964 7962 ] final -166.31 input  175.53 | X-H torsion
[ 8008 7997 7996 7995 ] final -114.71 input   59.86 | X-H torsion
[ 10167 10162 10161 10158 ] final   32.26 input  -65.29 | X-H torsion
[ 10718 10713 10712 10709 ] final   87.22 input   66.30 | X-H torsion
[ 10763 10752 10751 10750 ] final -158.14 input  -60.55 | X-H torsion
[ 11005 11000 10999 10996 ] final -120.25 input  -57.11 | X-H torsion

> <Gold.Protein.ActiveResidues>
 VAL166  LYS551  ARG553  GLY616  TRP617  ASP618  TYR619  PRO620  LYS621  CYS622 
 ASP623  PHE694  ASN695  SER759  ASP760  ASP761  ALA762  ILE779  LEU786  VAL792 
 PHE793  MET794  SER795  GLU796  ALA797  LYS798  CYS799  TRP800  GLU811  SER814 

> <Gold.Protein.RotatedAtoms>
  151.8512  133.3440  159.3673 H   0  0  0  0  0  0  0  0  0  0  0  0  # atno 6907 bound_to 6896
  150.7206  134.5297  159.5703 H   0  0  0  0  0  0  0  0  0  0  0  0  # atno 6908 bound_to 6896
  152.2791  134.7849  160.0451 H   0  0  0  0  0  0  0  0  0  0  0  0  # atno 6909 bound_to 6896
  144.7248  140.2686  143.6254 H   0  0  0  0  0  0  0  0  0  0  0  0  # atno 7974 bound_to 7965
  155.0406  140.0392  157.2508 H   0  0  0  0  0  0  0  0  0  0  0  0  # atno 8008 bound_to 7997
  154.7220  140.2713  155.6509 H   0  0  0  0  0  0  0  0  0  0  0  0  # atno 8009 bound_to 7997
  156.2819  140.2701  156.1894 H   0  0  0  0  0  0  0  0  0  0  0  0  # atno 8010 bound_to 7997
  140.4515  144.1041  150.6193 H   0  0  0  0  0  0  0  0  0  0  0  0  # atno 10167 bound_to 10162
  157.6938  131.0247  150.3091 H   0  0  0  0  0  0  0  0  0  0  0  0  # atno 10718 bound_to 10713
  154.7580  135.3110  154.8433 H   0  0  0  0  0  0  0  0  0  0  0  0  # atno 10763 bound_to 10752
  153.9201  135.6796  153.4752 H   0  0  0  0  0  0  0  0  0  0  0  0  # atno 10764 bound_to 10752
  153.1179  135.4836  154.9076 H   0  0  0  0  0  0  0  0  0  0  0  0  # atno 10765 bound_to 10752
  141.0157  134.0199  157.3353 H   0  0  0  0  0  0  0  0  0  0  0  0  # atno 11005 bound_to 11000
  145.8065  139.1986  143.2017 LP  0  0  0  0  0  0  0  0  0  0  0  0  # atno 17320 bound_to 7965
  146.0632  140.7949  142.9724 LP  0  0  0  0  0  0  0  0  0  0  0  0  # atno 17321 bound_to 7965
  140.4202  143.2615  151.9725 LP  0  0  0  0  0  0  0  0  0  0  0  0  # atno 17342 bound_to 10162
  139.4797  144.5838  151.7888 LP  0  0  0  0  0  0  0  0  0  0  0  0  # atno 17343 bound_to 10162
  156.3595  130.3844  149.7263 LP  0  0  0  0  0  0  0  0  0  0  0  0  # atno 17370 bound_to 10713
  156.4714  130.7998  151.3016 LP  0  0  0  0  0  0  0  0  0  0  0  0  # atno 17371 bound_to 10713
  139.9116  135.0191  156.7713 LP  0  0  0  0  0  0  0  0  0  0  0  0  # atno 17394 bound_to 11000
  140.6658  133.9603  155.7830 LP  0  0  0  0  0  0  0  0  0  0  0  0  # atno 17395 bound_to 11000

$$$$
