AV-unprocessed.smi:2360|AV-procd|sdf|9409|dock5
  -GOLD-   2272013 43D 1   1.00000     0.00000
 Structure written by MMmdl.
 34 35  0  0  0  0  0  0  0  0  1 V2000
  146.8226  139.6225  153.0633 C   0  0  0  0  0  0  0  0  0  0  0  0
  148.0232  139.9404  153.9370 C   0  0  0  0  0  0  0  0  0  0  0  0
  148.4024  141.2854  153.9757 N   0  0  0  0  0  0  0  0  0  0  0  0
  149.4170  141.6491  154.6898 C   0  0  0  0  0  0  0  0  0  0  0  0
  150.1625  140.7234  155.4377 N   0  0  0  0  0  0  0  0  0  0  0  0
  151.2951  141.2664  156.2066 C   0  0  0  0  0  0  0  0  0  0  0  0
  150.8567  142.3624  157.2032 C   0  0  2  0  0  0  0  0  0  0  0  0
  151.0636  143.6274  156.6057 O   0  0  0  0  0  0  0  0  0  0  0  0
  151.6168  142.2395  158.5152 C   0  0  0  0  0  0  0  0  0  0  0  0
  152.4336  141.1128  158.7513 C   0  0  0  0  0  0  0  0  0  0  0  0
  153.1488  140.9945  159.9589 C   0  0  0  0  0  0  0  0  0  0  0  0
  153.0539  142.0033  160.9367 C   0  0  0  0  0  0  0  0  0  0  0  0
  153.7425  141.8879  162.0969 F   0  0  0  0  0  0  0  0  0  0  0  0
  152.2441  143.1324  160.7052 C   0  0  0  0  0  0  0  0  0  0  0  0
  152.1531  144.1057  161.6425 F   0  0  0  0  0  0  0  0  0  0  0  0
  151.5289  143.2508  159.4976 C   0  0  0  0  0  0  0  0  0  0  0  0
  149.8544  139.3943  155.4645 C   0  0  0  0  0  0  0  0  0  0  0  0
  150.5063  138.5927  156.1369 O   0  0  0  0  0  0  0  0  0  0  0  0
  148.7000  138.9945  154.6436 C   0  0  0  0  0  0  0  0  0  0  0  0
  148.3335  137.5155  154.6398 C   0  0  0  0  0  0  0  0  0  0  0  0
  147.0980  138.9174  152.2786 H   0  0  0  0  0  0  0  0  0  0  0  0
  146.4320  140.5201  152.5821 H   0  0  0  0  0  0  0  0  0  0  0  0
  146.0206  139.1867  153.6596 H   0  0  0  0  0  0  0  0  0  0  0  0
  149.7507  142.6861  154.7575 H   0  0  0  0  0  0  0  0  0  0  0  0
  151.7490  140.4414  156.7595 H   0  0  0  0  0  0  0  0  0  0  0  0
  152.0990  141.6318  155.5638 H   0  0  0  0  0  0  0  0  0  0  0  0
  149.7911  142.2726  157.4186 H   0  0  0  0  0  0  0  0  0  0  0  0
  150.2333  144.0770  156.5624 H   0  0  0  0  0  0  0  0  0  0  0  0
  152.5168  140.3353  158.0058 H   0  0  0  0  0  0  0  0  0  0  0  0
  153.7718  140.1298  160.1340 H   0  0  0  0  0  0  0  0  0  0  0  0
  150.9141  144.1224  159.3267 H   0  0  0  0  0  0  0  0  0  0  0  0
  148.0957  137.1844  155.6511 H   0  0  0  0  0  0  0  0  0  0  0  0
  149.1731  136.9215  154.2774 H   0  0  0  0  0  0  0  0  0  0  0  0
  147.4752  137.2869  154.0101 H   0  0  0  0  0  0  0  0  0  0  0  0
  1  2  1  0  0  0  0
  1 21  1  0  0  0  0
  1 22  1  0  0  0  0
  1 23  1  0  0  0  0
  2 19  2  0  0  0  0
  2  3  1  0  0  0  0
  3  4  2  0  0  0  0
  4  5  1  0  0  0  0
  4 24  1  0  0  0  0
  5  6  1  0  0  0  0
  5 17  1  0  0  0  0
  6  7  1  0  0  0  0
  6 25  1  0  0  0  0
  6 26  1  0  0  0  0
  7  8  1  0  0  0  0
  7  9  1  0  0  0  0
  7 27  1  0  0  0  0
  8 28  1  0  0  0  0
  9 16  1  0  0  0  0
  9 10  2  0  0  0  0
 10 11  1  0  0  0  0
 10 29  1  0  0  0  0
 11 12  2  0  0  0  0
 11 30  1  0  0  0  0
 12 13  1  0  0  0  0
 12 14  1  0  0  0  0
 14 15  1  0  0  0  0
 14 16  2  0  0  0  0
 16 31  1  0  0  0  0
 17 18  2  0  0  0  0
 17 19  1  0  0  0  0
 19 20  1  0  0  0  0
 20 32  1  0  0  0  0
 20 33  1  0  0  0  0
 20 34  1  0  0  0  0
M  END
> <s_m_source_file>
AV-unprocessed.smi

> <i_m_source_file_index>
2360

> <i_lp_mmshare_version>
43012

> <i_f3d_flags>
0

> <s_epik_input>
W0NIM11jMW5bY0hdbihjKD1PKWMxW0NIM10pW0NIMl1bQ0BIXShbT0hdKWMyW2NIXVtjSF1jKEYpYyhGKVtjSF0y

> <s_epik_cmdline>
J2VwaWtfcHl0aG9uJywgJy1waCcsICc3LjAnLCAnLXRuJywgJzgnLCAnLW1hJywgJzIwMCcsICctbWV0YWxfYmluZGluZycsICctaW1hZScsICc8aW5maWxlLm1hZT4nLCAnLW9tYWUnLCAnPG91dGZpbGUubWFlPic=

> <r_lp_tautomer_probability>
1

> <r_epik_Ionization_Penalty>
5.07449e-05

> <r_epik_Ionization_Penalty_Charging>
7.56727e-08

> <r_epik_Ionization_Penalty_Neutral>
5.06692e-05

> <r_epik_State_Penalty>
-0

> <r_epik_Charging_Adjusted_Penalty>
7.56727e-08

> <i_epik_Tot_Q>
0

> <i_epik_Tot_abs_Q>
0

> <r_epik_Metal_State_Penalty>
-0

> <b_epik_Metal_Only>
0

> <s_lp_Force_Field>
OPLS_2005

> <r_lp_Energy>
18.6732

> <b_lp_Chiralities_Consistent>
1

> <s_lp_Variant>
AV-unprocessed.smi:2360-1

> <Gold.Version>
5.8.1

> <Gold.Id.Protein>
6NUR|6NUR_protein|mol2

> <Gold.PLP.Fitness>
46.3165

> <Gold.PLP.PLP>
-41.7372

> <Gold.PLP.part.hbond>
-1.3360

> <Gold.PLP.part.metal>
0.0000

> <Gold.PLP.part.buried>
-2.1867

> <Gold.PLP.part.nonpolar>
-37.6226

> <Gold.PLP.part.repulsive>
0.1518

> <Gold.PLP.ligand.clash>
0.0000

> <Gold.PLP.ligand.torsion>
0.7130

> <Gold.PLP.Chemscore.Hbond>
1.0000

> <Gold.PLP.Chemscore.CHOScore>
1.0000

> <Gold.PLP.Chemscore.Metal>
0.0000

> <Gold.Chemscore.Hbonds>
donor molecule, donor type, donor heavy atom, donor atom, acceptor molecule, acceptor atom, score
      L1  H     8    28       P1  8028  1.00
      L1  C     4    24       P1  8028  1.00

> <Gold.PLP.Chemscore.Internal.Correction>
0.0053

> <Gold.Rescore>
     Score         DG    S(hbond)    S(metal)    S(lipo)     H(rot)  DE(clash)    DE(int)     intcor
     13.77     -14.37       0.98        0.00      94.08       2.11       0.05       0.55       ----

> <Gold.Chemscore.Fitness>
13.7652

> <Gold.Chemscore.DG>
-14.3683

> <Gold.Chemscore.ZeroCoef>
-5.4800

> <Gold.Chemscore.Hbond>
0.9826

> <Gold.Chemscore.Metal>
0.0000

> <Gold.Chemscore.Lipo>
94.0797

> <Gold.Chemscore.Internal_Hbond>
0.0000

> <Gold.Chemscore.DEClash>
0.0532

> <Gold.Chemscore.DEInternal>
0.5500

> <Gold.Chemscore.Rot>
2.1097

> <Gold.Chemscore.Internal.Correction>
   9.000000E+99

> <Gold.Chemscore.Hbonds>
donor molecule, donor type, donor heavy atom, donor atom, acceptor molecule, acceptor atom, score
      L1  H     8    28       P1  8028  0.96

> <Gold.Chemscore.Hbond.Weighted>
-3.2820

> <Gold.Chemscore.Metal.Weighted>
-0.0000

> <Gold.Chemscore.Lipo.Weighted>
-11.0073

> <Gold.Chemscore.Internal_Hbond.Weighted>
0.0000

> <Gold.Chemscore.DEClash.Weighted>
0.0532

> <Gold.Chemscore.DEInternal.Weighted>
0.5500

> <Gold.Chemscore.Rot.Weighted>
5.4009

> <Gold.Chemscore.Internal.Correction.Weighted>
   9.000000E+99

> <Gold.Protein.RotatedTorsions>
[ 6907 6896 6895 6894 ] final -147.13 input  -60.11 | X-H torsion
[ 7974 7965 7964 7962 ] final   33.01 input  175.53 | X-H torsion
[ 8008 7997 7996 7995 ] final  -95.91 input   59.86 | X-H torsion
[ 10167 10162 10161 10158 ] final   -4.62 input  -65.29 | X-H torsion
[ 10718 10713 10712 10709 ] final -126.33 input   66.30 | X-H torsion
[ 10763 10752 10751 10750 ] final  -34.37 input  -60.55 | X-H torsion
[ 11005 11000 10999 10996 ] final -178.01 input  -57.11 | X-H torsion

> <Gold.Protein.ActiveResidues>
 VAL166  LYS551  ARG553  GLY616  TRP617  ASP618  TYR619  PRO620  LYS621  CYS622 
 ASP623  PHE694  ASN695  SER759  ASP760  ASP761  ALA762  ILE779  LEU786  VAL792 
 PHE793  MET794  SER795  GLU796  ALA797  LYS798  CYS799  TRP800  GLU811  SER814 

> <Gold.Protein.RotatedAtoms>
  151.1513  133.4905  159.2595 H   0  0  0  0  0  0  0  0  0  0  0  0  # atno 6907 bound_to 6896
  151.1551  135.0246  159.8695 H   0  0  0  0  0  0  0  0  0  0  0  0  # atno 6908 bound_to 6896
  152.5463  134.1393  159.8525 H   0  0  0  0  0  0  0  0  0  0  0  0  # atno 6909 bound_to 6896
  146.1449  139.6452  142.9138 H   0  0  0  0  0  0  0  0  0  0  0  0  # atno 7974 bound_to 7965
  154.7676  140.0476  157.1024 H   0  0  0  0  0  0  0  0  0  0  0  0  # atno 8008 bound_to 7997
  154.9861  140.3107  155.4906 H   0  0  0  0  0  0  0  0  0  0  0  0  # atno 8009 bound_to 7997
  156.2915  140.2227  156.4963 H   0  0  0  0  0  0  0  0  0  0  0  0  # atno 8010 bound_to 7997
  140.6934  143.6403  150.8442 H   0  0  0  0  0  0  0  0  0  0  0  0  # atno 10167 bound_to 10162
  156.1756  130.6697  151.0237 H   0  0  0  0  0  0  0  0  0  0  0  0  # atno 10718 bound_to 10713
  153.8456  135.6853  153.4798 H   0  0  0  0  0  0  0  0  0  0  0  0  # atno 10763 bound_to 10752
  153.1428  135.4650  154.9519 H   0  0  0  0  0  0  0  0  0  0  0  0  # atno 10764 bound_to 10752
  154.7825  135.3273  154.7905 H   0  0  0  0  0  0  0  0  0  0  0  0  # atno 10765 bound_to 10752
  140.4346  134.6488  157.4728 H   0  0  0  0  0  0  0  0  0  0  0  0  # atno 11005 bound_to 11000
  145.4961  141.0438  143.2566 LP  0  0  0  0  0  0  0  0  0  0  0  0  # atno 17320 bound_to 7965
  144.7835  139.6476  143.7144 LP  0  0  0  0  0  0  0  0  0  0  0  0  # atno 17321 bound_to 7965
  140.0118  143.5634  152.2836 LP  0  0  0  0  0  0  0  0  0  0  0  0  # atno 17342 bound_to 10162
  139.6361  144.7650  151.2435 LP  0  0  0  0  0  0  0  0  0  0  0  0  # atno 17343 bound_to 10162
  157.6833  131.0832  150.7311 LP  0  0  0  0  0  0  0  0  0  0  0  0  # atno 17370 bound_to 10713
  156.7369  130.4727  149.5486 LP  0  0  0  0  0  0  0  0  0  0  0  0  # atno 17371 bound_to 10713
  140.0111  134.6689  155.9379 LP  0  0  0  0  0  0  0  0  0  0  0  0  # atno 17394 bound_to 11000
  141.1731  133.6538  156.4727 LP  0  0  0  0  0  0  0  0  0  0  0  0  # atno 17395 bound_to 11000

$$$$
