AV-unprocessed.smi:3107|AV-procd|sdf|11825|dock3
  -GOLD-   2272017193D 1   1.00000     0.00000
 Structure written by MMmdl.
 37 38  0  0  0  0  0  0  0  0  2 V2000
  152.0395  137.9635  154.4745 C   0  0  0  0  0  0  0  0  0  0  0  0
  150.6487  138.2350  154.3444 C   0  0  0  0  0  0  0  0  0  0  0  0
  150.2489  139.2308  155.1191 N   0  0  0  0  0  0  0  0  0  0  0  0
  151.3660  139.6250  155.7671 N   0  0  0  0  0  0  0  0  0  0  0  0
  151.2958  140.7175  156.7175 C   0  0  0  0  0  0  0  0  0  0  0  0
  150.5540  141.9293  156.1356 C   0  0  0  0  0  0  0  0  0  0  0  0
  150.5209  143.0440  157.1015 N   0  3  0  0  0  0  0  0  0  0  0  0
  151.8328  143.3591  157.7020 C   0  0  0  0  0  0  0  0  0  0  0  0
  151.9721  142.7558  159.1121 C   0  0  0  0  0  0  0  0  0  0  0  0
  152.1408  143.8647  160.1715 C   0  0  0  0  0  0  0  0  0  0  0  0
  152.2884  143.2855  161.5881 C   0  0  0  0  0  0  0  0  0  0  0  0
  153.4523  142.2861  161.6638 C   0  0  0  0  0  0  0  0  0  0  0  0
  153.2931  141.1743  160.6162 C   0  0  0  0  0  0  0  0  0  0  0  0
  153.1487  141.7589  159.2016 C   0  0  0  0  0  0  0  0  0  0  0  0
  152.4633  138.8755  155.3982 C   0  0  0  0  0  0  0  0  0  0  0  0
  152.6320  137.2150  153.9694 H   0  0  0  0  0  0  0  0  0  0  0  0
  149.9229  137.7420  153.7145 H   0  0  0  0  0  0  0  0  0  0  0  0
  150.7980  140.3596  157.6203 H   0  0  0  0  0  0  0  0  0  0  0  0
  152.3114  140.9942  157.0040 H   0  0  0  0  0  0  0  0  0  0  0  0
  151.0444  142.2614  155.2193 H   0  0  0  0  0  0  0  0  0  0  0  0
  149.5312  141.6549  155.8735 H   0  0  0  0  0  0  0  0  0  0  0  0
  150.1792  143.8686  156.6287 H   0  0  0  0  0  0  0  0  0  0  0  0
  152.6312  142.9948  157.0537 H   0  0  0  0  0  0  0  0  0  0  0  0
  151.9339  144.4442  157.7524 H   0  0  0  0  0  0  0  0  0  0  0  0
  151.0498  142.2196  159.3421 H   0  0  0  0  0  0  0  0  0  0  0  0
  153.0169  144.4706  159.9353 H   0  0  0  0  0  0  0  0  0  0  0  0
  151.2845  144.5398  160.1457 H   0  0  0  0  0  0  0  0  0  0  0  0
  152.4460  144.0923  162.3045 H   0  0  0  0  0  0  0  0  0  0  0  0
  151.3614  142.7905  161.8801 H   0  0  0  0  0  0  0  0  0  0  0  0
  154.3955  142.8096  161.5016 H   0  0  0  0  0  0  0  0  0  0  0  0
  153.5064  141.8520  162.6626 H   0  0  0  0  0  0  0  0  0  0  0  0
  154.1514  140.5030  160.6548 H   0  0  0  0  0  0  0  0  0  0  0  0
  152.4171  140.5694  160.8544 H   0  0  0  0  0  0  0  0  0  0  0  0
  153.0110  140.9431  158.4914 H   0  0  0  0  0  0  0  0  0  0  0  0
  154.0772  142.2578  158.9205 H   0  0  0  0  0  0  0  0  0  0  0  0
  153.4431  139.0510  155.8173 H   0  0  0  0  0  0  0  0  0  0  0  0
  149.8785  142.8070  157.8440 H   0  0  0  0  0  0  0  0  0  0  0  0
  1 15  2  0  0  0  0
  1  2  1  0  0  0  0
  1 16  1  0  0  0  0
  2  3  2  0  0  0  0
  2 17  1  0  0  0  0
  3  4  1  0  0  0  0
  4  5  1  0  0  0  0
  4 15  1  0  0  0  0
  5  6  1  0  0  0  0
  5 18  1  0  0  0  0
  5 19  1  0  0  0  0
  6  7  1  0  0  0  0
  6 20  1  0  0  0  0
  6 21  1  0  0  0  0
  7  8  1  0  0  0  0
  7 22  1  0  0  0  0
  7 37  1  0  0  0  0
  8  9  1  0  0  0  0
  8 23  1  0  0  0  0
  8 24  1  0  0  0  0
  9 14  1  0  0  0  0
  9 10  1  0  0  0  0
  9 25  1  0  0  0  0
 10 11  1  0  0  0  0
 10 26  1  0  0  0  0
 10 27  1  0  0  0  0
 11 12  1  0  0  0  0
 11 28  1  0  0  0  0
 11 29  1  0  0  0  0
 12 13  1  0  0  0  0
 12 30  1  0  0  0  0
 12 31  1  0  0  0  0
 13 14  1  0  0  0  0
 13 32  1  0  0  0  0
 13 33  1  0  0  0  0
 14 34  1  0  0  0  0
 14 35  1  0  0  0  0
 15 36  1  0  0  0  0
M  CHG  1   7   1
M  END
> <s_m_source_file>
AV-unprocessed.smi

> <i_m_source_file_index>
3107

> <i_lp_mmshare_version>
43012

> <i_f3d_flags>
0

> <s_epik_input>
W2NIXTFbY0hdW2NIXW5uMVtDSDJdW0NIMl1bTkhdW0NIMl1bQ0hdMltDSDJdW0NIMl1bQ0gyXVtDSDJdW0NIMl0y

> <s_epik_cmdline>
J2VwaWtfcHl0aG9uJywgJy1waCcsICc3LjAnLCAnLXRuJywgJzgnLCAnLW1hJywgJzIwMCcsICctbWV0YWxfYmluZGluZycsICctaW1hZScsICc8aW5maWxlLm1hZT4nLCAnLW9tYWUnLCAnPG91dGZpbGUubWFlPic=

> <r_lp_tautomer_probability>
1

> <r_epik_Ionization_Penalty>
0.00174339

> <r_epik_Ionization_Penalty_Charging>
0.00174052

> <r_epik_Ionization_Penalty_Neutral>
2.86298e-06

> <r_epik_State_Penalty>
-0

> <r_epik_Charging_Adjusted_Penalty>
0.00174052

> <i_epik_Tot_Q>
1

> <i_epik_Tot_abs_Q>
1

> <r_epik_Metal_State_Penalty>
-0

> <b_epik_Metal_Only>
0

> <s_lp_Force_Field>
OPLS_2005

> <r_lp_Energy>
13.3768

> <b_lp_Chiralities_Consistent>
1

> <s_lp_Variant>
AV-unprocessed.smi:3107-1

> <Gold.Version>
5.8.1

> <Gold.Id.Protein>
6NUR|6NUR_protein|mol2

> <Gold.PLP.Fitness>
48.2730

> <Gold.PLP.PLP>
-41.7643

> <Gold.PLP.part.hbond>
-1.0000

> <Gold.PLP.part.metal>
0.0000

> <Gold.PLP.part.buried>
-5.0401

> <Gold.PLP.part.nonpolar>
-36.1488

> <Gold.PLP.part.repulsive>
0.0801

> <Gold.PLP.ligand.clash>
0.0000

> <Gold.PLP.ligand.torsion>
1.1821

> <Gold.PLP.Chemscore.Hbond>
2.0000

> <Gold.PLP.Chemscore.CHOScore>
0.9355

> <Gold.PLP.Chemscore.Metal>
0.0000

> <Gold.Chemscore.Hbonds>
donor molecule, donor type, donor heavy atom, donor atom, acceptor molecule, acceptor atom, score
      L1  H     7    22       P1  8028  2.00
      L1  C     2    17       P1  7948  0.97

> <Gold.PLP.Chemscore.Internal.Correction>
0.0665

> <Gold.Rescore>
     Score         DG    S(hbond)    S(metal)    S(lipo)     H(rot)  DE(clash)    DE(int)     intcor
     17.27     -18.41       1.00        0.00     116.78       1.59       0.06       1.07       ----

> <Gold.Chemscore.Fitness>
17.2710

> <Gold.Chemscore.DG>
-18.4069

> <Gold.Chemscore.ZeroCoef>
-5.4800

> <Gold.Chemscore.Hbond>
0.9961

> <Gold.Chemscore.Metal>
0.0000

> <Gold.Chemscore.Lipo>
116.7792

> <Gold.Chemscore.Internal_Hbond>
0.0000

> <Gold.Chemscore.DEClash>
0.0611

> <Gold.Chemscore.DEInternal>
1.0747

> <Gold.Chemscore.Rot>
1.5872

> <Gold.Chemscore.Internal.Correction>
   9.000000E+99

> <Gold.Chemscore.Hbonds>
donor molecule, donor type, donor heavy atom, donor atom, acceptor molecule, acceptor atom, score
      L1  H     7    22       P1  8028  0.96

> <Gold.Chemscore.Hbond.Weighted>
-3.3270

> <Gold.Chemscore.Metal.Weighted>
-0.0000

> <Gold.Chemscore.Lipo.Weighted>
-13.6632

> <Gold.Chemscore.Internal_Hbond.Weighted>
0.0000

> <Gold.Chemscore.DEClash.Weighted>
0.0611

> <Gold.Chemscore.DEInternal.Weighted>
1.0747

> <Gold.Chemscore.Rot.Weighted>
4.0633

> <Gold.Chemscore.Internal.Correction.Weighted>
   9.000000E+99

> <Gold.Protein.RotatedTorsions>
[ 6907 6896 6895 6894 ] final  -42.78 input  -60.11 | X-H torsion
[ 7974 7965 7964 7962 ] final -128.31 input  175.53 | X-H torsion
[ 8008 7997 7996 7995 ] final  114.80 input   59.86 | X-H torsion
[ 10167 10162 10161 10158 ] final -127.54 input  -65.29 | X-H torsion
[ 10718 10713 10712 10709 ] final   34.09 input   66.30 | X-H torsion
[ 10763 10752 10751 10750 ] final  -41.94 input  -60.55 | X-H torsion
[ 11005 11000 10999 10996 ] final   17.37 input  -57.11 | X-H torsion

> <Gold.Protein.ActiveResidues>
 VAL166  LYS551  ARG553  GLY616  TRP617  ASP618  TYR619  PRO620  LYS621  CYS622 
 ASP623  PHE694  ASN695  SER759  ASP760  ASP761  ALA762  ILE779  LEU786  VAL792 
 PHE793  MET794  SER795  GLU796  ALA797  LYS798  CYS799  TRP800  GLU811  SER814 

> <Gold.Protein.RotatedAtoms>
  150.9514  134.8913  159.7673 H   0  0  0  0  0  0  0  0  0  0  0  0  # atno 6907 bound_to 6896
  152.5121  134.3802  159.9358 H   0  0  0  0  0  0  0  0  0  0  0  0  # atno 6908 bound_to 6896
  151.3817  133.3778  159.2745 H   0  0  0  0  0  0  0  0  0  0  0  0  # atno 6909 bound_to 6896
  144.9683  140.7519  143.4686 H   0  0  0  0  0  0  0  0  0  0  0  0  # atno 7974 bound_to 7965
  156.2343  140.2951  156.0271 H   0  0  0  0  0  0  0  0  0  0  0  0  # atno 8008 bound_to 7997
  155.2136  140.0413  157.2954 H   0  0  0  0  0  0  0  0  0  0  0  0  # atno 8009 bound_to 7997
  154.6051  140.2437  155.7749 H   0  0  0  0  0  0  0  0  0  0  0  0  # atno 8010 bound_to 7997
  139.9598  143.5963  152.2449 H   0  0  0  0  0  0  0  0  0  0  0  0  # atno 10167 bound_to 10162
  157.3060  130.7375  149.6695 H   0  0  0  0  0  0  0  0  0  0  0  0  # atno 10718 bound_to 10713
  153.9708  135.6728  153.4747 H   0  0  0  0  0  0  0  0  0  0  0  0  # atno 10763 bound_to 10752
  153.0794  135.4931  154.8468 H   0  0  0  0  0  0  0  0  0  0  0  0  # atno 10764 bound_to 10752
  154.7220  135.3119  154.8992 H   0  0  0  0  0  0  0  0  0  0  0  0  # atno 10765 bound_to 10752
  140.4367  134.1364  155.7686 H   0  0  0  0  0  0  0  0  0  0  0  0  # atno 11005 bound_to 11000
  145.2597  139.1997  143.4899 LP  0  0  0  0  0  0  0  0  0  0  0  0  # atno 17320 bound_to 7965
  146.3374  140.2524  142.8599 LP  0  0  0  0  0  0  0  0  0  0  0  0  # atno 17321 bound_to 7965
  139.6563  144.7662  151.2049 LP  0  0  0  0  0  0  0  0  0  0  0  0  # atno 17342 bound_to 10162
  140.7557  143.6081  150.8633 LP  0  0  0  0  0  0  0  0  0  0  0  0  # atno 17343 bound_to 10162
  155.9674  130.4265  150.4704 LP  0  0  0  0  0  0  0  0  0  0  0  0  # atno 17370 bound_to 10713
  157.2694  131.0584  151.2269 LP  0  0  0  0  0  0  0  0  0  0  0  0  # atno 17371 bound_to 10713
  141.1723  133.8584  157.1532 LP  0  0  0  0  0  0  0  0  0  0  0  0  # atno 17394 bound_to 11000
  140.0098  134.9993  157.0370 LP  0  0  0  0  0  0  0  0  0  0  0  0  # atno 17395 bound_to 11000

$$$$
