AV-unprocessed.smi:742|AV-procd|sdf|3559|dock1
  -GOLD-   22720 0553D 1   1.00000     0.00000
 Structure written by MMmdl.
 24 24  0  0  0  0  0  0  0  0  3 V2000
  148.4977  138.4421  152.7957 N   0  3  0  0  0  0  0  0  0  0  0  0
  149.3326  138.6866  153.9812 C   0  0  0  0  0  0  0  0  0  0  0  0
  149.2089  140.1461  154.4440 C   0  0  0  0  0  0  0  0  0  0  0  0
  150.5048  140.6815  154.8248 N   0  5  0  0  0  0  0  0  0  0  0  0
  151.3294  140.0227  156.0593 S   0  0  0  0  0  0  0  0  0  0  0  0
  150.6226  138.8831  156.6669 O   0  0  0  0  0  0  0  0  0  0  0  0
  152.7518  139.8317  155.7332 O   0  0  0  0  0  0  0  0  0  0  0  0
  151.2774  141.3991  157.2907 C   0  0  0  0  0  0  0  0  0  0  0  0
  152.3268  141.2039  158.3510 C   0  0  0  0  0  0  0  0  0  0  0  0
  152.5836  142.0021  159.5005 C   0  0  0  0  0  0  0  0  0  0  0  0
  153.6354  141.3713  160.0994 C   0  0  0  0  0  0  0  0  0  0  0  0
  154.0064  140.2808  159.3823 O   0  0  0  0  0  0  0  0  0  0  0  0
  153.1676  140.1842  158.2663 N   0  0  0  0  0  0  0  0  0  0  0  0
  147.5266  138.5860  153.0317 H   0  0  0  0  0  0  0  0  0  0  0  0
  148.6355  137.4912  152.4846 H   0  0  0  0  0  0  0  0  0  0  0  0
  149.0226  138.0037  154.7732 H   0  0  0  0  0  0  0  0  0  0  0  0
  150.3618  138.4399  153.7223 H   0  0  0  0  0  0  0  0  0  0  0  0
  148.7370  140.7361  153.6579 H   0  0  0  0  0  0  0  0  0  0  0  0
  148.5173  140.1818  155.2867 H   0  0  0  0  0  0  0  0  0  0  0  0
  151.4488  142.3295  156.7485 H   0  0  0  0  0  0  0  0  0  0  0  0
  150.2762  141.4537  157.7175 H   0  0  0  0  0  0  0  0  0  0  0  0
  152.0718  142.8926  159.8337 H   0  0  0  0  0  0  0  0  0  0  0  0
  154.2051  141.5667  160.9958 H   0  0  0  0  0  0  0  0  0  0  0  0
  148.7687  139.0799  152.0611 H   0  0  0  0  0  0  0  0  0  0  0  0
  1  2  1  0  0  0  0
  1 14  1  0  0  0  0
  1 15  1  0  0  0  0
  1 24  1  0  0  0  0
  2  3  1  0  0  0  0
  2 16  1  0  0  0  0
  2 17  1  0  0  0  0
  3  4  1  0  0  0  0
  3 18  1  0  0  0  0
  3 19  1  0  0  0  0
  4  5  1  0  0  0  0
  5  6  2  0  0  0  0
  5  7  2  0  0  0  0
  5  8  1  0  0  0  0
  8  9  1  0  0  0  0
  8 20  1  0  0  0  0
  8 21  1  0  0  0  0
  9 13  2  0  0  0  0
  9 10  1  0  0  0  0
 10 11  2  0  0  0  0
 10 22  1  0  0  0  0
 11 12  1  0  0  0  0
 11 23  1  0  0  0  0
 12 13  1  0  0  0  0
M  CHG  1   1   1
M  CHG  1   4  -1
M  END
> <s_m_source_file>
AV-unprocessed.smi

> <i_m_source_file_index>
742

> <i_lp_mmshare_version>
43012

> <i_f3d_flags>
0

> <s_epik_input>
W05IMl1bQ0gyXVtDSDJdW05IXVMoPU8pKD1PKVtDSDJdYzFbY0hdW2NIXW9uMQ==

> <s_epik_cmdline>
J2VwaWtfcHl0aG9uJywgJy1waCcsICc3LjAnLCAnLXRuJywgJzgnLCAnLW1hJywgJzIwMCcsICctbWV0YWxfYmluZGluZycsICctaW1hZScsICc8aW5maWxlLm1hZT4nLCAnLW9tYWUnLCAnPG91dGZpbGUubWFlPic=

> <r_lp_tautomer_probability>
1

> <r_epik_Ionization_Penalty>
3.53052

> <r_epik_Ionization_Penalty_Charging>
3.53052

> <r_epik_Ionization_Penalty_Neutral>
1.92474e-10

> <r_epik_State_Penalty>
3.52863

> <r_epik_Charging_Adjusted_Penalty>
7.05915

> <i_epik_Tot_Q>
0

> <i_epik_Tot_abs_Q>
2

> <r_epik_Metal_State_Penalty>
0.514327

> <b_epik_Metal_Only>
1

> <s_lp_Force_Field>
OPLS_2005

> <r_lp_Energy>
-11.204

> <b_lp_Chiralities_Consistent>
1

> <s_lp_Variant>
AV-unprocessed.smi:742-2

> <Gold.Version>
5.8.1

> <Gold.Id.Protein>
6NUR|6NUR_protein|mol2

> <Gold.PLP.Fitness>
37.8855

> <Gold.PLP.PLP>
-24.3465

> <Gold.PLP.part.hbond>
-5.2927

> <Gold.PLP.part.metal>
0.0000

> <Gold.PLP.part.buried>
-2.6364

> <Gold.PLP.part.nonpolar>
-15.9469

> <Gold.PLP.part.repulsive>
0.1559

> <Gold.PLP.ligand.clash>
0.0000

> <Gold.PLP.ligand.torsion>
1.1589

> <Gold.PLP.Chemscore.Hbond>
4.9440

> <Gold.PLP.Chemscore.CHOScore>
0.0000

> <Gold.PLP.Chemscore.Metal>
0.0000

> <Gold.Chemscore.Hbonds>
donor molecule, donor type, donor heavy atom, donor atom, acceptor molecule, acceptor atom, score
      L1  H     1    15       P1  7948  1.43
      L1  H     1    24       P1  7957  1.00
      P1  H  7989  7998       L1     4  0.91
      P1  H  7997  8009       L1     7  1.00

> <Gold.PLP.Chemscore.Internal.Correction>
1.0248

> <Gold.Rescore>
     Score         DG    S(hbond)    S(metal)    S(lipo)     H(rot)  DE(clash)    DE(int)     intcor
     15.97     -18.50       3.91        0.00      48.35       2.23       0.03       2.50       ----

> <Gold.Chemscore.Fitness>
15.9717

> <Gold.Chemscore.DG>
-18.5020

> <Gold.Chemscore.ZeroCoef>
-5.4800

> <Gold.Chemscore.Hbond>
3.9146

> <Gold.Chemscore.Metal>
0.0000

> <Gold.Chemscore.Lipo>
48.3485

> <Gold.Chemscore.Internal_Hbond>
0.0000

> <Gold.Chemscore.DEClash>
0.0270

> <Gold.Chemscore.DEInternal>
2.5033

> <Gold.Chemscore.Rot>
2.2303

> <Gold.Chemscore.Internal.Correction>
   9.000000E+99

> <Gold.Chemscore.Hbonds>
donor molecule, donor type, donor heavy atom, donor atom, acceptor molecule, acceptor atom, score
      L1  H     1    15       P1  7948  0.71
      L1  H     1    24       P1  7957  0.92
      P1  H  7989  7998       L1     4  0.52
      P1  H  7997  8009       L1     7  0.99

> <Gold.Chemscore.Hbond.Weighted>
-13.0747

> <Gold.Chemscore.Metal.Weighted>
-0.0000

> <Gold.Chemscore.Lipo.Weighted>
-5.6568

> <Gold.Chemscore.Internal_Hbond.Weighted>
0.0000

> <Gold.Chemscore.DEClash.Weighted>
0.0270

> <Gold.Chemscore.DEInternal.Weighted>
2.5033

> <Gold.Chemscore.Rot.Weighted>
5.7094

> <Gold.Chemscore.Internal.Correction.Weighted>
   9.000000E+99

> <Gold.Protein.RotatedTorsions>
[ 6907 6896 6895 6894 ] final   60.70 input  -60.11 | X-H torsion
[ 7974 7965 7964 7962 ] final   49.61 input  175.53 | X-H torsion
[ 8008 7997 7996 7995 ] final -137.83 input   59.86 | X-H torsion
[ 10167 10162 10161 10158 ] final   74.20 input  -65.29 | X-H torsion
[ 10718 10713 10712 10709 ] final -156.37 input   66.30 | X-H torsion
[ 10763 10752 10751 10750 ] final   58.83 input  -60.55 | X-H torsion
[ 11005 11000 10999 10996 ] final  125.86 input  -57.11 | X-H torsion

> <Gold.Protein.ActiveResidues>
 VAL166  LYS551  ARG553  GLY616  TRP617  ASP618  TYR619  PRO620  LYS621  CYS622 
 ASP623  PHE694  ASN695  SER759  ASP760  ASP761  ALA762  ILE779  LEU786  VAL792 
 PHE793  MET794  SER795  GLU796  ALA797  LYS798  CYS799  TRP800  GLU811  SER814 

> <Gold.Protein.RotatedAtoms>
  152.4025  134.6262  160.0063 H   0  0  0  0  0  0  0  0  0  0  0  0  # atno 6907 bound_to 6896
  151.6463  133.3317  159.3149 H   0  0  0  0  0  0  0  0  0  0  0  0  # atno 6908 bound_to 6896
  150.7924  134.7000  159.6589 H   0  0  0  0  0  0  0  0  0  0  0  0  # atno 6909 bound_to 6896
  146.0092  139.4524  142.9967 H   0  0  0  0  0  0  0  0  0  0  0  0  # atno 7974 bound_to 7965
  155.4183  140.0517  157.3027 H   0  0  0  0  0  0  0  0  0  0  0  0  # atno 8008 bound_to 7997
  154.4914  140.2121  155.9499 H   0  0  0  0  0  0  0  0  0  0  0  0  # atno 8009 bound_to 7997
  156.1347  140.3165  155.8408 H   0  0  0  0  0  0  0  0  0  0  0  0  # atno 8010 bound_to 7997
  140.0162  144.5576  150.7618 H   0  0  0  0  0  0  0  0  0  0  0  0  # atno 10167 bound_to 10162
  156.5256  130.8498  151.2698 H   0  0  0  0  0  0  0  0  0  0  0  0  # atno 10718 bound_to 10713
  152.9880  135.5593  154.5616 H   0  0  0  0  0  0  0  0  0  0  0  0  # atno 10763 bound_to 10752
  154.5034  135.2798  155.1404 H   0  0  0  0  0  0  0  0  0  0  0  0  # atno 10764 bound_to 10752
  154.2825  135.6342  153.5406 H   0  0  0  0  0  0  0  0  0  0  0  0  # atno 10765 bound_to 10752
  139.9427  134.9633  156.8622 H   0  0  0  0  0  0  0  0  0  0  0  0  # atno 11005 bound_to 11000
  145.7368  141.0022  143.1322 LP  0  0  0  0  0  0  0  0  0  0  0  0  # atno 17320 bound_to 7965
  144.6947  139.9051  143.7460 LP  0  0  0  0  0  0  0  0  0  0  0  0  # atno 17321 bound_to 7965
  140.7361  143.2749  151.3773 LP  0  0  0  0  0  0  0  0  0  0  0  0  # atno 17342 bound_to 10162
  139.6171  144.0982  152.2355 LP  0  0  0  0  0  0  0  0  0  0  0  0  # atno 17343 bound_to 10162
  157.7430  130.9902  150.2558 LP  0  0  0  0  0  0  0  0  0  0  0  0  # atno 17370 bound_to 10713
  156.3108  130.3771  149.7664 LP  0  0  0  0  0  0  0  0  0  0  0  0  # atno 17371 bound_to 10713
  140.5910  134.0261  155.7500 LP  0  0  0  0  0  0  0  0  0  0  0  0  # atno 17394 bound_to 11000
  141.1068  133.9681  157.2983 LP  0  0  0  0  0  0  0  0  0  0  0  0  # atno 17395 bound_to 11000

$$$$
