AV-unprocessed.smi:3136|AV-procd|sdf|11949|dock9
  -GOLD-   2272017343D 1   1.00000     0.00000
 Structure written by MMmdl.
 40 40  0  0  0  0  0  0  0  0  2 V2000
  147.2878  141.0101  154.9155 C   0  0  0  0  0  0  0  0  0  0  0  0
  147.1033  140.7866  153.4083 C   0  0  0  0  0  0  0  0  0  0  0  0
  146.2673  139.6228  153.1358 N   0  0  0  0  0  0  0  0  0  0  0  0
  146.5805  138.3561  153.4485 C   0  0  0  0  0  0  0  0  0  0  0  0
  147.6286  138.0400  154.0126 O   0  0  0  0  0  0  0  0  0  0  0  0
  145.5455  137.2956  153.0581 C   0  0  0  0  0  0  0  0  0  0  0  0
  145.9372  135.8696  153.4827 C   0  0  0  0  0  0  0  0  0  0  0  0
  146.7167  135.1983  152.4224 N   0  3  0  0  0  0  0  0  0  0  0  0
  147.1500  133.8166  152.7366 C   0  0  1  0  0  0  0  0  0  0  0  0
  147.8766  133.8126  154.0919 C   0  0  0  0  0  0  0  0  0  0  0  0
  145.9666  132.8102  152.6988 C   0  0  2  0  0  0  0  0  0  0  0  0
  146.3045  131.4296  153.2915 C   0  0  0  0  0  0  0  0  0  0  0  0
  145.3560  132.6919  151.3782 N   0  0  0  0  0  0  0  0  0  0  0  0
  145.9168  132.1818  150.2248 C   0  0  0  0  0  0  0  0  0  0  0  0
  144.9744  132.2615  149.2403 C   0  0  0  0  0  0  0  0  0  0  0  0
  143.8509  132.8387  149.8937 C   0  0  0  0  0  0  0  0  0  0  0  0
  144.0797  133.0910  151.1722 N   0  0  0  0  0  0  0  0  0  0  0  0
  147.9577  141.8496  155.1031 H   0  0  0  0  0  0  0  0  0  0  0  0
  147.7161  140.1295  155.3958 H   0  0  0  0  0  0  0  0  0  0  0  0
  146.3384  141.2309  155.4043 H   0  0  0  0  0  0  0  0  0  0  0  0
  146.6796  141.6770  152.9404 H   0  0  0  0  0  0  0  0  0  0  0  0
  148.0743  140.6232  152.9401 H   0  0  0  0  0  0  0  0  0  0  0  0
  145.3858  139.7951  152.6738 H   0  0  0  0  0  0  0  0  0  0  0  0
  144.5889  137.5645  153.5089 H   0  0  0  0  0  0  0  0  0  0  0  0
  145.4064  137.3331  151.9767 H   0  0  0  0  0  0  0  0  0  0  0  0
  146.5231  135.8995  154.4017 H   0  0  0  0  0  0  0  0  0  0  0  0
  145.0432  135.2786  153.6880 H   0  0  0  0  0  0  0  0  0  0  0  0
  146.1392  135.1629  151.5946 H   0  0  0  0  0  0  0  0  0  0  0  0
  147.8813  133.5028  151.9898 H   0  0  0  0  0  0  0  0  0  0  0  0
  148.2159  132.8096  154.3519 H   0  0  0  0  0  0  0  0  0  0  0  0
  147.2341  134.1661  154.8991 H   0  0  0  0  0  0  0  0  0  0  0  0
  148.7550  134.4582  154.0652 H   0  0  0  0  0  0  0  0  0  0  0  0
  145.1948  133.2265  153.3482 H   0  0  0  0  0  0  0  0  0  0  0  0
  146.7010  131.5233  154.3027 H   0  0  0  0  0  0  0  0  0  0  0  0
  147.0423  130.8959  152.6924 H   0  0  0  0  0  0  0  0  0  0  0  0
  145.4143  130.8024  153.3464 H   0  0  0  0  0  0  0  0  0  0  0  0
  146.9299  131.8078  150.1998 H   0  0  0  0  0  0  0  0  0  0  0  0
  145.0726  131.9542  148.2095 H   0  0  0  0  0  0  0  0  0  0  0  0
  142.8826  133.0784  149.4798 H   0  0  0  0  0  0  0  0  0  0  0  0
  147.5392  135.7471  152.2127 H   0  0  0  0  0  0  0  0  0  0  0  0
  1  2  1  0  0  0  0
  1 18  1  0  0  0  0
  1 19  1  0  0  0  0
  1 20  1  0  0  0  0
  2  3  1  0  0  0  0
  2 21  1  0  0  0  0
  2 22  1  0  0  0  0
  3  4  1  0  0  0  0
  3 23  1  0  0  0  0
  4  5  2  0  0  0  0
  4  6  1  0  0  0  0
  6  7  1  0  0  0  0
  6 24  1  0  0  0  0
  6 25  1  0  0  0  0
  7  8  1  0  0  0  0
  7 26  1  0  0  0  0
  7 27  1  0  0  0  0
  8  9  1  0  0  0  0
  8 28  1  0  0  0  0
  8 40  1  0  0  0  0
  9 10  1  0  0  0  0
  9 11  1  0  0  0  0
  9 29  1  0  0  0  0
 10 30  1  0  0  0  0
 10 31  1  0  0  0  0
 10 32  1  0  0  0  0
 11 12  1  0  0  0  0
 11 13  1  0  0  0  0
 11 33  1  0  0  0  0
 12 34  1  0  0  0  0
 12 35  1  0  0  0  0
 12 36  1  0  0  0  0
 13 17  1  0  0  0  0
 13 14  1  0  0  0  0
 14 15  2  0  0  0  0
 14 37  1  0  0  0  0
 15 16  1  0  0  0  0
 15 38  1  0  0  0  0
 16 17  2  0  0  0  0
 16 39  1  0  0  0  0
M  CHG  1   8   1
M  END
> <s_m_source_file>
AV-unprocessed.smi

> <i_m_source_file_index>
3136

> <i_lp_mmshare_version>
43012

> <i_f3d_flags>
0

> <s_epik_input>
W0NIM11bQ0gyXVtOSF1DKD1PKVtDSDJdW0NIMl1bTkhdW0NASF0oW0NIM10pW0NASF0oW0NIM10pbjFbY0hdW2NIXVtjSF1uMQ==

> <s_epik_cmdline>
J2VwaWtfcHl0aG9uJywgJy1waCcsICc3LjAnLCAnLXRuJywgJzgnLCAnLW1hJywgJzIwMCcsICctbWV0YWxfYmluZGluZycsICctaW1hZScsICc8aW5maWxlLm1hZT4nLCAnLW9tYWUnLCAnPG91dGZpbGUubWFlPic=

> <r_lp_tautomer_probability>
1

> <r_epik_Ionization_Penalty>
0.00463447

> <r_epik_Ionization_Penalty_Charging>
0.00462393

> <r_epik_Ionization_Penalty_Neutral>
1.05394e-05

> <r_epik_State_Penalty>
-0

> <r_epik_Charging_Adjusted_Penalty>
0.00462393

> <i_epik_Tot_Q>
1

> <i_epik_Tot_abs_Q>
1

> <r_epik_Metal_State_Penalty>
-0

> <b_epik_Metal_Only>
0

> <s_lp_Force_Field>
OPLS_2005

> <r_lp_Energy>
10.5289

> <b_lp_Chiralities_Consistent>
1

> <s_lp_Variant>
AV-unprocessed.smi:3136-2

> <Gold.Version>
5.8.1

> <Gold.Id.Protein>
6NUR|6NUR_protein|mol2

> <Gold.PLP.Fitness>
40.6565

> <Gold.PLP.PLP>
-26.2380

> <Gold.PLP.part.hbond>
-2.0000

> <Gold.PLP.part.metal>
0.0000

> <Gold.PLP.part.buried>
-5.2151

> <Gold.PLP.part.nonpolar>
-20.7176

> <Gold.PLP.part.repulsive>
0.6879

> <Gold.PLP.ligand.clash>
0.0000

> <Gold.PLP.ligand.torsion>
0.4035

> <Gold.PLP.Chemscore.Hbond>
3.0000

> <Gold.PLP.Chemscore.CHOScore>
2.0000

> <Gold.PLP.Chemscore.Metal>
0.0000

> <Gold.Chemscore.Hbonds>
donor molecule, donor type, donor heavy atom, donor atom, acceptor molecule, acceptor atom, score
      L1  H     3    23       P1 10175  1.00
      L1  H     8    40       P1  7948  1.92
      L1  C    14    37       P1 10747  1.00
      L1  C    16    39       P1 10186  1.00

> <Gold.PLP.Chemscore.Internal.Correction>
0.2254

> <Gold.Rescore>
     Score         DG    S(hbond)    S(metal)    S(lipo)     H(rot)  DE(clash)    DE(int)     intcor
     13.15     -13.68       1.98        0.00      64.13       2.32       0.01       0.52       ----

> <Gold.Chemscore.Fitness>
13.1456

> <Gold.Chemscore.DG>
-13.6787

> <Gold.Chemscore.ZeroCoef>
-5.4800

> <Gold.Chemscore.Hbond>
1.9831

> <Gold.Chemscore.Metal>
0.0000

> <Gold.Chemscore.Lipo>
64.1334

> <Gold.Chemscore.Internal_Hbond>
0.0000

> <Gold.Chemscore.DEClash>
0.0117

> <Gold.Chemscore.DEInternal>
0.5214

> <Gold.Chemscore.Rot>
2.3159

> <Gold.Chemscore.Internal.Correction>
   9.000000E+99

> <Gold.Chemscore.Hbonds>
donor molecule, donor type, donor heavy atom, donor atom, acceptor molecule, acceptor atom, score
      L1  H     3    23       P1 10175  0.99
      L1  H     8    40       P1  7948  0.91

> <Gold.Chemscore.Hbond.Weighted>
-6.6237

> <Gold.Chemscore.Metal.Weighted>
-0.0000

> <Gold.Chemscore.Lipo.Weighted>
-7.5036

> <Gold.Chemscore.Internal_Hbond.Weighted>
0.0000

> <Gold.Chemscore.DEClash.Weighted>
0.0117

> <Gold.Chemscore.DEInternal.Weighted>
0.5214

> <Gold.Chemscore.Rot.Weighted>
5.9286

> <Gold.Chemscore.Internal.Correction.Weighted>
   9.000000E+99

> <Gold.Protein.RotatedTorsions>
[ 6907 6896 6895 6894 ] final  124.42 input  -60.11 | X-H torsion
[ 7974 7965 7964 7962 ] final  139.49 input  175.53 | X-H torsion
[ 8008 7997 7996 7995 ] final -160.46 input   59.86 | X-H torsion
[ 10167 10162 10161 10158 ] final  103.80 input  -65.29 | X-H torsion
[ 10718 10713 10712 10709 ] final -112.96 input   66.30 | X-H torsion
[ 10763 10752 10751 10750 ] final -142.25 input  -60.55 | X-H torsion
[ 11005 11000 10999 10996 ] final   60.21 input  -57.11 | X-H torsion

> <Gold.Protein.ActiveResidues>
 VAL166  LYS551  ARG553  GLY616  TRP617  ASP618  TYR619  PRO620  LYS621  CYS622 
 ASP623  PHE694  ASN695  SER759  ASP760  ASP761  ALA762  ILE779  LEU786  VAL792 
 PHE793  MET794  SER795  GLU796  ALA797  LYS798  CYS799  TRP800  GLU811  SER814 

> <Gold.Protein.RotatedAtoms>
  152.4079  133.6918  159.6372 H   0  0  0  0  0  0  0  0  0  0  0  0  # atno 6907 bound_to 6896
  150.7962  133.8676  159.3258 H   0  0  0  0  0  0  0  0  0  0  0  0  # atno 6908 bound_to 6896
  151.6426  135.1013  160.0196 H   0  0  0  0  0  0  0  0  0  0  0  0  # atno 6909 bound_to 6896
  144.9273  139.5091  143.5634 H   0  0  0  0  0  0  0  0  0  0  0  0  # atno 7974 bound_to 7965
  155.7778  140.0861  157.2075 H   0  0  0  0  0  0  0  0  0  0  0  0  # atno 8008 bound_to 7997
  154.3992  140.1513  156.3074 H   0  0  0  0  0  0  0  0  0  0  0  0  # atno 8009 bound_to 7997
  155.8683  140.3427  155.5806 H   0  0  0  0  0  0  0  0  0  0  0  0  # atno 8010 bound_to 7997
  139.7232  144.7053  151.0840 H   0  0  0  0  0  0  0  0  0  0  0  0  # atno 10167 bound_to 10162
  156.0737  130.5947  150.8578 H   0  0  0  0  0  0  0  0  0  0  0  0  # atno 10718 bound_to 10713
  154.8516  135.3501  154.5998 H   0  0  0  0  0  0  0  0  0  0  0  0  # atno 10763 bound_to 10752
  153.6607  135.6990  153.5183 H   0  0  0  0  0  0  0  0  0  0  0  0  # atno 10764 bound_to 10752
  153.2820  135.4261  155.1045 H   0  0  0  0  0  0  0  0  0  0  0  0  # atno 10765 bound_to 10752
  140.0248  134.6099  155.9588 H   0  0  0  0  0  0  0  0  0  0  0  0  # atno 11005 bound_to 11000
  146.3232  139.8198  142.8929 LP  0  0  0  0  0  0  0  0  0  0  0  0  # atno 17320 bound_to 7965
  145.3198  141.0241  143.3507 LP  0  0  0  0  0  0  0  0  0  0  0  0  # atno 17321 bound_to 7965
  140.7757  143.5139  150.9618 LP  0  0  0  0  0  0  0  0  0  0  0  0  # atno 17342 bound_to 10162
  139.8827  143.7052  152.3155 LP  0  0  0  0  0  0  0  0  0  0  0  0  # atno 17343 bound_to 10162
  157.5821  131.0946  150.9254 LP  0  0  0  0  0  0  0  0  0  0  0  0  # atno 17370 bound_to 10713
  156.9447  130.5397  149.5281 LP  0  0  0  0  0  0  0  0  0  0  0  0  # atno 17371 bound_to 10713
  141.1796  133.6544  156.4966 LP  0  0  0  0  0  0  0  0  0  0  0  0  # atno 17394 bound_to 11000
  140.4325  134.7089  157.4949 LP  0  0  0  0  0  0  0  0  0  0  0  0  # atno 17395 bound_to 11000

$$$$
