AV-unprocessed.smi:1930|AV-procd|sdf|7810|dock10
  -GOLD-   22720 9553D 1   1.00000     0.00000
 Structure written by MMmdl.
 42 43  0  0  0  0  0  0  0  0  2 V2000
  152.4134  139.0298  157.4271 C   0  0  0  0  0  0  0  0  0  0  0  0
  152.3254  139.1933  155.5972 S   0  0  0  0  0  0  0  0  0  0  0  0
  151.6050  140.4359  155.2800 O   0  0  0  0  0  0  0  0  0  0  0  0
  153.6722  138.9706  155.0493 O   0  0  0  0  0  0  0  0  0  0  0  0
  151.3241  137.8570  155.1110 N   0  0  0  0  0  0  0  0  0  0  0  0
  150.1738  138.1036  154.2114 C   0  0  0  0  0  0  0  0  0  0  0  0
  148.8358  138.0539  154.9749 C   0  0  0  0  0  0  0  0  0  0  0  0
  148.7479  136.7759  155.6941 N   0  0  0  0  0  0  0  0  0  0  0  0
  147.9855  135.7064  155.3574 C   0  0  0  0  0  0  0  0  0  0  0  0
  147.6500  134.8366  156.1620 O   0  0  0  0  0  0  0  0  0  0  0  0
  147.5765  135.6901  154.0775 N   0  0  0  0  0  0  0  0  0  0  0  0
  146.7235  134.6698  153.4744 C   0  0  0  0  0  0  0  0  0  0  0  0
  146.1730  135.0792  152.0934 C   0  0  0  0  0  0  0  0  0  0  0  0
  145.3753  133.9841  151.4064 C   0  0  0  0  0  0  0  0  0  0  0  0
  145.9580  132.7231  151.1511 C   0  0  0  0  0  0  0  0  0  0  0  0
  145.1956  131.7267  150.5068 C   0  0  0  0  0  0  0  0  0  0  0  0
  143.8670  132.0138  150.1321 C   0  0  0  0  0  0  0  0  0  0  0  0
  143.3428  133.2315  150.3933 N   0  3  0  0  0  0  0  0  0  0  0  0
  144.0393  134.2116  151.0093 C   0  0  0  0  0  0  0  0  0  0  0  0
  149.7949  136.7028  156.7152 C   0  0  0  0  0  0  0  0  0  0  0  0
  151.1708  136.6988  156.0209 C   0  0  0  0  0  0  0  0  0  0  0  0
  153.0310  139.8332  157.8278 H   0  0  0  0  0  0  0  0  0  0  0  0
  152.8606  138.0729  157.6915 H   0  0  0  0  0  0  0  0  0  0  0  0
  151.4140  139.1049  157.8528 H   0  0  0  0  0  0  0  0  0  0  0  0
  150.2845  139.0620  153.7049 H   0  0  0  0  0  0  0  0  0  0  0  0
  150.1779  137.3415  153.4314 H   0  0  0  0  0  0  0  0  0  0  0  0
  148.7771  138.8727  155.6920 H   0  0  0  0  0  0  0  0  0  0  0  0
  148.0136  138.2265  154.2809 H   0  0  0  0  0  0  0  0  0  0  0  0
  147.8843  136.4398  153.4755 H   0  0  0  0  0  0  0  0  0  0  0  0
  147.3261  133.7670  153.3701 H   0  0  0  0  0  0  0  0  0  0  0  0
  145.9052  134.4161  154.1503 H   0  0  0  0  0  0  0  0  0  0  0  0
  145.5420  135.9625  152.1981 H   0  0  0  0  0  0  0  0  0  0  0  0
  146.9959  135.3770  151.4424 H   0  0  0  0  0  0  0  0  0  0  0  0
  146.9781  132.5214  151.4440 H   0  0  0  0  0  0  0  0  0  0  0  0
  145.6239  130.7559  150.3039 H   0  0  0  0  0  0  0  0  0  0  0  0
  143.2125  131.3121  149.6360 H   0  0  0  0  0  0  0  0  0  0  0  0
  143.5122  135.1428  151.1600 H   0  0  0  0  0  0  0  0  0  0  0  0
  149.7060  137.5558  157.3879 H   0  0  0  0  0  0  0  0  0  0  0  0
  149.6992  135.8212  157.3507 H   0  0  0  0  0  0  0  0  0  0  0  0
  151.2814  135.7854  155.4351 H   0  0  0  0  0  0  0  0  0  0  0  0
  151.9692  136.6869  156.7623 H   0  0  0  0  0  0  0  0  0  0  0  0
  142.3788  133.4179  150.1158 H   0  0  0  0  0  0  0  0  0  0  0  0
  1  2  1  0  0  0  0
  1 22  1  0  0  0  0
  1 23  1  0  0  0  0
  1 24  1  0  0  0  0
  2  3  2  0  0  0  0
  2  4  2  0  0  0  0
  2  5  1  0  0  0  0
  5 21  1  0  0  0  0
  5  6  1  0  0  0  0
  6  7  1  0  0  0  0
  6 25  1  0  0  0  0
  6 26  1  0  0  0  0
  7  8  1  0  0  0  0
  7 27  1  0  0  0  0
  7 28  1  0  0  0  0
  8  9  1  0  0  0  0
  8 20  1  0  0  0  0
  9 10  2  0  0  0  0
  9 11  1  0  0  0  0
 11 12  1  0  0  0  0
 11 29  1  0  0  0  0
 12 13  1  0  0  0  0
 12 30  1  0  0  0  0
 12 31  1  0  0  0  0
 13 14  1  0  0  0  0
 13 32  1  0  0  0  0
 13 33  1  0  0  0  0
 14 19  1  0  0  0  0
 14 15  2  0  0  0  0
 15 16  1  0  0  0  0
 15 34  1  0  0  0  0
 16 17  2  0  0  0  0
 16 35  1  0  0  0  0
 17 18  1  0  0  0  0
 17 36  1  0  0  0  0
 18 19  2  0  0  0  0
 18 42  1  0  0  0  0
 19 37  1  0  0  0  0
 20 21  1  0  0  0  0
 20 38  1  0  0  0  0
 20 39  1  0  0  0  0
 21 40  1  0  0  0  0
 21 41  1  0  0  0  0
M  CHG  1  18   1
M  END
> <s_m_source_file>
AV-unprocessed.smi

> <i_m_source_file_index>
1930

> <i_lp_mmshare_version>
43012

> <i_f3d_flags>
0

> <s_epik_input>
W0NIM11TKD1PKSg9TylOMVtDSDJdW0NIMl1OKFtDSDJdW0NIMl0xKUMoPU8pW05IXVtDSDJdW0NIMl1jMltjSF1bY0hdW2NIXW5bY0hdMg==

> <s_epik_cmdline>
J2VwaWtfcHl0aG9uJywgJy1waCcsICc3LjAnLCAnLXRuJywgJzgnLCAnLW1hJywgJzIwMCcsICctbWV0YWxfYmluZGluZycsICctaW1hZScsICc8aW5maWxlLm1hZT4nLCAnLW9tYWUnLCAnPG91dGZpbGUubWFlPic=

> <r_epik_Ionization_Penalty>
2.21237

> <r_epik_Ionization_Penalty_Charging>
2.21233

> <r_epik_Ionization_Penalty_Neutral>
3.86464e-05

> <r_epik_State_Penalty>
2.35665

> <r_epik_Charging_Adjusted_Penalty>
4.56898

> <i_epik_Tot_Q>
1

> <i_epik_Tot_abs_Q>
1

> <r_epik_Metal_State_Penalty>
2.37073

> <b_epik_Metal_Only>
0

> <s_lp_Force_Field>
OPLS_2005

> <r_lp_Energy>
33.224

> <b_lp_Chiralities_Consistent>
1

> <s_lp_Variant>
AV-unprocessed.smi:1930-2

> <Gold.Version>
5.8.1

> <Gold.Id.Protein>
6NUR|6NUR_protein|mol2

> <Gold.PLP.Fitness>
43.2441

> <Gold.PLP.PLP>
-31.3142

> <Gold.PLP.part.hbond>
-4.0000

> <Gold.PLP.part.metal>
0.0000

> <Gold.PLP.part.buried>
-3.0441

> <Gold.PLP.part.nonpolar>
-24.3371

> <Gold.PLP.part.repulsive>
0.0602

> <Gold.PLP.ligand.clash>
0.0000

> <Gold.PLP.ligand.torsion>
1.5487

> <Gold.PLP.Chemscore.Hbond>
4.3120

> <Gold.PLP.Chemscore.CHOScore>
0.0000

> <Gold.PLP.Chemscore.Metal>
0.0000

> <Gold.Chemscore.Hbonds>
donor molecule, donor type, donor heavy atom, donor atom, acceptor molecule, acceptor atom, score
      L1  H    11    29       P1  7948  0.51
      L1  H    18    42       P1 10186  2.00
      P1  H  7989  7998       L1     3  0.85
      P1  H  7997  8009       L1     4  0.93

> <Gold.PLP.Chemscore.Internal.Correction>
2.0913

> <Gold.Rescore>
     Score         DG    S(hbond)    S(metal)    S(lipo)     H(rot)  DE(clash)    DE(int)     intcor
     17.70     -19.51       2.96        0.00      67.47       1.47       0.28       1.53       ----

> <Gold.Chemscore.Fitness>
17.6960

> <Gold.Chemscore.DG>
-19.5056

> <Gold.Chemscore.ZeroCoef>
-5.4800

> <Gold.Chemscore.Hbond>
2.9637

> <Gold.Chemscore.Metal>
0.0000

> <Gold.Chemscore.Lipo>
67.4670

> <Gold.Chemscore.Internal_Hbond>
0.0000

> <Gold.Chemscore.DEClash>
0.2795

> <Gold.Chemscore.DEInternal>
1.5301

> <Gold.Chemscore.Rot>
1.4714

> <Gold.Chemscore.Internal.Correction>
   9.000000E+99

> <Gold.Chemscore.Hbonds>
donor molecule, donor type, donor heavy atom, donor atom, acceptor molecule, acceptor atom, score
      L1  H    11    29       P1  7948  0.50
      L1  H    18    42       P1 10186  0.99
      P1  H  7989  7998       L1     3  0.73
      P1  H  7997  8009       L1     4  0.45

> <Gold.Chemscore.Hbond.Weighted>
-9.8986

> <Gold.Chemscore.Metal.Weighted>
-0.0000

> <Gold.Chemscore.Lipo.Weighted>
-7.8936

> <Gold.Chemscore.Internal_Hbond.Weighted>
0.0000

> <Gold.Chemscore.DEClash.Weighted>
0.2795

> <Gold.Chemscore.DEInternal.Weighted>
1.5301

> <Gold.Chemscore.Rot.Weighted>
3.7667

> <Gold.Chemscore.Internal.Correction.Weighted>
   9.000000E+99

> <Gold.Protein.RotatedTorsions>
[ 6907 6896 6895 6894 ] final   86.43 input  -60.11 | X-H torsion
[ 7974 7965 7964 7962 ] final  -51.74 input  175.53 | X-H torsion
[ 8008 7997 7996 7995 ] final -120.05 input   59.86 | X-H torsion
[ 10167 10162 10161 10158 ] final -124.88 input  -65.29 | X-H torsion
[ 10718 10713 10712 10709 ] final   49.04 input   66.30 | X-H torsion
[ 10763 10752 10751 10750 ] final  -61.53 input  -60.55 | X-H torsion
[ 11005 11000 10999 10996 ] final  100.96 input  -57.11 | X-H torsion

> <Gold.Protein.ActiveResidues>
 VAL166  LYS551  ARG553  GLY616  TRP617  ASP618  TYR619  PRO620  LYS621  CYS622 
 ASP623  PHE694  ASN695  SER759  ASP760  ASP761  ALA762  ILE779  LEU786  VAL792 
 PHE793  MET794  SER795  GLU796  ALA797  LYS798  CYS799  TRP800  GLU811  SER814 

> <Gold.Protein.RotatedAtoms>
  152.5394  134.2432  159.8869 H   0  0  0  0  0  0  0  0  0  0  0  0  # atno 6907 bound_to 6896
  151.2399  133.4398  159.2614 H   0  0  0  0  0  0  0  0  0  0  0  0  # atno 6908 bound_to 6896
  151.0637  134.9767  159.8329 H   0  0  0  0  0  0  0  0  0  0  0  0  # atno 6909 bound_to 6896
  145.9156  140.7878  142.9673 H   0  0  0  0  0  0  0  0  0  0  0  0  # atno 7974 bound_to 7965
  155.1255  140.0399  157.2761 H   0  0  0  0  0  0  0  0  0  0  0  0  # atno 8008 bound_to 7997
  154.6581  140.2585  155.7113 H   0  0  0  0  0  0  0  0  0  0  0  0  # atno 8009 bound_to 7997
  156.2607  140.2822  156.1042 H   0  0  0  0  0  0  0  0  0  0  0  0  # atno 8010 bound_to 7997
  139.9880  143.5671  152.2353 H   0  0  0  0  0  0  0  0  0  0  0  0  # atno 10167 bound_to 10162
  157.4747  130.8277  149.8026 H   0  0  0  0  0  0  0  0  0  0  0  0  # atno 10718 bound_to 10713
  154.2860  135.6263  153.5366 H   0  0  0  0  0  0  0  0  0  0  0  0  # atno 10763 bound_to 10752
  152.9859  135.5644  154.5443 H   0  0  0  0  0  0  0  0  0  0  0  0  # atno 10764 bound_to 10752
  154.5044  135.2873  155.1370 H   0  0  0  0  0  0  0  0  0  0  0  0  # atno 10765 bound_to 10752
  139.8772  134.9163  156.4835 H   0  0  0  0  0  0  0  0  0  0  0  0  # atno 11005 bound_to 11000
  144.6747  140.1894  143.7398 LP  0  0  0  0  0  0  0  0  0  0  0  0  # atno 17320 bound_to 7965
  145.8616  139.2225  143.1713 LP  0  0  0  0  0  0  0  0  0  0  0  0  # atno 17321 bound_to 7965
  139.6360  144.7650  151.2436 LP  0  0  0  0  0  0  0  0  0  0  0  0  # atno 17342 bound_to 10162
  140.7465  143.6397  150.8346 LP  0  0  0  0  0  0  0  0  0  0  0  0  # atno 17343 bound_to 10162
  156.0090  130.3842  150.2328 LP  0  0  0  0  0  0  0  0  0  0  0  0  # atno 17370 bound_to 10713
  157.0512  131.0063  151.3253 LP  0  0  0  0  0  0  0  0  0  0  0  0  # atno 17371 bound_to 10713
  140.8710  133.7988  155.9365 LP  0  0  0  0  0  0  0  0  0  0  0  0  # atno 17394 bound_to 11000
  140.8952  134.2446  157.5072 LP  0  0  0  0  0  0  0  0  0  0  0  0  # atno 17395 bound_to 11000

$$$$
