AV-unprocessed.smi:53|AV-procd|sdf|514|dock8
  -GOLD-   2262016383D 1   1.00000     0.00000
 Structure written by MMmdl.
 30 31  0  0  0  0  0  0  0  0  1 V2000
  149.4454  142.9193  157.2977 N   0  0  0  0  0  0  0  0  0  0  0  0
  149.8386  141.6565  157.0803 C   0  0  0  0  0  0  0  0  0  0  0  0
  149.5138  140.6165  158.0288 C   0  0  0  0  0  0  0  0  0  0  0  0
  149.9400  139.3678  157.7368 C   0  0  0  0  0  0  0  0  0  0  0  0
  150.6378  139.0735  156.5700 N   0  0  0  0  0  0  0  0  0  0  0  0
  151.1467  137.6757  156.2514 C   0  0  1  0  0  0  0  0  0  0  0  0
  150.6456  136.7615  157.1789 O   0  0  0  0  0  0  0  0  0  0  0  0
  149.4374  136.1986  156.6837 C   0  0  2  0  0  0  0  0  0  0  0  0
  149.1194  134.8973  157.4347 C   0  0  0  0  0  0  0  0  0  0  0  0
  150.2579  134.0627  157.4549 O   0  0  0  0  0  0  0  0  0  0  0  0
  149.7689  135.9921  155.2048 C   0  0  1  0  0  0  0  0  0  0  0  0
  148.5866  136.0085  154.4298 O   0  0  0  0  0  0  0  0  0  0  0  0
  150.6553  137.1902  154.8663 C   0  0  2  0  0  0  0  0  0  0  0  0
  151.7291  136.7804  154.0426 O   0  0  0  0  0  0  0  0  0  0  0  0
  150.9747  140.1258  155.6827 C   0  0  0  0  0  0  0  0  0  0  0  0
  151.6458  139.9286  154.6706 O   0  0  0  0  0  0  0  0  0  0  0  0
  150.5313  141.3832  155.9925 N   0  0  0  0  0  0  0  0  0  0  0  0
  152.2318  137.7477  156.3522 H   0  0  0  0  0  0  0  0  0  0  0  0
  148.6200  136.9162  156.7808 H   0  0  0  0  0  0  0  0  0  0  0  0
  150.3051  135.0518  155.0649 H   0  0  0  0  0  0  0  0  0  0  0  0
  150.0864  137.9768  154.3683 H   0  0  0  0  0  0  0  0  0  0  0  0
  149.6788  143.6451  156.6356 H   0  0  0  0  0  0  0  0  0  0  0  0
  148.9177  143.1427  158.1290 H   0  0  0  0  0  0  0  0  0  0  0  0
  148.9588  140.7946  158.9388 H   0  0  0  0  0  0  0  0  0  0  0  0
  149.7108  138.5975  158.4571 H   0  0  0  0  0  0  0  0  0  0  0  0
  148.8562  135.1168  158.4698 H   0  0  0  0  0  0  0  0  0  0  0  0
  148.2726  134.3760  156.9872 H   0  0  0  0  0  0  0  0  0  0  0  0
  150.3511  133.6606  156.6047 H   0  0  0  0  0  0  0  0  0  0  0  0
  148.8247  136.1414  153.5246 H   0  0  0  0  0  0  0  0  0  0  0  0
  151.3750  136.3545  153.2770 H   0  0  0  0  0  0  0  0  0  0  0  0
  1  2  1  0  0  0  0
  1 22  1  0  0  0  0
  1 23  1  0  0  0  0
  2 17  2  0  0  0  0
  2  3  1  0  0  0  0
  3  4  2  0  0  0  0
  3 24  1  0  0  0  0
  4  5  1  0  0  0  0
  4 25  1  0  0  0  0
  5  6  1  0  0  0  0
  5 15  1  0  0  0  0
  6 18  1  0  0  0  0
  6 13  1  0  0  0  0
  6  7  1  0  0  0  0
  7  8  1  0  0  0  0
  8 19  1  0  0  0  0
  8  9  1  0  0  0  0
  8 11  1  0  0  0  0
  9 10  1  0  0  0  0
  9 26  1  0  0  0  0
  9 27  1  0  0  0  0
 10 28  1  0  0  0  0
 11 20  1  0  0  0  0
 11 12  1  0  0  0  0
 11 13  1  0  0  0  0
 12 29  1  0  0  0  0
 13 21  1  0  0  0  0
 13 14  1  0  0  0  0
 14 30  1  0  0  0  0
 15 16  2  0  0  0  0
 15 17  1  0  0  0  0
M  END
> <s_m_source_file>
AV-unprocessed.smi

> <i_m_source_file_index>
53

> <i_lp_mmshare_version>
43012

> <i_f3d_flags>
0

> <s_epik_input>
W05IMl1jMVtjSF1bY0hdbihjKD1PKW4xKVtDQEBIXTJPW0NASF0oW0NIMl1bT0hdKVtDQEBIXShbT0hdKVtDQEBIXTJbT0hd

> <s_epik_cmdline>
J2VwaWtfcHl0aG9uJywgJy1waCcsICc3LjAnLCAnLXRuJywgJzgnLCAnLW1hJywgJzIwMCcsICctbWV0YWxfYmluZGluZycsICctaW1hZScsICc8aW5maWxlLm1hZT4nLCAnLW9tYWUnLCAnPG91dGZpbGUubWFlPic=

> <r_lp_tautomer_probability>
0.99996

> <r_epik_Ionization_Penalty>
0.00069087

> <r_epik_Ionization_Penalty_Charging>
2.61959e-08

> <r_epik_Ionization_Penalty_Neutral>
0.000690844

> <r_epik_State_Penalty>
1.15523e-05

> <r_epik_Charging_Adjusted_Penalty>
1.15785e-05

> <i_epik_Tot_Q>
0

> <i_epik_Tot_abs_Q>
0

> <r_epik_Metal_State_Penalty>
-0

> <b_epik_Metal_Only>
0

> <s_epik_Chemistry_Notes>
This compound contains an acetal/aminal-like group ( X-CH(R)-Y where X, Y are N, S, or O) that may be acid/base labile, releasing an aldehyde.

> <s_lp_Force_Field>
OPLS_2005

> <r_lp_Energy>
26.6068

> <b_lp_Chiralities_Consistent>
1

> <s_lp_Variant>
AV-unprocessed.smi:53-2

> <Gold.Version>
5.8.1

> <Gold.Id.Protein>
6NUR|6NUR_protein|mol2

> <Gold.PLP.Fitness>
35.8425

> <Gold.PLP.PLP>
-19.3324

> <Gold.PLP.part.hbond>
-5.8259

> <Gold.PLP.part.metal>
0.0000

> <Gold.PLP.part.buried>
-5.3544

> <Gold.PLP.part.nonpolar>
-9.4537

> <Gold.PLP.part.repulsive>
0.1516

> <Gold.PLP.ligand.clash>
0.0000

> <Gold.PLP.ligand.torsion>
0.0923

> <Gold.PLP.Chemscore.Hbond>
5.5520

> <Gold.PLP.Chemscore.CHOScore>
0.0000

> <Gold.PLP.Chemscore.Metal>
0.0000

> <Gold.Chemscore.Hbonds>
donor molecule, donor type, donor heavy atom, donor atom, acceptor molecule, acceptor atom, score
      L1  H     1    22       P1  8028  0.77
      L1  H    12    29       P1  7948  1.00
      L1  H    14    30       P1  7949  1.00
      P1  H  6896  6908       L1    10  0.83
      P1  H  7989  7998       L1    16  0.91
      P1  H 10752 10764       L1    14  0.95

> <Gold.PLP.Chemscore.Internal.Correction>
0.0387

> <Gold.Rescore>
     Score         DG    S(hbond)    S(metal)    S(lipo)     H(rot)  DE(clash)    DE(int)     intcor
     14.31     -15.93       5.27        0.00      19.98       3.71       0.00       1.62       ----

> <Gold.Chemscore.Fitness>
14.3092

> <Gold.Chemscore.DG>
-15.9297

> <Gold.Chemscore.ZeroCoef>
-5.4800

> <Gold.Chemscore.Hbond>
5.2720

> <Gold.Chemscore.Metal>
0.0000

> <Gold.Chemscore.Lipo>
19.9805

> <Gold.Chemscore.Internal_Hbond>
0.0000

> <Gold.Chemscore.DEClash>
0.0000

> <Gold.Chemscore.DEInternal>
1.6205

> <Gold.Chemscore.Rot>
3.7095

> <Gold.Chemscore.Internal.Correction>
   9.000000E+99

> <Gold.Chemscore.Hbonds>
donor molecule, donor type, donor heavy atom, donor atom, acceptor molecule, acceptor atom, score
      L1  H     1    22       P1  8028  0.75
      L1  H    12    29       P1  7948  0.99
      L1  H    14    30       P1  7949  0.74
      P1  H  6896  6908       L1    10  0.58
      P1  H  7989  7998       L1    16  0.85
      P1  H 10752 10764       L1    14  0.21

> <Gold.Chemscore.Hbond.Weighted>
-17.6084

> <Gold.Chemscore.Metal.Weighted>
-0.0000

> <Gold.Chemscore.Lipo.Weighted>
-2.3377

> <Gold.Chemscore.Internal_Hbond.Weighted>
0.0000

> <Gold.Chemscore.DEClash.Weighted>
0.0000

> <Gold.Chemscore.DEInternal.Weighted>
1.6205

> <Gold.Chemscore.Rot.Weighted>
9.4964

> <Gold.Chemscore.Internal.Correction.Weighted>
   9.000000E+99

> <Gold.Protein.RotatedTorsions>
[ 6907 6896 6895 6894 ] final  120.11 input  -60.11 | X-H torsion
[ 7974 7965 7964 7962 ] final   21.70 input  175.53 | X-H torsion
[ 8008 7997 7996 7995 ] final -107.10 input   59.86 | X-H torsion
[ 10167 10162 10161 10158 ] final  -59.43 input  -65.29 | X-H torsion
[ 10718 10713 10712 10709 ] final -107.92 input   66.30 | X-H torsion
[ 10763 10752 10751 10750 ] final  -66.15 input  -60.55 | X-H torsion
[ 11005 11000 10999 10996 ] final  -81.85 input  -57.11 | X-H torsion

> <Gold.Protein.ActiveResidues>
 VAL166  LYS551  ARG553  GLY616  TRP617  ASP618  TYR619  PRO620  LYS621  CYS622 
 ASP623  PHE694  ASN695  SER759  ASP760  ASP761  ALA762  ILE779  LEU786  VAL792 
 PHE793  MET794  SER795  GLU796  ALA797  LYS798  CYS799  TRP800  GLU811  SER814 

> <Gold.Protein.RotatedAtoms>
  152.4422  133.7470  159.6672 H   0  0  0  0  0  0  0  0  0  0  0  0  # atno 6907 bound_to 6896
  150.8315  133.8073  159.3103 H   0  0  0  0  0  0  0  0  0  0  0  0  # atno 6908 bound_to 6896
  151.5725  135.1064  160.0050 H   0  0  0  0  0  0  0  0  0  0  0  0  # atno 6909 bound_to 6896
  146.2060  139.7989  142.8725 H   0  0  0  0  0  0  0  0  0  0  0  0  # atno 7974 bound_to 7965
  154.9243  140.0406  157.2014 H   0  0  0  0  0  0  0  0  0  0  0  0  # atno 8008 bound_to 7997
  154.8223  140.2885  155.5757 H   0  0  0  0  0  0  0  0  0  0  0  0  # atno 8009 bound_to 7997
  156.2981  140.2516  156.3133 H   0  0  0  0  0  0  0  0  0  0  0  0  # atno 8010 bound_to 7997
  140.6135  143.2395  151.5652 H   0  0  0  0  0  0  0  0  0  0  0  0  # atno 10167 bound_to 10162
  156.0460  130.5687  150.7889 H   0  0  0  0  0  0  0  0  0  0  0  0  # atno 10718 bound_to 10713
  154.3556  135.6127  153.5664 H   0  0  0  0  0  0  0  0  0  0  0  0  # atno 10763 bound_to 10752
  152.9796  135.5803  154.4693 H   0  0  0  0  0  0  0  0  0  0  0  0  # atno 10764 bound_to 10752
  154.4422  135.2850  155.1817 H   0  0  0  0  0  0  0  0  0  0  0  0  # atno 10765 bound_to 10752
  141.1665  133.7216  156.8484 H   0  0  0  0  0  0  0  0  0  0  0  0  # atno 11005 bound_to 11000
  145.3317  141.0268  143.3442 LP  0  0  0  0  0  0  0  0  0  0  0  0  # atno 17320 bound_to 7965
  144.8794  139.4926  143.6730 LP  0  0  0  0  0  0  0  0  0  0  0  0  # atno 17321 bound_to 7965
  139.5380  144.2726  152.1292 LP  0  0  0  0  0  0  0  0  0  0  0  0  # atno 17342 bound_to 10162
  140.1930  144.4733  150.6469 LP  0  0  0  0  0  0  0  0  0  0  0  0  # atno 17343 bound_to 10162
  157.5335  131.0937  150.9923 LP  0  0  0  0  0  0  0  0  0  0  0  0  # atno 17370 bound_to 10713
  157.0224  130.5679  149.5333 LP  0  0  0  0  0  0  0  0  0  0  0  0  # atno 17371 bound_to 10713
  140.1933  134.8950  157.3086 LP  0  0  0  0  0  0  0  0  0  0  0  0  # atno 17394 bound_to 11000
  140.2266  134.3959  155.7541 LP  0  0  0  0  0  0  0  0  0  0  0  0  # atno 17395 bound_to 11000

$$$$
