AV-unprocessed.smi:1669|AV-procd|sdf|6690|dock6
  -GOLD-   22720 7423D 1   1.00000     0.00000
 Structure written by MMmdl.
 49 51  0  0  0  0  0  0  0  0  3 V2000
  146.1889  137.8568  152.6553 C   0  0  0  0  0  0  0  0  0  0  0  0
  146.2547  136.4178  152.2980 N   0  3  2  0  0  0  0  0  0  0  0  0
  145.4974  136.1005  151.0602 C   0  0  0  0  0  0  0  0  0  0  0  0
  145.2710  134.6084  150.8905 C   0  0  0  0  0  0  0  0  0  0  0  0
  146.3673  133.7294  150.7585 C   0  0  0  0  0  0  0  0  0  0  0  0
  146.1501  132.3465  150.6029 C   0  0  0  0  0  0  0  0  0  0  0  0
  144.8372  131.8378  150.5770 C   0  0  0  0  0  0  0  0  0  0  0  0
  143.7408  132.7120  150.7062 C   0  0  0  0  0  0  0  0  0  0  0  0
  143.9570  134.0949  150.8618 C   0  0  0  0  0  0  0  0  0  0  0  0
  145.8861  135.5247  153.4283 C   0  0  0  0  0  0  0  0  0  0  0  0
  146.9035  135.5830  154.5856 C   0  0  2  0  0  0  0  0  0  0  0  0
  148.1956  135.7768  154.0435 O   0  0  0  0  0  0  0  0  0  0  0  0
  146.8851  134.2948  155.4337 C   0  0  0  0  0  0  0  0  0  0  0  0
  148.2346  133.7797  155.7192 N   0  0  0  0  0  0  0  0  0  0  0  0
  149.1882  134.2498  156.5755 C   0  0  0  0  0  0  0  0  0  0  0  0
  149.0796  135.4426  157.4713 C   0  0  0  0  0  0  0  0  0  0  0  0
  149.3127  135.1351  158.8291 O   0  0  0  0  0  0  0  0  0  0  0  0
  150.2651  133.4201  156.4735 N   0  3  0  0  0  0  0  0  0  0  0  0
  150.0025  132.4129  155.5454 C   0  0  0  0  0  0  0  0  0  0  0  0
  150.7888  131.3519  155.1076 C   0  0  0  0  0  0  0  0  0  0  0  0
  150.2176  130.4971  154.1424 C   0  0  0  0  0  0  0  0  0  0  0  0
  148.9136  130.7127  153.6517 C   0  0  0  0  0  0  0  0  0  0  0  0
  148.1255  131.7913  154.1045 C   0  0  0  0  0  0  0  0  0  0  0  0
  148.6978  132.6343  155.0579 C   0  0  0  0  0  0  0  0  0  0  0  0
  145.1625  138.1594  152.8666 H   0  0  0  0  0  0  0  0  0  0  0  0
  146.5659  138.4822  151.8464 H   0  0  0  0  0  0  0  0  0  0  0  0
  146.7943  138.0818  153.5320 H   0  0  0  0  0  0  0  0  0  0  0  0
  144.5143  136.5724  151.0892 H   0  0  0  0  0  0  0  0  0  0  0  0
  146.0132  136.5113  150.1906 H   0  0  0  0  0  0  0  0  0  0  0  0
  147.3776  134.1115  150.7778 H   0  0  0  0  0  0  0  0  0  0  0  0
  146.9907  131.6756  150.5026 H   0  0  0  0  0  0  0  0  0  0  0  0
  144.6711  130.7773  150.4566 H   0  0  0  0  0  0  0  0  0  0  0  0
  142.7339  132.3213  150.6853 H   0  0  0  0  0  0  0  0  0  0  0  0
  143.1114  134.7601  150.9602 H   0  0  0  0  0  0  0  0  0  0  0  0
  144.8870  135.7865  153.7804 H   0  0  0  0  0  0  0  0  0  0  0  0
  145.8229  134.4906  153.0862 H   0  0  0  0  0  0  0  0  0  0  0  0
  146.6850  136.4269  155.2389 H   0  0  0  0  0  0  0  0  0  0  0  0
  148.1105  136.0253  153.1356 H   0  0  0  0  0  0  0  0  0  0  0  0
  146.4080  134.4908  156.3947 H   0  0  0  0  0  0  0  0  0  0  0  0
  146.2918  133.5130  154.9590 H   0  0  0  0  0  0  0  0  0  0  0  0
  149.7954  136.2031  157.1595 H   0  0  0  0  0  0  0  0  0  0  0  0
  148.0833  135.8734  157.3698 H   0  0  0  0  0  0  0  0  0  0  0  0
  148.5588  134.6768  159.1687 H   0  0  0  0  0  0  0  0  0  0  0  0
  151.7881  131.1852  155.4825 H   0  0  0  0  0  0  0  0  0  0  0  0
  150.7908  129.6597  153.7716 H   0  0  0  0  0  0  0  0  0  0  0  0
  148.5096  130.0368  152.9120 H   0  0  0  0  0  0  0  0  0  0  0  0
  147.1297  131.9442  153.7172 H   0  0  0  0  0  0  0  0  0  0  0  0
  147.2210  136.2103  152.0876 H   0  0  0  0  0  0  0  0  0  0  0  0
  151.1194  133.5423  157.0025 H   0  0  0  0  0  0  0  0  0  0  0  0
  1  2  1  0  0  0  0
  1 25  1  0  0  0  0
  1 26  1  0  0  0  0
  1 27  1  0  0  0  0
  2  3  1  0  0  0  0
  2 10  1  0  0  0  0
  2 48  1  0  0  0  0
  3  4  1  0  0  0  0
  3 28  1  0  0  0  0
  3 29  1  0  0  0  0
  4  9  1  0  0  0  0
  4  5  2  0  0  0  0
  5  6  1  0  0  0  0
  5 30  1  0  0  0  0
  6  7  2  0  0  0  0
  6 31  1  0  0  0  0
  7  8  1  0  0  0  0
  7 32  1  0  0  0  0
  8  9  2  0  0  0  0
  8 33  1  0  0  0  0
  9 34  1  0  0  0  0
 10 11  1  0  0  0  0
 10 35  1  0  0  0  0
 10 36  1  0  0  0  0
 11 12  1  0  0  0  0
 11 13  1  0  0  0  0
 11 37  1  0  0  0  0
 12 38  1  0  0  0  0
 13 14  1  0  0  0  0
 13 39  1  0  0  0  0
 13 40  1  0  0  0  0
 14 24  1  0  0  0  0
 14 15  1  0  0  0  0
 15 16  1  0  0  0  0
 15 18  2  0  0  0  0
 16 17  1  0  0  0  0
 16 41  1  0  0  0  0
 16 42  1  0  0  0  0
 17 43  1  0  0  0  0
 18 19  1  0  0  0  0
 18 49  1  0  0  0  0
 19 24  2  0  0  0  0
 19 20  1  0  0  0  0
 20 21  2  0  0  0  0
 20 44  1  0  0  0  0
 21 22  1  0  0  0  0
 21 45  1  0  0  0  0
 22 23  2  0  0  0  0
 22 46  1  0  0  0  0
 23 24  1  0  0  0  0
 23 47  1  0  0  0  0
M  CHG  1   2   1
M  CHG  1  18   1
M  END
> <s_m_source_file>
AV-unprocessed.smi

> <i_m_source_file_index>
1669

> <i_lp_mmshare_version>
43012

> <i_f3d_flags>
0

> <s_epik_input>
W2NIXTFbY0hdW2NIXVtjSF1bY0hdYzFbQ0gyXU4oW0NIM10pW0NIMl1bQ0BIXShbT0hdKVtDSDJdbihjKG4yKVtDSDJdW09IXSljKGMyMylbY0hdW2NIXVtjSF1bY0hdMw==

> <s_epik_cmdline>
J2VwaWtfcHl0aG9uJywgJy1waCcsICc3LjAnLCAnLXRuJywgJzgnLCAnLW1hJywgJzIwMCcsICctbWV0YWxfYmluZGluZycsICctaW1hZScsICc8aW5maWxlLm1hZT4nLCAnLW9tYWUnLCAnPG91dGZpbGUubWFlPic=

> <r_epik_Ionization_Penalty>
1.57484

> <r_epik_Ionization_Penalty_Charging>
1.57398

> <r_epik_Ionization_Penalty_Neutral>
0.000858917

> <r_epik_State_Penalty>
1.64997

> <r_epik_Charging_Adjusted_Penalty>
3.22395

> <i_epik_Tot_Q>
2

> <i_epik_Tot_abs_Q>
2

> <r_epik_Metal_State_Penalty>
5.70481

> <b_epik_Metal_Only>
0

> <s_lp_Force_Field>
OPLS_2005

> <r_lp_Energy>
22.9184

> <b_lp_Chiralities_Consistent>
1

> <s_lp_Variant>
AV-unprocessed.smi:1669-8

> <Gold.Version>
5.8.1

> <Gold.Id.Protein>
6NUR|6NUR_protein|mol2

> <Gold.PLP.Fitness>
45.8273

> <Gold.PLP.PLP>
-36.5569

> <Gold.PLP.part.hbond>
-2.5250

> <Gold.PLP.part.metal>
0.0000

> <Gold.PLP.part.buried>
-4.2865

> <Gold.PLP.part.nonpolar>
-30.0304

> <Gold.PLP.part.repulsive>
0.1258

> <Gold.PLP.ligand.clash>
0.0000

> <Gold.PLP.ligand.torsion>
1.3609

> <Gold.PLP.Chemscore.Hbond>
3.8800

> <Gold.PLP.Chemscore.CHOScore>
0.0000

> <Gold.PLP.Chemscore.Metal>
0.0000

> <Gold.Chemscore.Hbonds>
donor molecule, donor type, donor heavy atom, donor atom, acceptor molecule, acceptor atom, score
      L1  H     2    48       P1  7948  2.00
      L1  H    12    38       P1  7948  0.82
      P1  H  6896  6907       L1    17  1.00

> <Gold.PLP.Chemscore.Internal.Correction>
0.3522

> <Gold.Rescore>
     Score         DG    S(hbond)    S(metal)    S(lipo)     H(rot)  DE(clash)    DE(int)     intcor
     16.55     -17.90       2.88        0.00      95.44       3.27       0.04       1.32       ----

> <Gold.Chemscore.Fitness>
16.5510

> <Gold.Chemscore.DG>
-17.9045

> <Gold.Chemscore.ZeroCoef>
-5.4800

> <Gold.Chemscore.Hbond>
2.8843

> <Gold.Chemscore.Metal>
0.0000

> <Gold.Chemscore.Lipo>
95.4439

> <Gold.Chemscore.Internal_Hbond>
0.0000

> <Gold.Chemscore.DEClash>
0.0376

> <Gold.Chemscore.DEInternal>
1.3159

> <Gold.Chemscore.Rot>
3.2718

> <Gold.Chemscore.Internal.Correction>
   9.000000E+99

> <Gold.Chemscore.Hbonds>
donor molecule, donor type, donor heavy atom, donor atom, acceptor molecule, acceptor atom, score
      L1  H     2    48       P1  7948  1.00
      L1  H    12    38       P1  7948  0.76
      P1  H  6896  6907       L1    17  0.70

> <Gold.Chemscore.Hbond.Weighted>
-9.6335

> <Gold.Chemscore.Metal.Weighted>
-0.0000

> <Gold.Chemscore.Lipo.Weighted>
-11.1669

> <Gold.Chemscore.Internal_Hbond.Weighted>
0.0000

> <Gold.Chemscore.DEClash.Weighted>
0.0376

> <Gold.Chemscore.DEInternal.Weighted>
1.3159

> <Gold.Chemscore.Rot.Weighted>
8.3759

> <Gold.Chemscore.Internal.Correction.Weighted>
   9.000000E+99

> <Gold.Protein.RotatedTorsions>
[ 6907 6896 6895 6894 ] final  -72.12 input  -60.11 | X-H torsion
[ 7974 7965 7964 7962 ] final  -89.04 input  175.53 | X-H torsion
[ 8008 7997 7996 7995 ] final  106.34 input   59.86 | X-H torsion
[ 10167 10162 10161 10158 ] final  -35.53 input  -65.29 | X-H torsion
[ 10718 10713 10712 10709 ] final  -55.49 input   66.30 | X-H torsion
[ 10763 10752 10751 10750 ] final -163.70 input  -60.55 | X-H torsion
[ 11005 11000 10999 10996 ] final  132.68 input  -57.11 | X-H torsion

> <Gold.Protein.ActiveResidues>
 VAL166  LYS551  ARG553  GLY616  TRP617  ASP618  TYR619  PRO620  LYS621  CYS622 
 ASP623  PHE694  ASN695  SER759  ASP760  ASP761  ALA762  ILE779  LEU786  VAL792 
 PHE793  MET794  SER795  GLU796  ALA797  LYS798  CYS799  TRP800  GLU811  SER814 

> <Gold.Protein.RotatedAtoms>
  150.7183  134.5208  159.5652 H   0  0  0  0  0  0  0  0  0  0  0  0  # atno 6907 bound_to 6896
  152.2764  134.7874  160.0414 H   0  0  0  0  0  0  0  0  0  0  0  0  # atno 6908 bound_to 6896
  151.8536  133.3409  159.3718 H   0  0  0  0  0  0  0  0  0  0  0  0  # atno 6909 bound_to 6896
  145.4451  140.9560  143.2053 H   0  0  0  0  0  0  0  0  0  0  0  0  # atno 7974 bound_to 7965
  156.1735  140.3114  155.9016 H   0  0  0  0  0  0  0  0  0  0  0  0  # atno 8008 bound_to 7997
  155.3537  140.0472  157.3063 H   0  0  0  0  0  0  0  0  0  0  0  0  # atno 8009 bound_to 7997
  154.5265  140.2216  155.8891 H   0  0  0  0  0  0  0  0  0  0  0  0  # atno 8010 bound_to 7997
  140.7163  143.3471  151.2234 H   0  0  0  0  0  0  0  0  0  0  0  0  # atno 10167 bound_to 10162
  156.1364  130.4156  150.0178 H   0  0  0  0  0  0  0  0  0  0  0  0  # atno 10718 bound_to 10713
  154.7098  135.3004  154.9214 H   0  0  0  0  0  0  0  0  0  0  0  0  # atno 10763 bound_to 10752
  154.0120  135.6693  153.4770 H   0  0  0  0  0  0  0  0  0  0  0  0  # atno 10764 bound_to 10752
  153.0746  135.5042  154.8290 H   0  0  0  0  0  0  0  0  0  0  0  0  # atno 10765 bound_to 10752
  139.9805  134.9550  156.9616 H   0  0  0  0  0  0  0  0  0  0  0  0  # atno 11005 bound_to 11000
  144.8097  139.5985  143.7035 LP  0  0  0  0  0  0  0  0  0  0  0  0  # atno 17320 bound_to 7965
  146.2535  139.6251  142.9411 LP  0  0  0  0  0  0  0  0  0  0  0  0  # atno 17321 bound_to 7965
  139.6993  143.9560  152.2897 LP  0  0  0  0  0  0  0  0  0  0  0  0  # atno 17342 bound_to 10162
  139.9248  144.6777  150.8424 LP  0  0  0  0  0  0  0  0  0  0  0  0  # atno 17343 bound_to 10162
  156.8076  130.9313  151.3645 LP  0  0  0  0  0  0  0  0  0  0  0  0  # atno 17370 bound_to 10713
  157.6536  130.8905  149.9683 LP  0  0  0  0  0  0  0  0  0  0  0  0  # atno 17371 bound_to 10713
  140.5107  134.1005  155.7269 LP  0  0  0  0  0  0  0  0  0  0  0  0  # atno 17394 bound_to 11000
  141.1477  133.9025  157.2174 LP  0  0  0  0  0  0  0  0  0  0  0  0  # atno 17395 bound_to 11000

$$$$
