AV-unprocessed.smi:91|AV-procd|sdf|834|dock10
  -GOLD-   2262017263D 1   1.00000     0.00000
 Structure written by MMmdl.
 60 63  0  0  0  0  0  0  0  0  1 V2000
  155.6245  140.0020  161.4277 C   0  0  0  0  0  0  0  0  0  0  0  0
  155.0980  141.0748  160.6630 O   0  0  0  0  0  0  0  0  0  0  0  0
  153.6937  141.2533  160.7963 C   0  0  0  0  0  0  0  0  0  0  0  0
  153.0754  142.0021  159.6021 C   0  0  1  0  0  0  0  0  0  0  0  0
  152.0804  141.1241  158.8220 C   0  0  0  0  0  0  0  0  0  0  0  0
  151.3923  141.9188  157.8109 N   0  0  0  0  0  0  0  0  0  0  0  0
  150.7926  141.2239  156.8100 C   0  0  0  0  0  0  0  0  0  0  0  0
  151.5488  140.3023  156.1583 N   0  0  0  0  0  0  0  0  0  0  0  0
  151.0340  139.5867  155.1551 C   0  0  0  0  0  0  0  0  0  0  0  0
  149.8009  139.6275  154.6496 N   0  0  0  0  0  0  0  0  0  0  0  0
  149.0301  140.5435  155.3015 C   0  0  0  0  0  0  0  0  0  0  0  0
  149.4399  141.3820  156.3790 C   0  0  0  0  0  0  0  0  0  0  0  0
  148.3709  142.1800  156.7755 N   0  0  0  0  0  0  0  0  0  0  0  0
  147.3954  141.8396  155.9798 C   0  0  0  0  0  0  0  0  0  0  0  0
  147.6988  140.8478  155.0762 N   0  0  0  0  0  0  0  0  0  0  0  0
  146.8078  140.2814  154.0788 C   0  0  0  0  0  0  0  0  0  0  0  0
  147.3602  139.0372  153.3329 C   0  0  2  0  0  0  0  0  0  0  0  0
  146.6800  138.9842  151.9431 C   0  0  0  0  0  0  0  0  0  0  0  0
  147.2259  137.9721  151.1225 O   0  0  0  0  0  0  0  0  0  0  0  0
  147.1834  137.7113  154.1364 C   0  0  2  0  0  0  0  0  0  0  0  0
  145.7438  137.3407  154.5001 C   0  0  0  0  0  0  0  0  0  0  0  0
  145.8355  136.6624  155.8700 C   0  0  0  0  0  0  0  0  0  0  0  0
  147.2225  136.5746  156.1514 O   0  0  0  0  0  0  0  0  0  0  0  0
  147.8456  137.6758  155.5171 C   0  0  0  0  0  0  0  0  0  0  0  0
  150.7360  143.1027  158.3508 C   0  0  0  0  0  0  0  0  0  0  0  0
  151.7275  143.9684  159.1584 C   0  0  0  0  0  0  0  0  0  0  0  0
  152.7392  144.6915  158.2433 C   0  0  0  0  0  0  0  0  0  0  0  0
  150.9541  145.0128  159.9777 C   0  0  0  0  0  0  0  0  0  0  0  0
  152.3943  143.1451  160.1219 O   0  0  0  0  0  0  0  0  0  0  0  0
  156.6883  139.8960  161.2161 H   0  0  0  0  0  0  0  0  0  0  0  0
  155.1389  139.0588  161.1741 H   0  0  0  0  0  0  0  0  0  0  0  0
  155.5182  140.1752  162.4984 H   0  0  0  0  0  0  0  0  0  0  0  0
  153.2416  140.2638  160.8700 H   0  0  0  0  0  0  0  0  0  0  0  0
  153.4641  141.7627  161.7334 H   0  0  0  0  0  0  0  0  0  0  0  0
  153.8729  142.3342  158.9399 H   0  0  0  0  0  0  0  0  0  0  0  0
  152.6125  140.2833  158.3767 H   0  0  0  0  0  0  0  0  0  0  0  0
  151.3364  140.7038  159.5001 H   0  0  0  0  0  0  0  0  0  0  0  0
  151.7067  138.8803  154.6916 H   0  0  0  0  0  0  0  0  0  0  0  0
  146.4177  142.2954  156.0412 H   0  0  0  0  0  0  0  0  0  0  0  0
  145.8617  140.0332  154.5619 H   0  0  0  0  0  0  0  0  0  0  0  0
  146.5858  141.0765  153.3658 H   0  0  0  0  0  0  0  0  0  0  0  0
  148.4259  139.1990  153.1654 H   0  0  0  0  0  0  0  0  0  0  0  0
  145.6034  138.8413  152.0408 H   0  0  0  0  0  0  0  0  0  0  0  0
  146.8233  139.9228  151.4071 H   0  0  0  0  0  0  0  0  0  0  0  0
  147.7363  137.3889  151.6632 H   0  0  0  0  0  0  0  0  0  0  0  0
  147.6093  136.8913  153.5559 H   0  0  0  0  0  0  0  0  0  0  0  0
  145.1059  138.2222  154.5722 H   0  0  0  0  0  0  0  0  0  0  0  0
  145.3061  136.6692  153.7622 H   0  0  0  0  0  0  0  0  0  0  0  0
  145.3484  137.2711  156.6332 H   0  0  0  0  0  0  0  0  0  0  0  0
  145.3754  135.6740  155.8786 H   0  0  0  0  0  0  0  0  0  0  0  0
  148.9257  137.5358  155.4665 H   0  0  0  0  0  0  0  0  0  0  0  0
  147.6372  138.5842  156.0851 H   0  0  0  0  0  0  0  0  0  0  0  0
  150.3010  143.6970  157.5461 H   0  0  0  0  0  0  0  0  0  0  0  0
  149.9184  142.7788  158.9962 H   0  0  0  0  0  0  0  0  0  0  0  0
  152.2346  145.4104  157.5972 H   0  0  0  0  0  0  0  0  0  0  0  0
  153.2766  144.0052  157.5895 H   0  0  0  0  0  0  0  0  0  0  0  0
  153.4782  145.2382  158.8294 H   0  0  0  0  0  0  0  0  0  0  0  0
  150.3859  145.6829  159.3317 H   0  0  0  0  0  0  0  0  0  0  0  0
  151.6296  145.6235  160.5777 H   0  0  0  0  0  0  0  0  0  0  0  0
  150.2497  144.5365  160.6607 H   0  0  0  0  0  0  0  0  0  0  0  0
  1  2  1  0  0  0  0
  1 30  1  0  0  0  0
  1 31  1  0  0  0  0
  1 32  1  0  0  0  0
  2  3  1  0  0  0  0
  3  4  1  0  0  0  0
  3 33  1  0  0  0  0
  3 34  1  0  0  0  0
  4 29  1  0  0  0  0
  4  5  1  0  0  0  0
  4 35  1  0  0  0  0
  5  6  1  0  0  0  0
  5 36  1  0  0  0  0
  5 37  1  0  0  0  0
  6  7  1  0  0  0  0
  6 25  1  0  0  0  0
  7 12  1  0  0  0  0
  7  8  2  0  0  0  0
  8  9  1  0  0  0  0
  9 10  2  0  0  0  0
  9 38  1  0  0  0  0
 10 11  1  0  0  0  0
 11 15  1  0  0  0  0
 11 12  2  0  0  0  0
 12 13  1  0  0  0  0
 13 14  2  0  0  0  0
 14 15  1  0  0  0  0
 14 39  1  0  0  0  0
 15 16  1  0  0  0  0
 16 17  1  0  0  0  0
 16 40  1  0  0  0  0
 16 41  1  0  0  0  0
 17 18  1  0  0  0  0
 17 20  1  0  0  0  0
 17 42  1  0  0  0  0
 18 19  1  0  0  0  0
 18 43  1  0  0  0  0
 18 44  1  0  0  0  0
 19 45  1  0  0  0  0
 20 24  1  0  0  0  0
 20 21  1  0  0  0  0
 20 46  1  0  0  0  0
 21 22  1  0  0  0  0
 21 47  1  0  0  0  0
 21 48  1  0  0  0  0
 22 23  1  0  0  0  0
 22 49  1  0  0  0  0
 22 50  1  0  0  0  0
 23 24  1  0  0  0  0
 24 51  1  0  0  0  0
 24 52  1  0  0  0  0
 25 26  1  0  0  0  0
 25 53  1  0  0  0  0
 25 54  1  0  0  0  0
 26 27  1  0  0  0  0
 26 28  1  0  0  0  0
 26 29  1  0  0  0  0
 27 55  1  0  0  0  0
 27 56  1  0  0  0  0
 27 57  1  0  0  0  0
 28 58  1  0  0  0  0
 28 59  1  0  0  0  0
 28 60  1  0  0  0  0
M  END
> <s_m_source_file>
AV-unprocessed.smi

> <i_m_source_file_index>
91

> <i_lp_mmshare_version>
43012

> <i_f3d_flags>
0

> <s_epik_input>
W0NIM11PW0NIMl1bQ0BASF0oTzEpW0NIMl1OKFtDSDJdQzEoW0NIM10pW0NIM10pYyhuW2NIXW4yKWMoYzIzKW5bY0hdbjNbQ0gyXVtDQEhdKFtDSDJdW09IXSlbQ0BASF00W0NIMl1bQ0gyXU9bQ0gyXTQ=

> <s_epik_cmdline>
J2VwaWtfcHl0aG9uJywgJy1waCcsICc3LjAnLCAnLXRuJywgJzgnLCAnLW1hJywgJzIwMCcsICctbWV0YWxfYmluZGluZycsICctaW1hZScsICc8aW5maWxlLm1hZT4nLCAnLW9tYWUnLCAnPG91dGZpbGUubWFlPic=

> <r_lp_tautomer_probability>
1

> <r_epik_Ionization_Penalty>
8.63591e-05

> <r_epik_Ionization_Penalty_Charging>
0

> <r_epik_Ionization_Penalty_Neutral>
8.63591e-05

> <r_epik_State_Penalty>
-0

> <r_epik_Charging_Adjusted_Penalty>
0

> <i_epik_Tot_Q>
0

> <i_epik_Tot_abs_Q>
0

> <r_epik_Metal_State_Penalty>
-0

> <b_epik_Metal_Only>
0

> <s_lp_Force_Field>
OPLS_2005

> <r_lp_Energy>
49.706

> <b_lp_Chiralities_Consistent>
1

> <s_lp_Variant>
AV-unprocessed.smi:91-2

> <Gold.Version>
5.8.1

> <Gold.Id.Protein>
6NUR|6NUR_protein|mol2

> <Gold.PLP.Fitness>
50.6172

> <Gold.PLP.PLP>
-47.3292

> <Gold.PLP.part.hbond>
-3.7342

> <Gold.PLP.part.metal>
0.0000

> <Gold.PLP.part.buried>
-6.5544

> <Gold.PLP.part.nonpolar>
-40.4786

> <Gold.PLP.part.repulsive>
2.8709

> <Gold.PLP.ligand.clash>
0.0000

> <Gold.PLP.ligand.torsion>
1.4415

> <Gold.PLP.Chemscore.Hbond>
1.8697

> <Gold.PLP.Chemscore.CHOScore>
0.0000

> <Gold.PLP.Chemscore.Metal>
0.0000

> <Gold.Chemscore.Hbonds>
donor molecule, donor type, donor heavy atom, donor atom, acceptor molecule, acceptor atom, score
      L1  H    19    45       P1  7948  0.99
      P1  H  7954  7966       L1    19  0.75

> <Gold.PLP.Chemscore.Internal.Correction>
0.5620

> <Gold.Rescore>
     Score         DG    S(hbond)    S(metal)    S(lipo)     H(rot)  DE(clash)    DE(int)     intcor
      9.92     -15.20       1.43        0.00     108.58       3.03       1.30       3.98       ----

> <Gold.Chemscore.Fitness>
9.9168

> <Gold.Chemscore.DG>
-15.1973

> <Gold.Chemscore.ZeroCoef>
-5.4800

> <Gold.Chemscore.Hbond>
1.4270

> <Gold.Chemscore.Metal>
0.0000

> <Gold.Chemscore.Lipo>
108.5817

> <Gold.Chemscore.Internal_Hbond>
0.0000

> <Gold.Chemscore.DEClash>
1.2999

> <Gold.Chemscore.DEInternal>
3.9806

> <Gold.Chemscore.Rot>
3.0284

> <Gold.Chemscore.Internal.Correction>
   9.000000E+99

> <Gold.Chemscore.Hbonds>
donor molecule, donor type, donor heavy atom, donor atom, acceptor molecule, acceptor atom, score
      L1  H    19    45       P1  7948  0.93
      P1  H  7954  7966       L1    19  0.09

> <Gold.Chemscore.Hbond.Weighted>
-4.7660

> <Gold.Chemscore.Metal.Weighted>
-0.0000

> <Gold.Chemscore.Lipo.Weighted>
-12.7041

> <Gold.Chemscore.Internal_Hbond.Weighted>
0.0000

> <Gold.Chemscore.DEClash.Weighted>
1.2999

> <Gold.Chemscore.DEInternal.Weighted>
3.9806

> <Gold.Chemscore.Rot.Weighted>
7.7528

> <Gold.Chemscore.Internal.Correction.Weighted>
   9.000000E+99

> <Gold.Protein.RotatedTorsions>
[ 6907 6896 6895 6894 ] final  100.93 input  -60.11 | X-H torsion
[ 7974 7965 7964 7962 ] final   22.54 input  175.53 | X-H torsion
[ 8008 7997 7996 7995 ] final  -54.67 input   59.86 | X-H torsion
[ 10167 10162 10161 10158 ] final    8.63 input  -65.29 | X-H torsion
[ 10718 10713 10712 10709 ] final  178.78 input   66.30 | X-H torsion
[ 10763 10752 10751 10750 ] final  -55.17 input  -60.55 | X-H torsion
[ 11005 11000 10999 10996 ] final  -52.44 input  -57.11 | X-H torsion

> <Gold.Protein.ActiveResidues>
 VAL166  LYS551  ARG553  GLY616  TRP617  ASP618  TYR619  PRO620  LYS621  CYS622 
 ASP623  PHE694  ASN695  SER759  ASP760  ASP761  ALA762  ILE779  LEU786  VAL792 
 PHE793  MET794  SER795  GLU796  ALA797  LYS798  CYS799  TRP800  GLU811  SER814 

> <Gold.Protein.RotatedAtoms>
  152.5361  134.0202  159.7978 H   0  0  0  0  0  0  0  0  0  0  0  0  # atno 6907 bound_to 6896
  151.0390  133.5715  159.2660 H   0  0  0  0  0  0  0  0  0  0  0  0  # atno 6908 bound_to 6896
  151.2692  135.0686  159.9181 H   0  0  0  0  0  0  0  0  0  0  0  0  # atno 6909 bound_to 6896
  146.2024  139.7871  142.8751 H   0  0  0  0  0  0  0  0  0  0  0  0  # atno 7974 bound_to 7965
  154.4170  140.1171  156.5353 H   0  0  0  0  0  0  0  0  0  0  0  0  # atno 8008 bound_to 7997
  155.6563  140.3496  155.4747 H   0  0  0  0  0  0  0  0  0  0  0  0  # atno 8009 bound_to 7997
  155.9750  140.1149  157.0768 H   0  0  0  0  0  0  0  0  0  0  0  0  # atno 8010 bound_to 7997
  140.6303  143.8009  150.7286 H   0  0  0  0  0  0  0  0  0  0  0  0  # atno 10167 bound_to 10162
  156.8856  130.9830  151.3056 H   0  0  0  0  0  0  0  0  0  0  0  0  # atno 10718 bound_to 10713
  154.1866  135.6434  153.5048 H   0  0  0  0  0  0  0  0  0  0  0  0  # atno 10763 bound_to 10752
  153.0045  135.5418  154.6459 H   0  0  0  0  0  0  0  0  0  0  0  0  # atno 10764 bound_to 10752
  154.5837  135.2927  155.0679 H   0  0  0  0  0  0  0  0  0  0  0  0  # atno 10765 bound_to 10752
  141.0924  133.6630  156.4024 H   0  0  0  0  0  0  0  0  0  0  0  0  # atno 11005 bound_to 11000
  145.3437  141.0293  143.3378 LP  0  0  0  0  0  0  0  0  0  0  0  0  # atno 17320 bound_to 7965
  144.8714  139.5033  143.6766 LP  0  0  0  0  0  0  0  0  0  0  0  0  # atno 17321 bound_to 7965
  140.1619  143.4268  152.2061 LP  0  0  0  0  0  0  0  0  0  0  0  0  # atno 17342 bound_to 10162
  139.5518  144.7343  151.4413 LP  0  0  0  0  0  0  0  0  0  0  0  0  # atno 17343 bound_to 10162
  157.6114  130.8586  149.8958 LP  0  0  0  0  0  0  0  0  0  0  0  0  # atno 17370 bound_to 10713
  156.0655  130.3693  150.0888 LP  0  0  0  0  0  0  0  0  0  0  0  0  # atno 17371 bound_to 10713
  140.5220  134.6295  157.5321 LP  0  0  0  0  0  0  0  0  0  0  0  0  # atno 17394 bound_to 11000
  139.9753  134.7226  155.9962 LP  0  0  0  0  0  0  0  0  0  0  0  0  # atno 17395 bound_to 11000

$$$$
