#       Name:                AV-unprocessed.smi:265
#       Creating user name   scv26
#       Creation time:       Thu Mar 26 21:22:18 2020


#       File generated by GOLD software.
#

@<TRIPOS>MOLECULE
AV-unprocessed.smi:265
    64    68     1
SMALL
NO_CHARGES


@<TRIPOS>ATOM
      1 ****        -4.0686  -3.3073   4.5680 C.3            1 S1                 0.0000
      2 ****        -2.6907  -3.5214   3.9183 C.3            1 S1                 0.0000
      3 ****        -2.6851  -4.8490   3.3905 O.3            1 S1                 0.0000
      4 ****        -2.2202  -4.8463   2.0492 C.3            1 S1                 0.0000
      5 ****        -2.6327  -3.4775   1.5322 C.3            1 S1                 0.0000
      6 ****        -2.3482  -2.5812   2.7330 C.3            1 S1                 0.0000
      7 ****        -3.1962  -1.4480   2.6676 O.3            1 S1                 0.0000
      8 ****        -0.8783  -2.0884   2.8215 C.3            1 S1                 0.0000
      9 ****        -0.4156  -1.3619   1.6482 N.pl3          1 S1                 0.0000
     10 ****         0.2908  -1.8818   0.5870 C.2            1 S1                 0.0000
     11 ****         0.5958  -1.0278  -0.3513 N.2            1 S1                 0.0000
     12 ****         0.0785   0.1786   0.1060 C.ar           1 S1                 0.0000
     13 ****         0.0529   1.5052  -0.4103 C.ar           1 S1                 0.0000
     14 ****         0.6312   1.8429  -1.5909 N.3            1 S1                 0.0000
     15 ****         0.1469   3.0477  -2.2646 C.3            1 S1                 0.0000
     16 ****         0.6013   3.0701  -3.7319 C.3            1 S1                 0.0000
     17 ****         2.1227   2.8912  -3.8623 C.3            1 S1                 0.0000
     18 ****         2.7989   4.0313  -3.3479 O.3            1 S1                 0.0000
     19 ****         4.2059   4.0261  -3.5959 C.3            1 S1                 0.0000
     20 ****         4.8647   2.6904  -3.2036 C.2            1 S1                 0.0000
     21 ****         6.0853   2.6229  -3.0772 O.2            1 S1                 0.0000
     22 ****         4.0740   1.6157  -3.0519 N.am           1 S1                 0.0000
     23 ****         2.6157   1.6597  -3.0716 C.3            1 S1                 0.0000
     24 ****         2.0814   1.6641  -1.6250 C.3            1 S1                 0.0000
     25 ****        -0.5786   2.4528   0.3336 N.ar           1 S1                 0.0000
     26 ****        -1.1363   2.1318   1.5046 C.ar           1 S1                 0.0000
     27 ****        -1.1816   0.9432   2.1087 N.ar           1 S1                 0.0000
     28 ****        -0.5607  -0.0150   1.3635 C.ar           1 S1                 0.0000
     29 ****         2.3697   2.7845  -4.9205 H              1 S1                 0.0000
     30 ****         2.2599   0.7574  -3.5706 H              1 S1                 0.0000
     31 ****        -4.1387  -2.3250   5.0359 H              1 S1                 0.0000
     32 ****        -4.2504  -4.0515   5.3437 H              1 S1                 0.0000
     33 ****        -4.8716  -3.3913   3.8347 H              1 S1                 0.0000
     34 ****        -1.9273  -3.4520   4.6943 H              1 S1                 0.0000
     35 ****        -1.1354  -4.9588   2.0377 H              1 S1                 0.0000
     36 ****        -2.6554  -5.6633   1.4738 H              1 S1                 0.0000
     37 ****        -2.1199  -3.1919   0.6148 H              1 S1                 0.0000
     38 ****        -3.7022  -3.4922   1.3143 H              1 S1                 0.0000
     39 ****        -2.9288  -0.9143   1.9348 H              1 S1                 0.0000
     40 ****        -0.7511  -1.4444   3.6929 H              1 S1                 0.0000
     41 ****        -0.2057  -2.9330   2.9753 H              1 S1                 0.0000
     42 ****         0.5662  -2.9247   0.5260 H              1 S1                 0.0000
     43 ****        -0.9425   3.0899  -2.2242 H              1 S1                 0.0000
     44 ****         0.5235   3.9294  -1.7437 H              1 S1                 0.0000
     45 ****         0.1003   2.2651  -4.2711 H              1 S1                 0.0000
     46 ****         0.2895   4.0002  -4.2077 H              1 S1                 0.0000
     47 ****         4.3876   4.2112  -4.6553 H              1 S1                 0.0000
     48 ****         4.6675   4.8430  -3.0408 H              1 S1                 0.0000
     49 ****         4.5071   0.7303  -2.8333 H              1 S1                 0.0000
     50 ****         2.5374   2.4789  -1.0605 H              1 S1                 0.0000
     51 ****         2.3809   0.7415  -1.1287 H              1 S1                 0.0000
     52 ****        -1.6141   2.9435   2.0331 H              1 S1                 0.0000
     53 ****        -3.6142  -5.2178   3.4164 LP             1 S1                 0.0000
     54 ****        -2.0833  -5.4222   3.9466 LP             1 S1                 0.0000
     55 ****        -3.1204  -0.9209   3.5140 LP             1 S1                 0.0000
     56 ****        -4.1435  -1.7426   2.5421 LP             1 S1                 0.0000
     57 ****         1.0887  -1.2015  -1.2039 LP             1 S1                 0.0000
     58 ****         0.2636   1.1353  -2.1945 LP             1 S1                 0.0000
     59 ****         2.6529   4.0653  -2.3592 LP             1 S1                 0.0000
     60 ****         2.4069   4.8482  -3.7711 LP             1 S1                 0.0000
     61 ****         6.6493   3.4346  -3.2291 LP             1 S1                 0.0000
     62 ****         6.5144   1.7563  -2.8226 LP             1 S1                 0.0000
     63 ****        -0.6257   3.3951   0.0022 LP             1 S1                 0.0000
     64 ****        -1.6152   0.7764   2.9942 LP             1 S1                 0.0000
@<TRIPOS>BOND
    1    1    2 1     
    2    1   31 1     
    3    1   32 1     
    4    1   33 1     
    5    2    6 1     
    6    2    3 1     
    7    2   34 1     
    8    3    4 1     
    9    4    5 1     
   10    4   35 1     
   11    4   36 1     
   12    5    6 1     
   13    5   37 1     
   14    5   38 1     
   15    6    7 1     
   16    6    8 1     
   17    7   39 1     
   18    8    9 1     
   19    8   40 1     
   20    8   41 1     
   21    9   28 1     
   22    9   10 1     
   23   10   11 2     
   24   10   42 1     
   25   11   12 1     
   26   12   28 ar    
   27   12   13 ar    
   28   13   14 1     
   29   13   25 ar    
   30   14   24 1     
   31   14   15 1     
   32   15   16 1     
   33   15   43 1     
   34   15   44 1     
   35   16   17 1     
   36   16   45 1     
   37   16   46 1     
   38   17   29 1     
   39   17   23 1     
   40   17   18 1     
   41   18   19 1     
   42   19   20 1     
   43   19   47 1     
   44   19   48 1     
   45   20   21 2     
   46   20   22 am    
   47   22   23 1     
   48   22   49 1     
   49   23   30 1     
   50   23   24 1     
   51   24   50 1     
   52   24   51 1     
   53   25   26 ar    
   54   26   27 ar    
   55   26   52 1     
   56   27   28 ar    
   57    3   53 1     
   58    3   54 1     
   59    7   55 1     
   60    7   56 1     
   61   11   57 1     
   62   14   58 1     
   63   18   59 1     
   64   18   60 1     
   65   21   61 1     
   66   21   62 1     
   67   25   63 1     
   68   27   64 1     
@<TRIPOS>SUBSTRUCTURE
      1 S1             1
@<TRIPOS>SET
LONE_PAIRS      STATIC     ATOMS    <user>   **** ""
12 53 54 55 56 57 58 59 60 61 62 63 64
DONOR_HYDROGENS      STATIC     ATOMS    <user>   **** ""
2 39 49
ATOM$BLUE        STATIC     ATOMS    COLORGROUP SYSTEM
12 53 54 55 56 57 58 59 60 61 62 63 64
ATOM$RED        STATIC     ATOMS    COLORGROUP SYSTEM
2 39 49
