#       Name:                AV-unprocessed.smi:910
#       Creating user name   scv26
#       Creation time:       Fri Mar 27 02:02:54 2020


#       File generated by GOLD software.
#

@<TRIPOS>MOLECULE
AV-unprocessed.smi:910
    53    54     1
SMALL
NO_CHARGES


@<TRIPOS>ATOM
      1 ****        -3.1204   2.0493  -0.0883 C.3            1 S1                 0.0000
      2 ****        -2.9138   1.0282   1.0085 C.2            1 S1                 0.0000
      3 ****        -1.6722   0.5628   1.3404 N.pl3          1 S1                 0.0000
      4 ****        -1.8158  -0.3629   2.3715 C.2            1 S1                 0.0000
      5 ****        -0.9586  -1.0894   3.0202 N.2            1 S1                 0.0000
      6 ****         0.3710  -0.9566   2.6654 C.2            1 S1                 0.0000
      7 ****         1.0100   0.0982   2.6094 O.2            1 S1                 0.0000
      8 ****         0.8944  -2.1360   2.2944 N.am           1 S1                 0.0000
      9 ****         2.2435  -2.3317   1.7726 C.3            1 S1                 0.0000
     10 ****         2.2600  -2.3070   0.2378 C.3            1 S1                 0.0000
     11 ****         1.7920  -1.0470  -0.2159 O.3            1 S1                 0.0000
     12 ****         1.9092  -0.8412  -1.6176 C.3            1 S1                 0.0000
     13 ****         3.2433  -0.1254  -1.9075 C.3            1 S1                 0.0000
     14 ****         3.2761   1.2836  -1.2901 C.3            1 S1                 0.0000
     15 ****         2.0762   2.1259  -1.7508 C.3            1 S1                 0.0000
     16 ****         0.7455   1.4138  -1.4590 C.3            1 S1                 0.0000
     17 ****         0.7107   0.0088  -2.0925 C.3            1 S1                 0.0000
     18 ****        -0.6289  -0.7045  -1.8530 C.3            1 S1                 0.0000
     19 ****        -3.1583  -0.4266   2.6466 O.3            1 S1                 0.0000
     20 ****        -3.7989   0.4283   1.8005 C.2            1 S1                 0.0000
     21 ****        -5.3031   0.5507   1.8913 C.3            1 S1                 0.0000
     22 ****        -3.6072   2.9386   0.3124 H              1 S1                 0.0000
     23 ****        -3.7503   1.6350  -0.8757 H              1 S1                 0.0000
     24 ****        -2.1693   2.3471  -0.5297 H              1 S1                 0.0000
     25 ****        -0.8228   0.8577   0.8805 H              1 S1                 0.0000
     26 ****         0.3035  -2.9529   2.3494 H              1 S1                 0.0000
     27 ****         2.9312  -1.5843   2.1717 H              1 S1                 0.0000
     28 ****         2.6047  -3.2980   2.1249 H              1 S1                 0.0000
     29 ****         3.2756  -2.4852  -0.1176 H              1 S1                 0.0000
     30 ****         1.6286  -3.1016  -0.1626 H              1 S1                 0.0000
     31 ****         1.8847  -1.7963  -2.1461 H              1 S1                 0.0000
     32 ****         4.0810  -0.7139  -1.5328 H              1 S1                 0.0000
     33 ****         3.3842  -0.0491  -2.9863 H              1 S1                 0.0000
     34 ****         3.2708   1.2070  -0.2020 H              1 S1                 0.0000
     35 ****         4.2063   1.7849  -1.5583 H              1 S1                 0.0000
     36 ****         2.0932   3.0980  -1.2571 H              1 S1                 0.0000
     37 ****         2.1576   2.3214  -2.8207 H              1 S1                 0.0000
     38 ****         0.5989   1.3412  -0.3806 H              1 S1                 0.0000
     39 ****        -0.0789   2.0155  -1.8422 H              1 S1                 0.0000
     40 ****         0.8086   0.1381  -3.1715 H              1 S1                 0.0000
     41 ****        -0.7856  -0.9184  -0.7964 H              1 S1                 0.0000
     42 ****        -0.6667  -1.6533  -2.3884 H              1 S1                 0.0000
     43 ****        -1.4661  -0.0974  -2.1982 H              1 S1                 0.0000
     44 ****        -5.5750   1.4588   2.4295 H              1 S1                 0.0000
     45 ****        -5.7249  -0.3045   2.4196 H              1 S1                 0.0000
     46 ****        -5.7432   0.5926   0.8950 H              1 S1                 0.0000
     47 ****        -1.2465  -1.7168   3.7438 LP             1 S1                 0.0000
     48 ****         0.5647   0.9650   2.8335 LP             1 S1                 0.0000
     49 ****         1.9729   0.0857   2.3399 LP             1 S1                 0.0000
     50 ****         2.3166  -0.3338   0.2489 LP             1 S1                 0.0000
     51 ****         0.8265  -0.9655   0.0315 LP             1 S1                 0.0000
     52 ****        -3.3244  -0.1549   3.5945 LP             1 S1                 0.0000
     53 ****        -3.4908  -1.3589   2.5039 LP             1 S1                 0.0000
@<TRIPOS>BOND
    1    1   22 1     
    2    1   23 1     
    3    1   24 1     
    4    1    2 1     
    5    2    3 1     
    6    2   20 2     
    7    3   25 1     
    8    3    4 1     
    9    4   19 1     
   10    4    5 2     
   11    5    6 1     
   12    6    8 am    
   13    6    7 2     
   14    8    9 1     
   15    8   26 1     
   16    9   10 1     
   17    9   27 1     
   18    9   28 1     
   19   10   11 1     
   20   10   29 1     
   21   10   30 1     
   22   11   12 1     
   23   12   17 1     
   24   12   13 1     
   25   12   31 1     
   26   13   14 1     
   27   13   32 1     
   28   13   33 1     
   29   14   15 1     
   30   14   34 1     
   31   14   35 1     
   32   15   16 1     
   33   15   36 1     
   34   15   37 1     
   35   16   17 1     
   36   16   38 1     
   37   16   39 1     
   38   17   18 1     
   39   17   40 1     
   40   18   41 1     
   41   18   42 1     
   42   18   43 1     
   43   19   20 1     
   44   20   21 1     
   45   21   44 1     
   46   21   45 1     
   47   21   46 1     
   48    5   47 1     
   49    7   48 1     
   50    7   49 1     
   51   11   50 1     
   52   11   51 1     
   53   19   52 1     
   54   19   53 1     
@<TRIPOS>SUBSTRUCTURE
      1 S1             1
@<TRIPOS>SET
LONE_PAIRS      STATIC     ATOMS    <user>   **** ""
7 47 48 49 50 51 52 53
DONOR_HYDROGENS      STATIC     ATOMS    <user>   **** ""
2 25 26
ATOM$BLUE        STATIC     ATOMS    COLORGROUP SYSTEM
7 47 48 49 50 51 52 53
ATOM$RED        STATIC     ATOMS    COLORGROUP SYSTEM
2 25 26
