AV-unprocessed.smi:12|AV-procd|sdf|66|dock10
  -GOLD-   2262015183D 1   1.00000     0.00000
 Structure written by MMmdl.
 41 44  0  0  0  0  0  0  0  0  1 V2000
  152.1766  142.1421  158.7042 C   0  0  0  0  0  0  0  0  0  0  0  0
  151.5942  141.4238  157.5002 C   0  0  0  0  0  0  0  0  0  0  0  0
  150.6205  141.9806  156.7418 C   0  0  0  0  0  0  0  0  0  0  0  0
  150.1279  141.2898  155.6701 N   0  0  0  0  0  0  0  0  0  0  0  0
  150.6493  140.0159  155.3577 C   0  0  0  0  0  0  0  0  0  0  0  0
  151.5795  139.4162  156.0338 N   0  0  0  0  0  0  0  0  0  0  0  0
  152.1135  140.0758  157.1575 C   0  0  0  0  0  0  0  0  0  0  0  0
  152.9920  139.5433  157.8344 O   0  0  0  0  0  0  0  0  0  0  0  0
  150.0304  139.5465  154.2394 O   0  0  0  0  0  0  0  0  0  0  0  0
  149.0824  140.5131  153.7667 C   0  0  1  0  0  0  0  0  0  0  0  0
  147.6552  139.9827  153.8704 C   0  0  2  0  0  0  0  0  0  0  0  0
  147.1275  139.7101  152.5878 O   0  0  0  0  0  0  0  0  0  0  0  0
  146.8965  141.1247  154.5536 C   0  0  1  0  0  0  0  0  0  0  0  0
  145.6826  140.6772  155.3774 C   0  0  0  0  0  0  0  0  0  0  0  0
  144.7786  141.7623  155.5077 O   0  0  0  0  0  0  0  0  0  0  0  0
  144.9434  142.6662  156.4925 C   0  0  0  0  0  0  0  0  0  0  0  0
  145.4527  142.4015  157.5834 O   0  0  0  0  0  0  0  0  0  0  0  0
  144.4476  144.0233  156.1220 C   0  0  0  0  0  0  0  0  0  0  0  0
  144.0694  144.2819  154.7836 C   0  0  0  0  0  0  0  0  0  0  0  0
  143.5933  145.5523  154.4052 C   0  0  0  0  0  0  0  0  0  0  0  0
  143.4905  146.5804  155.3605 C   0  0  0  0  0  0  0  0  0  0  0  0
  143.8662  146.3369  156.6945 C   0  0  0  0  0  0  0  0  0  0  0  0
  144.3419  145.0667  157.0748 C   0  0  0  0  0  0  0  0  0  0  0  0
  147.8686  141.7073  155.4065 O   0  0  0  0  0  0  0  0  0  0  0  0
  149.0865  141.7116  154.7348 C   0  0  1  0  0  0  0  0  0  0  0  0
  151.7082  143.1162  158.8492 H   0  0  0  0  0  0  0  0  0  0  0  0
  153.2477  142.2991  158.5737 H   0  0  0  0  0  0  0  0  0  0  0  0
  152.0220  141.5557  159.6104 H   0  0  0  0  0  0  0  0  0  0  0  0
  150.2248  142.9587  156.9733 H   0  0  0  0  0  0  0  0  0  0  0  0
  149.3398  140.8644  152.7663 H   0  0  0  0  0  0  0  0  0  0  0  0
  147.6287  139.0835  154.4880 H   0  0  0  0  0  0  0  0  0  0  0  0
  147.8119  139.8389  151.9488 H   0  0  0  0  0  0  0  0  0  0  0  0
  146.6035  141.8827  153.8242 H   0  0  0  0  0  0  0  0  0  0  0  0
  145.1905  139.8263  154.9045 H   0  0  0  0  0  0  0  0  0  0  0  0
  146.0076  140.3590  156.3690 H   0  0  0  0  0  0  0  0  0  0  0  0
  144.1385  143.5081  154.0325 H   0  0  0  0  0  0  0  0  0  0  0  0
  143.3061  145.7374  153.3805 H   0  0  0  0  0  0  0  0  0  0  0  0
  143.1243  147.5543  155.0704 H   0  0  0  0  0  0  0  0  0  0  0  0
  143.7891  147.1254  157.4285 H   0  0  0  0  0  0  0  0  0  0  0  0
  144.6212  144.9144  158.1072 H   0  0  0  0  0  0  0  0  0  0  0  0
  149.3976  142.6689  154.3154 H   0  0  0  0  0  0  0  0  0  0  0  0
  1  2  1  0  0  0  0
  1 26  1  0  0  0  0
  1 27  1  0  0  0  0
  1 28  1  0  0  0  0
  2  7  1  0  0  0  0
  2  3  2  0  0  0  0
  3  4  1  0  0  0  0
  3 29  1  0  0  0  0
  4 25  1  0  0  0  0
  4  5  1  0  0  0  0
  5  6  2  0  0  0  0
  5  9  1  0  0  0  0
  6  7  1  0  0  0  0
  7  8  2  0  0  0  0
  9 10  1  0  0  0  0
 10 25  1  0  0  0  0
 10 11  1  0  0  0  0
 10 30  1  0  0  0  0
 11 12  1  0  0  0  0
 11 13  1  0  0  0  0
 11 31  1  0  0  0  0
 12 32  1  0  0  0  0
 13 14  1  0  0  0  0
 13 24  1  0  0  0  0
 13 33  1  0  0  0  0
 14 15  1  0  0  0  0
 14 34  1  0  0  0  0
 14 35  1  0  0  0  0
 15 16  1  0  0  0  0
 16 17  2  0  0  0  0
 16 18  1  0  0  0  0
 18 23  1  0  0  0  0
 18 19  2  0  0  0  0
 19 20  1  0  0  0  0
 19 36  1  0  0  0  0
 20 21  2  0  0  0  0
 20 37  1  0  0  0  0
 21 22  1  0  0  0  0
 21 38  1  0  0  0  0
 22 23  2  0  0  0  0
 22 39  1  0  0  0  0
 23 40  1  0  0  0  0
 24 25  1  0  0  0  0
 25 41  1  0  0  0  0
M  END
> <s_m_source_file>
AV-unprocessed.smi

> <i_m_source_file_index>
12

> <i_lp_mmshare_version>
43012

> <i_f3d_flags>
0

> <s_epik_input>
W0NIM11jKFtjSF0xKWMoPU8pbmMobjEyKU9bQ0BIXTNbQ0BASF0yT1tDQEBIXShbQ0BASF0zW09IXSlbQ0gyXU9DKD1PKWM0W2NIXVtjSF1bY0hdW2NIXVtjSF00

> <s_epik_cmdline>
J2VwaWtfcHl0aG9uJywgJy1waCcsICc3LjAnLCAnLXRuJywgJzgnLCAnLW1hJywgJzIwMCcsICctbWV0YWxfYmluZGluZycsICctaW1hZScsICc8aW5maWxlLm1hZT4nLCAnLW9tYWUnLCAnPG91dGZpbGUubWFlPic=

> <r_lp_tautomer_probability>
0.933681

> <r_epik_Ionization_Penalty>
0.00399549

> <r_epik_Ionization_Penalty_Charging>
3.09373e-09

> <r_epik_Ionization_Penalty_Neutral>
0.00399549

> <r_epik_State_Penalty>
0.00284953

> <r_epik_Charging_Adjusted_Penalty>
0.00284953

> <i_epik_Tot_Q>
0

> <i_epik_Tot_abs_Q>
0

> <r_epik_Metal_State_Penalty>
-0

> <b_epik_Metal_Only>
0

> <s_epik_Chemistry_Notes>
This compound has an ester and may undergo hydrolysis at high or low pH. This compound contains an acetal/aminal-like group ( X-CH(R)-Y where X, Y are N, S, or O) that may be acid/base labile, releasing an aldehyde.

> <s_lp_Force_Field>
OPLS_2005

> <r_lp_Energy>
41.0284

> <b_lp_Chiralities_Consistent>
1

> <s_lp_Variant>
AV-unprocessed.smi:12-6

> <Gold.Version>
5.8.1

> <Gold.Id.Protein>
6NUR|6NUR_protein|mol2

> <Gold.PLP.Fitness>
44.9734

> <Gold.PLP.PLP>
-37.6504

> <Gold.PLP.part.hbond>
-2.5207

> <Gold.PLP.part.metal>
0.0000

> <Gold.PLP.part.buried>
-1.0460

> <Gold.PLP.part.nonpolar>
-34.6013

> <Gold.PLP.part.repulsive>
0.4876

> <Gold.PLP.ligand.clash>
0.0000

> <Gold.PLP.ligand.torsion>
0.8401

> <Gold.PLP.Chemscore.Hbond>
2.0000

> <Gold.PLP.Chemscore.CHOScore>
0.9984

> <Gold.PLP.Chemscore.Metal>
0.0000

> <Gold.Chemscore.Hbonds>
donor molecule, donor type, donor heavy atom, donor atom, acceptor molecule, acceptor atom, score
      L1  H    12    32       P1  7957  1.00
      P1  H  7997  8009       L1     8  1.00
      L1  C     3    29       P1  8028  0.91

> <Gold.PLP.Chemscore.Internal.Correction>
0.0080

> <Gold.Rescore>
     Score         DG    S(hbond)    S(metal)    S(lipo)     H(rot)  DE(clash)    DE(int)     intcor
     12.51     -15.26       1.79        0.00      80.18       2.18       2.03       0.72       ----

> <Gold.Chemscore.Fitness>
12.5063

> <Gold.Chemscore.DG>
-15.2630

> <Gold.Chemscore.ZeroCoef>
-5.4800

> <Gold.Chemscore.Hbond>
1.7912

> <Gold.Chemscore.Metal>
0.0000

> <Gold.Chemscore.Lipo>
80.1791

> <Gold.Chemscore.Internal_Hbond>
0.0000

> <Gold.Chemscore.DEClash>
2.0334

> <Gold.Chemscore.DEInternal>
0.7232

> <Gold.Chemscore.Rot>
2.1800

> <Gold.Chemscore.Internal.Correction>
   9.000000E+99

> <Gold.Chemscore.Hbonds>
donor molecule, donor type, donor heavy atom, donor atom, acceptor molecule, acceptor atom, score
      L1  H    12    32       P1  7957  0.99
      P1  H  7997  8009       L1     8  0.30

> <Gold.Chemscore.Hbond.Weighted>
-5.9828

> <Gold.Chemscore.Metal.Weighted>
-0.0000

> <Gold.Chemscore.Lipo.Weighted>
-9.3810

> <Gold.Chemscore.Internal_Hbond.Weighted>
0.0000

> <Gold.Chemscore.DEClash.Weighted>
2.0334

> <Gold.Chemscore.DEInternal.Weighted>
0.7232

> <Gold.Chemscore.Rot.Weighted>
5.5807

> <Gold.Chemscore.Internal.Correction.Weighted>
   9.000000E+99

> <Gold.Protein.RotatedTorsions>
[ 6907 6896 6895 6894 ] final   43.72 input  -60.11 | X-H torsion
[ 7974 7965 7964 7962 ] final  -75.10 input  175.53 | X-H torsion
[ 8008 7997 7996 7995 ] final  163.76 input   59.86 | X-H torsion
[ 10167 10162 10161 10158 ] final -173.95 input  -65.29 | X-H torsion
[ 10718 10713 10712 10709 ] final -139.13 input   66.30 | X-H torsion
[ 10763 10752 10751 10750 ] final  163.07 input  -60.55 | X-H torsion
[ 11005 11000 10999 10996 ] final   60.24 input  -57.11 | X-H torsion

> <Gold.Protein.ActiveResidues>
 VAL166  LYS551  ARG553  GLY616  TRP617  ASP618  TYR619  PRO620  LYS621  CYS622 
 ASP623  PHE694  ASN695  SER759  ASP760  ASP761  ALA762  ILE779  LEU786  VAL792 
 PHE793  MET794  SER795  GLU796  ALA797  LYS798  CYS799  TRP800  GLU811  SER814 

> <Gold.Protein.RotatedAtoms>
  152.2238  134.8388  160.0482 H   0  0  0  0  0  0  0  0  0  0  0  0  # atno 6907 bound_to 6896
  151.9162  133.3568  159.3889 H   0  0  0  0  0  0  0  0  0  0  0  0  # atno 6908 bound_to 6896
  150.7007  134.4607  159.5423 H   0  0  0  0  0  0  0  0  0  0  0  0  # atno 6909 bound_to 6896
  145.6305  140.9339  143.1089 H   0  0  0  0  0  0  0  0  0  0  0  0  # atno 7974 bound_to 7965
  156.1932  140.1715  156.8050 H   0  0  0  0  0  0  0  0  0  0  0  0  # atno 8008 bound_to 7997
  154.5497  140.0720  156.8679 H   0  0  0  0  0  0  0  0  0  0  0  0  # atno 8009 bound_to 7997
  155.3053  140.3364  155.4248 H   0  0  0  0  0  0  0  0  0  0  0  0  # atno 8010 bound_to 7997
  139.5660  144.1754  152.1313 H   0  0  0  0  0  0  0  0  0  0  0  0  # atno 10167 bound_to 10162
  156.3072  130.7462  151.1529 H   0  0  0  0  0  0  0  0  0  0  0  0  # atno 10718 bound_to 10713
  154.2881  135.2761  155.2667 H   0  0  0  0  0  0  0  0  0  0  0  0  # atno 10763 bound_to 10752
  154.5158  135.5770  153.6644 H   0  0  0  0  0  0  0  0  0  0  0  0  # atno 10764 bound_to 10752
  152.9918  135.6192  154.3044 H   0  0  0  0  0  0  0  0  0  0  0  0  # atno 10765 bound_to 10752
  140.0246  134.6102  155.9591 H   0  0  0  0  0  0  0  0  0  0  0  0  # atno 11005 bound_to 11000
  144.7195  139.8078  143.7387 LP  0  0  0  0  0  0  0  0  0  0  0  0  # atno 17320 bound_to 7965
  146.1360  139.4406  143.0138 LP  0  0  0  0  0  0  0  0  0  0  0  0  # atno 17321 bound_to 7965
  140.1277  144.5317  150.6822 LP  0  0  0  0  0  0  0  0  0  0  0  0  # atno 17342 bound_to 10162
  140.6944  143.2395  151.5042 LP  0  0  0  0  0  0  0  0  0  0  0  0  # atno 17343 bound_to 10162
  157.7382  131.0543  150.5306 LP  0  0  0  0  0  0  0  0  0  0  0  0  # atno 17370 bound_to 10713
  156.5441  130.4215  149.6139 LP  0  0  0  0  0  0  0  0  0  0  0  0  # atno 17371 bound_to 10713
  141.1795  133.6544  156.4961 LP  0  0  0  0  0  0  0  0  0  0  0  0  # atno 17394 bound_to 11000
  140.4329  134.7085  157.4951 LP  0  0  0  0  0  0  0  0  0  0  0  0  # atno 17395 bound_to 11000

$$$$
