#       Name:                AV-unprocessed.smi:113
#       Creating user name   scv26
#       Creation time:       Thu Mar 26 18:21:28 2020


#       File generated by GOLD software.
#

@<TRIPOS>MOLECULE
AV-unprocessed.smi:113
    63    66     1
SMALL
NO_CHARGES


@<TRIPOS>ATOM
      1 ****        -1.2279  -1.3627  -4.0090 C.3            1 S1                 0.0000
      2 ****        -1.7865  -1.8989  -2.7080 C.ar           1 S1                 0.0000
      3 ****        -1.5610  -1.2594  -1.4735 C.ar           1 S1                 0.0000
      4 ****        -2.1100  -1.8022  -0.2850 C.ar           1 S1                 0.0000
      5 ****        -1.8839  -1.1278   1.0726 C.3            1 S1                 0.0000
      6 ****        -1.0758   0.0833   1.0807 N.am           1 S1                 0.0000
      7 ****        -1.7370   1.3222   0.8941 C.2            1 S1                 0.0000
      8 ****        -2.9578   1.3826   0.7334 O.2            1 S1                 0.0000
      9 ****        -0.8637   2.4989   0.8816 C.2            1 S1                 0.0000
     10 ****        -1.5025   3.8641   0.6821 C.3            1 S1                 0.0000
     11 ****         0.4731   2.3453   1.0374 C.2            1 S1                 0.0000
     12 ****         1.0909   1.1197   1.2183 N.am           1 S1                 0.0000
     13 ****         2.5894   1.0258   1.3666 C.3            1 S1                 0.0000
     14 ****         3.2754   1.0791   0.0080 C.3            1 S1                 0.0000
     15 ****         4.6260   1.6592   0.3782 C.3            1 S1                 0.0000
     16 ****         5.5356   0.6238   0.6976 O.3            1 S1                 0.0000
     17 ****         4.3341   2.5166   1.6258 C.3            1 S1                 0.0000
     18 ****         4.2785   4.0244   1.3327 C.3            1 S1                 0.0000
     19 ****         5.5730   4.5227   1.0701 O.3            1 S1                 0.0000
     20 ****         3.0419   2.1253   2.0899 O.3            1 S1                 0.0000
     21 ****         0.3224  -0.0609   1.2225 C.2            1 S1                 0.0000
     22 ****         0.8558  -1.1685   1.3220 O.2            1 S1                 0.0000
     23 ****        -2.8807  -2.9936  -0.3815 C.ar           1 S1                 0.0000
     24 ****        -3.4645  -3.6083   0.7522 C.2            1 S1                 0.0000
     25 ****        -4.2210  -4.7888   0.6161 C.2            1 S1                 0.0000
     26 ****        -4.4063  -5.3711  -0.6517 C.2            1 S1                 0.0000
     27 ****        -3.8336  -4.7730  -1.7894 C.2            1 S1                 0.0000
     28 ****        -3.0755  -3.5927  -1.6553 C.ar           1 S1                 0.0000
     29 ****        -2.5271  -3.0251  -2.7502 N.pl3          1 S1                 1.0000
     30 ****        -0.4165  -0.6580  -3.8245 H              1 S1                 0.0000
     31 ****        -2.0078  -0.8480  -4.5705 H              1 S1                 0.0000
     32 ****        -0.8376  -2.1740  -4.6244 H              1 S1                 0.0000
     33 ****        -0.9678  -0.3573  -1.4547 H              1 S1                 0.0000
     34 ****        -2.8413  -0.8832   1.5355 H              1 S1                 0.0000
     35 ****        -1.4210  -1.8295   1.7683 H              1 S1                 0.0000
     36 ****        -0.7624   4.6648   0.6997 H              1 S1                 0.0000
     37 ****        -2.2282   4.0650   1.4711 H              1 S1                 0.0000
     38 ****        -2.0185   3.9077  -0.2778 H              1 S1                 0.0000
     39 ****         1.0922   3.2307   1.0089 H              1 S1                 0.0000
     40 ****         2.8199   0.1244   1.9362 H              1 S1                 0.0000
     41 ****         3.3104   0.0968  -0.4647 H              1 S1                 0.0000
     42 ****         2.7382   1.7698  -0.6436 H              1 S1                 0.0000
     43 ****         5.0489   2.2396  -0.4427 H              1 S1                 0.0000
     44 ****         5.1913   0.1326   1.4278 H              1 S1                 0.0000
     45 ****         5.0599   2.3254   2.4183 H              1 S1                 0.0000
     46 ****         3.6232   4.2352   0.4871 H              1 S1                 0.0000
     47 ****         3.8770   4.5591   2.1937 H              1 S1                 0.0000
     48 ****         5.5121   5.4525   0.9127 H              1 S1                 0.0000
     49 ****        -3.3442  -3.1913   1.7406 H              1 S1                 0.0000
     50 ****        -4.6612  -5.2493   1.4887 H              1 S1                 0.0000
     51 ****        -4.9877  -6.2763  -0.7506 H              1 S1                 0.0000
     52 ****        -3.9792  -5.2246  -2.7602 H              1 S1                 0.0000
     53 ****        -2.6798  -3.4706  -3.6548 H              1 S1                 0.0000
     54 ****        -3.5041   0.5450   0.7329 LP             1 S1                 0.0000
     55 ****        -3.4018   2.2692   0.6036 LP             1 S1                 0.0000
     56 ****         6.4208   1.0179   0.9447 LP             1 S1                 0.0000
     57 ****         5.6482   0.0196  -0.0912 LP             1 S1                 0.0000
     58 ****         5.9515   4.0686   0.2636 LP             1 S1                 0.0000
     59 ****         6.1656   4.3524   1.8574 LP             1 S1                 0.0000
     60 ****         3.0969   1.8844   3.0589 LP             1 S1                 0.0000
     61 ****         2.4031   2.8855   1.9712 LP             1 S1                 0.0000
     62 ****         0.2956  -1.9967   1.3034 LP             1 S1                 0.0000
     63 ****         1.8484  -1.2384   1.4213 LP             1 S1                 0.0000
@<TRIPOS>BOND
    1    1    2 1     
    2    1   30 1     
    3    1   31 1     
    4    1   32 1     
    5    2   29 ar    
    6    2    3 ar    
    7    3    4 ar    
    8    3   33 1     
    9    4    5 1     
   10    4   23 ar    
   11    5    6 1     
   12    5   34 1     
   13    5   35 1     
   14    6   21 am    
   15    6    7 am    
   16    7    8 2     
   17    7    9 1     
   18    9   10 1     
   19    9   11 2     
   20   10   36 1     
   21   10   37 1     
   22   10   38 1     
   23   11   12 1     
   24   11   39 1     
   25   12   13 1     
   26   12   21 am    
   27   13   20 1     
   28   13   14 1     
   29   13   40 1     
   30   14   15 1     
   31   14   41 1     
   32   14   42 1     
   33   15   16 1     
   34   15   17 1     
   35   15   43 1     
   36   16   44 1     
   37   17   18 1     
   38   17   20 1     
   39   17   45 1     
   40   18   19 1     
   41   18   46 1     
   42   18   47 1     
   43   19   48 1     
   44   21   22 2     
   45   23   28 ar    
   46   23   24 1     
   47   24   25 2     
   48   24   49 1     
   49   25   26 1     
   50   25   50 1     
   51   26   27 2     
   52   26   51 1     
   53   27   28 1     
   54   27   52 1     
   55   28   29 ar    
   56   29   53 1     
   57    8   54 1     
   58    8   55 1     
   59   16   56 1     
   60   16   57 1     
   61   19   58 1     
   62   19   59 1     
   63   20   60 1     
   64   20   61 1     
   65   22   62 1     
   66   22   63 1     
@<TRIPOS>SUBSTRUCTURE
      1 S1             1
@<TRIPOS>SET
LONE_PAIRS      STATIC     ATOMS    <user>   **** ""
10 54 55 56 57 58 59 60 61 62 63
DONOR_HYDROGENS      STATIC     ATOMS    <user>   **** ""
3 44 48 53
ATOM$BLUE        STATIC     ATOMS    COLORGROUP SYSTEM
10 54 55 56 57 58 59 60 61 62 63
ATOM$RED        STATIC     ATOMS    COLORGROUP SYSTEM
3 44 48 53
