AV-unprocessed.smi:217|AV-procd|sdf|1660|dock4
  -GOLD-   2262020 53D 1   1.00000     0.00000
 Structure written by MMmdl.
 57 61  0  0  0  0  0  0  0  0  1 V2000
  146.6766  132.0820  151.4165 O   0  0  0  0  0  0  0  0  0  0  0  0
  146.5989  133.3919  150.8932 C   0  0  0  0  0  0  0  0  0  0  0  0
  145.6805  134.2800  151.7485 C   0  0  0  0  0  0  0  0  0  0  0  0
  144.2389  133.7352  151.6832 C   0  0  0  0  0  0  0  0  0  0  0  0
  143.7690  133.6678  150.3519 O   0  0  0  0  0  0  0  0  0  0  0  0
  146.1996  134.5999  153.1685 C   0  0  0  0  0  0  0  0  0  0  0  0
  145.7249  136.0456  153.0087 C   0  0  0  0  0  0  0  0  0  0  0  0
  146.4262  137.1287  153.6332 N   0  0  0  0  0  0  0  0  0  0  0  0
  146.0968  138.4651  153.5802 C   0  0  0  0  0  0  0  0  0  0  0  0
  146.8658  139.2575  154.2768 N   0  0  0  0  0  0  0  0  0  0  0  0
  147.7696  138.3966  154.8853 C   0  0  0  0  0  0  0  0  0  0  0  0
  148.8542  138.5777  155.7822 C   0  0  0  0  0  0  0  0  0  0  0  0
  149.2148  139.7993  156.2297 N   0  0  0  0  0  0  0  0  0  0  0  0
  150.5595  140.1926  155.8214 C   0  0  0  0  0  0  0  0  0  0  0  0
  150.8182  141.6711  156.1556 C   0  0  0  0  0  0  0  0  0  0  0  0
  150.5633  141.9679  157.6495 C   0  0  0  0  0  0  0  0  0  0  0  0
  150.7592  143.4600  157.9883 C   0  0  2  0  0  0  0  0  0  0  0  0
  152.2014  143.9585  157.8909 C   0  0  0  0  0  0  0  0  0  0  0  0
  152.1598  145.1837  158.7747 C   0  0  0  0  0  0  0  0  0  0  0  0
  151.2313  144.7332  159.8988 C   0  0  0  0  0  0  0  0  0  0  0  0
  150.3978  143.7182  159.3432 O   0  0  0  0  0  0  0  0  0  0  0  0
  149.1430  141.4911  158.0201 C   0  0  0  0  0  0  0  0  0  0  0  0
  148.9276  140.0163  157.6443 C   0  0  0  0  0  0  0  0  0  0  0  0
  149.5346  137.4754  156.1934 N   0  0  0  0  0  0  0  0  0  0  0  0
  149.1694  136.2665  155.7552 C   0  0  0  0  0  0  0  0  0  0  0  0
  148.1785  135.9450  154.9198 N   0  0  0  0  0  0  0  0  0  0  0  0
  147.5008  137.0532  154.5023 C   0  0  0  0  0  0  0  0  0  0  0  0
  145.8208  135.7986  151.5013 C   0  0  0  0  0  0  0  0  0  0  0  0
  147.4378  131.6569  151.0517 H   0  0  0  0  0  0  0  0  0  0  0  0
  147.6048  133.8053  150.8194 H   0  0  0  0  0  0  0  0  0  0  0  0
  146.2243  133.3196  149.8718 H   0  0  0  0  0  0  0  0  0  0  0  0
  144.1777  132.7322  152.1055 H   0  0  0  0  0  0  0  0  0  0  0  0
  143.5523  134.3484  152.2670 H   0  0  0  0  0  0  0  0  0  0  0  0
  142.8885  134.0093  150.3265 H   0  0  0  0  0  0  0  0  0  0  0  0
  145.7099  134.0542  153.9755 H   0  0  0  0  0  0  0  0  0  0  0  0
  147.2854  134.5267  153.2539 H   0  0  0  0  0  0  0  0  0  0  0  0
  144.6832  136.1453  153.3179 H   0  0  0  0  0  0  0  0  0  0  0  0
  145.2652  138.8389  153.0004 H   0  0  0  0  0  0  0  0  0  0  0  0
  151.2931  139.5644  156.3291 H   0  0  0  0  0  0  0  0  0  0  0  0
  150.6844  140.0282  154.7502 H   0  0  0  0  0  0  0  0  0  0  0  0
  151.8439  141.9226  155.8859 H   0  0  0  0  0  0  0  0  0  0  0  0
  150.1730  142.2995  155.5401 H   0  0  0  0  0  0  0  0  0  0  0  0
  151.2779  141.3893  158.2367 H   0  0  0  0  0  0  0  0  0  0  0  0
  150.1246  144.0777  157.3506 H   0  0  0  0  0  0  0  0  0  0  0  0
  152.8933  143.2224  158.3031 H   0  0  0  0  0  0  0  0  0  0  0  0
  152.5072  144.1843  156.8690 H   0  0  0  0  0  0  0  0  0  0  0  0
  153.1434  145.4921  159.1301 H   0  0  0  0  0  0  0  0  0  0  0  0
  151.7142  146.0186  158.2321 H   0  0  0  0  0  0  0  0  0  0  0  0
  151.8038  144.2988  160.7191 H   0  0  0  0  0  0  0  0  0  0  0  0
  150.6396  145.5575  160.2978 H   0  0  0  0  0  0  0  0  0  0  0  0
  148.9660  141.6209  159.0880 H   0  0  0  0  0  0  0  0  0  0  0  0
  148.4022  142.1063  157.5073 H   0  0  0  0  0  0  0  0  0  0  0  0
  147.8986  139.7257  157.8612 H   0  0  0  0  0  0  0  0  0  0  0  0
  149.5746  139.3819  158.2520 H   0  0  0  0  0  0  0  0  0  0  0  0
  149.7549  135.4384  156.1264 H   0  0  0  0  0  0  0  0  0  0  0  0
  146.7952  136.0735  151.0933 H   0  0  0  0  0  0  0  0  0  0  0  0
  145.0142  136.2442  150.9181 H   0  0  0  0  0  0  0  0  0  0  0  0
  1  2  1  0  0  0  0
  1 29  1  0  0  0  0
  2  3  1  0  0  0  0
  2 30  1  0  0  0  0
  2 31  1  0  0  0  0
  3 28  1  0  0  0  0
  3  4  1  0  0  0  0
  3  6  1  0  0  0  0
  4  5  1  0  0  0  0
  4 32  1  0  0  0  0
  4 33  1  0  0  0  0
  5 34  1  0  0  0  0
  6  7  1  0  0  0  0
  6 35  1  0  0  0  0
  6 36  1  0  0  0  0
  7  8  1  0  0  0  0
  7 28  1  0  0  0  0
  7 37  1  0  0  0  0
  8 27  1  0  0  0  0
  8  9  1  0  0  0  0
  9 10  2  0  0  0  0
  9 38  1  0  0  0  0
 10 11  1  0  0  0  0
 11 27  2  0  0  0  0
 11 12  1  0  0  0  0
 12 13  1  0  0  0  0
 12 24  2  0  0  0  0
 13 23  1  0  0  0  0
 13 14  1  0  0  0  0
 14 15  1  0  0  0  0
 14 39  1  0  0  0  0
 14 40  1  0  0  0  0
 15 16  1  0  0  0  0
 15 41  1  0  0  0  0
 15 42  1  0  0  0  0
 16 17  1  0  0  0  0
 16 22  1  0  0  0  0
 16 43  1  0  0  0  0
 17 21  1  0  0  0  0
 17 18  1  0  0  0  0
 17 44  1  0  0  0  0
 18 19  1  0  0  0  0
 18 45  1  0  0  0  0
 18 46  1  0  0  0  0
 19 20  1  0  0  0  0
 19 47  1  0  0  0  0
 19 48  1  0  0  0  0
 20 21  1  0  0  0  0
 20 49  1  0  0  0  0
 20 50  1  0  0  0  0
 22 23  1  0  0  0  0
 22 51  1  0  0  0  0
 22 52  1  0  0  0  0
 23 53  1  0  0  0  0
 23 54  1  0  0  0  0
 24 25  1  0  0  0  0
 25 26  2  0  0  0  0
 25 55  1  0  0  0  0
 26 27  1  0  0  0  0
 28 56  1  0  0  0  0
 28 57  1  0  0  0  0
M  END
> <s_m_source_file>
AV-unprocessed.smi

> <i_m_source_file_index>
217

> <i_lp_mmshare_version>
43012

> <i_f3d_flags>
0

> <s_epik_input>
W09IXVtDSDJdQzEoW0NIMl1bT0hdKVtDSDJdW0NIXShbQ0gyXTEpbihbY0hdbjIpYyhjMjMpbltjSF1uYzNONFtDSDJdW0NIMl1bQ0hdKFtDSDJdW0NIMl00KVtDQEBIXTVbQ0gyXVtDSDJdW0NIMl1PNQ==

> <s_epik_cmdline>
J2VwaWtfcHl0aG9uJywgJy1waCcsICc3LjAnLCAnLXRuJywgJzgnLCAnLW1hJywgJzIwMCcsICctbWV0YWxfYmluZGluZycsICctaW1hZScsICc8aW5maWxlLm1hZT4nLCAnLW9tYWUnLCAnPG91dGZpbGUubWFlPic=

> <r_lp_tautomer_probability>
1

> <r_epik_Ionization_Penalty>
0.0037022

> <r_epik_Ionization_Penalty_Charging>
0

> <r_epik_Ionization_Penalty_Neutral>
0.0037022

> <r_epik_State_Penalty>
0.00257654

> <r_epik_Charging_Adjusted_Penalty>
0.00257654

> <i_epik_Tot_Q>
0

> <i_epik_Tot_abs_Q>
0

> <r_epik_Metal_State_Penalty>
-0

> <b_epik_Metal_Only>
0

> <s_lp_Force_Field>
OPLS_2005

> <r_lp_Energy>
56.6597

> <b_lp_Chiralities_Consistent>
1

> <s_lp_Variant>
AV-unprocessed.smi:217-1

> <Gold.Version>
5.8.1

> <Gold.Id.Protein>
6NUR|6NUR_protein|mol2

> <Gold.PLP.Fitness>
47.8698

> <Gold.PLP.PLP>
-39.0766

> <Gold.PLP.part.hbond>
-2.0000

> <Gold.PLP.part.metal>
0.0000

> <Gold.PLP.part.buried>
-6.4339

> <Gold.PLP.part.nonpolar>
-31.4591

> <Gold.PLP.part.repulsive>
0.5620

> <Gold.PLP.ligand.clash>
0.0000

> <Gold.PLP.ligand.torsion>
0.4646

> <Gold.PLP.Chemscore.Hbond>
2.0000

> <Gold.PLP.Chemscore.CHOScore>
1.0000

> <Gold.PLP.Chemscore.Metal>
0.0000

> <Gold.Chemscore.Hbonds>
donor molecule, donor type, donor heavy atom, donor atom, acceptor molecule, acceptor atom, score
      L1  H     1    29       P1 10747  1.00
      L1  H     5    34       P1 10186  0.89
      L1  C     9    38       P1 10175  1.00

> <Gold.PLP.Chemscore.Internal.Correction>
0.7224

> <Gold.Rescore>
     Score         DG    S(hbond)    S(metal)    S(lipo)     H(rot)  DE(clash)    DE(int)     intcor
     13.50     -15.78       1.97        0.00     103.66       3.28       0.60       1.68       ----

> <Gold.Chemscore.Fitness>
13.4953

> <Gold.Chemscore.DG>
-15.7824

> <Gold.Chemscore.ZeroCoef>
-5.4800

> <Gold.Chemscore.Hbond>
1.9710

> <Gold.Chemscore.Metal>
0.0000

> <Gold.Chemscore.Lipo>
103.6623

> <Gold.Chemscore.Internal_Hbond>
0.0000

> <Gold.Chemscore.DEClash>
0.6048

> <Gold.Chemscore.DEInternal>
1.6823

> <Gold.Chemscore.Rot>
3.2848

> <Gold.Chemscore.Internal.Correction>
   9.000000E+99

> <Gold.Chemscore.Hbonds>
donor molecule, donor type, donor heavy atom, donor atom, acceptor molecule, acceptor atom, score
      L1  H     1    29       P1 10747  1.00
      L1  H     5    34       P1 10186  0.83

> <Gold.Chemscore.Hbond.Weighted>
-6.5831

> <Gold.Chemscore.Metal.Weighted>
-0.0000

> <Gold.Chemscore.Lipo.Weighted>
-12.1285

> <Gold.Chemscore.Internal_Hbond.Weighted>
0.0000

> <Gold.Chemscore.DEClash.Weighted>
0.6048

> <Gold.Chemscore.DEInternal.Weighted>
1.6823

> <Gold.Chemscore.Rot.Weighted>
8.4092

> <Gold.Chemscore.Internal.Correction.Weighted>
   9.000000E+99

> <Gold.Protein.RotatedTorsions>
[ 6907 6896 6895 6894 ] final   69.48 input  -60.11 | X-H torsion
[ 7974 7965 7964 7962 ] final   -4.69 input  175.53 | X-H torsion
[ 8008 7997 7996 7995 ] final -143.70 input   59.86 | X-H torsion
[ 10167 10162 10161 10158 ] final  -79.45 input  -65.29 | X-H torsion
[ 10718 10713 10712 10709 ] final   78.30 input   66.30 | X-H torsion
[ 10763 10752 10751 10750 ] final  -45.63 input  -60.55 | X-H torsion
[ 11005 11000 10999 10996 ] final  151.87 input  -57.11 | X-H torsion

> <Gold.Protein.ActiveResidues>
 VAL166  LYS551  ARG553  GLY616  TRP617  ASP618  TYR619  PRO620  LYS621  CYS622 
 ASP623  PHE694  ASN695  SER759  ASP760  ASP761  ALA762  ILE779  LEU786  VAL792 
 PHE793  MET794  SER795  GLU796  ALA797  LYS798  CYS799  TRP800  GLU811  SER814 

> <Gold.Protein.RotatedAtoms>
  152.4688  134.5010  159.9724 H   0  0  0  0  0  0  0  0  0  0  0  0  # atno 6907 bound_to 6896
  151.5041  133.3492  159.2882 H   0  0  0  0  0  0  0  0  0  0  0  0  # atno 6908 bound_to 6896
  150.8687  134.8084  159.7200 H   0  0  0  0  0  0  0  0  0  0  0  0  # atno 6909 bound_to 6896
  146.2367  140.1910  142.8332 H   0  0  0  0  0  0  0  0  0  0  0  0  # atno 7974 bound_to 7965
  155.5149  140.0586  157.2917 H   0  0  0  0  0  0  0  0  0  0  0  0  # atno 8008 bound_to 7997
  154.4538  140.1962  156.0387 H   0  0  0  0  0  0  0  0  0  0  0  0  # atno 8009 bound_to 7997
  156.0758  140.3254  155.7636 H   0  0  0  0  0  0  0  0  0  0  0  0  # atno 8010 bound_to 7997
  140.4592  143.2459  151.8374 H   0  0  0  0  0  0  0  0  0  0  0  0  # atno 10167 bound_to 10162
  157.6740  130.9862  150.1767 H   0  0  0  0  0  0  0  0  0  0  0  0  # atno 10718 bound_to 10713
  154.0318  135.6656  153.4781 H   0  0  0  0  0  0  0  0  0  0  0  0  # atno 10763 bound_to 10752
  153.0537  135.5069  154.7926 H   0  0  0  0  0  0  0  0  0  0  0  0  # atno 10764 bound_to 10752
  154.6874  135.3055  154.9494 H   0  0  0  0  0  0  0  0  0  0  0  0  # atno 10765 bound_to 10752
  140.1257  134.8835  157.2134 H   0  0  0  0  0  0  0  0  0  0  0  0  # atno 11005 bound_to 11000
  144.9858  140.8502  143.5369 LP  0  0  0  0  0  0  0  0  0  0  0  0  # atno 17320 bound_to 7965
  145.1909  139.2302  143.5243 LP  0  0  0  0  0  0  0  0  0  0  0  0  # atno 17321 bound_to 7965
  139.4804  144.5028  151.9038 LP  0  0  0  0  0  0  0  0  0  0  0  0  # atno 17342 bound_to 10162
  140.4114  144.2364  150.5889 LP  0  0  0  0  0  0  0  0  0  0  0  0  # atno 17343 bound_to 10162
  156.2509  130.3700  149.8234 LP  0  0  0  0  0  0  0  0  0  0  0  0  # atno 17370 bound_to 10713
  156.6007  130.8545  151.3431 LP  0  0  0  0  0  0  0  0  0  0  0  0  # atno 17371 bound_to 10713
  140.2907  134.3244  155.7316 LP  0  0  0  0  0  0  0  0  0  0  0  0  # atno 17394 bound_to 11000
  141.2160  133.7533  156.9499 LP  0  0  0  0  0  0  0  0  0  0  0  0  # atno 17395 bound_to 11000

$$$$
