AV-unprocessed.smi:2884|AV-procd|sdf|11084|dock4
  -GOLD-   2272015553D 1   1.00000     0.00000
 Structure written by MMmdl.
 42 43  0  0  0  0  0  0  0  0  3 V2000
  152.0318  143.8877  158.6307 C   0  0  0  0  0  0  0  0  0  0  0  0
  151.1979  142.6011  158.6800 C   0  0  0  0  0  0  0  0  0  0  0  0
  149.8320  142.7520  157.9999 C   0  0  0  0  0  0  0  0  0  0  0  0
  149.3729  141.4550  157.6333 O   0  0  0  0  0  0  0  0  0  0  0  0
  148.3888  141.3103  156.6014 C   0  0  0  0  0  0  0  0  0  0  0  0
  148.0439  139.8019  156.6850 C   0  0  0  0  0  0  0  0  0  0  0  0
  149.1864  138.9539  156.3658 N   0  0  0  0  0  0  0  0  0  0  0  0
  150.0190  138.2277  157.2089 C   0  0  0  0  0  0  0  0  0  0  0  0
  149.8540  138.2099  158.6223 C   0  0  0  0  0  0  0  0  0  0  0  0
  150.6813  137.4991  159.3820 N   0  3  0  0  0  0  0  0  0  0  0  0
  151.6754  136.7840  158.9047 N   0  5  0  0  0  0  0  0  0  0  0  0
  151.9383  136.7156  157.5657 C   0  0  0  0  0  0  0  0  0  0  0  0
  152.8609  136.0548  157.0929 O   0  0  0  0  0  0  0  0  0  0  0  0
  151.0428  137.4914  156.6878 C   0  0  0  0  0  0  0  0  0  0  0  0
  151.3281  137.4538  154.9788 Cl  0  0  0  0  0  0  0  0  0  0  0  0
  147.1406  142.2069  156.8379 C   0  0  0  0  0  0  0  0  0  0  0  0
  146.1111  142.0921  155.6995 C   0  0  0  0  0  0  0  0  0  0  0  0
  146.7499  142.4186  154.3405 C   0  0  0  0  0  0  0  0  0  0  0  0
  147.9819  141.5402  154.0703 C   0  0  0  0  0  0  0  0  0  0  0  0
  149.0059  141.6404  155.2168 C   0  0  0  0  0  0  0  0  0  0  0  0
  150.5010  137.5343  160.3975 H   0  0  0  0  0  0  0  0  0  0  0  0
  153.0027  143.7397  159.1036 H   0  0  0  0  0  0  0  0  0  0  0  0
  151.5306  144.7047  159.1509 H   0  0  0  0  0  0  0  0  0  0  0  0
  152.2075  144.2038  157.6021 H   0  0  0  0  0  0  0  0  0  0  0  0
  151.7536  141.8005  158.1912 H   0  0  0  0  0  0  0  0  0  0  0  0
  151.0603  142.2911  159.7163 H   0  0  0  0  0  0  0  0  0  0  0  0
  149.1484  143.2471  158.6876 H   0  0  0  0  0  0  0  0  0  0  0  0
  149.9418  143.3880  157.1225 H   0  0  0  0  0  0  0  0  0  0  0  0
  147.6356  139.5471  157.6598 H   0  0  0  0  0  0  0  0  0  0  0  0
  147.2572  139.5698  155.9665 H   0  0  0  0  0  0  0  0  0  0  0  0
  149.4911  139.0302  155.4053 H   0  0  0  0  0  0  0  0  0  0  0  0
  149.0709  138.7550  159.1324 H   0  0  0  0  0  0  0  0  0  0  0  0
  146.6702  141.9761  157.7939 H   0  0  0  0  0  0  0  0  0  0  0  0
  147.4318  143.2547  156.8931 H   0  0  0  0  0  0  0  0  0  0  0  0
  145.6828  141.0909  155.6750 H   0  0  0  0  0  0  0  0  0  0  0  0
  145.2794  142.7718  155.8873 H   0  0  0  0  0  0  0  0  0  0  0  0
  146.0174  142.2881  153.5435 H   0  0  0  0  0  0  0  0  0  0  0  0
  147.0426  143.4692  154.3206 H   0  0  0  0  0  0  0  0  0  0  0  0
  147.6731  140.5048  153.9270 H   0  0  0  0  0  0  0  0  0  0  0  0
  148.4501  141.8453  153.1340 H   0  0  0  0  0  0  0  0  0  0  0  0
  149.3985  142.6563  155.2099 H   0  0  0  0  0  0  0  0  0  0  0  0
  149.8547  140.9858  155.0158 H   0  0  0  0  0  0  0  0  0  0  0  0
  1  2  1  0  0  0  0
  1 22  1  0  0  0  0
  1 23  1  0  0  0  0
  1 24  1  0  0  0  0
  2  3  1  0  0  0  0
  2 25  1  0  0  0  0
  2 26  1  0  0  0  0
  3  4  1  0  0  0  0
  3 27  1  0  0  0  0
  3 28  1  0  0  0  0
  4  5  1  0  0  0  0
  5 20  1  0  0  0  0
  5  6  1  0  0  0  0
  5 16  1  0  0  0  0
  6 29  1  0  0  0  0
  6 30  1  0  0  0  0
  6  7  1  0  0  0  0
  7  8  1  0  0  0  0
  7 31  1  0  0  0  0
  8 14  2  0  0  0  0
  8  9  1  0  0  0  0
  9 32  1  0  0  0  0
  9 10  2  0  0  0  0
 10 11  1  0  0  0  0
 10 21  1  0  0  0  0
 11 12  1  0  0  0  0
 12 13  2  0  0  0  0
 12 14  1  0  0  0  0
 14 15  1  0  0  0  0
 16 17  1  0  0  0  0
 16 33  1  0  0  0  0
 16 34  1  0  0  0  0
 17 18  1  0  0  0  0
 17 35  1  0  0  0  0
 17 36  1  0  0  0  0
 18 19  1  0  0  0  0
 18 37  1  0  0  0  0
 18 38  1  0  0  0  0
 19 20  1  0  0  0  0
 19 39  1  0  0  0  0
 19 40  1  0  0  0  0
 20 41  1  0  0  0  0
 20 42  1  0  0  0  0
M  CHG  1  10   1
M  CHG  1  11  -1
M  END
> <s_m_source_file>
AV-unprocessed.smi

> <i_m_source_file_index>
2884

> <i_lp_mmshare_version>
43012

> <i_f3d_flags>
0

> <s_epik_input>
W0NIMl0xW0NIMl1bQ0gyXVtDSDJdW0NIMl1DMShPW0NIMl1bQ0gyXVtDSDNdKVtDSDJdW05IXWMyW2NIXW5bbkhdYyg9TyljMkNs

> <s_epik_cmdline>
J2VwaWtfcHl0aG9uJywgJy1waCcsICc3LjAnLCAnLXRuJywgJzgnLCAnLW1hJywgJzIwMCcsICctbWV0YWxfYmluZGluZycsICctaW1hZScsICc8aW5maWxlLm1hZT4nLCAnLW9tYWUnLCAnPG91dGZpbGUubWFlPic=

> <r_lp_tautomer_probability>
0.0138196

> <r_epik_Ionization_Penalty>
2.73941

> <r_epik_Ionization_Penalty_Charging>
2.73941

> <r_epik_Ionization_Penalty_Neutral>
1.09968e-06

> <r_epik_State_Penalty>
2.7044

> <r_epik_Charging_Adjusted_Penalty>
5.44381

> <i_epik_Tot_Q>
0

> <i_epik_Tot_abs_Q>
2

> <r_epik_Metal_State_Penalty>
2.9982

> <b_epik_Metal_Only>
0

> <s_lp_Force_Field>
OPLS_2005

> <r_lp_Energy>
38.2513

> <b_lp_Chiralities_Consistent>
1

> <s_lp_Variant>
AV-unprocessed.smi:2884-2

> <Gold.Version>
5.8.1

> <Gold.Id.Protein>
6NUR|6NUR_protein|mol2

> <Gold.PLP.Fitness>
34.4161

> <Gold.PLP.PLP>
-26.9483

> <Gold.PLP.part.hbond>
-2.0000

> <Gold.PLP.part.metal>
0.0000

> <Gold.PLP.part.buried>
-3.0005

> <Gold.PLP.part.nonpolar>
-22.9024

> <Gold.PLP.part.repulsive>
0.2674

> <Gold.PLP.ligand.clash>
0.0000

> <Gold.PLP.ligand.torsion>
0.4142

> <Gold.PLP.Chemscore.Hbond>
2.7600

> <Gold.PLP.Chemscore.CHOScore>
0.0000

> <Gold.PLP.Chemscore.Metal>
0.0000

> <Gold.Chemscore.Hbonds>
donor molecule, donor type, donor heavy atom, donor atom, acceptor molecule, acceptor atom, score
      P1  H  6896  6907       L1    11  1.82
      P1  H 10752 10764       L1    13  1.00

> <Gold.PLP.Chemscore.Internal.Correction>
0.0163

> <Gold.Rescore>
     Score         DG    S(hbond)    S(metal)    S(lipo)     H(rot)  DE(clash)    DE(int)     intcor
     13.84     -14.46       1.43        0.00      74.63       1.77       0.13       0.49       ----

> <Gold.Chemscore.Fitness>
13.8388

> <Gold.Chemscore.DG>
-14.4617

> <Gold.Chemscore.ZeroCoef>
-5.4800

> <Gold.Chemscore.Hbond>
1.4286

> <Gold.Chemscore.Metal>
0.0000

> <Gold.Chemscore.Lipo>
74.6310

> <Gold.Chemscore.Internal_Hbond>
0.0000

> <Gold.Chemscore.DEClash>
0.1289

> <Gold.Chemscore.DEInternal>
0.4940

> <Gold.Chemscore.Rot>
1.7663

> <Gold.Chemscore.Internal.Correction>
   9.000000E+99

> <Gold.Chemscore.Hbonds>
donor molecule, donor type, donor heavy atom, donor atom, acceptor molecule, acceptor atom, score
      P1  H  6896  6907       L1    11  0.26
      P1  H 10752 10764       L1    13  0.96

> <Gold.Chemscore.Hbond.Weighted>
-4.7715

> <Gold.Chemscore.Metal.Weighted>
-0.0000

> <Gold.Chemscore.Lipo.Weighted>
-8.7318

> <Gold.Chemscore.Internal_Hbond.Weighted>
0.0000

> <Gold.Chemscore.DEClash.Weighted>
0.1289

> <Gold.Chemscore.DEInternal.Weighted>
0.4940

> <Gold.Chemscore.Rot.Weighted>
4.5216

> <Gold.Chemscore.Internal.Correction.Weighted>
   9.000000E+99

> <Gold.Protein.RotatedTorsions>
[ 6907 6896 6895 6894 ] final   -4.25 input  -60.11 | X-H torsion
[ 7974 7965 7964 7962 ] final  -88.67 input  175.53 | X-H torsion
[ 8008 7997 7996 7995 ] final -168.61 input   59.86 | X-H torsion
[ 10167 10162 10161 10158 ] final   32.13 input  -65.29 | X-H torsion
[ 10718 10713 10712 10709 ] final -123.47 input   66.30 | X-H torsion
[ 10763 10752 10751 10750 ] final   -7.37 input  -60.55 | X-H torsion
[ 11005 11000 10999 10996 ] final   65.87 input  -57.11 | X-H torsion

> <Gold.Protein.ActiveResidues>
 VAL166  LYS551  ARG553  GLY616  TRP617  ASP618  TYR619  PRO620  LYS621  CYS622 
 ASP623  PHE694  ASN695  SER759  ASP760  ASP761  ALA762  ILE779  LEU786  VAL792 
 PHE793  MET794  SER795  GLU796  ALA797  LYS798  CYS799  TRP800  GLU811  SER814 

> <Gold.Protein.RotatedAtoms>
  151.5007  135.1061  159.9827 H   0  0  0  0  0  0  0  0  0  0  0  0  # atno 6907 bound_to 6896
  152.4703  133.8010  159.6963 H   0  0  0  0  0  0  0  0  0  0  0  0  # atno 6908 bound_to 6896
  150.8708  133.7445  159.2988 H   0  0  0  0  0  0  0  0  0  0  0  0  # atno 6909 bound_to 6896
  145.4500  140.9560  143.2027 H   0  0  0  0  0  0  0  0  0  0  0  0  # atno 7974 bound_to 7965
  155.8938  140.1029  157.1399 H   0  0  0  0  0  0  0  0  0  0  0  0  # atno 8008 bound_to 7997
  154.4018  140.1305  156.4413 H   0  0  0  0  0  0  0  0  0  0  0  0  # atno 8009 bound_to 7997
  155.7503  140.3465  155.5149 H   0  0  0  0  0  0  0  0  0  0  0  0  # atno 8010 bound_to 7997
  140.4527  144.1025  150.6195 H   0  0  0  0  0  0  0  0  0  0  0  0  # atno 10167 bound_to 10162
  156.1505  130.6531  150.9906 H   0  0  0  0  0  0  0  0  0  0  0  0  # atno 10718 bound_to 10713
  153.4253  135.7011  153.6266 H   0  0  0  0  0  0  0  0  0  0  0  0  # atno 10763 bound_to 10752
  153.4704  135.3716  155.2388 H   0  0  0  0  0  0  0  0  0  0  0  0  # atno 10764 bound_to 10752
  154.8723  135.4041  154.3629 H   0  0  0  0  0  0  0  0  0  0  0  0  # atno 10765 bound_to 10752
  139.9867  134.6657  156.0164 H   0  0  0  0  0  0  0  0  0  0  0  0  # atno 11005 bound_to 11000
  144.8067  139.6037  143.7047 LP  0  0  0  0  0  0  0  0  0  0  0  0  # atno 17320 bound_to 7965
  146.2509  139.6198  142.9427 LP  0  0  0  0  0  0  0  0  0  0  0  0  # atno 17321 bound_to 7965
  140.4188  143.2621  151.9741 LP  0  0  0  0  0  0  0  0  0  0  0  0  # atno 17342 bound_to 10162
  139.4798  144.5849  151.7870 LP  0  0  0  0  0  0  0  0  0  0  0  0  # atno 17343 bound_to 10162
  157.6652  131.0873  150.7744 LP  0  0  0  0  0  0  0  0  0  0  0  0  # atno 17370 bound_to 10713
  156.7812  130.4860  149.5400 LP  0  0  0  0  0  0  0  0  0  0  0  0  # atno 17371 bound_to 10713
  141.1531  133.6546  156.4074 LP  0  0  0  0  0  0  0  0  0  0  0  0  # atno 17394 bound_to 11000
  140.4989  134.6505  157.5240 LP  0  0  0  0  0  0  0  0  0  0  0  0  # atno 17395 bound_to 11000

$$$$
