#       Name:                AV-unprocessed.smi:1980
#       Creating user name   scv26
#       Creation time:       Fri Mar 27 10:21:05 2020


#       File generated by GOLD software.
#

@<TRIPOS>MOLECULE
AV-unprocessed.smi:1980
    52    53     1
SMALL
NO_CHARGES


@<TRIPOS>ATOM
      1 ****        -3.4183  -2.8987  -0.6772 C.3            1 S1                 0.0000
      2 ****        -2.8656  -2.1483  -1.8985 C.3            1 S1                 0.0000
      3 ****        -3.2277  -2.8906  -3.0604 O.3            1 S1                 0.0000
      4 ****        -3.0551  -2.2139  -4.3018 C.3            1 S1                 0.0000
      5 ****        -3.6016  -3.0863  -5.4381 C.3            1 S1                 0.0000
      6 ****        -3.4228  -2.4565  -6.5984 F              1 S1                 0.0000
      7 ****        -2.9534  -4.2499  -5.4787 F              1 S1                 0.0000
      8 ****        -4.9051  -3.3044  -5.2660 F              1 S1                 0.0000
      9 ****        -1.3387  -1.9872  -1.8165 C.2            1 S1                 0.0000
     10 ****        -0.6274  -2.9470  -1.5187 O.2            1 S1                 0.0000
     11 ****        -0.8535  -0.7672  -2.0956 N.am           1 S1                 0.0000
     12 ****         0.5547  -0.3871  -2.0772 C.3            1 S1                 0.0000
     13 ****         0.9575   0.3000  -0.7847 C.ar           1 S1                 0.0000
     14 ****         1.3249   1.6594  -0.7729 C.ar           1 S1                 0.0000
     15 ****         1.6894   2.2578   0.4482 C.ar           1 S1                 0.0000
     16 ****         1.6822   1.4784   1.6301 C.ar           1 S1                 0.0000
     17 ****         2.0473   2.0562   2.8664 N.3            1 S1                 0.0000
     18 ****         1.8094   1.2809   4.0829 C.3            1 S1                 0.0000
     19 ****         1.9892   2.1661   5.3278 C.3            1 S1                 0.0000
     20 ****         3.2774   2.7716   5.3048 O.3            1 S1                 0.0000
     21 ****         3.4454   3.6122   4.1684 C.3            1 S1                 0.0000
     22 ****         3.3167   2.7797   2.8811 C.3            1 S1                 0.0000
     23 ****         1.3216   0.1708   1.6130 N.ar           1 S1                 0.0000
     24 ****         0.9730  -0.3982   0.4398 C.ar           1 S1                 0.0000
     25 ****        -3.1559  -2.3922   0.2525 H              1 S1                 0.0000
     26 ****        -3.0337  -3.9181  -0.6242 H              1 S1                 0.0000
     27 ****        -4.5057  -2.9611  -0.7221 H              1 S1                 0.0000
     28 ****        -3.3381  -1.1646  -1.9346 H              1 S1                 0.0000
     29 ****        -3.5846  -1.2602  -4.2833 H              1 S1                 0.0000
     30 ****        -2.0020  -1.9985  -4.4857 H              1 S1                 0.0000
     31 ****        -1.5142  -0.0420  -2.3346 H              1 S1                 0.0000
     32 ****         1.2010  -1.2518  -2.2369 H              1 S1                 0.0000
     33 ****         0.7333   0.2823  -2.9191 H              1 S1                 0.0000
     34 ****         1.3237   2.2407  -1.6833 H              1 S1                 0.0000
     35 ****         1.9539   3.3044   0.4644 H              1 S1                 0.0000
     36 ****         0.7998   0.8680   4.0781 H              1 S1                 0.0000
     37 ****         2.5057   0.4418   4.1179 H              1 S1                 0.0000
     38 ****         1.2151   2.9340   5.3748 H              1 S1                 0.0000
     39 ****         1.8960   1.5647   6.2320 H              1 S1                 0.0000
     40 ****         2.7094   4.4179   4.1860 H              1 S1                 0.0000
     41 ****         4.4290   4.0796   4.2156 H              1 S1                 0.0000
     42 ****         4.1323   2.0579   2.8211 H              1 S1                 0.0000
     43 ****         3.4172   3.4422   2.0230 H              1 S1                 0.0000
     44 ****         0.6991  -1.4419   0.4825 H              1 S1                 0.0000
     45 ****        -4.1925  -3.1403  -2.9777 LP             1 S1                 0.0000
     46 ****        -2.6695  -3.7200  -3.0820 LP             1 S1                 0.0000
     47 ****        -1.0422  -3.8369  -1.3288 LP             1 S1                 0.0000
     48 ****         0.3651  -2.8367  -1.4668 LP             1 S1                 0.0000
     49 ****         1.3384   2.7596   2.9187 LP             1 S1                 0.0000
     50 ****         3.9725   2.0531   5.2816 LP             1 S1                 0.0000
     51 ****         3.3923   3.3200   6.1330 LP             1 S1                 0.0000
     52 ****         1.3141  -0.3641   2.4578 LP             1 S1                 0.0000
@<TRIPOS>BOND
    1    1    2 1     
    2    1   25 1     
    3    1   26 1     
    4    1   27 1     
    5    2    3 1     
    6    2    9 1     
    7    2   28 1     
    8    3    4 1     
    9    4    5 1     
   10    4   29 1     
   11    4   30 1     
   12    5    6 1     
   13    5    7 1     
   14    5    8 1     
   15    9   10 2     
   16    9   11 am    
   17   11   12 1     
   18   11   31 1     
   19   12   13 1     
   20   12   32 1     
   21   12   33 1     
   22   13   24 ar    
   23   13   14 ar    
   24   14   15 ar    
   25   14   34 1     
   26   15   16 ar    
   27   15   35 1     
   28   16   17 1     
   29   16   23 ar    
   30   17   22 1     
   31   17   18 1     
   32   18   19 1     
   33   18   36 1     
   34   18   37 1     
   35   19   20 1     
   36   19   38 1     
   37   19   39 1     
   38   20   21 1     
   39   21   22 1     
   40   21   40 1     
   41   21   41 1     
   42   22   42 1     
   43   22   43 1     
   44   23   24 ar    
   45   24   44 1     
   46    3   45 1     
   47    3   46 1     
   48   10   47 1     
   49   10   48 1     
   50   17   49 1     
   51   20   50 1     
   52   20   51 1     
   53   23   52 1     
@<TRIPOS>SUBSTRUCTURE
      1 S1             1
@<TRIPOS>SET
LONE_PAIRS      STATIC     ATOMS    <user>   **** ""
8 45 46 47 48 49 50 51 52
DONOR_HYDROGENS      STATIC     ATOMS    <user>   **** ""
1 31
ATOM$BLUE        STATIC     ATOMS    COLORGROUP SYSTEM
8 45 46 47 48 49 50 51 52
ATOM$RED        STATIC     ATOMS    COLORGROUP SYSTEM
1 31
