AV-unprocessed.smi:2578|AV-procd|sdf|10122|dock4
  -GOLD-   2272014143D 1   1.00000     0.00000
 Structure written by MMmdl.
 41 42  0  0  0  0  0  0  0  0  1 V2000
  146.2144  142.0464  153.8579 C   0  0  0  0  0  0  0  0  0  0  0  0
  147.4764  141.2266  154.0707 C   0  0  0  0  0  0  0  0  0  0  0  0
  148.5865  141.8203  154.5631 C   0  0  0  0  0  0  0  0  0  0  0  0
  149.8363  141.0948  154.7948 C   0  0  0  0  0  0  0  0  0  0  0  0
  150.8428  141.6450  155.2423 O   0  0  0  0  0  0  0  0  0  0  0  0
  149.8120  139.7702  154.4827 N   0  0  0  0  0  0  0  0  0  0  0  0
  151.0133  138.9539  154.6786 C   0  0  0  0  0  0  0  0  0  0  0  0
  148.6664  139.1413  153.9665 C   0  0  0  0  0  0  0  0  0  0  0  0
  147.5083  139.8047  153.7500 C   0  0  0  0  0  0  0  0  0  0  0  0
  146.3363  139.2209  153.2367 N   0  0  0  0  0  0  0  0  0  0  0  0
  146.0709  137.9359  152.9329 C   0  0  0  0  0  0  0  0  0  0  0  0
  146.8456  136.9871  153.0505 O   0  0  0  0  0  0  0  0  0  0  0  0
  144.8169  137.8035  152.4771 N   0  0  0  0  0  0  0  0  0  0  0  0
  144.2004  136.5431  152.0790 C   0  0  0  0  0  0  0  0  0  0  0  0
  145.1524  135.7010  151.2127 C   0  0  0  0  0  0  0  0  0  0  0  0
  144.7208  134.2517  151.1080 C   0  0  0  0  0  0  0  0  0  0  0  0
  145.2940  133.3045  150.3671 C   0  0  0  0  0  0  0  0  0  0  0  0
  144.5931  131.9782  150.4771 C   0  0  0  0  0  0  0  0  0  0  0  0
  143.4186  132.2547  151.4425 C   0  0  0  0  0  0  0  0  0  0  0  0
  143.5157  133.7406  151.8551 C   0  0  0  0  0  0  0  0  0  0  0  0
  146.3532  143.0874  154.1515 H   0  0  0  0  0  0  0  0  0  0  0  0
  145.3938  141.6386  154.4485 H   0  0  0  0  0  0  0  0  0  0  0  0
  145.9252  142.0303  152.8070 H   0  0  0  0  0  0  0  0  0  0  0  0
  148.5627  142.8743  154.7994 H   0  0  0  0  0  0  0  0  0  0  0  0
  150.8551  137.9013  154.4419 H   0  0  0  0  0  0  0  0  0  0  0  0
  151.3479  139.0036  155.7159 H   0  0  0  0  0  0  0  0  0  0  0  0
  151.8239  139.3125  154.0428 H   0  0  0  0  0  0  0  0  0  0  0  0
  148.8145  138.0934  153.7656 H   0  0  0  0  0  0  0  0  0  0  0  0
  145.5817  139.8733  153.0823 H   0  0  0  0  0  0  0  0  0  0  0  0
  144.2443  138.6319  152.4075 H   0  0  0  0  0  0  0  0  0  0  0  0
  143.9386  135.9937  152.9836 H   0  0  0  0  0  0  0  0  0  0  0  0
  143.2650  136.7394  151.5528 H   0  0  0  0  0  0  0  0  0  0  0  0
  145.2156  136.1121  150.2046 H   0  0  0  0  0  0  0  0  0  0  0  0
  146.1597  135.7397  151.6297 H   0  0  0  0  0  0  0  0  0  0  0  0
  146.1636  133.4428  149.7414 H   0  0  0  0  0  0  0  0  0  0  0  0
  144.2429  131.6540  149.4968 H   0  0  0  0  0  0  0  0  0  0  0  0
  145.2741  131.2240  150.8726 H   0  0  0  0  0  0  0  0  0  0  0  0
  142.4644  132.0536  150.9540 H   0  0  0  0  0  0  0  0  0  0  0  0
  143.4768  131.6061  152.3174 H   0  0  0  0  0  0  0  0  0  0  0  0
  143.6556  133.8465  152.9311 H   0  0  0  0  0  0  0  0  0  0  0  0
  142.6253  134.2988  151.5635 H   0  0  0  0  0  0  0  0  0  0  0  0
  1  2  1  0  0  0  0
  1 21  1  0  0  0  0
  1 22  1  0  0  0  0
  1 23  1  0  0  0  0
  2  9  1  0  0  0  0
  2  3  2  0  0  0  0
  3  4  1  0  0  0  0
  3 24  1  0  0  0  0
  4  5  2  0  0  0  0
  4  6  1  0  0  0  0
  6  7  1  0  0  0  0
  6  8  1  0  0  0  0
  7 25  1  0  0  0  0
  7 26  1  0  0  0  0
  7 27  1  0  0  0  0
  8  9  2  0  0  0  0
  8 28  1  0  0  0  0
  9 10  1  0  0  0  0
 10 11  1  0  0  0  0
 10 29  1  0  0  0  0
 11 12  2  0  0  0  0
 11 13  1  0  0  0  0
 13 14  1  0  0  0  0
 13 30  1  0  0  0  0
 14 15  1  0  0  0  0
 14 31  1  0  0  0  0
 14 32  1  0  0  0  0
 15 16  1  0  0  0  0
 15 33  1  0  0  0  0
 15 34  1  0  0  0  0
 16 20  1  0  0  0  0
 16 17  2  0  0  0  0
 17 18  1  0  0  0  0
 17 35  1  0  0  0  0
 18 19  1  0  0  0  0
 18 36  1  0  0  0  0
 18 37  1  0  0  0  0
 19 20  1  0  0  0  0
 19 38  1  0  0  0  0
 19 39  1  0  0  0  0
 20 40  1  0  0  0  0
 20 41  1  0  0  0  0
M  END
> <s_m_source_file>
AV-unprocessed.smi

> <i_m_source_file_index>
2578

> <i_lp_mmshare_version>
43012

> <i_f3d_flags>
0

> <s_epik_input>
W0NIM11jMVtjSF1jKD1PKW4oW0NIM10pW2NIXWMxW05IXUMoPU8pW05IXVtDSDJdW0NIMl1DMj1bQ0hdW0NIMl1bQ0gyXVtDSDJdMg==

> <s_epik_cmdline>
J2VwaWtfcHl0aG9uJywgJy1waCcsICc3LjAnLCAnLXRuJywgJzgnLCAnLW1hJywgJzIwMCcsICctbWV0YWxfYmluZGluZycsICctaW1hZScsICc8aW5maWxlLm1hZT4nLCAnLW9tYWUnLCAnPG91dGZpbGUubWFlPic=

> <r_lp_tautomer_probability>
1

> <r_epik_Ionization_Penalty>
2.83926e-05

> <r_epik_Ionization_Penalty_Charging>
8.15285e-06

> <r_epik_Ionization_Penalty_Neutral>
2.02397e-05

> <r_epik_State_Penalty>
-0

> <r_epik_Charging_Adjusted_Penalty>
8.15285e-06

> <i_epik_Tot_Q>
0

> <i_epik_Tot_abs_Q>
0

> <r_epik_Metal_State_Penalty>
-0

> <b_epik_Metal_Only>
0

> <s_lp_Force_Field>
OPLS_2005

> <r_lp_Energy>
31.0137

> <b_lp_Chiralities_Consistent>
1

> <s_lp_Variant>
AV-unprocessed.smi:2578-1

> <Gold.Version>
5.8.1

> <Gold.Id.Protein>
6NUR|6NUR_protein|mol2

> <Gold.PLP.Fitness>
43.8947

> <Gold.PLP.PLP>
-35.0339

> <Gold.PLP.part.hbond>
-4.0000

> <Gold.PLP.part.metal>
0.0000

> <Gold.PLP.part.buried>
3.4466

> <Gold.PLP.part.nonpolar>
-38.0369

> <Gold.PLP.part.repulsive>
3.7587

> <Gold.PLP.ligand.clash>
0.0000

> <Gold.PLP.ligand.torsion>
0.1794

> <Gold.PLP.Chemscore.Hbond>
2.0870

> <Gold.PLP.Chemscore.CHOScore>
0.9820

> <Gold.PLP.Chemscore.Metal>
0.0000

> <Gold.Chemscore.Hbonds>
donor molecule, donor type, donor heavy atom, donor atom, acceptor molecule, acceptor atom, score
      L1  H    10    29       P1 10175  0.86
      L1  H    13    30       P1 10175  1.00
      P1  H  7989  7998       L1     5  0.02
      L1  C     8    28       P1  7948  0.71

> <Gold.PLP.Chemscore.Internal.Correction>
0.0124

> <Gold.Rescore>
     Score         DG    S(hbond)    S(metal)    S(lipo)     H(rot)  DE(clash)    DE(int)     intcor
     13.81     -18.99       1.97        0.00      88.72       1.35       2.53       2.66       ----

> <Gold.Chemscore.Fitness>
13.8053

> <Gold.Chemscore.DG>
-18.9936

> <Gold.Chemscore.ZeroCoef>
-5.4800

> <Gold.Chemscore.Hbond>
1.9725

> <Gold.Chemscore.Metal>
0.0000

> <Gold.Chemscore.Lipo>
88.7154

> <Gold.Chemscore.Internal_Hbond>
0.0000

> <Gold.Chemscore.DEClash>
2.5284

> <Gold.Chemscore.DEInternal>
2.6599

> <Gold.Chemscore.Rot>
1.3493

> <Gold.Chemscore.Internal.Correction>
   9.000000E+99

> <Gold.Chemscore.Hbonds>
donor molecule, donor type, donor heavy atom, donor atom, acceptor molecule, acceptor atom, score
      L1  H    10    29       P1 10175  0.83
      L1  H    13    30       P1 10175  1.00

> <Gold.Chemscore.Hbond.Weighted>
-6.5880

> <Gold.Chemscore.Metal.Weighted>
-0.0000

> <Gold.Chemscore.Lipo.Weighted>
-10.3797

> <Gold.Chemscore.Internal_Hbond.Weighted>
0.0000

> <Gold.Chemscore.DEClash.Weighted>
2.5284

> <Gold.Chemscore.DEInternal.Weighted>
2.6599

> <Gold.Chemscore.Rot.Weighted>
3.4541

> <Gold.Chemscore.Internal.Correction.Weighted>
   9.000000E+99

> <Gold.Protein.RotatedTorsions>
[ 6907 6896 6895 6894 ] final   44.30 input  -60.11 | X-H torsion
[ 7974 7965 7964 7962 ] final   39.88 input  175.53 | X-H torsion
[ 8008 7997 7996 7995 ] final  147.54 input   59.86 | X-H torsion
[ 10167 10162 10161 10158 ] final  -58.81 input  -65.29 | X-H torsion
[ 10718 10713 10712 10709 ] final  -22.86 input   66.30 | X-H torsion
[ 10763 10752 10751 10750 ] final -162.81 input  -60.55 | X-H torsion
[ 11005 11000 10999 10996 ] final  -35.41 input  -57.11 | X-H torsion

> <Gold.Protein.ActiveResidues>
 VAL166  LYS551  ARG553  GLY616  TRP617  ASP618  TYR619  PRO620  LYS621  CYS622 
 ASP623  PHE694  ASN695  SER759  ASP760  ASP761  ALA762  ILE779  LEU786  VAL792 
 PHE793  MET794  SER795  GLU796  ALA797  LYS798  CYS799  TRP800  GLU811  SER814 

> <Gold.Protein.RotatedAtoms>
  152.2308  134.8324  160.0473 H   0  0  0  0  0  0  0  0  0  0  0  0  # atno 6907 bound_to 6896
  151.9074  133.3547  159.3860 H   0  0  0  0  0  0  0  0  0  0  0  0  # atno 6908 bound_to 6896
  150.7025  134.4693  159.5461 H   0  0  0  0  0  0  0  0  0  0  0  0  # atno 6909 bound_to 6896
  146.0949  139.5599  142.9452 H   0  0  0  0  0  0  0  0  0  0  0  0  # atno 7974 bound_to 7965
  156.2821  140.2153  156.5554 H   0  0  0  0  0  0  0  0  0  0  0  0  # atno 8008 bound_to 7997
  154.7257  140.0500  157.0703 H   0  0  0  0  0  0  0  0  0  0  0  0  # atno 8009 bound_to 7997
  155.0420  140.3146  155.4724 H   0  0  0  0  0  0  0  0  0  0  0  0  # atno 8010 bound_to 7997
  140.6174  143.2407  151.5563 H   0  0  0  0  0  0  0  0  0  0  0  0  # atno 10167 bound_to 10162
  156.4988  130.4583  149.6713 H   0  0  0  0  0  0  0  0  0  0  0  0  # atno 10718 bound_to 10713
  154.7180  135.3020  154.9093 H   0  0  0  0  0  0  0  0  0  0  0  0  # atno 10763 bound_to 10752
  153.9974  135.6711  153.4761 H   0  0  0  0  0  0  0  0  0  0  0  0  # atno 10764 bound_to 10752
  153.0809  135.5009  154.8418 H   0  0  0  0  0  0  0  0  0  0  0  0  # atno 10765 bound_to 10752
  140.9794  133.7065  156.1658 H   0  0  0  0  0  0  0  0  0  0  0  0  # atno 11005 bound_to 11000
  145.5967  141.0361  143.2040 LP  0  0  0  0  0  0  0  0  0  0  0  0  # atno 17320 bound_to 7965
  144.7388  139.7509  143.7319 LP  0  0  0  0  0  0  0  0  0  0  0  0  # atno 17321 bound_to 7965
  139.5410  144.2648  152.1350 LP  0  0  0  0  0  0  0  0  0  0  0  0  # atno 17342 bound_to 10162
  140.1860  144.4798  150.6503 LP  0  0  0  0  0  0  0  0  0  0  0  0  # atno 17343 bound_to 10162
  156.3353  130.7353  151.2289 LP  0  0  0  0  0  0  0  0  0  0  0  0  # atno 17370 bound_to 10713
  157.7465  131.0418  150.4666 LP  0  0  0  0  0  0  0  0  0  0  0  0  # atno 17371 bound_to 10713
  140.7209  134.4359  157.5575 LP  0  0  0  0  0  0  0  0  0  0  0  0  # atno 17394 bound_to 11000
  139.8944  134.8708  156.2179 LP  0  0  0  0  0  0  0  0  0  0  0  0  # atno 17395 bound_to 11000

$$$$
