AV-unprocessed.smi:107|AV-procd|sdf|1021|dock3
  -GOLD-   2262018 23D 1   1.00000     0.00000
 Structure written by MMmdl.
 30 31  0  0  0  0  0  0  0  0  2 V2000
  150.6811  143.0402  158.6926 C   0  0  0  0  0  0  0  0  0  0  0  0
  151.0474  141.9398  157.7118 C   0  0  0  0  0  0  0  0  0  0  0  0
  150.3522  141.7292  156.5717 C   0  0  0  0  0  0  0  0  0  0  0  0
  150.6910  140.7258  155.6781 N   0  0  0  0  0  0  0  0  0  0  0  0
  149.9033  140.4883  154.4025 C   0  0  2  0  0  0  0  0  0  0  0  0
  148.7179  141.4667  154.2994 C   0  0  0  0  0  0  0  0  0  0  0  0
  147.5212  140.5500  154.1101 C   0  0  1  0  0  0  0  0  0  0  0  0
  147.2318  140.3813  152.7341 O   0  0  0  0  0  0  0  0  0  0  0  0
  147.9889  139.2448  154.7626 C   0  0  1  0  0  0  0  0  0  0  0  0
  147.2504  137.9732  154.3108 C   0  0  0  0  0  0  0  0  0  0  0  0
  147.2899  137.8631  152.9039 O   0  0  0  0  0  0  0  0  0  0  0  0
  149.3658  139.1971  154.4043 O   0  0  0  0  0  0  0  0  0  0  0  0
  151.7863  139.8710  155.9713 C   0  0  0  0  0  0  0  0  0  0  0  0
  152.0505  138.9747  155.1692 O   0  0  0  0  0  0  0  0  0  0  0  0
  152.4948  140.0777  157.1177 N   0  5  0  0  0  0  0  0  0  0  0  0
  152.1923  141.0693  158.0038 C   0  0  0  0  0  0  0  0  0  0  0  0
  152.8459  141.2503  159.0309 O   0  0  0  0  0  0  0  0  0  0  0  0
  149.7969  143.5871  158.3639 H   0  0  0  0  0  0  0  0  0  0  0  0
  151.5018  143.7513  158.7897 H   0  0  0  0  0  0  0  0  0  0  0  0
  150.4711  142.6197  159.6765 H   0  0  0  0  0  0  0  0  0  0  0  0
  149.5089  142.3704  156.3677 H   0  0  0  0  0  0  0  0  0  0  0  0
  150.6281  140.5779  153.5916 H   0  0  0  0  0  0  0  0  0  0  0  0
  148.6168  142.0274  155.2302 H   0  0  0  0  0  0  0  0  0  0  0  0
  148.8645  142.1753  153.4831 H   0  0  0  0  0  0  0  0  0  0  0  0
  146.6304  140.9453  154.5993 H   0  0  0  0  0  0  0  0  0  0  0  0
  148.0133  140.5672  152.2367 H   0  0  0  0  0  0  0  0  0  0  0  0
  147.9041  139.3617  155.8447 H   0  0  0  0  0  0  0  0  0  0  0  0
  147.7402  137.0892  154.7199 H   0  0  0  0  0  0  0  0  0  0  0  0
  146.2179  137.9664  154.6616 H   0  0  0  0  0  0  0  0  0  0  0  0
  147.8681  137.1519  152.6742 H   0  0  0  0  0  0  0  0  0  0  0  0
  1  2  1  0  0  0  0
  1 18  1  0  0  0  0
  1 19  1  0  0  0  0
  1 20  1  0  0  0  0
  2 16  1  0  0  0  0
  2  3  2  0  0  0  0
  3  4  1  0  0  0  0
  3 21  1  0  0  0  0
  4  5  1  0  0  0  0
  4 13  1  0  0  0  0
  5 12  1  0  0  0  0
  5  6  1  0  0  0  0
  5 22  1  0  0  0  0
  6  7  1  0  0  0  0
  6 23  1  0  0  0  0
  6 24  1  0  0  0  0
  7  8  1  0  0  0  0
  7  9  1  0  0  0  0
  7 25  1  0  0  0  0
  8 26  1  0  0  0  0
  9 10  1  0  0  0  0
  9 12  1  0  0  0  0
  9 27  1  0  0  0  0
 10 11  1  0  0  0  0
 10 28  1  0  0  0  0
 10 29  1  0  0  0  0
 11 30  1  0  0  0  0
 13 14  2  0  0  0  0
 13 15  1  0  0  0  0
 15 16  1  0  0  0  0
 16 17  2  0  0  0  0
M  CHG  1  15  -1
M  END
> <s_m_source_file>
AV-unprocessed.smi

> <i_m_source_file_index>
107

> <i_lp_mmshare_version>
43012

> <i_f3d_flags>
0

> <s_epik_input>
Tz1jMVtuSF1jKD1PKW4oW2NIXWMxW0NIM10pW0NAQEhdMltDSDJdW0NAQEhdKFtPSF0pW0NASF0oTzIpW0NIMl1bT0hd

> <s_epik_cmdline>
J2VwaWtfcHl0aG9uJywgJy1waCcsICc3LjAnLCAnLXRuJywgJzgnLCAnLW1hJywgJzIwMCcsICctbWV0YWxfYmluZGluZycsICctaW1hZScsICc8aW5maWxlLm1hZT4nLCAnLW9tYWUnLCAnPG91dGZpbGUubWFlPic=

> <r_lp_tautomer_probability>
0.999537

> <r_epik_Ionization_Penalty>
3.66603

> <r_epik_Ionization_Penalty_Charging>
1.09773e-07

> <r_epik_Ionization_Penalty_Neutral>
3.66603

> <r_epik_State_Penalty>
3.66562

> <r_epik_Charging_Adjusted_Penalty>
3.66562

> <i_epik_Tot_Q>
-1

> <i_epik_Tot_abs_Q>
1

> <r_epik_Metal_State_Penalty>
0.234536

> <b_epik_Metal_Only>
1

> <s_epik_Chemistry_Notes>
This compound contains an acetal/aminal-like group ( X-CH(R)-Y where X, Y are N, S, or O) that may be acid/base labile, releasing an aldehyde.

> <s_lp_Force_Field>
OPLS_2005

> <r_lp_Energy>
39.3758

> <b_lp_Chiralities_Consistent>
1

> <s_lp_Variant>
AV-unprocessed.smi:107-9

> <Gold.Version>
5.8.1

> <Gold.Id.Protein>
6NUR|6NUR_protein|mol2

> <Gold.PLP.Fitness>
41.2914

> <Gold.PLP.PLP>
-26.3146

> <Gold.PLP.part.hbond>
-3.0000

> <Gold.PLP.part.metal>
0.0000

> <Gold.PLP.part.buried>
-1.7374

> <Gold.PLP.part.nonpolar>
-20.6956

> <Gold.PLP.part.repulsive>
0.1714

> <Gold.PLP.ligand.clash>
0.0000

> <Gold.PLP.ligand.torsion>
0.0164

> <Gold.PLP.Chemscore.Hbond>
4.0000

> <Gold.PLP.Chemscore.CHOScore>
1.0000

> <Gold.PLP.Chemscore.Metal>
0.0000

> <Gold.Chemscore.Hbonds>
donor molecule, donor type, donor heavy atom, donor atom, acceptor molecule, acceptor atom, score
      L1  H     8    26       P1  7957  1.00
      L1  H    11    30       P1  7948  1.00
      P1  H  7997  8008       L1    15  2.00
      L1  C     3    21       P1  8028  1.00

> <Gold.PLP.Chemscore.Internal.Correction>
0.0095

> <Gold.Rescore>
     Score         DG    S(hbond)    S(metal)    S(lipo)     H(rot)  DE(clash)    DE(int)     intcor
      9.70     -12.15       2.63        0.00      40.69       2.69       1.09       1.36       ----

> <Gold.Chemscore.Fitness>
9.6999

> <Gold.Chemscore.DG>
-12.1460

> <Gold.Chemscore.ZeroCoef>
-5.4800

> <Gold.Chemscore.Hbond>
2.6299

> <Gold.Chemscore.Metal>
0.0000

> <Gold.Chemscore.Lipo>
40.6939

> <Gold.Chemscore.Internal_Hbond>
0.0000

> <Gold.Chemscore.DEClash>
1.0857

> <Gold.Chemscore.DEInternal>
1.3604

> <Gold.Chemscore.Rot>
2.6871

> <Gold.Chemscore.Internal.Correction>
   9.000000E+99

> <Gold.Chemscore.Hbonds>
donor molecule, donor type, donor heavy atom, donor atom, acceptor molecule, acceptor atom, score
      L1  H     8    26       P1  7957  0.95
      L1  H    11    30       P1  7948  0.99
      P1  H  7997  8008       L1    15  0.33

> <Gold.Chemscore.Hbond.Weighted>
-8.7839

> <Gold.Chemscore.Metal.Weighted>
-0.0000

> <Gold.Chemscore.Lipo.Weighted>
-4.7612

> <Gold.Chemscore.Internal_Hbond.Weighted>
0.0000

> <Gold.Chemscore.DEClash.Weighted>
1.0857

> <Gold.Chemscore.DEInternal.Weighted>
1.3604

> <Gold.Chemscore.Rot.Weighted>
6.8791

> <Gold.Chemscore.Internal.Correction.Weighted>
   9.000000E+99

> <Gold.Protein.RotatedTorsions>
[ 6907 6896 6895 6894 ] final  -11.66 input  -60.11 | X-H torsion
[ 7974 7965 7964 7962 ] final   72.26 input  175.53 | X-H torsion
[ 8008 7997 7996 7995 ] final  -51.50 input   59.86 | X-H torsion
[ 10167 10162 10161 10158 ] final -153.77 input  -65.29 | X-H torsion
[ 10718 10713 10712 10709 ] final  -53.07 input   66.30 | X-H torsion
[ 10763 10752 10751 10750 ] final  -64.72 input  -60.55 | X-H torsion
[ 11005 11000 10999 10996 ] final  162.75 input  -57.11 | X-H torsion

> <Gold.Protein.ActiveResidues>
 VAL166  LYS551  ARG553  GLY616  TRP617  ASP618  TYR619  PRO620  LYS621  CYS622 
 ASP623  PHE694  ASN695  SER759  ASP760  ASP761  ALA762  ILE779  LEU786  VAL792 
 PHE793  MET794  SER795  GLU796  ALA797  LYS798  CYS799  TRP800  GLU811  SER814 

> <Gold.Protein.RotatedAtoms>
  151.3826  135.0942  159.9500 H   0  0  0  0  0  0  0  0  0  0  0  0  # atno 6907 bound_to 6896
  152.5103  133.9057  159.7473 H   0  0  0  0  0  0  0  0  0  0  0  0  # atno 6908 bound_to 6896
  150.9493  133.6511  159.2804 H   0  0  0  0  0  0  0  0  0  0  0  0  # atno 6909 bound_to 6896
  145.7556  139.2778  143.1406 H   0  0  0  0  0  0  0  0  0  0  0  0  # atno 7974 bound_to 7965
  154.4084  140.1246  156.4839 H   0  0  0  0  0  0  0  0  0  0  0  0  # atno 8008 bound_to 7997
  155.7057  140.3494  155.4932 H   0  0  0  0  0  0  0  0  0  0  0  0  # atno 8009 bound_to 7997
  155.9345  140.1076  157.1095 H   0  0  0  0  0  0  0  0  0  0  0  0  # atno 8010 bound_to 7997
  139.7069  143.9171  152.2452 H   0  0  0  0  0  0  0  0  0  0  0  0  # atno 10167 bound_to 10162
  156.1566  130.4150  149.9859 H   0  0  0  0  0  0  0  0  0  0  0  0  # atno 10718 bound_to 10713
  154.3344  135.6170  153.5566 H   0  0  0  0  0  0  0  0  0  0  0  0  # atno 10763 bound_to 10752
  152.9809  135.5754  154.4925 H   0  0  0  0  0  0  0  0  0  0  0  0  # atno 10764 bound_to 10752
  154.4617  135.2856  155.1684 H   0  0  0  0  0  0  0  0  0  0  0  0  # atno 10765 bound_to 10752
  140.2289  134.8139  157.3296 H   0  0  0  0  0  0  0  0  0  0  0  0  # atno 11005 bound_to 11000
  146.0314  140.8254  142.9874 LP  0  0  0  0  0  0  0  0  0  0  0  0  # atno 17320 bound_to 7965
  144.6841  140.2774  143.7297 LP  0  0  0  0  0  0  0  0  0  0  0  0  # atno 17321 bound_to 7965
  139.9029  144.6901  150.8645 LP  0  0  0  0  0  0  0  0  0  0  0  0  # atno 17342 bound_to 10162
  140.7724  143.3500  151.2034 LP  0  0  0  0  0  0  0  0  0  0  0  0  # atno 17343 bound_to 10162
  156.7701  130.9183  151.3644 LP  0  0  0  0  0  0  0  0  0  0  0  0  # atno 17370 bound_to 10713
  157.6700  130.9042  150.0018 LP  0  0  0  0  0  0  0  0  0  0  0  0  # atno 17371 bound_to 10713
  140.1772  134.4535  155.7795 LP  0  0  0  0  0  0  0  0  0  0  0  0  # atno 17394 bound_to 11000
  141.2219  133.6967  156.7807 LP  0  0  0  0  0  0  0  0  0  0  0  0  # atno 17395 bound_to 11000

$$$$
