#       Name:                AV-unprocessed.smi:2083
#       Creating user name   scv26
#       Creation time:       Fri Mar 27 11:21:32 2020


#       File generated by GOLD software.
#

@<TRIPOS>MOLECULE
AV-unprocessed.smi:2083
    50    51     1
SMALL
NO_CHARGES


@<TRIPOS>ATOM
      1 ****        -2.4517   6.5665  -3.0751 C.3            1 S1                 0.0000
      2 ****        -2.7921   5.4021  -2.2094 C.2            1 S1                 0.0000
      3 ****        -2.0949   4.7253  -1.2493 C.2            1 S1                 0.0000
      4 ****        -3.0099   3.7205  -0.8319 C.2            1 S1                 0.0000
      5 ****        -2.7885   2.7942   0.1134 N.pl3          1 S1                -1.0000
      6 ****        -2.1588   1.6398  -0.2015 C.2            1 S1                 0.0000
      7 ****        -1.7180   1.3241  -1.3093 O.2            1 S1                 0.0000
      8 ****        -2.0259   0.7981   0.8335 N.am           1 S1                 0.0000
      9 ****        -1.3791  -0.5102   0.7895 C.3            1 S1                 0.0000
     10 ****         0.1722  -0.4164   0.7580 C.3            1 S1                 0.0000
     11 ****         0.6832   0.3963   1.9692 C.3            1 S1                 0.0000
     12 ****         0.8708  -1.7429   0.7078 N.4            1 S1                 1.0000
     13 ****         0.1239  -2.8548   0.0499 C.3            1 S1                 0.0000
     14 ****         0.8665  -4.1950   0.1847 C.3            1 S1                 0.0000
     15 ****         2.2984  -4.1026  -0.3547 C.3            1 S1                 0.0000
     16 ****         3.0543  -2.9307   0.2920 C.3            1 S1                 0.0000
     17 ****         3.4527  -3.2036   1.7533 C.3            1 S1                 0.0000
     18 ****         2.2463  -1.6268   0.1411 C.3            1 S1                 0.0000
     19 ****        -4.1665   3.7934  -1.4686 N.2            1 S1                 0.0000
     20 ****        -4.0331   4.8660  -2.3582 O.3            1 S1                 0.0000
     21 ****        -2.3654   7.4755  -2.4799 H              1 S1                 0.0000
     22 ****        -3.2170   6.7298  -3.8342 H              1 S1                 0.0000
     23 ****        -1.5018   6.4029  -3.5840 H              1 S1                 0.0000
     24 ****        -1.0897   4.9147  -0.9036 H              1 S1                 0.0000
     25 ****        -2.4054   1.0931   1.7215 H              1 S1                 0.0000
     26 ****        -1.7051  -1.0711   1.6660 H              1 S1                 0.0000
     27 ****        -1.7669  -1.0350  -0.0848 H              1 S1                 0.0000
     28 ****         0.4397   0.1232  -0.1518 H              1 S1                 0.0000
     29 ****         0.2497   1.3962   1.9975 H              1 S1                 0.0000
     30 ****         1.7626   0.5369   1.9553 H              1 S1                 0.0000
     31 ****         0.4292  -0.0984   2.9070 H              1 S1                 0.0000
     32 ****        -0.8536  -2.9941   0.5100 H              1 S1                 0.0000
     33 ****        -0.0411  -2.6145  -1.0019 H              1 S1                 0.0000
     34 ****         0.8831  -4.5007   1.2311 H              1 S1                 0.0000
     35 ****         0.3221  -4.9744  -0.3493 H              1 S1                 0.0000
     36 ****         2.8292  -5.0409  -0.1895 H              1 S1                 0.0000
     37 ****         2.2635  -3.9566  -1.4353 H              1 S1                 0.0000
     38 ****         3.9859  -2.8038  -0.2612 H              1 S1                 0.0000
     39 ****         2.5826  -3.3157   2.4000 H              1 S1                 0.0000
     40 ****         4.0537  -2.3859   2.1521 H              1 S1                 0.0000
     41 ****         4.0461  -4.1149   1.8343 H              1 S1                 0.0000
     42 ****         2.1695  -1.3660  -0.9159 H              1 S1                 0.0000
     43 ****         2.7999  -0.8155   0.6110 H              1 S1                 0.0000
     44 ****         0.9774  -2.0276   1.6708 H              1 S1                 0.0000
     45 ****        -3.0898   2.9580   1.0527 LP             1 S1                 0.0000
     46 ****        -1.8120   1.9516  -2.0822 LP             1 S1                 0.0000
     47 ****        -1.2665   0.4406  -1.4346 LP             1 S1                 0.0000
     48 ****        -4.9664   3.2069  -1.3416 LP             1 S1                 0.0000
     49 ****        -4.1494   4.5415  -3.2969 LP             1 S1                 0.0000
     50 ****        -4.7255   5.5587  -2.1568 LP             1 S1                 0.0000
@<TRIPOS>BOND
    1    1    2 1     
    2    1   21 1     
    3    1   22 1     
    4    1   23 1     
    5    2   20 1     
    6    2    3 2     
    7    3    4 1     
    8    3   24 1     
    9    4    5 1     
   10    4   19 2     
   11    5    6 1     
   12    6    7 2     
   13    6    8 am    
   14    8    9 1     
   15    8   25 1     
   16    9   10 1     
   17    9   26 1     
   18    9   27 1     
   19   10   11 1     
   20   10   12 1     
   21   10   28 1     
   22   11   29 1     
   23   11   30 1     
   24   11   31 1     
   25   12   18 1     
   26   12   13 1     
   27   12   44 1     
   28   13   14 1     
   29   13   32 1     
   30   13   33 1     
   31   14   15 1     
   32   14   34 1     
   33   14   35 1     
   34   15   16 1     
   35   15   36 1     
   36   15   37 1     
   37   16   17 1     
   38   16   18 1     
   39   16   38 1     
   40   17   39 1     
   41   17   40 1     
   42   17   41 1     
   43   18   42 1     
   44   18   43 1     
   45   19   20 1     
   46    5   45 1     
   47    7   46 1     
   48    7   47 1     
   49   19   48 1     
   50   20   49 1     
   51   20   50 1     
@<TRIPOS>SUBSTRUCTURE
      1 S1             1
@<TRIPOS>SET
LONE_PAIRS      STATIC     ATOMS    <user>   **** ""
6 45 46 47 48 49 50
DONOR_HYDROGENS      STATIC     ATOMS    <user>   **** ""
2 25 44
ATOM$BLUE        STATIC     ATOMS    COLORGROUP SYSTEM
6 45 46 47 48 49 50
ATOM$RED        STATIC     ATOMS    COLORGROUP SYSTEM
2 25 44
