#       Name:                AV-unprocessed.smi:145
#       Creating user name   scv26
#       Creation time:       Thu Mar 26 18:35:49 2020


#       File generated by GOLD software.
#

@<TRIPOS>MOLECULE
AV-unprocessed.smi:145
    48    50     1
SMALL
NO_CHARGES


@<TRIPOS>ATOM
      1 ****        -1.3484   0.5790   0.8846 O.2            1 S1                 0.0000
      2 ****        -0.7954  -0.0456   1.7910 C.2            1 S1                 0.0000
      3 ****         0.7245   0.0583   1.9968 C.3            1 S1                 0.0000
      4 ****         1.4202   0.7899   0.9152 N.am           1 S1                 0.0000
      5 ****         1.6088   2.1879   1.0481 C.2            1 S1                 0.0000
      6 ****         1.2130   2.7938   2.0448 O.2            1 S1                 0.0000
      7 ****         2.2883   2.8404  -0.0655 C.2            1 S1                 0.0000
      8 ****         2.5234   4.1627  -0.0184 F              1 S1                 0.0000
      9 ****         2.6878   2.1370  -1.1450 C.2            1 S1                 0.0000
     10 ****         2.4805   0.7746  -1.2696 N.am           1 S1                 0.0000
     11 ****         2.9290  -0.0006  -2.4908 C.3            1 S1                 0.0000
     12 ****         1.7186  -0.3914  -3.3604 C.3            1 S1                 0.0000
     13 ****         2.1227   0.0975  -4.7369 C.3            1 S1                 0.0000
     14 ****         3.0226   1.2768  -4.4003 C.3            1 S1                 0.0000
     15 ****         3.7607   0.7986  -3.2835 O.3            1 S1                 0.0000
     16 ****         1.8412   0.0688  -0.2274 C.2            1 S1                 0.0000
     17 ****         1.6493  -1.1460  -0.3178 O.2            1 S1                 0.0000
     18 ****        -1.4318  -0.8633   2.6491 N.am           1 S1                 0.0000
     19 ****        -2.8187  -1.1647   2.7191 C.ar           1 S1                 0.0000
     20 ****        -3.8328  -0.2701   2.2985 C.ar           1 S1                 0.0000
     21 ****        -5.1896  -0.6299   2.4176 C.ar           1 S1                 0.0000
     22 ****        -5.5448  -1.8774   2.9642 C.ar           1 S1                 0.0000
     23 ****        -4.5418  -2.7638   3.3997 C.ar           1 S1                 0.0000
     24 ****        -5.0654  -4.6129   4.2237 I              1 S1                 0.0000
     25 ****        -3.1849  -2.4050   3.2825 C.ar           1 S1                 0.0000
     26 ****         0.9073   0.5217   2.9674 H              1 S1                 0.0000
     27 ****         1.1334  -0.9478   2.1054 H              1 S1                 0.0000
     28 ****         3.1881   2.6799  -1.9320 H              1 S1                 0.0000
     29 ****         3.4988  -0.8494  -2.1087 H              1 S1                 0.0000
     30 ****         1.5387  -1.4661  -3.3207 H              1 S1                 0.0000
     31 ****         0.8230   0.1309  -3.0196 H              1 S1                 0.0000
     32 ****         2.6945  -0.6726  -5.2563 H              1 S1                 0.0000
     33 ****         1.2717   0.3730  -5.3601 H              1 S1                 0.0000
     34 ****         3.6783   1.5573  -5.2248 H              1 S1                 0.0000
     35 ****         2.4313   2.1486  -4.1167 H              1 S1                 0.0000
     36 ****        -0.8419  -1.3865   3.2798 H              1 S1                 0.0000
     37 ****        -3.5934   0.7021   1.8957 H              1 S1                 0.0000
     38 ****        -5.9589   0.0554   2.0937 H              1 S1                 0.0000
     39 ****        -6.5859  -2.1504   3.0547 H              1 S1                 0.0000
     40 ****        -2.4230  -3.0918   3.6217 H              1 S1                 0.0000
     41 ****        -0.8081   1.1595   0.2755 LP             1 S1                 0.0000
     42 ****        -2.3376   0.5056   0.7580 LP             1 S1                 0.0000
     43 ****         0.7488   2.2988   2.7793 LP             1 S1                 0.0000
     44 ****         1.3559   3.7807   2.1195 LP             1 S1                 0.0000
     45 ****         4.5386   0.2577  -3.6034 LP             1 S1                 0.0000
     46 ****         4.0924   1.5733  -2.7451 LP             1 S1                 0.0000
     47 ****         1.1901  -1.6361   0.4231 LP             1 S1                 0.0000
     48 ****         1.9530  -1.6409  -1.1319 LP             1 S1                 0.0000
@<TRIPOS>BOND
    1    1    2 2     
    2    2    3 1     
    3    2   18 am    
    4    3    4 1     
    5    3   26 1     
    6    3   27 1     
    7    4   16 am    
    8    4    5 am    
    9    5    6 2     
   10    5    7 1     
   11    7    8 1     
   12    7    9 2     
   13    9   10 1     
   14    9   28 1     
   15   10   11 1     
   16   10   16 am    
   17   11   15 1     
   18   11   12 1     
   19   11   29 1     
   20   12   13 1     
   21   12   30 1     
   22   12   31 1     
   23   13   14 1     
   24   13   32 1     
   25   13   33 1     
   26   14   15 1     
   27   14   34 1     
   28   14   35 1     
   29   16   17 2     
   30   18   19 1     
   31   18   36 1     
   32   19   25 ar    
   33   19   20 ar    
   34   20   21 ar    
   35   20   37 1     
   36   21   22 ar    
   37   21   38 1     
   38   22   23 ar    
   39   22   39 1     
   40   23   24 1     
   41   23   25 ar    
   42   25   40 1     
   43    1   41 1     
   44    1   42 1     
   45    6   43 1     
   46    6   44 1     
   47   15   45 1     
   48   15   46 1     
   49   17   47 1     
   50   17   48 1     
@<TRIPOS>SUBSTRUCTURE
      1 S1             1
@<TRIPOS>SET
LONE_PAIRS      STATIC     ATOMS    <user>   **** ""
8 41 42 43 44 45 46 47 48
DONOR_HYDROGENS      STATIC     ATOMS    <user>   **** ""
1 36
ATOM$BLUE        STATIC     ATOMS    COLORGROUP SYSTEM
8 41 42 43 44 45 46 47 48
ATOM$RED        STATIC     ATOMS    COLORGROUP SYSTEM
1 36
