AV-unprocessed.smi:886|AV-procd|sdf|4051|dock9
  -GOLD-   22720 1543D 1   1.00000     0.00000
 Structure written by MMmdl.
 35 37  0  0  0  0  0  0  0  0  1 V2000
  155.0022  140.2720  160.9982 C   0  0  0  0  0  0  0  0  0  0  0  0
  154.0762  141.2861  160.5186 N   0  0  0  0  0  0  0  0  0  0  0  0
  153.3408  141.1696  159.4022 C   0  0  0  0  0  0  0  0  0  0  0  0
  153.3928  140.1886  158.6591 O   0  0  0  0  0  0  0  0  0  0  0  0
  152.4570  142.3502  159.0888 C   0  0  0  0  0  0  0  0  0  0  0  0
  152.7353  143.6046  159.6814 C   0  0  0  0  0  0  0  0  0  0  0  0
  151.8982  144.7020  159.4128 C   0  0  0  0  0  0  0  0  0  0  0  0
  150.7991  144.5060  158.5596 C   0  0  0  0  0  0  0  0  0  0  0  0
  150.5120  143.3184  157.9903 N   0  0  0  0  0  0  0  0  0  0  0  0
  151.3125  142.2543  158.2447 C   0  0  0  0  0  0  0  0  0  0  0  0
  150.9822  141.0430  157.6113 N   0  0  0  0  0  0  0  0  0  0  0  0
  151.3161  140.8257  156.2068 C   0  0  1  0  0  0  0  0  0  0  0  0
  152.2098  139.6017  155.9917 C   0  0  0  0  0  0  0  0  0  0  0  0
  151.4059  138.8003  154.9585 C   0  0  1  0  0  0  0  0  0  0  0  0
  150.1849  138.1247  155.5963 C   0  0  0  0  0  0  0  0  0  0  0  0
  149.2567  139.3155  155.8255 C   0  0  0  0  0  0  0  0  0  0  0  0
  150.1084  140.4875  155.3082 C   0  0  2  0  0  0  0  0  0  0  0  0
  150.7783  139.8464  154.2359 O   0  0  0  0  0  0  0  0  0  0  0  0
  155.4622  140.5993  161.9305 H   0  0  0  0  0  0  0  0  0  0  0  0
  155.7953  140.0954  160.2705 H   0  0  0  0  0  0  0  0  0  0  0  0
  154.4845  139.3303  161.1854 H   0  0  0  0  0  0  0  0  0  0  0  0
  153.9893  142.1298  161.0666 H   0  0  0  0  0  0  0  0  0  0  0  0
  153.5791  143.7325  160.3440 H   0  0  0  0  0  0  0  0  0  0  0  0
  152.0922  145.6688  159.8526 H   0  0  0  0  0  0  0  0  0  0  0  0
  150.1326  145.3235  158.3283 H   0  0  0  0  0  0  0  0  0  0  0  0
  150.1767  140.5476  157.9664 H   0  0  0  0  0  0  0  0  0  0  0  0
  151.8320  141.7031  155.8137 H   0  0  0  0  0  0  0  0  0  0  0  0
  153.1737  139.9059  155.5826 H   0  0  0  0  0  0  0  0  0  0  0  0
  152.3958  139.0261  156.8996 H   0  0  0  0  0  0  0  0  0  0  0  0
  152.0123  138.1311  154.3479 H   0  0  0  0  0  0  0  0  0  0  0  0
  149.7293  137.4108  154.9091 H   0  0  0  0  0  0  0  0  0  0  0  0
  150.4355  137.6000  156.5189 H   0  0  0  0  0  0  0  0  0  0  0  0
  148.3515  139.2093  155.2266 H   0  0  0  0  0  0  0  0  0  0  0  0
  148.9556  139.4289  156.8669 H   0  0  0  0  0  0  0  0  0  0  0  0
  149.5226  141.3569  155.0082 H   0  0  0  0  0  0  0  0  0  0  0  0
  1  2  1  0  0  0  0
  1 19  1  0  0  0  0
  1 20  1  0  0  0  0
  1 21  1  0  0  0  0
  2  3  1  0  0  0  0
  2 22  1  0  0  0  0
  3  4  2  0  0  0  0
  3  5  1  0  0  0  0
  5 10  1  0  0  0  0
  5  6  2  0  0  0  0
  6  7  1  0  0  0  0
  6 23  1  0  0  0  0
  7  8  2  0  0  0  0
  7 24  1  0  0  0  0
  8  9  1  0  0  0  0
  8 25  1  0  0  0  0
  9 10  2  0  0  0  0
 10 11  1  0  0  0  0
 11 12  1  0  0  0  0
 11 26  1  0  0  0  0
 12 17  1  0  0  0  0
 12 13  1  0  0  0  0
 12 27  1  0  0  0  0
 13 14  1  0  0  0  0
 13 28  1  0  0  0  0
 13 29  1  0  0  0  0
 14 18  1  0  0  0  0
 14 15  1  0  0  0  0
 14 30  1  0  0  0  0
 15 16  1  0  0  0  0
 15 31  1  0  0  0  0
 15 32  1  0  0  0  0
 16 17  1  0  0  0  0
 16 33  1  0  0  0  0
 16 34  1  0  0  0  0
 17 18  1  0  0  0  0
 17 35  1  0  0  0  0
M  END
> <s_m_source_file>
AV-unprocessed.smi

> <i_m_source_file_index>
886

> <i_lp_mmshare_version>
43012

> <i_f3d_flags>
0

> <s_epik_input>
W0NIM11bTkhdQyg9TyljMVtjSF1bY0hdW2NIXW5jMVtOSF1bQ0BIXShbQ0gyXVtDQEhdMjMpW0NASF0oTzMpW0NIMl1bQ0gyXTI=

> <s_epik_cmdline>
J2VwaWtfcHl0aG9uJywgJy1waCcsICc3LjAnLCAnLXRuJywgJzgnLCAnLW1hJywgJzIwMCcsICctbWV0YWxfYmluZGluZycsICctaW1hZScsICc8aW5maWxlLm1hZT4nLCAnLW9tYWUnLCAnPG91dGZpbGUubWFlPic=

> <r_lp_tautomer_probability>
1

> <r_epik_Ionization_Penalty>
0.0065447

> <r_epik_Ionization_Penalty_Charging>
0

> <r_epik_Ionization_Penalty_Neutral>
0.0065447

> <r_epik_State_Penalty>
0.00484214

> <r_epik_Charging_Adjusted_Penalty>
0.00484214

> <i_epik_Tot_Q>
0

> <i_epik_Tot_abs_Q>
0

> <r_epik_Metal_State_Penalty>
-0

> <b_epik_Metal_Only>
0

> <s_lp_Force_Field>
OPLS_2005

> <r_lp_Energy>
46.6605

> <b_lp_Chiralities_Consistent>
1

> <s_lp_Variant>
AV-unprocessed.smi:886-4

> <Gold.Version>
5.8.1

> <Gold.Id.Protein>
6NUR|6NUR_protein|mol2

> <Gold.PLP.Fitness>
43.4316

> <Gold.PLP.PLP>
-36.3845

> <Gold.PLP.part.hbond>
-1.9776

> <Gold.PLP.part.metal>
0.0000

> <Gold.PLP.part.buried>
-4.4206

> <Gold.PLP.part.nonpolar>
-30.1533

> <Gold.PLP.part.repulsive>
0.3961

> <Gold.PLP.ligand.clash>
0.0000

> <Gold.PLP.ligand.torsion>
0.9237

> <Gold.PLP.Chemscore.Hbond>
1.9600

> <Gold.PLP.Chemscore.CHOScore>
1.0000

> <Gold.PLP.Chemscore.Metal>
0.0000

> <Gold.Chemscore.Hbonds>
donor molecule, donor type, donor heavy atom, donor atom, acceptor molecule, acceptor atom, score
      P1  H  7989  7998       L1    18  0.98
      P1  H  7997  8009       L1     4  0.96
      L1  C     8    25       P1  8029  1.00

> <Gold.PLP.Chemscore.Internal.Correction>
0.0146

> <Gold.Rescore>
     Score         DG    S(hbond)    S(metal)    S(lipo)     H(rot)  DE(clash)    DE(int)     intcor
     17.19     -19.12       1.81        0.00      86.69       1.00       0.00       1.92       ----

> <Gold.Chemscore.Fitness>
17.1921

> <Gold.Chemscore.DG>
-19.1165

> <Gold.Chemscore.ZeroCoef>
-5.4800

> <Gold.Chemscore.Hbond>
1.8126

> <Gold.Chemscore.Metal>
0.0000

> <Gold.Chemscore.Lipo>
86.6878

> <Gold.Chemscore.Internal_Hbond>
0.0000

> <Gold.Chemscore.DEClash>
0.0000

> <Gold.Chemscore.DEInternal>
1.9244

> <Gold.Chemscore.Rot>
1.0000

> <Gold.Chemscore.Internal.Correction>
   9.000000E+99

> <Gold.Chemscore.Hbonds>
donor molecule, donor type, donor heavy atom, donor atom, acceptor molecule, acceptor atom, score
      P1  H  7989  7998       L1    18  0.66
      P1  H  7997  8009       L1     4  0.87

> <Gold.Chemscore.Hbond.Weighted>
-6.0540

> <Gold.Chemscore.Metal.Weighted>
-0.0000

> <Gold.Chemscore.Lipo.Weighted>
-10.1425

> <Gold.Chemscore.Internal_Hbond.Weighted>
0.0000

> <Gold.Chemscore.DEClash.Weighted>
0.0000

> <Gold.Chemscore.DEInternal.Weighted>
1.9244

> <Gold.Chemscore.Rot.Weighted>
2.5600

> <Gold.Chemscore.Internal.Correction.Weighted>
   9.000000E+99

> <Gold.Protein.RotatedTorsions>
[ 6907 6896 6895 6894 ] final  -47.12 input  -60.11 | X-H torsion
[ 7974 7965 7964 7962 ] final  122.69 input  175.53 | X-H torsion
[ 8008 7997 7996 7995 ] final  146.74 input   59.86 | X-H torsion
[ 10167 10162 10161 10158 ] final  -87.11 input  -65.29 | X-H torsion
[ 10718 10713 10712 10709 ] final  169.66 input   66.30 | X-H torsion
[ 10763 10752 10751 10750 ] final   42.57 input  -60.55 | X-H torsion
[ 11005 11000 10999 10996 ] final -149.43 input  -57.11 | X-H torsion

> <Gold.Protein.ActiveResidues>
 VAL166  LYS551  ARG553  GLY616  TRP617  ASP618  TYR619  PRO620  LYS621  CYS622 
 ASP623  PHE694  ASN695  SER759  ASP760  ASP761  ALA762  ILE779  LEU786  VAL792 
 PHE793  MET794  SER795  GLU796  ALA797  LYS798  CYS799  TRP800  GLU811  SER814 

> <Gold.Protein.RotatedAtoms>
  150.9041  134.8454  159.7379 H   0  0  0  0  0  0  0  0  0  0  0  0  # atno 6907 bound_to 6896
  152.4908  134.4459  159.9568 H   0  0  0  0  0  0  0  0  0  0  0  0  # atno 6908 bound_to 6896
  151.4507  133.3579  159.2830 H   0  0  0  0  0  0  0  0  0  0  0  0  # atno 6909 bound_to 6896
  145.1047  139.3494  143.4794 H   0  0  0  0  0  0  0  0  0  0  0  0  # atno 7974 bound_to 7965
  156.2846  140.2174  156.5425 H   0  0  0  0  0  0  0  0  0  0  0  0  # atno 8008 bound_to 7997
  154.7358  140.0492  157.0789 H   0  0  0  0  0  0  0  0  0  0  0  0  # atno 8009 bound_to 7997
  155.0295  140.3133  155.4767 H   0  0  0  0  0  0  0  0  0  0  0  0  # atno 8010 bound_to 7997
  140.3876  143.2719  151.9305 H   0  0  0  0  0  0  0  0  0  0  0  0  # atno 10167 bound_to 10162
  157.0194  131.0227  151.2779 H   0  0  0  0  0  0  0  0  0  0  0  0  # atno 10718 bound_to 10713
  152.9880  135.6128  154.2970 H   0  0  0  0  0  0  0  0  0  0  0  0  # atno 10763 bound_to 10752
  154.2692  135.2780  155.2747 H   0  0  0  0  0  0  0  0  0  0  0  0  # atno 10764 bound_to 10752
  154.5137  135.5834  153.6682 H   0  0  0  0  0  0  0  0  0  0  0  0  # atno 10765 bound_to 10752
  140.7508  134.3408  157.5126 H   0  0  0  0  0  0  0  0  0  0  0  0  # atno 11005 bound_to 11000
  146.3528  140.0939  142.8611 LP  0  0  0  0  0  0  0  0  0  0  0  0  # atno 17320 bound_to 7965
  145.0916  140.9288  143.4766 LP  0  0  0  0  0  0  0  0  0  0  0  0  # atno 17321 bound_to 7965
  139.4791  144.5758  151.8013 LP  0  0  0  0  0  0  0  0  0  0  0  0  # atno 17342 bound_to 10162
  140.4873  144.1362  150.5943 LP  0  0  0  0  0  0  0  0  0  0  0  0  # atno 17343 bound_to 10162
  157.5261  130.8028  149.7863 LP  0  0  0  0  0  0  0  0  0  0  0  0  # atno 17370 bound_to 10713
  156.0107  130.3834  150.2273 LP  0  0  0  0  0  0  0  0  0  0  0  0  # atno 17371 bound_to 10713
  139.8788  134.9141  156.3099 LP  0  0  0  0  0  0  0  0  0  0  0  0  # atno 17394 bound_to 11000
  140.9752  133.7302  156.0592 LP  0  0  0  0  0  0  0  0  0  0  0  0  # atno 17395 bound_to 11000

$$$$
