AV-unprocessed.smi:697|AV-procd|sdf|3390|dock6
  -GOLD-   22720 0373D 1   1.00000     0.00000
 Structure written by MMmdl.
 44 45  0  0  0  0  0  0  0  0  1 V2000
  150.4072  140.7205  155.6196 C   0  0  0  0  0  0  0  0  0  0  0  0
  149.2324  141.2353  155.0047 O   0  0  0  0  0  0  0  0  0  0  0  0
  147.9712  140.8738  155.5845 C   0  0  2  0  0  0  0  0  0  0  0  0
  147.9161  141.2979  157.0573 C   0  0  0  0  0  0  0  0  0  0  0  0
  147.5997  139.4282  155.2008 C   0  0  0  0  0  0  0  0  0  0  0  0
  147.0648  139.9938  153.8865 C   0  0  1  0  0  0  0  0  0  0  0  0
  145.8489  139.3258  153.4334 N   0  0  0  0  0  0  0  0  0  0  0  0
  145.6967  137.9961  153.3724 C   0  0  0  0  0  0  0  0  0  0  0  0
  146.5691  137.2005  153.7202 O   0  0  0  0  0  0  0  0  0  0  0  0
  144.4958  137.6714  152.8596 N   0  0  0  0  0  0  0  0  0  0  0  0
  143.9486  136.3980  152.6312 C   0  0  0  0  0  0  0  0  0  0  0  0
  144.5383  135.4245  151.8892 C   0  0  0  0  0  0  0  0  0  0  0  0
  143.9211  134.1230  151.6938 C   0  0  0  0  0  0  0  0  0  0  0  0
  144.6146  133.0230  150.9048 C   0  0  0  0  0  0  0  0  0  0  0  0
  145.8222  133.4101  150.4913 F   0  0  0  0  0  0  0  0  0  0  0  0
  144.7647  131.9429  151.6703 F   0  0  0  0  0  0  0  0  0  0  0  0
  143.8977  132.6772  149.8354 F   0  0  0  0  0  0  0  0  0  0  0  0
  142.7439  133.9185  152.3132 C   0  0  0  0  0  0  0  0  0  0  0  0
  142.1324  134.9133  153.0794 N   0  0  0  0  0  0  0  0  0  0  0  0
  142.6557  136.1423  153.2871 C   0  0  0  0  0  0  0  0  0  0  0  0
  142.0582  136.9624  153.9834 O   0  0  0  0  0  0  0  0  0  0  0  0
  146.8326  141.3404  154.6191 C   0  0  0  0  0  0  0  0  0  0  0  0
  145.4480  141.5494  155.2616 C   0  0  0  0  0  0  0  0  0  0  0  0
  147.1025  142.6049  153.7959 C   0  0  0  0  0  0  0  0  0  0  0  0
  141.2451  134.6847  153.5043 H   0  0  0  0  0  0  0  0  0  0  0  0
  151.2669  140.9528  154.9912 H   0  0  0  0  0  0  0  0  0  0  0  0
  150.3718  139.6388  155.7434 H   0  0  0  0  0  0  0  0  0  0  0  0
  150.5879  141.1797  156.5913 H   0  0  0  0  0  0  0  0  0  0  0  0
  146.9318  141.1280  157.4919 H   0  0  0  0  0  0  0  0  0  0  0  0
  148.1465  142.3571  157.1726 H   0  0  0  0  0  0  0  0  0  0  0  0
  148.6175  140.7328  157.6706 H   0  0  0  0  0  0  0  0  0  0  0  0
  148.4306  138.7334  155.0838 H   0  0  0  0  0  0  0  0  0  0  0  0
  146.8251  139.0057  155.8432 H   0  0  0  0  0  0  0  0  0  0  0  0
  147.8479  140.0522  153.1269 H   0  0  0  0  0  0  0  0  0  0  0  0
  145.0877  139.9132  153.1262 H   0  0  0  0  0  0  0  0  0  0  0  0
  143.9201  138.4385  152.5439 H   0  0  0  0  0  0  0  0  0  0  0  0
  145.4997  135.5864  151.4288 H   0  0  0  0  0  0  0  0  0  0  0  0
  142.1891  132.9924  152.2759 H   0  0  0  0  0  0  0  0  0  0  0  0
  144.6723  141.6948  154.5089 H   0  0  0  0  0  0  0  0  0  0  0  0
  145.4368  142.4279  155.9077 H   0  0  0  0  0  0  0  0  0  0  0  0
  145.1431  140.6988  155.8715 H   0  0  0  0  0  0  0  0  0  0  0  0
  146.2922  142.8067  153.0945 H   0  0  0  0  0  0  0  0  0  0  0  0
  148.0129  142.5203  153.2023 H   0  0  0  0  0  0  0  0  0  0  0  0
  147.2122  143.4809  154.4355 H   0  0  0  0  0  0  0  0  0  0  0  0
  1  2  1  0  0  0  0
  1 26  1  0  0  0  0
  1 27  1  0  0  0  0
  1 28  1  0  0  0  0
  2  3  1  0  0  0  0
  3 22  1  0  0  0  0
  3  4  1  0  0  0  0
  3  5  1  0  0  0  0
  4 29  1  0  0  0  0
  4 30  1  0  0  0  0
  4 31  1  0  0  0  0
  5  6  1  0  0  0  0
  5 32  1  0  0  0  0
  5 33  1  0  0  0  0
  6  7  1  0  0  0  0
  6 22  1  0  0  0  0
  6 34  1  0  0  0  0
  7  8  1  0  0  0  0
  7 35  1  0  0  0  0
  8  9  2  0  0  0  0
  8 10  1  0  0  0  0
 10 11  1  0  0  0  0
 10 36  1  0  0  0  0
 11 20  1  0  0  0  0
 11 12  2  0  0  0  0
 12 13  1  0  0  0  0
 12 37  1  0  0  0  0
 13 14  1  0  0  0  0
 13 18  2  0  0  0  0
 14 15  1  0  0  0  0
 14 16  1  0  0  0  0
 14 17  1  0  0  0  0
 18 19  1  0  0  0  0
 18 38  1  0  0  0  0
 19 25  1  0  0  0  0
 19 20  1  0  0  0  0
 20 21  2  0  0  0  0
 22 23  1  0  0  0  0
 22 24  1  0  0  0  0
 23 39  1  0  0  0  0
 23 40  1  0  0  0  0
 23 41  1  0  0  0  0
 24 42  1  0  0  0  0
 24 43  1  0  0  0  0
 24 44  1  0  0  0  0
M  END
> <s_m_source_file>
AV-unprocessed.smi

> <i_m_source_file_index>
697

> <i_lp_mmshare_version>
43012

> <i_f3d_flags>
0

> <s_epik_input>
W0NIM11PW0NAQF0xKFtDSDNdKVtDSDJdW0NASF0oQzEoW0NIM10pW0NIM10pW05IXUMoPU8pW05IXWMyW2NIXWMoQyhGKShGKUYpW2NIXVtuSF1jMj1P

> <s_epik_cmdline>
J2VwaWtfcHl0aG9uJywgJy1waCcsICc3LjAnLCAnLXRuJywgJzgnLCAnLW1hJywgJzIwMCcsICctbWV0YWxfYmluZGluZycsICctaW1hZScsICc8aW5maWxlLm1hZT4nLCAnLW9tYWUnLCAnPG91dGZpbGUubWFlPic=

> <r_lp_tautomer_probability>
1

> <r_epik_Ionization_Penalty>
0.0036482

> <r_epik_Ionization_Penalty_Charging>
0.00362828

> <r_epik_Ionization_Penalty_Neutral>
1.99208e-05

> <r_epik_State_Penalty>
-0

> <r_epik_Charging_Adjusted_Penalty>
0.00362828

> <i_epik_Tot_Q>
0

> <i_epik_Tot_abs_Q>
0

> <r_epik_Metal_State_Penalty>
0.369362

> <b_epik_Metal_Only>
0

> <s_lp_Force_Field>
OPLS_2005

> <r_lp_Energy>
34.8139

> <b_lp_Chiralities_Consistent>
1

> <s_lp_Variant>
AV-unprocessed.smi:697-2

> <Gold.Version>
5.8.1

> <Gold.Id.Protein>
6NUR|6NUR_protein|mol2

> <Gold.PLP.Fitness>
40.2722

> <Gold.PLP.PLP>
-35.4009

> <Gold.PLP.part.hbond>
-2.3064

> <Gold.PLP.part.metal>
0.0000

> <Gold.PLP.part.buried>
-7.6006

> <Gold.PLP.part.nonpolar>
-27.2331

> <Gold.PLP.part.repulsive>
0.3513

> <Gold.PLP.ligand.clash>
0.0000

> <Gold.PLP.ligand.torsion>
0.9062

> <Gold.PLP.Chemscore.Hbond>
1.9600

> <Gold.PLP.Chemscore.CHOScore>
0.1336

> <Gold.PLP.Chemscore.Metal>
0.0000

> <Gold.Chemscore.Hbonds>
donor molecule, donor type, donor heavy atom, donor atom, acceptor molecule, acceptor atom, score
      L1  H     7    35       P1 10175  1.00
      L1  H    10    36       P1 10175  0.96
      L1  C    18    38       P1 10957  0.13

> <Gold.PLP.Chemscore.Internal.Correction>
0.4029

> <Gold.Rescore>
     Score         DG    S(hbond)    S(metal)    S(lipo)     H(rot)  DE(clash)    DE(int)     intcor
     13.40     -15.55       1.92        0.00      59.92       1.31       0.02       2.13       ----

> <Gold.Chemscore.Fitness>
13.3973

> <Gold.Chemscore.DG>
-15.5472

> <Gold.Chemscore.ZeroCoef>
-5.4800

> <Gold.Chemscore.Hbond>
1.9163

> <Gold.Chemscore.Metal>
0.0000

> <Gold.Chemscore.Lipo>
59.9202

> <Gold.Chemscore.Internal_Hbond>
0.0000

> <Gold.Chemscore.DEClash>
0.0224

> <Gold.Chemscore.DEInternal>
2.1276

> <Gold.Chemscore.Rot>
1.3062

> <Gold.Chemscore.Internal.Correction>
   9.000000E+99

> <Gold.Chemscore.Hbonds>
donor molecule, donor type, donor heavy atom, donor atom, acceptor molecule, acceptor atom, score
      L1  H     7    35       P1 10175  1.00
      L1  H    10    36       P1 10175  0.87

> <Gold.Chemscore.Hbond.Weighted>
-6.4006

> <Gold.Chemscore.Metal.Weighted>
-0.0000

> <Gold.Chemscore.Lipo.Weighted>
-7.0107

> <Gold.Chemscore.Internal_Hbond.Weighted>
0.0000

> <Gold.Chemscore.DEClash.Weighted>
0.0224

> <Gold.Chemscore.DEInternal.Weighted>
2.1276

> <Gold.Chemscore.Rot.Weighted>
3.3440

> <Gold.Chemscore.Internal.Correction.Weighted>
   9.000000E+99

> <Gold.Protein.RotatedTorsions>
[ 6907 6896 6895 6894 ] final  -49.23 input  -60.11 | X-H torsion
[ 7974 7965 7964 7962 ] final  115.27 input  175.53 | X-H torsion
[ 8008 7997 7996 7995 ] final  169.43 input   59.86 | X-H torsion
[ 10167 10162 10161 10158 ] final   18.76 input  -65.29 | X-H torsion
[ 10718 10713 10712 10709 ] final  -88.22 input   66.30 | X-H torsion
[ 10763 10752 10751 10750 ] final  141.68 input  -60.55 | X-H torsion
[ 11005 11000 10999 10996 ] final  132.35 input  -57.11 | X-H torsion

> <Gold.Protein.ActiveResidues>
 VAL166  LYS551  ARG553  GLY616  TRP617  ASP618  TYR619  PRO620  LYS621  CYS622 
 ASP623  PHE694  ASN695  SER759  ASP760  ASP761  ALA762  ILE779  LEU786  VAL792 
 PHE793  MET794  SER795  GLU796  ALA797  LYS798  CYS799  TRP800  GLU811  SER814 

> <Gold.Protein.RotatedAtoms>
  150.8826  134.8219  159.7235 H   0  0  0  0  0  0  0  0  0  0  0  0  # atno 6907 bound_to 6896
  152.4787  134.4773  159.9664 H   0  0  0  0  0  0  0  0  0  0  0  0  # atno 6908 bound_to 6896
  151.4846  133.3500  159.2879 H   0  0  0  0  0  0  0  0  0  0  0  0  # atno 6909 bound_to 6896
  145.1941  139.2985  143.4352 H   0  0  0  0  0  0  0  0  0  0  0  0  # atno 7974 bound_to 7965
  156.1457  140.1564  156.8850 H   0  0  0  0  0  0  0  0  0  0  0  0  # atno 8008 bound_to 7997
  154.5026  140.0821  156.7868 H   0  0  0  0  0  0  0  0  0  0  0  0  # atno 8009 bound_to 7997
  155.3992  140.3413  155.4258 H   0  0  0  0  0  0  0  0  0  0  0  0  # atno 8010 bound_to 7997
  140.5629  143.9304  150.6656 H   0  0  0  0  0  0  0  0  0  0  0  0  # atno 10167 bound_to 10162
  155.9984  130.4828  150.4986 H   0  0  0  0  0  0  0  0  0  0  0  0  # atno 10718 bound_to 10713
  153.9433  135.2977  155.3442 H   0  0  0  0  0  0  0  0  0  0  0  0  # atno 10763 bound_to 10752
  154.7465  135.5000  153.9217 H   0  0  0  0  0  0  0  0  0  0  0  0  # atno 10764 bound_to 10752
  153.1031  135.6739  153.9743 H   0  0  0  0  0  0  0  0  0  0  0  0  # atno 10765 bound_to 10752
  139.9785  134.9556  156.9569 H   0  0  0  0  0  0  0  0  0  0  0  0  # atno 11005 bound_to 11000
  146.3430  140.2164  142.8591 LP  0  0  0  0  0  0  0  0  0  0  0  0  # atno 17320 bound_to 7965
  145.0012  140.8633  143.5280 LP  0  0  0  0  0  0  0  0  0  0  0  0  # atno 17321 bound_to 7965
  140.2759  143.3423  152.1195 LP  0  0  0  0  0  0  0  0  0  0  0  0  # atno 17342 bound_to 10162
  139.5079  144.6840  151.5936 LP  0  0  0  0  0  0  0  0  0  0  0  0  # atno 17343 bound_to 10162
  157.2973  131.0638  151.2092 LP  0  0  0  0  0  0  0  0  0  0  0  0  # atno 17370 bound_to 10713
  157.3084  130.6877  149.6202 LP  0  0  0  0  0  0  0  0  0  0  0  0  # atno 17371 bound_to 10713
  140.5146  134.0968  155.7278 LP  0  0  0  0  0  0  0  0  0  0  0  0  # atno 17394 bound_to 11000
  141.1459  133.9055  157.2216 LP  0  0  0  0  0  0  0  0  0  0  0  0  # atno 17395 bound_to 11000

$$$$
