#       Name:                AV-unprocessed.smi:221
#       Creating user name   scv26
#       Creation time:       Thu Mar 26 20:15:17 2020


#       File generated by GOLD software.
#

@<TRIPOS>MOLECULE
AV-unprocessed.smi:221
    59    62     1
SMALL
NO_CHARGES


@<TRIPOS>ATOM
      1 ****        -2.9404   3.1027  -2.9994 N.am           1 S1                 0.0000
      2 ****        -3.2776   2.9130  -1.7215 C.2            1 S1                 0.0000
      3 ****        -4.2839   2.2825  -1.4005 O.2            1 S1                 0.0000
      4 ****        -2.3422   3.5270  -0.6628 C.3            1 S1                 0.0000
      5 ****        -2.6854   5.0006  -0.3772 C.3            1 S1                 0.0000
      6 ****        -3.6582   4.9577   0.8017 C.3            1 S1                 0.0000
      7 ****        -4.9013   4.7567   0.3617 F              1 S1                 0.0000
      8 ****        -3.1886   3.7420   1.6019 C.3            1 S1                 0.0000
      9 ****        -2.4836   2.8906   0.6476 N.pl3          1 S1                 0.0000
     10 ****        -1.9509   1.6874   1.0013 C.ar           1 S1                 0.0000
     11 ****        -2.1870   1.2382   2.2631 N.ar           1 S1                 0.0000
     12 ****        -1.6992   0.0664   2.6767 C.ar           1 S1                 0.0000
     13 ****        -0.9551  -0.8098   2.0029 N.ar           1 S1                 0.0000
     14 ****        -0.7065  -0.3719   0.7363 C.ar           1 S1                 0.0000
     15 ****        -1.1573   0.8510   0.1566 C.ar           1 S1                 0.0000
     16 ****        -0.6896   0.9364  -1.1517 N.2            1 S1                 0.0000
     17 ****        -0.0101  -0.1618  -1.3324 C.2            1 S1                 0.0000
     18 ****         0.0350  -1.0031  -0.2470 N.pl3          1 S1                 0.0000
     19 ****         0.7190  -2.2819  -0.1719 C.3            1 S1                 0.0000
     20 ****         2.2577  -2.1655  -0.0093 C.3            1 S1                 0.0000
     21 ****         2.6603  -1.3000   1.2125 C.3            1 S1                 0.0000
     22 ****         2.5598   0.0817   0.9346 O.3            1 S1                 0.0000
     23 ****         2.8994  -3.5752   0.0732 C.3            1 S1                 0.0000
     24 ****         2.6059  -4.4845  -1.1088 C.3            1 S1                 0.0000
     25 ****         3.6993  -5.5367  -0.9820 C.3            1 S1                 0.0000
     26 ****         4.8373  -4.8302  -0.5080 O.3            1 S1                 0.0000
     27 ****         4.4351  -3.5879   0.0624 C.3            1 S1                 0.0000
     28 ****        -1.3101   3.4709  -1.0096 H              1 S1                 0.0000
     29 ****        -3.6668   5.8777   1.3867 H              1 S1                 0.0000
     30 ****        -3.5184   2.7166  -3.7316 H              1 S1                 0.0000
     31 ****        -2.1085   3.6264  -3.2293 H              1 S1                 0.0000
     32 ****        -1.7789   5.5263  -0.0743 H              1 S1                 0.0000
     33 ****        -3.0923   5.5334  -1.2381 H              1 S1                 0.0000
     34 ****        -2.4912   4.0495   2.3823 H              1 S1                 0.0000
     35 ****        -4.0258   3.2267   2.0750 H              1 S1                 0.0000
     36 ****        -1.9403  -0.2079   3.6931 H              1 S1                 0.0000
     37 ****         0.4852  -0.3873  -2.2656 H              1 S1                 0.0000
     38 ****         0.2976  -2.8528   0.6563 H              1 S1                 0.0000
     39 ****         0.4693  -2.8317  -1.0793 H              1 S1                 0.0000
     40 ****         2.6545  -1.6846  -0.9051 H              1 S1                 0.0000
     41 ****         2.0477  -1.5459   2.0804 H              1 S1                 0.0000
     42 ****         3.6949  -1.4767   1.5023 H              1 S1                 0.0000
     43 ****         2.8005   0.5627   1.7118 H              1 S1                 0.0000
     44 ****         2.5558  -4.0754   0.9805 H              1 S1                 0.0000
     45 ****         1.6078  -4.9223  -1.0810 H              1 S1                 0.0000
     46 ****         2.7168  -3.9407  -2.0481 H              1 S1                 0.0000
     47 ****         3.4200  -6.2879  -0.2424 H              1 S1                 0.0000
     48 ****         3.9060  -6.0452  -1.9238 H              1 S1                 0.0000
     49 ****         4.8285  -2.7854  -0.5629 H              1 S1                 0.0000
     50 ****         4.8561  -3.4723   1.0614 H              1 S1                 0.0000
     51 ****        -4.8770   1.8944  -2.1059 LP             1 S1                 0.0000
     52 ****        -4.5089   2.1580  -0.4341 LP             1 S1                 0.0000
     53 ****        -2.7337   1.7935   2.8899 LP             1 S1                 0.0000
     54 ****        -0.6226  -1.6753   2.3775 LP             1 S1                 0.0000
     55 ****        -0.8411   1.6759  -1.8075 LP             1 S1                 0.0000
     56 ****         1.6201   0.3063   0.6766 LP             1 S1                 0.0000
     57 ****         3.1774   0.3208   0.1853 LP             1 S1                 0.0000
     58 ****         5.4618  -4.6583  -1.2699 LP             1 S1                 0.0000
     59 ****         5.3023  -5.3788   0.1869 LP             1 S1                 0.0000
@<TRIPOS>BOND
    1    1    2 am    
    2    1   30 1     
    3    1   31 1     
    4    2    3 2     
    5    2    4 1     
    6    4   28 1     
    7    4    9 1     
    8    4    5 1     
    9    5    6 1     
   10    5   32 1     
   11    5   33 1     
   12    6   29 1     
   13    6    7 1     
   14    6    8 1     
   15    8    9 1     
   16    8   34 1     
   17    8   35 1     
   18    9   10 1     
   19   10   15 ar    
   20   10   11 ar    
   21   11   12 ar    
   22   12   13 ar    
   23   12   36 1     
   24   13   14 ar    
   25   14   18 1     
   26   14   15 ar    
   27   15   16 1     
   28   16   17 2     
   29   17   18 1     
   30   17   37 1     
   31   18   19 1     
   32   19   20 1     
   33   19   38 1     
   34   19   39 1     
   35   20   21 1     
   36   20   23 1     
   37   20   40 1     
   38   21   22 1     
   39   21   41 1     
   40   21   42 1     
   41   22   43 1     
   42   23   27 1     
   43   23   24 1     
   44   23   44 1     
   45   24   25 1     
   46   24   45 1     
   47   24   46 1     
   48   25   26 1     
   49   25   47 1     
   50   25   48 1     
   51   26   27 1     
   52   27   49 1     
   53   27   50 1     
   54    3   51 1     
   55    3   52 1     
   56   11   53 1     
   57   13   54 1     
   58   16   55 1     
   59   22   56 1     
   60   22   57 1     
   61   26   58 1     
   62   26   59 1     
@<TRIPOS>SUBSTRUCTURE
      1 S1             1
@<TRIPOS>SET
LONE_PAIRS      STATIC     ATOMS    <user>   **** ""
9 51 52 53 54 55 56 57 58 59
DONOR_HYDROGENS      STATIC     ATOMS    <user>   **** ""
3 30 31 43
ATOM$BLUE        STATIC     ATOMS    COLORGROUP SYSTEM
9 51 52 53 54 55 56 57 58 59
ATOM$RED        STATIC     ATOMS    COLORGROUP SYSTEM
3 30 31 43
