AV-unprocessed.smi:3314|AV-procd|sdf|12733|dock9
  -GOLD-   2272019 73D 1   1.00000     0.00000
 Structure written by MMmdl.
 38 39  0  0  0  0  0  0  0  0  2 V2000
  153.4531  141.0680  160.4469 C   0  0  0  0  0  0  0  0  0  0  0  0
  152.6977  142.1697  159.7332 C   0  0  0  0  0  0  0  0  0  0  0  0
  152.6979  143.4869  160.2305 C   0  0  0  0  0  0  0  0  0  0  0  0
  151.9780  144.4665  159.5189 C   0  0  0  0  0  0  0  0  0  0  0  0
  151.9342  145.9023  159.9975 C   0  0  0  0  0  0  0  0  0  0  0  0
  151.2922  144.1994  158.3866 N   0  0  0  0  0  0  0  0  0  0  0  0
  151.2873  142.9346  157.8976 C   0  0  0  0  0  0  0  0  0  0  0  0
  150.5990  142.5510  156.7166 N   0  0  0  0  0  0  0  0  0  0  0  0
  150.0909  141.3448  156.4019 C   0  0  0  0  0  0  0  0  0  0  0  0
  150.1388  140.3543  157.1328 O   0  0  0  0  0  0  0  0  0  0  0  0
  149.4118  141.2591  155.0213 C   0  0  2  0  0  0  0  0  0  0  0  0
  147.9198  140.8487  155.0559 C   0  0  0  0  0  0  0  0  0  0  0  0
  147.7604  139.4162  155.4029 N   0  3  1  0  0  0  0  0  0  0  0  0
  146.3437  139.0034  155.4880 C   0  0  0  0  0  0  0  0  0  0  0  0
  148.5521  138.5617  154.4901 C   0  0  0  0  0  0  0  0  0  0  0  0
  150.0281  138.9905  154.5034 C   0  0  0  0  0  0  0  0  0  0  0  0
  150.1313  140.3723  154.1593 O   0  0  0  0  0  0  0  0  0  0  0  0
  151.9805  141.8922  158.5522 C   0  0  0  0  0  0  0  0  0  0  0  0
  153.9340  141.4386  161.3526 H   0  0  0  0  0  0  0  0  0  0  0  0
  154.2240  140.6562  159.7952 H   0  0  0  0  0  0  0  0  0  0  0  0
  152.7733  140.2630  160.7269 H   0  0  0  0  0  0  0  0  0  0  0  0
  153.2355  143.7400  161.1329 H   0  0  0  0  0  0  0  0  0  0  0  0
  152.5670  146.0470  160.8736 H   0  0  0  0  0  0  0  0  0  0  0  0
  150.9144  146.1815  160.2635 H   0  0  0  0  0  0  0  0  0  0  0  0
  152.2820  146.5752  159.2132 H   0  0  0  0  0  0  0  0  0  0  0  0
  150.4732  143.2820  156.0316 H   0  0  0  0  0  0  0  0  0  0  0  0
  149.4747  142.2549  154.5807 H   0  0  0  0  0  0  0  0  0  0  0  0
  147.3729  141.4652  155.7711 H   0  0  0  0  0  0  0  0  0  0  0  0
  147.4688  141.0331  154.0795 H   0  0  0  0  0  0  0  0  0  0  0  0
  145.8500  139.0931  154.5193 H   0  0  0  0  0  0  0  0  0  0  0  0
  145.8055  139.6234  156.2057 H   0  0  0  0  0  0  0  0  0  0  0  0
  146.2652  137.9672  155.8181 H   0  0  0  0  0  0  0  0  0  0  0  0
  148.4670  137.5177  154.7937 H   0  0  0  0  0  0  0  0  0  0  0  0
  148.1502  138.6351  153.4783 H   0  0  0  0  0  0  0  0  0  0  0  0
  150.4823  138.7920  155.4750 H   0  0  0  0  0  0  0  0  0  0  0  0
  150.5912  138.4075  153.7746 H   0  0  0  0  0  0  0  0  0  0  0  0
  151.9676  140.8880  158.1532 H   0  0  0  0  0  0  0  0  0  0  0  0
  148.1530  139.2985  156.3269 H   0  0  0  0  0  0  0  0  0  0  0  0
  1  2  1  0  0  0  0
  1 19  1  0  0  0  0
  1 20  1  0  0  0  0
  1 21  1  0  0  0  0
  2 18  1  0  0  0  0
  2  3  2  0  0  0  0
  3  4  1  0  0  0  0
  3 22  1  0  0  0  0
  4  5  1  0  0  0  0
  4  6  2  0  0  0  0
  5 23  1  0  0  0  0
  5 24  1  0  0  0  0
  5 25  1  0  0  0  0
  6  7  1  0  0  0  0
  7  8  1  0  0  0  0
  7 18  2  0  0  0  0
  8  9  1  0  0  0  0
  8 26  1  0  0  0  0
  9 10  2  0  0  0  0
  9 11  1  0  0  0  0
 11 17  1  0  0  0  0
 11 12  1  0  0  0  0
 11 27  1  0  0  0  0
 12 13  1  0  0  0  0
 12 28  1  0  0  0  0
 12 29  1  0  0  0  0
 13 14  1  0  0  0  0
 13 15  1  0  0  0  0
 13 38  1  0  0  0  0
 14 30  1  0  0  0  0
 14 31  1  0  0  0  0
 14 32  1  0  0  0  0
 15 16  1  0  0  0  0
 15 33  1  0  0  0  0
 15 34  1  0  0  0  0
 16 17  1  0  0  0  0
 16 35  1  0  0  0  0
 16 36  1  0  0  0  0
 18 37  1  0  0  0  0
M  CHG  1  13   1
M  END
> <s_m_source_file>
AV-unprocessed.smi

> <i_m_source_file_index>
3314

> <i_lp_mmshare_version>
43012

> <i_f3d_flags>
0

> <s_epik_input>
W0NIM11jMVtjSF1jKFtDSDNdKW5jKFtjSF0xKVtOSF1DKD1PKVtDQEBIXTJbQ0gyXU4oW0NIM10pW0NIMl1bQ0gyXU8y

> <s_epik_cmdline>
J2VwaWtfcHl0aG9uJywgJy1waCcsICc3LjAnLCAnLXRuJywgJzgnLCAnLW1hJywgJzIwMCcsICctbWV0YWxfYmluZGluZycsICctaW1hZScsICc8aW5maWxlLm1hZT4nLCAnLW9tYWUnLCAnPG91dGZpbGUubWFlPic=

> <r_epik_Ionization_Penalty>
0.32442

> <r_epik_Ionization_Penalty_Charging>
0.314023

> <r_epik_Ionization_Penalty_Neutral>
0.0103972

> <r_epik_State_Penalty>
0.29453

> <r_epik_Charging_Adjusted_Penalty>
0.608553

> <i_epik_Tot_Q>
1

> <i_epik_Tot_abs_Q>
1

> <r_epik_Metal_State_Penalty>
0.286909

> <b_epik_Metal_Only>
0

> <s_lp_Force_Field>
OPLS_2005

> <r_lp_Energy>
14.9445

> <b_lp_Chiralities_Consistent>
1

> <s_lp_Variant>
AV-unprocessed.smi:3314-3

> <Gold.Version>
5.8.1

> <Gold.Id.Protein>
6NUR|6NUR_protein|mol2

> <Gold.PLP.Fitness>
42.0217

> <Gold.PLP.PLP>
-37.9500

> <Gold.PLP.part.hbond>
-1.9762

> <Gold.PLP.part.metal>
0.0000

> <Gold.PLP.part.buried>
-5.7186

> <Gold.PLP.part.nonpolar>
-31.4932

> <Gold.PLP.part.repulsive>
0.9928

> <Gold.PLP.ligand.clash>
0.0000

> <Gold.PLP.ligand.torsion>
0.1900

> <Gold.PLP.Chemscore.Hbond>
1.4768

> <Gold.PLP.Chemscore.CHOScore>
0.0000

> <Gold.PLP.Chemscore.Metal>
0.0000

> <Gold.Chemscore.Hbonds>
donor molecule, donor type, donor heavy atom, donor atom, acceptor molecule, acceptor atom, score
      L1  H     8    26       P1  8028  0.45
      P1  H  7989  7998       L1    17  0.86

> <Gold.PLP.Chemscore.Internal.Correction>
0.0214

> <Gold.Rescore>
     Score         DG    S(hbond)    S(metal)    S(lipo)     H(rot)  DE(clash)    DE(int)     intcor
     15.66     -18.58       1.61        0.00      87.79       1.00       0.18       2.74       ----

> <Gold.Chemscore.Fitness>
15.6610

> <Gold.Chemscore.DG>
-18.5827

> <Gold.Chemscore.ZeroCoef>
-5.4800

> <Gold.Chemscore.Hbond>
1.6143

> <Gold.Chemscore.Metal>
0.0000

> <Gold.Chemscore.Lipo>
87.7852

> <Gold.Chemscore.Internal_Hbond>
0.0000

> <Gold.Chemscore.DEClash>
0.1771

> <Gold.Chemscore.DEInternal>
2.7446

> <Gold.Chemscore.Rot>
1.0000

> <Gold.Chemscore.Internal.Correction>
   9.000000E+99

> <Gold.Chemscore.Hbonds>
donor molecule, donor type, donor heavy atom, donor atom, acceptor molecule, acceptor atom, score
      L1  H     8    26       P1  8028  0.45
      P1  H  7989  7998       L1    17  0.79

> <Gold.Chemscore.Hbond.Weighted>
-5.3918

> <Gold.Chemscore.Metal.Weighted>
-0.0000

> <Gold.Chemscore.Lipo.Weighted>
-10.2709

> <Gold.Chemscore.Internal_Hbond.Weighted>
0.0000

> <Gold.Chemscore.DEClash.Weighted>
0.1771

> <Gold.Chemscore.DEInternal.Weighted>
2.7446

> <Gold.Chemscore.Rot.Weighted>
2.5600

> <Gold.Chemscore.Internal.Correction.Weighted>
   9.000000E+99

> <Gold.Protein.RotatedTorsions>
[ 6907 6896 6895 6894 ] final   66.99 input  -60.11 | X-H torsion
[ 7974 7965 7964 7962 ] final  -64.51 input  175.53 | X-H torsion
[ 8008 7997 7996 7995 ] final  132.12 input   59.86 | X-H torsion
[ 10167 10162 10161 10158 ] final   16.73 input  -65.29 | X-H torsion
[ 10718 10713 10712 10709 ] final -106.23 input   66.30 | X-H torsion
[ 10763 10752 10751 10750 ] final  -49.28 input  -60.55 | X-H torsion
[ 11005 11000 10999 10996 ] final  -48.62 input  -57.11 | X-H torsion

> <Gold.Protein.ActiveResidues>
 VAL166  LYS551  ARG553  GLY616  TRP617  ASP618  TYR619  PRO620  LYS621  CYS622 
 ASP623  PHE694  ASN695  SER759  ASP760  ASP761  ALA762  ILE779  LEU786  VAL792 
 PHE793  MET794  SER795  GLU796  ALA797  LYS798  CYS799  TRP800  GLU811  SER814 

> <Gold.Protein.RotatedAtoms>
  152.4520  134.5373  159.9828 H   0  0  0  0  0  0  0  0  0  0  0  0  # atno 6907 bound_to 6896
  151.5443  133.3422  159.2949 H   0  0  0  0  0  0  0  0  0  0  0  0  # atno 6908 bound_to 6896
  150.8452  134.7790  159.7028 H   0  0  0  0  0  0  0  0  0  0  0  0  # atno 6909 bound_to 6896
  145.7658  140.8838  143.0406 H   0  0  0  0  0  0  0  0  0  0  0  0  # atno 7974 bound_to 7965
  156.2979  140.2554  156.3037 H   0  0  0  0  0  0  0  0  0  0  0  0  # atno 8008 bound_to 7997
  154.9393  140.0396  157.2107 H   0  0  0  0  0  0  0  0  0  0  0  0  # atno 8009 bound_to 7997
  154.8142  140.2849  155.5836 H   0  0  0  0  0  0  0  0  0  0  0  0  # atno 8010 bound_to 7997
  140.5777  143.9042  150.6763 H   0  0  0  0  0  0  0  0  0  0  0  0  # atno 10167 bound_to 10162
  156.0381  130.5602  150.7651 H   0  0  0  0  0  0  0  0  0  0  0  0  # atno 10718 bound_to 10713
  154.0915  135.6576  153.4853 H   0  0  0  0  0  0  0  0  0  0  0  0  # atno 10763 bound_to 10752
  153.0320  135.5203  154.7375 H   0  0  0  0  0  0  0  0  0  0  0  0  # atno 10764 bound_to 10752
  154.6501  135.3000  154.9967 H   0  0  0  0  0  0  0  0  0  0  0  0  # atno 10765 bound_to 10752
  141.0712  133.6679  156.3468 H   0  0  0  0  0  0  0  0  0  0  0  0  # atno 11005 bound_to 11000
  144.6822  139.9786  143.7483 LP  0  0  0  0  0  0  0  0  0  0  0  0  # atno 17320 bound_to 7965
  146.0219  139.3258  143.0808 LP  0  0  0  0  0  0  0  0  0  0  0  0  # atno 17321 bound_to 7965
  140.2533  143.3577  152.1387 LP  0  0  0  0  0  0  0  0  0  0  0  0  # atno 17342 bound_to 10162
  139.5152  144.6959  151.5632 LP  0  0  0  0  0  0  0  0  0  0  0  0  # atno 17343 bound_to 10162
  157.5160  131.0928  151.0138 LP  0  0  0  0  0  0  0  0  0  0  0  0  # atno 17370 bound_to 10713
  157.0481  130.5776  149.5366 LP  0  0  0  0  0  0  0  0  0  0  0  0  # atno 17371 bound_to 10713
  140.5670  134.5878  157.5448 LP  0  0  0  0  0  0  0  0  0  0  0  0  # atno 17394 bound_to 11000
  139.9525  134.7592  156.0416 LP  0  0  0  0  0  0  0  0  0  0  0  0  # atno 17395 bound_to 11000

$$$$
