AV-unprocessed.smi:1227|AV-procd|sdf|5146|dock5
  -GOLD-   22720 4213D 1   1.00000     0.00000
 Structure written by MMmdl.
 44 45  0  0  0  0  0  0  0  0  1 V2000
  153.3373  143.5415  163.5867 C   0  0  0  0  0  0  0  0  0  0  0  0
  153.2066  142.4657  162.6638 O   0  0  0  0  0  0  0  0  0  0  0  0
  152.6220  142.7155  161.4366 C   0  0  0  0  0  0  0  0  0  0  0  0
  152.0877  143.9429  161.2164 N   0  0  0  0  0  0  0  0  0  0  0  0
  151.5129  144.1893  160.0219 C   0  0  0  0  0  0  0  0  0  0  0  0
  151.4368  143.2332  158.9932 C   0  0  0  0  0  0  0  0  0  0  0  0
  151.9895  141.9590  159.2186 C   0  0  0  0  0  0  0  0  0  0  0  0
  152.6055  141.6863  160.4654 C   0  0  0  0  0  0  0  0  0  0  0  0
  153.1864  140.4347  160.8169 N   0  0  0  0  0  0  0  0  0  0  0  0
  153.3776  139.3371  160.0650 C   0  0  0  0  0  0  0  0  0  0  0  0
  153.0775  139.2183  158.8775 O   0  0  0  0  0  0  0  0  0  0  0  0
  153.9602  138.3631  160.7779 N   0  0  0  0  0  0  0  0  0  0  0  0
  154.2981  137.0396  160.2686 C   0  0  0  0  0  0  0  0  0  0  0  0
  155.3214  136.3253  161.1717 C   0  0  0  0  0  0  0  0  0  0  0  0
  154.6602  135.6714  162.3107 N   0  0  0  0  0  0  0  0  0  0  0  0
  153.8578  136.5529  163.1729 C   0  0  0  0  0  0  0  0  0  0  0  0
  154.4238  136.6617  164.6023 C   0  0  0  0  0  0  0  0  0  0  0  0
  154.0365  135.4921  165.5195 C   0  0  0  0  0  0  0  0  0  0  0  0
  154.5812  134.1286  165.0706 C   0  0  0  0  0  0  0  0  0  0  0  0
  154.0530  133.6882  163.6953 C   0  0  0  0  0  0  0  0  0  0  0  0
  154.8113  134.3439  162.5342 C   0  0  0  0  0  0  0  0  0  0  0  0
  155.5253  133.6290  161.8296 O   0  0  0  0  0  0  0  0  0  0  0  0
  153.8115  143.1785  164.4985 H   0  0  0  0  0  0  0  0  0  0  0  0
  152.3643  143.9511  163.8614 H   0  0  0  0  0  0  0  0  0  0  0  0
  153.9620  144.3401  163.1843 H   0  0  0  0  0  0  0  0  0  0  0  0
  151.0972  145.1765  159.8838 H   0  0  0  0  0  0  0  0  0  0  0  0
  150.9610  143.4702  158.0532 H   0  0  0  0  0  0  0  0  0  0  0  0
  151.9161  141.2234  158.4340 H   0  0  0  0  0  0  0  0  0  0  0  0
  153.5334  140.3810  161.7635 H   0  0  0  0  0  0  0  0  0  0  0  0
  154.1794  138.5473  161.7461 H   0  0  0  0  0  0  0  0  0  0  0  0
  153.3756  136.4613  160.2115 H   0  0  0  0  0  0  0  0  0  0  0  0
  154.6775  137.1182  159.2484 H   0  0  0  0  0  0  0  0  0  0  0  0
  155.8952  135.6016  160.5919 H   0  0  0  0  0  0  0  0  0  0  0  0
  156.0637  137.0418  161.5280 H   0  0  0  0  0  0  0  0  0  0  0  0
  153.8263  137.5594  162.7551 H   0  0  0  0  0  0  0  0  0  0  0  0
  152.8192  136.2200  163.1901 H   0  0  0  0  0  0  0  0  0  0  0  0
  155.5081  136.7771  164.5717 H   0  0  0  0  0  0  0  0  0  0  0  0
  154.0408  137.5779  165.0529 H   0  0  0  0  0  0  0  0  0  0  0  0
  154.4023  135.7004  166.5255 H   0  0  0  0  0  0  0  0  0  0  0  0
  152.9502  135.4401  165.6030 H   0  0  0  0  0  0  0  0  0  0  0  0
  155.6723  134.1452  165.0717 H   0  0  0  0  0  0  0  0  0  0  0  0
  154.2954  133.3807  165.8108 H   0  0  0  0  0  0  0  0  0  0  0  0
  154.1728  132.6077  163.6048 H   0  0  0  0  0  0  0  0  0  0  0  0
  152.9823  133.8746  163.6049 H   0  0  0  0  0  0  0  0  0  0  0  0
  1  2  1  0  0  0  0
  1 23  1  0  0  0  0
  1 24  1  0  0  0  0
  1 25  1  0  0  0  0
  2  3  1  0  0  0  0
  3  8  1  0  0  0  0
  3  4  2  0  0  0  0
  4  5  1  0  0  0  0
  5  6  2  0  0  0  0
  5 26  1  0  0  0  0
  6  7  1  0  0  0  0
  6 27  1  0  0  0  0
  7  8  2  0  0  0  0
  7 28  1  0  0  0  0
  8  9  1  0  0  0  0
  9 10  1  0  0  0  0
  9 29  1  0  0  0  0
 10 11  2  0  0  0  0
 10 12  1  0  0  0  0
 12 13  1  0  0  0  0
 12 30  1  0  0  0  0
 13 14  1  0  0  0  0
 13 31  1  0  0  0  0
 13 32  1  0  0  0  0
 14 15  1  0  0  0  0
 14 33  1  0  0  0  0
 14 34  1  0  0  0  0
 15 21  1  0  0  0  0
 15 16  1  0  0  0  0
 16 17  1  0  0  0  0
 16 35  1  0  0  0  0
 16 36  1  0  0  0  0
 17 18  1  0  0  0  0
 17 37  1  0  0  0  0
 17 38  1  0  0  0  0
 18 19  1  0  0  0  0
 18 39  1  0  0  0  0
 18 40  1  0  0  0  0
 19 20  1  0  0  0  0
 19 41  1  0  0  0  0
 19 42  1  0  0  0  0
 20 21  1  0  0  0  0
 20 43  1  0  0  0  0
 20 44  1  0  0  0  0
 21 22  2  0  0  0  0
M  END
> <s_m_source_file>
AV-unprocessed.smi

> <i_m_source_file_index>
1227

> <i_lp_mmshare_version>
43012

> <i_f3d_flags>
0

> <s_epik_input>
W0NIM11PYzFuW2NIXVtjSF1bY0hdYzFbTkhdQyg9TylbTkhdW0NIMl1bQ0gyXU4yW0NIMl1bQ0gyXVtDSDJdW0NIMl1bQ0gyXUMyPU8=

> <s_epik_cmdline>
J2VwaWtfcHl0aG9uJywgJy1waCcsICc3LjAnLCAnLXRuJywgJzgnLCAnLW1hJywgJzIwMCcsICctbWV0YWxfYmluZGluZycsICctaW1hZScsICc8aW5maWxlLm1hZT4nLCAnLW9tYWUnLCAnPG91dGZpbGUubWFlPic=

> <r_lp_tautomer_probability>
1

> <r_epik_Ionization_Penalty>
8.86757e-05

> <r_epik_Ionization_Penalty_Charging>
0

> <r_epik_Ionization_Penalty_Neutral>
8.86757e-05

> <r_epik_State_Penalty>
-0

> <r_epik_Charging_Adjusted_Penalty>
0

> <i_epik_Tot_Q>
0

> <i_epik_Tot_abs_Q>
0

> <r_epik_Metal_State_Penalty>
-0

> <b_epik_Metal_Only>
0

> <s_lp_Force_Field>
OPLS_2005

> <r_lp_Energy>
20.5681

> <b_lp_Chiralities_Consistent>
1

> <s_lp_Variant>
AV-unprocessed.smi:1227-1

> <Gold.Version>
5.8.1

> <Gold.Id.Protein>
6NUR|6NUR_protein|mol2

> <Gold.PLP.Fitness>
44.0690

> <Gold.PLP.PLP>
-41.6249

> <Gold.PLP.part.hbond>
-1.0000

> <Gold.PLP.part.metal>
0.0000

> <Gold.PLP.part.buried>
-0.6424

> <Gold.PLP.part.nonpolar>
-38.2457

> <Gold.PLP.part.repulsive>
0.2483

> <Gold.PLP.ligand.clash>
0.0000

> <Gold.PLP.ligand.torsion>
0.2896

> <Gold.PLP.Chemscore.Hbond>
1.0000

> <Gold.PLP.Chemscore.CHOScore>
0.0000

> <Gold.PLP.Chemscore.Metal>
0.0000

> <Gold.PLP.Chemscore.Internal.Correction>
0.0232

> <Gold.Rescore>
     Score         DG    S(hbond)    S(metal)    S(lipo)     H(rot)  DE(clash)    DE(int)     intcor
     14.23     -15.70       1.00        0.00      97.92       1.79       0.06       1.41       ----

> <Gold.Chemscore.Fitness>
14.2281

> <Gold.Chemscore.DG>
-15.6967

> <Gold.Chemscore.ZeroCoef>
-5.4800

> <Gold.Chemscore.Hbond>
1.0000

> <Gold.Chemscore.Metal>
0.0000

> <Gold.Chemscore.Lipo>
97.9198

> <Gold.Chemscore.Internal_Hbond>
0.0000

> <Gold.Chemscore.DEClash>
0.0580

> <Gold.Chemscore.DEInternal>
1.4106

> <Gold.Chemscore.Rot>
1.7890

> <Gold.Chemscore.Internal.Correction>
   9.000000E+99

> <Gold.Chemscore.Hbond.Weighted>
-3.3400

> <Gold.Chemscore.Metal.Weighted>
-0.0000

> <Gold.Chemscore.Lipo.Weighted>
-11.4566

> <Gold.Chemscore.Internal_Hbond.Weighted>
0.0000

> <Gold.Chemscore.DEClash.Weighted>
0.0580

> <Gold.Chemscore.DEInternal.Weighted>
1.4106

> <Gold.Chemscore.Rot.Weighted>
4.5799

> <Gold.Chemscore.Internal.Correction.Weighted>
   9.000000E+99

> <Gold.Protein.RotatedTorsions>
[ 6907 6896 6895 6894 ] final   29.55 input  -60.11 | X-H torsion
[ 7974 7965 7964 7962 ] final   69.32 input  175.53 | X-H torsion
[ 8008 7997 7996 7995 ] final  136.89 input   59.86 | X-H torsion
[ 10167 10162 10161 10158 ] final  -76.35 input  -65.29 | X-H torsion
[ 10718 10713 10712 10709 ] final  -52.38 input   66.30 | X-H torsion
[ 10763 10752 10751 10750 ] final  -69.50 input  -60.55 | X-H torsion
[ 11005 11000 10999 10996 ] final   79.48 input  -57.11 | X-H torsion

> <Gold.Protein.ActiveResidues>
 VAL166  LYS551  ARG553  GLY616  TRP617  ASP618  TYR619  PRO620  LYS621  CYS622 
 ASP623  PHE694  ASN695  SER759  ASP760  ASP761  ALA762  ILE779  LEU786  VAL792 
 PHE793  MET794  SER795  GLU796  ALA797  LYS798  CYS799  TRP800  GLU811  SER814 

> <Gold.Protein.RotatedAtoms>
  152.0332  134.9756  160.0572 H   0  0  0  0  0  0  0  0  0  0  0  0  # atno 6907 bound_to 6896
  152.1224  133.4356  159.4690 H   0  0  0  0  0  0  0  0  0  0  0  0  # atno 6908 bound_to 6896
  150.6850  134.2438  159.4526 H   0  0  0  0  0  0  0  0  0  0  0  0  # atno 6909 bound_to 6896
  145.7919  139.2938  143.1205 H   0  0  0  0  0  0  0  0  0  0  0  0  # atno 7974 bound_to 7965
  156.3003  140.2433  156.3820 H   0  0  0  0  0  0  0  0  0  0  0  0  # atno 8008 bound_to 7997
  154.8693  140.0417  157.1734 H   0  0  0  0  0  0  0  0  0  0  0  0  # atno 8009 bound_to 7997
  154.8813  140.2949  155.5427 H   0  0  0  0  0  0  0  0  0  0  0  0  # atno 8010 bound_to 7997
  140.4864  143.2390  151.7976 H   0  0  0  0  0  0  0  0  0  0  0  0  # atno 10167 bound_to 10162
  156.1626  130.4149  149.9769 H   0  0  0  0  0  0  0  0  0  0  0  0  # atno 10718 bound_to 10713
  154.4043  135.6023  153.5915 H   0  0  0  0  0  0  0  0  0  0  0  0  # atno 10763 bound_to 10752
  152.9789  135.5914  154.4146 H   0  0  0  0  0  0  0  0  0  0  0  0  # atno 10764 bound_to 10752
  154.3949  135.2842  155.2110 H   0  0  0  0  0  0  0  0  0  0  0  0  # atno 10765 bound_to 10752
  139.9171  134.7846  156.1784 H   0  0  0  0  0  0  0  0  0  0  0  0  # atno 11005 bound_to 11000
  145.9968  140.8555  143.0039 LP  0  0  0  0  0  0  0  0  0  0  0  0  # atno 17320 bound_to 7965
  144.6780  140.2294  143.7357 LP  0  0  0  0  0  0  0  0  0  0  0  0  # atno 17321 bound_to 7965
  139.4843  144.4706  151.9430 LP  0  0  0  0  0  0  0  0  0  0  0  0  # atno 17342 bound_to 10162
  140.3792  144.2758  150.5910 LP  0  0  0  0  0  0  0  0  0  0  0  0  # atno 17343 bound_to 10162
  156.7594  130.9145  151.3641 LP  0  0  0  0  0  0  0  0  0  0  0  0  # atno 17370 bound_to 10713
  157.6744  130.9081  150.0115 LP  0  0  0  0  0  0  0  0  0  0  0  0  # atno 17371 bound_to 10713
  141.0657  133.6820  156.2040 LP  0  0  0  0  0  0  0  0  0  0  0  0  # atno 17394 bound_to 11000
  140.6589  134.4989  157.5582 LP  0  0  0  0  0  0  0  0  0  0  0  0  # atno 17395 bound_to 11000

$$$$
