#       Name:                AV-unprocessed.smi:1420
#       Creating user name   scv26
#       Creation time:       Fri Mar 27 05:43:26 2020


#       File generated by GOLD software.
#

@<TRIPOS>MOLECULE
AV-unprocessed.smi:1420
    44    45     1
SMALL
NO_CHARGES


@<TRIPOS>ATOM
      1 ****        -1.3013   1.8087   0.8455 C.3            1 S1                 0.0000
      2 ****        -1.0493   0.2825   0.7446 C.3            1 S1                 0.0000
      3 ****         0.4625   0.0419   0.4612 C.3            1 S1                 0.0000
      4 ****         0.9466   0.7321  -0.7310 N.am           1 S1                 0.0000
      5 ****         0.7145   0.3448  -1.9950 C.2            1 S1                 0.0000
      6 ****         0.0589  -0.6544  -2.2891 O.2            1 S1                 0.0000
      7 ****         1.3068   1.2226  -3.0983 C.3            1 S1                 0.0000
      8 ****         2.7469   1.0582  -3.1861 N.pl3          1 S1                 0.0000
      9 ****         3.4580   0.0364  -3.7807 C.2            1 S1                 0.0000
     10 ****         4.7846   0.3109  -3.6092 C.2            1 S1                 0.0000
     11 ****         4.7857   1.5378  -2.8883 C.2            1 S1                 0.0000
     12 ****         3.5651   1.9827  -2.6362 N.2            1 S1                 0.0000
     13 ****        -1.5509  -0.4604   1.9245 N.3            1 S1                 0.0000
     14 ****        -2.9769  -0.2199   2.1748 C.3            1 S1                 0.0000
     15 ****        -3.5148  -1.0093   3.3808 C.3            1 S1                 0.0000
     16 ****        -3.2840  -2.3973   3.1847 O.3            1 S1                 0.0000
     17 ****        -1.9040  -2.6887   3.0156 C.3            1 S1                 0.0000
     18 ****        -1.3520  -1.9100   1.8086 C.3            1 S1                 0.0000
     19 ****        -0.8832   2.3568   0.0021 H              1 S1                 0.0000
     20 ****        -0.8619   2.2215   1.7543 H              1 S1                 0.0000
     21 ****        -2.3626   2.0531   0.8424 H              1 S1                 0.0000
     22 ****        -1.6000  -0.0715  -0.1282 H              1 S1                 0.0000
     23 ****         1.0569   0.3774   1.3116 H              1 S1                 0.0000
     24 ****         0.6925  -1.0136   0.3241 H              1 S1                 0.0000
     25 ****         1.4994   1.5647  -0.5844 H              1 S1                 0.0000
     26 ****         0.8665   0.9602  -4.0612 H              1 S1                 0.0000
     27 ****         1.0660   2.2704  -2.9106 H              1 S1                 0.0000
     28 ****         2.9653  -0.7916  -4.2691 H              1 S1                 0.0000
     29 ****         5.6262  -0.2754  -3.9473 H              1 S1                 0.0000
     30 ****         5.6315   2.1142  -2.5433 H              1 S1                 0.0000
     31 ****        -3.1587   0.8336   2.3782 H              1 S1                 0.0000
     32 ****        -3.5568  -0.4770   1.2871 H              1 S1                 0.0000
     33 ****        -3.0366  -0.6788   4.3042 H              1 S1                 0.0000
     34 ****        -4.5854  -0.8400   3.4966 H              1 S1                 0.0000
     35 ****        -1.3555  -2.4335   3.9238 H              1 S1                 0.0000
     36 ****        -1.7841  -3.7610   2.8605 H              1 S1                 0.0000
     37 ****        -1.8230  -2.2765   0.8951 H              1 S1                 0.0000
     38 ****        -0.2936  -2.1512   1.7386 H              1 S1                 0.0000
     39 ****        -0.3328  -1.2255  -1.5678 LP             1 S1                 0.0000
     40 ****        -0.0820  -0.8952  -3.2494 LP             1 S1                 0.0000
     41 ****         3.3062   2.8162  -2.1482 LP             1 S1                 0.0000
     42 ****        -1.0106  -0.1103   2.6897 LP             1 S1                 0.0000
     43 ****        -3.7791  -2.6947   2.3684 LP             1 S1                 0.0000
     44 ****        -3.6242  -2.8969   3.9814 LP             1 S1                 0.0000
@<TRIPOS>BOND
    1    1    2 1     
    2    1   19 1     
    3    1   20 1     
    4    1   21 1     
    5    2    3 1     
    6    2   13 1     
    7    2   22 1     
    8    3    4 1     
    9    3   23 1     
   10    3   24 1     
   11    4    5 am    
   12    4   25 1     
   13    5    6 2     
   14    5    7 1     
   15    7    8 1     
   16    7   26 1     
   17    7   27 1     
   18    8   12 1     
   19    8    9 1     
   20    9   10 2     
   21    9   28 1     
   22   10   11 1     
   23   10   29 1     
   24   11   12 2     
   25   11   30 1     
   26   13   18 1     
   27   13   14 1     
   28   14   15 1     
   29   14   31 1     
   30   14   32 1     
   31   15   16 1     
   32   15   33 1     
   33   15   34 1     
   34   16   17 1     
   35   17   18 1     
   36   17   35 1     
   37   17   36 1     
   38   18   37 1     
   39   18   38 1     
   40    6   39 1     
   41    6   40 1     
   42   12   41 1     
   43   13   42 1     
   44   16   43 1     
   45   16   44 1     
@<TRIPOS>SUBSTRUCTURE
      1 S1             1
@<TRIPOS>SET
LONE_PAIRS      STATIC     ATOMS    <user>   **** ""
6 39 40 41 42 43 44
DONOR_HYDROGENS      STATIC     ATOMS    <user>   **** ""
1 25
ATOM$BLUE        STATIC     ATOMS    COLORGROUP SYSTEM
6 39 40 41 42 43 44
ATOM$RED        STATIC     ATOMS    COLORGROUP SYSTEM
1 25
