#       Name:                AV-unprocessed.smi:599
#       Creating user name   scv26
#       Creation time:       Thu Mar 26 23:54:09 2020


#       File generated by GOLD software.
#

@<TRIPOS>MOLECULE
AV-unprocessed.smi:599
    41    42     1
SMALL
NO_CHARGES


@<TRIPOS>ATOM
      1 ****        -2.7794  -0.7515   3.0240 N.1            1 S1                 0.0000
      2 ****        -2.4093  -1.1718   2.0114 C.1            1 S1                 0.0000
      3 ****        -1.9370  -1.7088   0.7202 C.3            1 S1                 0.0000
      4 ****        -0.5061  -1.4767   0.5239 N.am           1 S1                 0.0000
      5 ****         0.1001  -0.2794   0.4937 C.2            1 S1                 0.0000
      6 ****        -0.5010   0.7844   0.6452 O.2            1 S1                 0.0000
      7 ****         1.6193  -0.2967   0.2761 C.3            1 S1                 0.0000
      8 ****         2.1198   0.9193  -0.3864 N.am           1 S1                 0.0000
      9 ****         2.6637   1.9239   0.4381 C.2            1 S1                 0.0000
     10 ****         3.1635   3.0777  -0.0450 C.2            1 S1                 0.0000
     11 ****         3.6859   4.1713   0.8735 C.3            1 S1                 0.0000
     12 ****         3.5220   5.3758   0.3263 F              1 S1                 0.0000
     13 ****         3.0566   4.1560   2.0492 F              1 S1                 0.0000
     14 ****         4.9868   3.9911   1.0970 F              1 S1                 0.0000
     15 ****         3.0901   3.2611  -1.4813 C.2            1 S1                 0.0000
     16 ****         2.5600   2.3166  -2.2826 C.2            1 S1                 0.0000
     17 ****         2.0344   1.0605  -1.7432 C.2            1 S1                 0.0000
     18 ****         1.5476   0.1897  -2.4650 O.2            1 S1                 0.0000
     19 ****        -2.2254  -3.2141   0.6451 C.3            1 S1                 0.0000
     20 ****        -3.6971  -3.3137   0.2465 C.3            1 S1                 0.0000
     21 ****        -3.9484  -2.1117  -0.6681 C.3            1 S1                 0.0000
     22 ****        -2.7735  -1.1465  -0.4485 C.3            1 S1                 0.0000
     23 ****         0.0692  -2.2967   0.3971 H              1 S1                 0.0000
     24 ****         2.0991  -0.4303   1.2464 H              1 S1                 0.0000
     25 ****         1.8974  -1.1796  -0.3030 H              1 S1                 0.0000
     26 ****         2.6375   1.7003   1.4948 H              1 S1                 0.0000
     27 ****         3.4696   4.1704  -1.9238 H              1 S1                 0.0000
     28 ****         2.5228   2.4871  -3.3486 H              1 S1                 0.0000
     29 ****        -1.6164  -3.6790  -0.1323 H              1 S1                 0.0000
     30 ****        -2.0117  -3.7328   1.5805 H              1 S1                 0.0000
     31 ****        -3.9355  -4.2626  -0.2349 H              1 S1                 0.0000
     32 ****        -4.3216  -3.2307   1.1370 H              1 S1                 0.0000
     33 ****        -3.9878  -2.4227  -1.7128 H              1 S1                 0.0000
     34 ****        -4.9029  -1.6398  -0.4327 H              1 S1                 0.0000
     35 ****        -3.1140  -0.1284  -0.2548 H              1 S1                 0.0000
     36 ****        -2.1773  -1.1113  -1.3620 H              1 S1                 0.0000
     37 ****        -3.0993  -0.3883   3.8991 LP             1 S1                 0.0000
     38 ****        -1.4890   0.7828   0.7997 LP             1 S1                 0.0000
     39 ****        -0.0012   1.6500   0.6137 LP             1 S1                 0.0000
     40 ****         1.1979  -0.6560  -2.0619 LP             1 S1                 0.0000
     41 ****         1.5019   0.3282  -3.4543 LP             1 S1                 0.0000
@<TRIPOS>BOND
    1    1    2 3     
    2    2    3 1     
    3    3   22 1     
    4    3    4 1     
    5    3   19 1     
    6    4    5 am    
    7    4   23 1     
    8    5    6 2     
    9    5    7 1     
   10    7    8 1     
   11    7   24 1     
   12    7   25 1     
   13    8   17 am    
   14    8    9 1     
   15    9   10 2     
   16    9   26 1     
   17   10   11 1     
   18   10   15 1     
   19   11   12 1     
   20   11   13 1     
   21   11   14 1     
   22   15   16 2     
   23   15   27 1     
   24   16   17 1     
   25   16   28 1     
   26   17   18 2     
   27   19   20 1     
   28   19   29 1     
   29   19   30 1     
   30   20   21 1     
   31   20   31 1     
   32   20   32 1     
   33   21   22 1     
   34   21   33 1     
   35   21   34 1     
   36   22   35 1     
   37   22   36 1     
   38    1   37 1     
   39    6   38 1     
   40    6   39 1     
   41   18   40 1     
   42   18   41 1     
@<TRIPOS>SUBSTRUCTURE
      1 S1             1
@<TRIPOS>SET
LONE_PAIRS      STATIC     ATOMS    <user>   **** ""
5 37 38 39 40 41
DONOR_HYDROGENS      STATIC     ATOMS    <user>   **** ""
1 23
ATOM$BLUE        STATIC     ATOMS    COLORGROUP SYSTEM
5 37 38 39 40 41
ATOM$RED        STATIC     ATOMS    COLORGROUP SYSTEM
1 23
