#       Name:                AV-unprocessed.smi:1891
#       Creating user name   scv26
#       Creation time:       Fri Mar 27 09:40:10 2020


#       File generated by GOLD software.
#

@<TRIPOS>MOLECULE
AV-unprocessed.smi:1891
    41    43     1
SMALL
NO_CHARGES


@<TRIPOS>ATOM
      1 ****        -0.9276   3.4001   0.5545 O.3            1 S1                 0.0000
      2 ****        -1.4934   2.9932  -0.6722 C.3            1 S1                 0.0000
      3 ****        -2.0409   1.5982  -0.6336 C.2            1 S1                 0.0000
      4 ****        -3.3538   1.3635  -0.6370 N.2            1 S1                 0.0000
      5 ****        -3.4178  -0.0158  -0.6237 C.ar           1 S1                 0.0000
      6 ****        -4.5334  -0.8834  -0.6258 C.ar           1 S1                 0.0000
      7 ****        -4.3501  -2.2818  -0.6198 C.ar           1 S1                 0.0000
      8 ****        -3.0517  -2.8314  -0.6131 C.ar           1 S1                 0.0000
      9 ****        -1.9267  -1.9846  -0.6093 C.ar           1 S1                 0.0000
     10 ****        -2.1151  -0.5891  -0.6119 C.ar           1 S1                 0.0000
     11 ****        -1.2454   0.4973  -0.6054 N.pl3          1 S1                 0.0000
     12 ****         0.2108   0.4218  -0.5913 C.3            1 S1                 0.0000
     13 ****         0.7728  -0.0714   0.7580 C.3            1 S1                 0.0000
     14 ****         0.3487   0.7825   1.8029 O.3            1 S1                 0.0000
     15 ****         2.2878  -0.2125   0.7005 C.ar           1 S1                 0.0000
     16 ****         3.1181   0.9140   0.8968 C.ar           1 S1                 0.0000
     17 ****         4.5191   0.7859   0.8321 C.ar           1 S1                 0.0000
     18 ****         5.1000  -0.4685   0.5664 C.ar           1 S1                 0.0000
     19 ****         6.4469  -0.5913   0.5016 F              1 S1                 0.0000
     20 ****         4.2790  -1.5942   0.3645 C.ar           1 S1                 0.0000
     21 ****         2.8773  -1.4683   0.4281 C.ar           1 S1                 0.0000
     22 ****         2.1022  -2.5602   0.2214 F              1 S1                 0.0000
     23 ****        -0.6213   4.2892   0.4633 H              1 S1                 0.0000
     24 ****        -2.2952   3.6873  -0.9268 H              1 S1                 0.0000
     25 ****        -0.7509   3.0760  -1.4657 H              1 S1                 0.0000
     26 ****        -5.5320  -0.4723  -0.6339 H              1 S1                 0.0000
     27 ****        -5.2097  -2.9358  -0.6223 H              1 S1                 0.0000
     28 ****        -2.9199  -3.9034  -0.6106 H              1 S1                 0.0000
     29 ****        -0.9315  -2.4037  -0.6046 H              1 S1                 0.0000
     30 ****         0.5142  -0.2583  -1.3883 H              1 S1                 0.0000
     31 ****         0.6370   1.3919  -0.8437 H              1 S1                 0.0000
     32 ****         0.3474  -1.0488   0.9848 H              1 S1                 0.0000
     33 ****         0.5987   0.3948   2.6276 H              1 S1                 0.0000
     34 ****         2.6833   1.8829   1.0945 H              1 S1                 0.0000
     35 ****         5.1478   1.6509   0.9842 H              1 S1                 0.0000
     36 ****         4.7247  -2.5561   0.1580 H              1 S1                 0.0000
     37 ****        -0.1611   2.8016   0.7874 LP             1 S1                 0.0000
     38 ****        -1.6181   3.3537   1.2763 LP             1 S1                 0.0000
     39 ****        -4.1055   2.0230  -0.6468 LP             1 S1                 0.0000
     40 ****        -0.6449   0.8901   1.7682 LP             1 S1                 0.0000
     41 ****         0.7844   1.6773   1.7050 LP             1 S1                 0.0000
@<TRIPOS>BOND
    1    1    2 1     
    2    1   23 1     
    3    2    3 1     
    4    2   24 1     
    5    2   25 1     
    6    3   11 1     
    7    3    4 2     
    8    4    5 1     
    9    5   10 ar    
   10    5    6 ar    
   11    6    7 ar    
   12    6   26 1     
   13    7    8 ar    
   14    7   27 1     
   15    8    9 ar    
   16    8   28 1     
   17    9   10 ar    
   18    9   29 1     
   19   10   11 1     
   20   11   12 1     
   21   12   13 1     
   22   12   30 1     
   23   12   31 1     
   24   13   14 1     
   25   13   15 1     
   26   13   32 1     
   27   14   33 1     
   28   15   21 ar    
   29   15   16 ar    
   30   16   17 ar    
   31   16   34 1     
   32   17   18 ar    
   33   17   35 1     
   34   18   19 1     
   35   18   20 ar    
   36   20   21 ar    
   37   20   36 1     
   38   21   22 1     
   39    1   37 1     
   40    1   38 1     
   41    4   39 1     
   42   14   40 1     
   43   14   41 1     
@<TRIPOS>SUBSTRUCTURE
      1 S1             1
@<TRIPOS>SET
LONE_PAIRS      STATIC     ATOMS    <user>   **** ""
5 37 38 39 40 41
DONOR_HYDROGENS      STATIC     ATOMS    <user>   **** ""
2 23 33
ATOM$BLUE        STATIC     ATOMS    COLORGROUP SYSTEM
5 37 38 39 40 41
ATOM$RED        STATIC     ATOMS    COLORGROUP SYSTEM
2 23 33
