AV-unprocessed.smi:1244|AV-procd|sdf|5231|dock8
  -GOLD-   22720 4333D 1   1.00000     0.00000
 Structure written by MMmdl.
 56 58  0  0  0  0  0  0  0  0  3 V2000
  149.8902  141.9229  156.5844 C   0  0  0  0  0  0  0  0  0  0  0  0
  149.0304  140.6514  156.7019 C   0  0  2  0  0  0  0  0  0  0  0  0
  149.8411  139.3454  156.5830 C   0  0  0  0  0  0  0  0  0  0  0  0
  150.2623  139.0995  155.1832 N   0  3  1  0  0  0  0  0  0  0  0  0
  151.1021  137.8830  155.0498 C   0  0  0  0  0  0  0  0  0  0  0  0
  150.4634  136.6529  155.7229 C   0  0  0  0  0  0  0  0  0  0  0  0
  149.6970  135.8542  154.7735 N   0  0  0  0  0  0  0  0  0  0  0  0
  149.4341  134.5465  154.9085 C   0  0  0  0  0  0  0  0  0  0  0  0
  149.7866  133.8806  155.8818 O   0  0  0  0  0  0  0  0  0  0  0  0
  148.7645  134.0695  153.8457 N   0  0  0  0  0  0  0  0  0  0  0  0
  148.3796  132.7228  153.5881 C   0  0  0  0  0  0  0  0  0  0  0  0
  148.8862  131.6519  154.3685 C   0  0  0  0  0  0  0  0  0  0  0  0
  148.5065  130.3282  154.0774 C   0  0  0  0  0  0  0  0  0  0  0  0
  147.6217  130.0938  153.0113 C   0  0  0  0  0  0  0  0  0  0  0  0
  147.1413  131.1345  152.3002 N   0  3  0  0  0  0  0  0  0  0  0  0
  147.4567  132.4318  152.5410 C   0  0  0  0  0  0  0  0  0  0  0  0
  146.8644  133.4172  151.7186 N   0  0  0  0  0  0  0  0  0  0  0  0
  146.1874  133.0396  150.4834 C   0  0  0  0  0  0  0  0  0  0  0  0
  145.3985  134.2790  150.0700 C   0  0  0  0  0  0  0  0  0  0  0  0
  144.9781  134.8627  151.4156 C   0  0  0  0  0  0  0  0  0  0  0  0
  146.1537  134.5297  152.3408 C   0  0  0  0  0  0  0  0  0  0  0  0
  149.0831  139.1106  154.2847 C   0  0  0  0  0  0  0  0  0  0  0  0
  148.3220  140.4421  154.4141 C   0  0  1  0  0  0  0  0  0  0  0  0
  147.0470  140.4606  153.5637 C   0  0  0  0  0  0  0  0  0  0  0  0
  147.9457  140.6444  155.7738 O   0  0  0  0  0  0  0  0  0  0  0  0
  150.6256  141.9679  157.3882 H   0  0  0  0  0  0  0  0  0  0  0  0
  149.2718  142.8180  156.6555 H   0  0  0  0  0  0  0  0  0  0  0  0
  150.4375  141.9681  155.6434 H   0  0  0  0  0  0  0  0  0  0  0  0
  148.5773  140.6704  157.6936 H   0  0  0  0  0  0  0  0  0  0  0  0
  150.7123  139.3897  157.2380 H   0  0  0  0  0  0  0  0  0  0  0  0
  149.2338  138.5047  156.9228 H   0  0  0  0  0  0  0  0  0  0  0  0
  151.2351  137.6645  153.9893 H   0  0  0  0  0  0  0  0  0  0  0  0
  152.0983  138.0731  155.4528 H   0  0  0  0  0  0  0  0  0  0  0  0
  151.2271  136.0011  156.1454 H   0  0  0  0  0  0  0  0  0  0  0  0
  149.8247  136.9607  156.5528 H   0  0  0  0  0  0  0  0  0  0  0  0
  149.3685  136.3256  153.9429 H   0  0  0  0  0  0  0  0  0  0  0  0
  148.6267  134.7150  153.0820 H   0  0  0  0  0  0  0  0  0  0  0  0
  149.5602  131.8265  155.1933 H   0  0  0  0  0  0  0  0  0  0  0  0
  148.8908  129.5054  154.6623 H   0  0  0  0  0  0  0  0  0  0  0  0
  147.2788  129.1140  152.7117 H   0  0  0  0  0  0  0  0  0  0  0  0
  146.8990  132.7372  149.7147 H   0  0  0  0  0  0  0  0  0  0  0  0
  145.4998  132.2120  150.6625 H   0  0  0  0  0  0  0  0  0  0  0  0
  146.0500  134.9804  149.5471 H   0  0  0  0  0  0  0  0  0  0  0  0
  144.5543  134.0492  149.4197 H   0  0  0  0  0  0  0  0  0  0  0  0
  144.7651  135.9309  151.3694 H   0  0  0  0  0  0  0  0  0  0  0  0
  144.0789  134.3562  151.7687 H   0  0  0  0  0  0  0  0  0  0  0  0
  145.8094  134.2875  153.3472 H   0  0  0  0  0  0  0  0  0  0  0  0
  146.8279  135.3841  152.4069 H   0  0  0  0  0  0  0  0  0  0  0  0
  149.3919  138.9768  153.2485 H   0  0  0  0  0  0  0  0  0  0  0  0
  148.4278  138.2739  154.5328 H   0  0  0  0  0  0  0  0  0  0  0  0
  148.9597  141.2614  154.0816 H   0  0  0  0  0  0  0  0  0  0  0  0
  147.2764  140.3179  152.5074 H   0  0  0  0  0  0  0  0  0  0  0  0
  146.5260  141.4131  153.6638 H   0  0  0  0  0  0  0  0  0  0  0  0
  146.3580  139.6714  153.8660 H   0  0  0  0  0  0  0  0  0  0  0  0
  150.8440  139.8828  154.9214 H   0  0  0  0  0  0  0  0  0  0  0  0
  146.4938  130.9320  151.5384 H   0  0  0  0  0  0  0  0  0  0  0  0
  1  2  1  0  0  0  0
  1 26  1  0  0  0  0
  1 27  1  0  0  0  0
  1 28  1  0  0  0  0
  2 25  1  0  0  0  0
  2  3  1  0  0  0  0
  2 29  1  0  0  0  0
  3  4  1  0  0  0  0
  3 30  1  0  0  0  0
  3 31  1  0  0  0  0
  4  5  1  0  0  0  0
  4 22  1  0  0  0  0
  4 55  1  0  0  0  0
  5  6  1  0  0  0  0
  5 32  1  0  0  0  0
  5 33  1  0  0  0  0
  6  7  1  0  0  0  0
  6 34  1  0  0  0  0
  6 35  1  0  0  0  0
  7  8  1  0  0  0  0
  7 36  1  0  0  0  0
  8  9  2  0  0  0  0
  8 10  1  0  0  0  0
 10 11  1  0  0  0  0
 10 37  1  0  0  0  0
 11 16  1  0  0  0  0
 11 12  2  0  0  0  0
 12 13  1  0  0  0  0
 12 38  1  0  0  0  0
 13 14  2  0  0  0  0
 13 39  1  0  0  0  0
 14 15  1  0  0  0  0
 14 40  1  0  0  0  0
 15 16  2  0  0  0  0
 15 56  1  0  0  0  0
 16 17  1  0  0  0  0
 17 21  1  0  0  0  0
 17 18  1  0  0  0  0
 18 19  1  0  0  0  0
 18 41  1  0  0  0  0
 18 42  1  0  0  0  0
 19 20  1  0  0  0  0
 19 43  1  0  0  0  0
 19 44  1  0  0  0  0
 20 21  1  0  0  0  0
 20 45  1  0  0  0  0
 20 46  1  0  0  0  0
 21 47  1  0  0  0  0
 21 48  1  0  0  0  0
 22 23  1  0  0  0  0
 22 49  1  0  0  0  0
 22 50  1  0  0  0  0
 23 24  1  0  0  0  0
 23 25  1  0  0  0  0
 23 51  1  0  0  0  0
 24 52  1  0  0  0  0
 24 53  1  0  0  0  0
 24 54  1  0  0  0  0
M  CHG  1   4   1
M  CHG  1  15   1
M  END
> <s_m_source_file>
AV-unprocessed.smi

> <i_m_source_file_index>
1244

> <i_lp_mmshare_version>
43012

> <i_f3d_flags>
0

> <s_epik_input>
W0NIM11bQ0BASF0xW0NIMl1OKFtDSDJdW0NASF0oTzEpW0NIM10pW0NIMl1bQ0gyXVtOSF1DKD1PKVtOSF1jMltjSF1bY0hdW2NIXW5jMk4zW0NIMl1bQ0gyXVtDSDJdW0NIMl0z

> <s_epik_cmdline>
J2VwaWtfcHl0aG9uJywgJy1waCcsICc3LjAnLCAnLXRuJywgJzgnLCAnLW1hJywgJzIwMCcsICctbWV0YWxfYmluZGluZycsICctaW1hZScsICc8aW5maWxlLm1hZT4nLCAnLW9tYWUnLCAnPG91dGZpbGUubWFlPic=

> <r_lp_tautomer_probability>
0.999994

> <r_epik_Ionization_Penalty>
1.81601

> <r_epik_Ionization_Penalty_Charging>
1.81599

> <r_epik_Ionization_Penalty_Neutral>
2.01972e-05

> <r_epik_State_Penalty>
1.85672

> <r_epik_Charging_Adjusted_Penalty>
3.6727

> <i_epik_Tot_Q>
2

> <i_epik_Tot_abs_Q>
2

> <r_epik_Metal_State_Penalty>
1.93796

> <b_epik_Metal_Only>
0

> <s_lp_Force_Field>
OPLS_2005

> <r_lp_Energy>
54.4997

> <b_lp_Chiralities_Consistent>
1

> <s_lp_Variant>
AV-unprocessed.smi:1244-11

> <Gold.Version>
5.8.1

> <Gold.Id.Protein>
6NUR|6NUR_protein|mol2

> <Gold.PLP.Fitness>
45.8871

> <Gold.PLP.PLP>
-41.1818

> <Gold.PLP.part.hbond>
-3.3222

> <Gold.PLP.part.metal>
0.0000

> <Gold.PLP.part.buried>
-3.4554

> <Gold.PLP.part.nonpolar>
-35.7354

> <Gold.PLP.part.repulsive>
0.4166

> <Gold.PLP.ligand.clash>
0.0000

> <Gold.PLP.ligand.torsion>
0.7238

> <Gold.PLP.Chemscore.Hbond>
1.9120

> <Gold.PLP.Chemscore.CHOScore>
0.0000

> <Gold.PLP.Chemscore.Metal>
0.0000

> <Gold.Chemscore.Hbonds>
donor molecule, donor type, donor heavy atom, donor atom, acceptor molecule, acceptor atom, score
      L1  H     7    36       P1  7948  0.78
      L1  H    10    37       P1  7948  1.00

> <Gold.PLP.Chemscore.Internal.Correction>
0.4169

> <Gold.Rescore>
     Score         DG    S(hbond)    S(metal)    S(lipo)     H(rot)  DE(clash)    DE(int)     intcor
     13.57     -15.71       1.43        0.00      82.27       1.63       0.03       2.11       ----

> <Gold.Chemscore.Fitness>
13.5721

> <Gold.Chemscore.DG>
-15.7099

> <Gold.Chemscore.ZeroCoef>
-5.4800

> <Gold.Chemscore.Hbond>
1.4296

> <Gold.Chemscore.Metal>
0.0000

> <Gold.Chemscore.Lipo>
82.2742

> <Gold.Chemscore.Internal_Hbond>
0.0000

> <Gold.Chemscore.DEClash>
0.0275

> <Gold.Chemscore.DEInternal>
2.1103

> <Gold.Chemscore.Rot>
1.6293

> <Gold.Chemscore.Internal.Correction>
   9.000000E+99

> <Gold.Chemscore.Hbonds>
donor molecule, donor type, donor heavy atom, donor atom, acceptor molecule, acceptor atom, score
      L1  H     7    36       P1  7948  0.62
      L1  H    10    37       P1  7948  0.34

> <Gold.Chemscore.Hbond.Weighted>
-4.7747

> <Gold.Chemscore.Metal.Weighted>
-0.0000

> <Gold.Chemscore.Lipo.Weighted>
-9.6261

> <Gold.Chemscore.Internal_Hbond.Weighted>
0.0000

> <Gold.Chemscore.DEClash.Weighted>
0.0275

> <Gold.Chemscore.DEInternal.Weighted>
2.1103

> <Gold.Chemscore.Rot.Weighted>
4.1709

> <Gold.Chemscore.Internal.Correction.Weighted>
   9.000000E+99

> <Gold.Protein.RotatedTorsions>
[ 6907 6896 6895 6894 ] final   77.39 input  -60.11 | X-H torsion
[ 7974 7965 7964 7962 ] final  174.83 input  175.53 | X-H torsion
[ 8008 7997 7996 7995 ] final  -79.41 input   59.86 | X-H torsion
[ 10167 10162 10161 10158 ] final   70.97 input  -65.29 | X-H torsion
[ 10718 10713 10712 10709 ] final  -15.86 input   66.30 | X-H torsion
[ 10763 10752 10751 10750 ] final  -92.85 input  -60.55 | X-H torsion
[ 11005 11000 10999 10996 ] final  -85.76 input  -57.11 | X-H torsion

> <Gold.Protein.ActiveResidues>
 VAL166  LYS551  ARG553  GLY616  TRP617  ASP618  TYR619  PRO620  LYS621  CYS622 
 ASP623  PHE694  ASN695  SER759  ASP760  ASP761  ALA762  ILE779  LEU786  VAL792 
 PHE793  MET794  SER795  GLU796  ALA797  LYS798  CYS799  TRP800  GLU811  SER814 

> <Gold.Protein.RotatedAtoms>
  152.5115  134.3824  159.9355 H   0  0  0  0  0  0  0  0  0  0  0  0  # atno 6907 bound_to 6896
  151.3781  133.3824  159.2715 H   0  0  0  0  0  0  0  0  0  0  0  0  # atno 6908 bound_to 6896
  150.9525  134.8944  159.7739 H   0  0  0  0  0  0  0  0  0  0  0  0  # atno 6909 bound_to 6896
  144.7213  139.9855  143.6439 H   0  0  0  0  0  0  0  0  0  0  0  0  # atno 7974 bound_to 7965
  154.5782  140.0679  156.9065 H   0  0  0  0  0  0  0  0  0  0  0  0  # atno 8008 bound_to 7997
  155.2510  140.3351  155.4264 H   0  0  0  0  0  0  0  0  0  0  0  0  # atno 8009 bound_to 7997
  156.2170  140.1782  156.7551 H   0  0  0  0  0  0  0  0  0  0  0  0  # atno 8010 bound_to 7997
  140.0512  144.5310  150.7362 H   0  0  0  0  0  0  0  0  0  0  0  0  # atno 10167 bound_to 10162
  156.5958  130.4811  149.6260 H   0  0  0  0  0  0  0  0  0  0  0  0  # atno 10718 bound_to 10713
  154.6902  135.5216  153.8382 H   0  0  0  0  0  0  0  0  0  0  0  0  # atno 10763 bound_to 10752
  153.0626  135.6574  154.0436 H   0  0  0  0  0  0  0  0  0  0  0  0  # atno 10764 bound_to 10752
  154.0311  135.2985  155.3348 H   0  0  0  0  0  0  0  0  0  0  0  0  # atno 10765 bound_to 10752
  141.1638  133.7417  156.9062 H   0  0  0  0  0  0  0  0  0  0  0  0  # atno 11005 bound_to 11000
  146.0453  139.3460  143.0672 LP  0  0  0  0  0  0  0  0  0  0  0  0  # atno 17320 bound_to 7965
  145.8283  140.9644  143.0862 LP  0  0  0  0  0  0  0  0  0  0  0  0  # atno 17321 bound_to 7965
  140.7216  143.2594  151.4260 LP  0  0  0  0  0  0  0  0  0  0  0  0  # atno 17342 bound_to 10162
  139.5952  144.1413  152.2135 LP  0  0  0  0  0  0  0  0  0  0  0  0  # atno 17343 bound_to 10162
  156.2511  130.6907  151.1645 LP  0  0  0  0  0  0  0  0  0  0  0  0  # atno 17370 bound_to 10713
  157.7292  131.0626  150.5784 LP  0  0  0  0  0  0  0  0  0  0  0  0  # atno 17371 bound_to 10713
  140.1548  134.9206  157.2639 LP  0  0  0  0  0  0  0  0  0  0  0  0  # atno 17394 bound_to 11000
  140.2680  134.3493  155.7383 LP  0  0  0  0  0  0  0  0  0  0  0  0  # atno 17395 bound_to 11000

$$$$
