AV-unprocessed.smi:2124|AV-procd|sdf|8667|dock3
  -GOLD-   2272011413D 1   1.00000     0.00000
 Structure written by MMmdl.
 46 48  0  0  0  0  0  0  0  0  2 V2000
  156.9509  138.2294  163.3077 C   0  0  0  0  0  0  0  0  0  0  0  0
  155.7689  138.2193  162.3619 C   0  0  0  0  0  0  0  0  0  0  0  0
  155.1087  139.2981  162.1733 N   0  0  0  0  0  0  0  0  0  0  0  0
  154.0090  139.2920  161.2983 C   0  0  0  0  0  0  0  0  0  0  0  0
  153.2804  140.6150  161.1390 C   0  0  0  0  0  0  0  0  0  0  0  0
  153.6336  138.1548  160.6454 C   0  0  0  0  0  0  0  0  0  0  0  0
  152.4410  138.0880  159.6912 C   0  0  0  0  0  0  0  0  0  0  0  0
  152.5168  138.9678  158.4406 C   0  0  0  0  0  0  0  0  0  0  0  0
  153.3297  138.7277  157.5472 O   0  0  0  0  0  0  0  0  0  0  0  0
  151.6562  139.9962  158.3999 N   0  0  0  0  0  0  0  0  0  0  0  0
  151.5582  140.9849  157.3288 C   0  0  1  0  0  0  0  0  0  0  0  0
  151.1906  140.2742  156.0161 C   0  0  0  0  0  0  0  0  0  0  0  0
  150.5277  142.0719  157.7146 C   0  0  2  0  0  0  0  0  0  0  0  0
  150.6044  143.3673  156.8755 C   0  0  0  0  0  0  0  0  0  0  0  0
  150.6373  144.4738  157.9468 C   0  0  2  0  0  0  0  0  0  0  0  0
  152.0243  144.4859  158.6157 C   0  0  0  0  0  0  0  0  0  0  0  0
  151.9942  143.2110  159.4776 C   0  0  0  0  0  0  0  0  0  0  0  0
  150.6047  142.6182  159.1631 C   0  0  1  0  0  0  0  0  0  0  0  0
  149.7620  143.8842  159.0468 C   0  0  0  0  0  0  0  0  0  0  0  0
  154.4280  136.9363  160.8807 C   0  0  0  0  0  0  0  0  0  0  0  0
  154.1443  135.8890  160.3003 O   0  0  0  0  0  0  0  0  0  0  0  0
  155.4748  137.0211  161.7505 N   0  5  0  0  0  0  0  0  0  0  0  0
  157.0520  139.1972  163.8006 H   0  0  0  0  0  0  0  0  0  0  0  0
  157.8723  138.0252  162.7618 H   0  0  0  0  0  0  0  0  0  0  0  0
  156.8276  137.4663  164.0769 H   0  0  0  0  0  0  0  0  0  0  0  0
  153.2177  140.8971  160.0880 H   0  0  0  0  0  0  0  0  0  0  0  0
  153.7971  141.4162  161.6684 H   0  0  0  0  0  0  0  0  0  0  0  0
  152.2701  140.5446  161.5411 H   0  0  0  0  0  0  0  0  0  0  0  0
  152.2628  137.0559  159.3867 H   0  0  0  0  0  0  0  0  0  0  0  0
  151.5411  138.3726  160.2361 H   0  0  0  0  0  0  0  0  0  0  0  0
  151.0240  140.1094  159.1790 H   0  0  0  0  0  0  0  0  0  0  0  0
  152.5272  141.4637  157.1819 H   0  0  0  0  0  0  0  0  0  0  0  0
  151.1345  140.9771  155.1852 H   0  0  0  0  0  0  0  0  0  0  0  0
  150.2258  139.7716  156.0924 H   0  0  0  0  0  0  0  0  0  0  0  0
  151.9366  139.5223  155.7559 H   0  0  0  0  0  0  0  0  0  0  0  0
  149.5315  141.6439  157.5853 H   0  0  0  0  0  0  0  0  0  0  0  0
  151.4817  143.4077  156.2287 H   0  0  0  0  0  0  0  0  0  0  0  0
  149.7229  143.4632  156.2403 H   0  0  0  0  0  0  0  0  0  0  0  0
  150.3222  145.4502  157.5779 H   0  0  0  0  0  0  0  0  0  0  0  0
  152.8362  144.4770  157.8873 H   0  0  0  0  0  0  0  0  0  0  0  0
  152.1473  145.3696  159.2432 H   0  0  0  0  0  0  0  0  0  0  0  0
  152.8166  142.5313  159.2571 H   0  0  0  0  0  0  0  0  0  0  0  0
  152.0654  143.4693  160.5349 H   0  0  0  0  0  0  0  0  0  0  0  0
  150.2536  141.9118  159.9160 H   0  0  0  0  0  0  0  0  0  0  0  0
  149.7500  144.4835  159.9591 H   0  0  0  0  0  0  0  0  0  0  0  0
  148.7347  143.6969  158.7289 H   0  0  0  0  0  0  0  0  0  0  0  0
  1  2  1  0  0  0  0
  1 23  1  0  0  0  0
  1 24  1  0  0  0  0
  1 25  1  0  0  0  0
  2 22  1  0  0  0  0
  2  3  2  0  0  0  0
  3  4  1  0  0  0  0
  4  5  1  0  0  0  0
  4  6  2  0  0  0  0
  5 26  1  0  0  0  0
  5 27  1  0  0  0  0
  5 28  1  0  0  0  0
  6  7  1  0  0  0  0
  6 20  1  0  0  0  0
  7  8  1  0  0  0  0
  7 29  1  0  0  0  0
  7 30  1  0  0  0  0
  8  9  2  0  0  0  0
  8 10  1  0  0  0  0
 10 11  1  0  0  0  0
 10 31  1  0  0  0  0
 11 12  1  0  0  0  0
 11 13  1  0  0  0  0
 11 32  1  0  0  0  0
 12 33  1  0  0  0  0
 12 34  1  0  0  0  0
 12 35  1  0  0  0  0
 13 18  1  0  0  0  0
 13 14  1  0  0  0  0
 13 36  1  0  0  0  0
 14 15  1  0  0  0  0
 14 37  1  0  0  0  0
 14 38  1  0  0  0  0
 15 19  1  0  0  0  0
 15 16  1  0  0  0  0
 15 39  1  0  0  0  0
 16 17  1  0  0  0  0
 16 40  1  0  0  0  0
 16 41  1  0  0  0  0
 17 18  1  0  0  0  0
 17 42  1  0  0  0  0
 17 43  1  0  0  0  0
 18 19  1  0  0  0  0
 18 44  1  0  0  0  0
 19 45  1  0  0  0  0
 19 46  1  0  0  0  0
 20 21  2  0  0  0  0
 20 22  1  0  0  0  0
M  CHG  1  22  -1
M  END
> <s_m_source_file>
AV-unprocessed.smi

> <i_m_source_file_index>
2124

> <i_lp_mmshare_version>
43012

> <i_f3d_flags>
0

> <s_epik_input>
W0NIM11jMW5jKFtDSDNdKWMoYyg9TylbbkhdMSlbQ0gyXUMoPU8pW05IXVtDQEhdKFtDSDNdKVtDQEhdKFtDSDJdW0NASF0yMylbQ0BIXShbQ0gyXTMpW0NIMl1bQ0gyXTI=

> <s_epik_cmdline>
J2VwaWtfcHl0aG9uJywgJy1waCcsICc3LjAnLCAnLXRuJywgJzgnLCAnLW1hJywgJzIwMCcsICctbWV0YWxfYmluZGluZycsICctaW1hZScsICc8aW5maWxlLm1hZT4nLCAnLW9tYWUnLCAnPG91dGZpbGUubWFlPic=

> <r_lp_tautomer_probability>
0.839158

> <r_epik_Ionization_Penalty>
6.63797

> <r_epik_Ionization_Penalty_Charging>
7.48558e-08

> <r_epik_Ionization_Penalty_Neutral>
6.63797

> <r_epik_State_Penalty>
4.49496

> <r_epik_Charging_Adjusted_Penalty>
4.49496

> <i_epik_Tot_Q>
-1

> <i_epik_Tot_abs_Q>
1

> <r_epik_Metal_State_Penalty>
0.841241

> <b_epik_Metal_Only>
1

> <s_lp_Force_Field>
OPLS_2005

> <r_lp_Energy>
55.4984

> <b_lp_Chiralities_Consistent>
1

> <s_lp_Variant>
AV-unprocessed.smi:2124-18

> <Gold.Version>
5.8.1

> <Gold.Id.Protein>
6NUR|6NUR_protein|mol2

> <Gold.PLP.Fitness>
41.6012

> <Gold.PLP.PLP>
-36.1787

> <Gold.PLP.part.hbond>
-2.0000

> <Gold.PLP.part.metal>
0.0000

> <Gold.PLP.part.buried>
-2.9638

> <Gold.PLP.part.nonpolar>
-30.9312

> <Gold.PLP.part.repulsive>
0.1124

> <Gold.PLP.ligand.clash>
0.0000

> <Gold.PLP.ligand.torsion>
0.3127

> <Gold.PLP.Chemscore.Hbond>
2.0000

> <Gold.PLP.Chemscore.CHOScore>
0.0000

> <Gold.PLP.Chemscore.Metal>
0.0000

> <Gold.Chemscore.Hbonds>
donor molecule, donor type, donor heavy atom, donor atom, acceptor molecule, acceptor atom, score
      P1  H  6896  6908       L1    21  0.68
      P1  H  7997  8008       L1     9  1.00

> <Gold.PLP.Chemscore.Internal.Correction>
0.0480

> <Gold.Rescore>
     Score         DG    S(hbond)    S(metal)    S(lipo)     H(rot)  DE(clash)    DE(int)     intcor
     19.10     -21.09       1.96        0.00     112.69       1.61       0.20       1.79       ----

> <Gold.Chemscore.Fitness>
19.1041

> <Gold.Chemscore.DG>
-21.0926

> <Gold.Chemscore.ZeroCoef>
-5.4800

> <Gold.Chemscore.Hbond>
1.9570

> <Gold.Chemscore.Metal>
0.0000

> <Gold.Chemscore.Lipo>
112.6948

> <Gold.Chemscore.Internal_Hbond>
0.0000

> <Gold.Chemscore.DEClash>
0.2031

> <Gold.Chemscore.DEInternal>
1.7854

> <Gold.Chemscore.Rot>
1.6051

> <Gold.Chemscore.Internal.Correction>
   9.000000E+99

> <Gold.Chemscore.Hbonds>
donor molecule, donor type, donor heavy atom, donor atom, acceptor molecule, acceptor atom, score
      P1  H  6896  6908       L1    21  0.65
      P1  H  7997  8008       L1     9  0.99

> <Gold.Chemscore.Hbond.Weighted>
-6.5363

> <Gold.Chemscore.Metal.Weighted>
-0.0000

> <Gold.Chemscore.Lipo.Weighted>
-13.1853

> <Gold.Chemscore.Internal_Hbond.Weighted>
0.0000

> <Gold.Chemscore.DEClash.Weighted>
0.2031

> <Gold.Chemscore.DEInternal.Weighted>
1.7854

> <Gold.Chemscore.Rot.Weighted>
4.1090

> <Gold.Chemscore.Internal.Correction.Weighted>
   9.000000E+99

> <Gold.Protein.RotatedTorsions>
[ 6907 6896 6895 6894 ] final  -80.93 input  -60.11 | X-H torsion
[ 7974 7965 7964 7962 ] final  -10.55 input  175.53 | X-H torsion
[ 8008 7997 7996 7995 ] final  -71.28 input   59.86 | X-H torsion
[ 10167 10162 10161 10158 ] final  -53.68 input  -65.29 | X-H torsion
[ 10718 10713 10712 10709 ] final  -21.37 input   66.30 | X-H torsion
[ 10763 10752 10751 10750 ] final  -15.19 input  -60.55 | X-H torsion
[ 11005 11000 10999 10996 ] final -100.92 input  -57.11 | X-H torsion

> <Gold.Protein.ActiveResidues>
 VAL166  LYS551  ARG553  GLY616  TRP617  ASP618  TYR619  PRO620  LYS621  CYS622 
 ASP623  PHE694  ASN695  SER759  ASP760  ASP761  ALA762  ILE779  LEU786  VAL792 
 PHE793  MET794  SER795  GLU796  ALA797  LYS798  CYS799  TRP800  GLU811  SER814 

> <Gold.Protein.RotatedAtoms>
  150.6920  134.3895  159.5069 H   0  0  0  0  0  0  0  0  0  0  0  0  # atno 6907 bound_to 6896
  152.1685  134.8851  160.0545 H   0  0  0  0  0  0  0  0  0  0  0  0  # atno 6908 bound_to 6896
  151.9886  133.3748  159.4172 H   0  0  0  0  0  0  0  0  0  0  0  0  # atno 6909 bound_to 6896
  146.2217  140.2781  142.8360 H   0  0  0  0  0  0  0  0  0  0  0  0  # atno 7974 bound_to 7965
  154.5075  140.0818  156.7924 H   0  0  0  0  0  0  0  0  0  0  0  0  # atno 8008 bound_to 7997
  155.3860  140.3430  155.4231 H   0  0  0  0  0  0  0  0  0  0  0  0  # atno 8009 bound_to 7997
  156.1533  140.1565  156.8721 H   0  0  0  0  0  0  0  0  0  0  0  0  # atno 8010 bound_to 7997
  140.6472  143.2542  151.4826 H   0  0  0  0  0  0  0  0  0  0  0  0  # atno 10167 bound_to 10162
  156.5191  130.4628  149.6606 H   0  0  0  0  0  0  0  0  0  0  0  0  # atno 10718 bound_to 10713
  153.5396  135.7013  153.5643 H   0  0  0  0  0  0  0  0  0  0  0  0  # atno 10763 bound_to 10752
  153.3615  135.3968  155.1721 H   0  0  0  0  0  0  0  0  0  0  0  0  # atno 10764 bound_to 10752
  154.8675  135.3790  154.4899 H   0  0  0  0  0  0  0  0  0  0  0  0  # atno 10765 bound_to 10752
  141.1251  133.8437  157.1165 H   0  0  0  0  0  0  0  0  0  0  0  0  # atno 11005 bound_to 11000
  144.9217  140.7876  143.5744 LP  0  0  0  0  0  0  0  0  0  0  0  0  # atno 17320 bound_to 7965
  145.2718  139.1951  143.4837 LP  0  0  0  0  0  0  0  0  0  0  0  0  # atno 17321 bound_to 7965
  139.5683  144.1988  152.1799 LP  0  0  0  0  0  0  0  0  0  0  0  0  # atno 17342 bound_to 10162
  140.1277  144.5316  150.6822 LP  0  0  0  0  0  0  0  0  0  0  0  0  # atno 17343 bound_to 10162
  156.3167  130.7258  151.2162 LP  0  0  0  0  0  0  0  0  0  0  0  0  # atno 17370 bound_to 10713
  157.7439  131.0467  150.4905 LP  0  0  0  0  0  0  0  0  0  0  0  0  # atno 17371 bound_to 10713
  140.0243  134.9931  157.0654 LP  0  0  0  0  0  0  0  0  0  0  0  0  # atno 17394 bound_to 11000
  140.4388  134.1702  155.7172 LP  0  0  0  0  0  0  0  0  0  0  0  0  # atno 17395 bound_to 11000

$$$$
