#       Name:                AV-unprocessed.smi:2392
#       Creating user name   scv26
#       Creation time:       Fri Mar 27 13:11:47 2020


#       File generated by GOLD software.
#

@<TRIPOS>MOLECULE
AV-unprocessed.smi:2392
    45    46     1
SMALL
NO_CHARGES


@<TRIPOS>ATOM
      1 ****        -4.4745   4.0558   1.4193 C.3            1 S1                 0.0000
      2 ****        -4.7782   2.5985   1.1427 C.ar           1 S1                 0.0000
      3 ****        -6.1066   2.1458   1.0205 C.ar           1 S1                 0.0000
      4 ****        -6.3204   0.7788   0.7686 C.ar           1 S1                 0.0000
      5 ****        -5.2052  -0.0735   0.6521 C.ar           1 S1                 0.0000
      6 ****        -3.9047   0.4613   0.7893 C.ar           1 S1                 0.0000
      7 ****        -2.8494  -0.4808   0.6619 N.am           1 S1                 0.0000
      8 ****        -1.5251  -0.2571   0.7260 C.2            1 S1                 0.0000
      9 ****        -0.9920   0.8427   0.8770 O.2            1 S1                 0.0000
     10 ****        -0.8316  -1.3975   0.5966 N.am           1 S1                 0.0000
     11 ****         0.6229  -1.4938   0.6318 C.3            1 S1                 0.0000
     12 ****         1.2485  -1.0724  -0.7113 C.3            1 S1                 0.0000
     13 ****         2.7275  -1.1951  -0.7046 N.4            1 S1                 1.0000
     14 ****         3.2843  -1.3806  -2.0701 C.3            1 S1                 0.0000
     15 ****         4.7982  -1.6478  -2.0214 C.3            1 S1                 0.0000
     16 ****         5.5318  -0.5189  -1.2863 C.3            1 S1                 0.0000
     17 ****         4.9196  -0.3163   0.1058 C.3            1 S1                 0.0000
     18 ****         3.4024  -0.0797   0.0129 C.3            1 S1                 0.0000
     19 ****        -3.7087   1.7815   1.0306 N.ar           1 S1                 0.0000
     20 ****        -5.3650   4.6739   1.3009 H              1 S1                 0.0000
     21 ****        -3.7120   4.4255   0.7329 H              1 S1                 0.0000
     22 ****        -4.1072   4.1770   2.4387 H              1 S1                 0.0000
     23 ****        -6.9407   2.8251   1.1176 H              1 S1                 0.0000
     24 ****        -7.3226   0.3894   0.6681 H              1 S1                 0.0000
     25 ****        -5.3524  -1.1267   0.4607 H              1 S1                 0.0000
     26 ****        -3.1380  -1.4370   0.5182 H              1 S1                 0.0000
     27 ****        -1.3458  -2.2580   0.4757 H              1 S1                 0.0000
     28 ****         1.0018  -0.8911   1.4577 H              1 S1                 0.0000
     29 ****         0.8878  -2.5273   0.8566 H              1 S1                 0.0000
     30 ****         0.8346  -1.7159  -1.4891 H              1 S1                 0.0000
     31 ****         0.9677  -0.0522  -0.9774 H              1 S1                 0.0000
     32 ****         2.7910  -2.2210  -2.5600 H              1 S1                 0.0000
     33 ****         3.0756  -0.4949  -2.6727 H              1 S1                 0.0000
     34 ****         4.9868  -2.5967  -1.5177 H              1 S1                 0.0000
     35 ****         5.1920  -1.7512  -3.0329 H              1 S1                 0.0000
     36 ****         6.5941  -0.7500  -1.2022 H              1 S1                 0.0000
     37 ****         5.4565   0.4053  -1.8608 H              1 S1                 0.0000
     38 ****         5.1167  -1.1927   0.7246 H              1 S1                 0.0000
     39 ****         5.3987   0.5277   0.6032 H              1 S1                 0.0000
     40 ****         3.2019   0.8604  -0.5036 H              1 S1                 0.0000
     41 ****         2.9997   0.0242   1.0198 H              1 S1                 0.0000
     42 ****         2.9402  -2.0432  -0.1991 H              1 S1                 0.0000
     43 ****        -1.5559   1.6640   0.9633 LP             1 S1                 0.0000
     44 ****         0.0048   0.9144   0.9132 LP             1 S1                 0.0000
     45 ****        -2.7822   2.1460   1.1245 LP             1 S1                 0.0000
@<TRIPOS>BOND
    1    1    2 1     
    2    1   20 1     
    3    1   21 1     
    4    1   22 1     
    5    2   19 ar    
    6    2    3 ar    
    7    3    4 ar    
    8    3   23 1     
    9    4    5 ar    
   10    4   24 1     
   11    5    6 ar    
   12    5   25 1     
   13    6    7 1     
   14    6   19 ar    
   15    7    8 am    
   16    7   26 1     
   17    8    9 2     
   18    8   10 am    
   19   10   11 1     
   20   10   27 1     
   21   11   12 1     
   22   11   28 1     
   23   11   29 1     
   24   12   13 1     
   25   12   30 1     
   26   12   31 1     
   27   13   18 1     
   28   13   14 1     
   29   13   42 1     
   30   14   15 1     
   31   14   32 1     
   32   14   33 1     
   33   15   16 1     
   34   15   34 1     
   35   15   35 1     
   36   16   17 1     
   37   16   36 1     
   38   16   37 1     
   39   17   18 1     
   40   17   38 1     
   41   17   39 1     
   42   18   40 1     
   43   18   41 1     
   44    9   43 1     
   45    9   44 1     
   46   19   45 1     
@<TRIPOS>SUBSTRUCTURE
      1 S1             1
@<TRIPOS>SET
LONE_PAIRS      STATIC     ATOMS    <user>   **** ""
3 43 44 45
DONOR_HYDROGENS      STATIC     ATOMS    <user>   **** ""
3 26 27 42
ATOM$BLUE        STATIC     ATOMS    COLORGROUP SYSTEM
3 43 44 45
ATOM$RED        STATIC     ATOMS    COLORGROUP SYSTEM
3 26 27 42
