AV-unprocessed.smi:266|AV-procd|sdf|2036|dock2
  -GOLD-   2262021243D 1   1.00000     0.00000
 Structure written by MMmdl.
 52 55  0  0  0  0  0  0  0  0  1 V2000
  143.2791  133.0212  148.5391 C   0  0  0  0  0  0  0  0  0  0  0  0
  144.0064  132.7201  149.8593 C   0  0  1  0  0  0  0  0  0  0  0  0
  145.0215  131.7483  149.6473 O   0  0  0  0  0  0  0  0  0  0  0  0
  145.9314  131.8456  150.7269 C   0  0  0  0  0  0  0  0  0  0  0  0
  146.1054  133.3505  150.8752 C   0  0  0  0  0  0  0  0  0  0  0  0
  144.7116  133.9103  150.5645 C   0  0  1  0  0  0  0  0  0  0  0  0
  144.8637  135.0191  149.6944 O   0  0  0  0  0  0  0  0  0  0  0  0
  143.9176  134.3680  151.8164 C   0  0  0  0  0  0  0  0  0  0  0  0
  144.7465  134.7683  152.9451 N   0  0  0  0  0  0  0  0  0  0  0  0
  145.0220  134.0218  154.0680 C   0  0  0  0  0  0  0  0  0  0  0  0
  145.7893  134.6030  154.9481 N   0  0  0  0  0  0  0  0  0  0  0  0
  146.0481  135.8567  154.4053 C   0  0  0  0  0  0  0  0  0  0  0  0
  146.7974  136.9956  154.8254 C   0  0  0  0  0  0  0  0  0  0  0  0
  147.4866  137.1018  155.9883 N   0  0  0  0  0  0  0  0  0  0  0  0
  146.6856  136.7698  157.1595 C   0  0  0  0  0  0  0  0  0  0  0  0
  148.4985  138.1475  156.1372 C   0  0  0  0  0  0  0  0  0  0  0  0
  149.9111  137.6124  156.4764 C   0  0  1  0  0  0  0  0  0  0  0  0
  150.5270  136.8924  155.2594 C   0  0  0  0  0  0  0  0  0  0  0  0
  151.0700  137.9338  154.2704 C   0  0  0  0  0  0  0  0  0  0  0  0
  151.5615  139.3817  155.2818 S   0  0  0  0  0  0  0  0  0  0  0  0
  153.0276  139.4480  155.3759 O   0  0  0  0  0  0  0  0  0  0  0  0
  150.7763  140.5493  154.8535 O   0  0  0  0  0  0  0  0  0  0  0  0
  150.8859  138.7397  156.8587 C   0  0  0  0  0  0  0  0  0  0  0  0
  146.8365  138.0644  153.9895 N   0  0  0  0  0  0  0  0  0  0  0  0
  146.1717  138.0399  152.8313 C   0  0  0  0  0  0  0  0  0  0  0  0
  145.4245  137.0605  152.3195 N   0  0  0  0  0  0  0  0  0  0  0  0
  145.3967  135.9747  153.1438 C   0  0  0  0  0  0  0  0  0  0  0  0
  142.5040  133.7747  148.6811 H   0  0  0  0  0  0  0  0  0  0  0  0
  142.8004  132.1227  148.1494 H   0  0  0  0  0  0  0  0  0  0  0  0
  143.9679  133.3826  147.7751 H   0  0  0  0  0  0  0  0  0  0  0  0
  143.2897  132.2670  150.5464 H   0  0  0  0  0  0  0  0  0  0  0  0
  145.4908  131.4092  151.6248 H   0  0  0  0  0  0  0  0  0  0  0  0
  146.8681  131.3304  150.5127 H   0  0  0  0  0  0  0  0  0  0  0  0
  146.4973  133.6242  151.8534 H   0  0  0  0  0  0  0  0  0  0  0  0
  146.8319  133.6871  150.1332 H   0  0  0  0  0  0  0  0  0  0  0  0
  145.5281  134.8117  149.0552 H   0  0  0  0  0  0  0  0  0  0  0  0
  143.2668  135.2054  151.5600 H   0  0  0  0  0  0  0  0  0  0  0  0
  143.2596  133.5660  152.1540 H   0  0  0  0  0  0  0  0  0  0  0  0
  144.6377  133.0224  154.2134 H   0  0  0  0  0  0  0  0  0  0  0  0
  146.4104  135.7147  157.1537 H   0  0  0  0  0  0  0  0  0  0  0  0
  145.7716  137.3647  157.1849 H   0  0  0  0  0  0  0  0  0  0  0  0
  147.2386  136.9615  158.0794 H   0  0  0  0  0  0  0  0  0  0  0  0
  148.5263  138.7513  155.2306 H   0  0  0  0  0  0  0  0  0  0  0  0
  148.1746  138.8257  156.9271 H   0  0  0  0  0  0  0  0  0  0  0  0
  149.8421  136.9019  157.2997 H   0  0  0  0  0  0  0  0  0  0  0  0
  151.3591  136.2788  155.6070 H   0  0  0  0  0  0  0  0  0  0  0  0
  149.8199  136.2130  154.7818 H   0  0  0  0  0  0  0  0  0  0  0  0
  151.9218  137.5687  153.6969 H   0  0  0  0  0  0  0  0  0  0  0  0
  150.2939  138.2548  153.5755 H   0  0  0  0  0  0  0  0  0  0  0  0
  150.4306  139.5475  157.4321 H   0  0  0  0  0  0  0  0  0  0  0  0
  151.7188  138.3400  157.4376 H   0  0  0  0  0  0  0  0  0  0  0  0
  146.2501  138.9326  152.2285 H   0  0  0  0  0  0  0  0  0  0  0  0
  1  2  1  0  0  0  0
  1 28  1  0  0  0  0
  1 29  1  0  0  0  0
  1 30  1  0  0  0  0
  2  6  1  0  0  0  0
  2  3  1  0  0  0  0
  2 31  1  0  0  0  0
  3  4  1  0  0  0  0
  4  5  1  0  0  0  0
  4 32  1  0  0  0  0
  4 33  1  0  0  0  0
  5  6  1  0  0  0  0
  5 34  1  0  0  0  0
  5 35  1  0  0  0  0
  6  7  1  0  0  0  0
  6  8  1  0  0  0  0
  7 36  1  0  0  0  0
  8  9  1  0  0  0  0
  8 37  1  0  0  0  0
  8 38  1  0  0  0  0
  9 27  1  0  0  0  0
  9 10  1  0  0  0  0
 10 11  2  0  0  0  0
 10 39  1  0  0  0  0
 11 12  1  0  0  0  0
 12 27  2  0  0  0  0
 12 13  1  0  0  0  0
 13 14  1  0  0  0  0
 13 24  2  0  0  0  0
 14 15  1  0  0  0  0
 14 16  1  0  0  0  0
 15 40  1  0  0  0  0
 15 41  1  0  0  0  0
 15 42  1  0  0  0  0
 16 17  1  0  0  0  0
 16 43  1  0  0  0  0
 16 44  1  0  0  0  0
 17 23  1  0  0  0  0
 17 18  1  0  0  0  0
 17 45  1  0  0  0  0
 18 19  1  0  0  0  0
 18 46  1  0  0  0  0
 18 47  1  0  0  0  0
 19 20  1  0  0  0  0
 19 48  1  0  0  0  0
 19 49  1  0  0  0  0
 20 21  2  0  0  0  0
 20 22  2  0  0  0  0
 20 23  1  0  0  0  0
 23 50  1  0  0  0  0
 23 51  1  0  0  0  0
 24 25  1  0  0  0  0
 25 26  2  0  0  0  0
 25 52  1  0  0  0  0
 26 27  1  0  0  0  0
M  END
> <s_m_source_file>
AV-unprocessed.smi

> <i_m_source_file_index>
266

> <i_lp_mmshare_version>
43012

> <i_f3d_flags>
0

> <s_epik_input>
W0NIMl0xW0NIMl1PW0NAQEhdKFtDSDNdKVtDQEBdMShbT0hdKVtDSDJdbihbY0hdbjIpYyhjMjMpbltjSF1uYzNOKFtDSDNdKVtDSDJdW0NAQEhdKFtDSDJdNClbQ0gyXVtDSDJdUzQoPU8pPU8=

> <s_epik_cmdline>
J2VwaWtfcHl0aG9uJywgJy1waCcsICc3LjAnLCAnLXRuJywgJzgnLCAnLW1hJywgJzIwMCcsICctbWV0YWxfYmluZGluZycsICctaW1hZScsICc8aW5maWxlLm1hZT4nLCAnLW9tYWUnLCAnPG91dGZpbGUubWFlPic=

> <r_lp_tautomer_probability>
1

> <r_epik_Ionization_Penalty>
0.00155497

> <r_epik_Ionization_Penalty_Charging>
0

> <r_epik_Ionization_Penalty_Neutral>
0.00155497

> <r_epik_State_Penalty>
-0

> <r_epik_Charging_Adjusted_Penalty>
0

> <i_epik_Tot_Q>
0

> <i_epik_Tot_abs_Q>
0

> <r_epik_Metal_State_Penalty>
-0

> <b_epik_Metal_Only>
0

> <s_lp_Force_Field>
OPLS_2005

> <r_lp_Energy>
31.7584

> <b_lp_Chiralities_Consistent>
1

> <s_lp_Variant>
AV-unprocessed.smi:266-6

> <Gold.Version>
5.8.1

> <Gold.Id.Protein>
6NUR|6NUR_protein|mol2

> <Gold.PLP.Fitness>
40.7794

> <Gold.PLP.PLP>
-31.5946

> <Gold.PLP.part.hbond>
-3.2036

> <Gold.PLP.part.metal>
0.0000

> <Gold.PLP.part.buried>
-4.1740

> <Gold.PLP.part.nonpolar>
-26.5958

> <Gold.PLP.part.repulsive>
0.6387

> <Gold.PLP.ligand.clash>
0.0000

> <Gold.PLP.ligand.torsion>
1.7394

> <Gold.PLP.Chemscore.Hbond>
3.0000

> <Gold.PLP.Chemscore.CHOScore>
1.0000

> <Gold.PLP.Chemscore.Metal>
0.0000

> <Gold.Chemscore.Hbonds>
donor molecule, donor type, donor heavy atom, donor atom, acceptor molecule, acceptor atom, score
      L1  H     7    36       P1  7921  1.00
      P1  H  7989  7998       L1    22  0.85
      P1  H  7997  8008       L1    21  1.00
      L1  C    10    39       P1 10957  1.00

> <Gold.PLP.Chemscore.Internal.Correction>
0.6636

> <Gold.Rescore>
     Score         DG    S(hbond)    S(metal)    S(lipo)     H(rot)  DE(clash)    DE(int)     intcor
     14.97     -17.70       2.93        0.00      74.26       2.45       1.12       1.61       ----

> <Gold.Chemscore.Fitness>
14.9651

> <Gold.Chemscore.DG>
-17.6984

> <Gold.Chemscore.ZeroCoef>
-5.4800

> <Gold.Chemscore.Hbond>
2.9326

> <Gold.Chemscore.Metal>
0.0000

> <Gold.Chemscore.Lipo>
74.2567

> <Gold.Chemscore.Internal_Hbond>
0.0000

> <Gold.Chemscore.DEClash>
1.1224

> <Gold.Chemscore.DEInternal>
1.6109

> <Gold.Chemscore.Rot>
2.4471

> <Gold.Chemscore.Internal.Correction>
   9.000000E+99

> <Gold.Chemscore.Hbonds>
donor molecule, donor type, donor heavy atom, donor atom, acceptor molecule, acceptor atom, score
      L1  H     7    36       P1  7921  0.92
      P1  H  7989  7998       L1    22  0.14
      P1  H  7997  8008       L1    21  1.00

> <Gold.Chemscore.Hbond.Weighted>
-9.7949

> <Gold.Chemscore.Metal.Weighted>
-0.0000

> <Gold.Chemscore.Lipo.Weighted>
-8.6880

> <Gold.Chemscore.Internal_Hbond.Weighted>
0.0000

> <Gold.Chemscore.DEClash.Weighted>
1.1224

> <Gold.Chemscore.DEInternal.Weighted>
1.6109

> <Gold.Chemscore.Rot.Weighted>
6.2645

> <Gold.Chemscore.Internal.Correction.Weighted>
   9.000000E+99

> <Gold.Protein.RotatedTorsions>
[ 6907 6896 6895 6894 ] final  173.17 input  -60.11 | X-H torsion
[ 7974 7965 7964 7962 ] final   17.64 input  175.53 | X-H torsion
[ 8008 7997 7996 7995 ] final  -22.90 input   59.86 | X-H torsion
[ 10167 10162 10161 10158 ] final  -47.54 input  -65.29 | X-H torsion
[ 10718 10713 10712 10709 ] final -114.41 input   66.30 | X-H torsion
[ 10763 10752 10751 10750 ] final   94.53 input  -60.55 | X-H torsion
[ 11005 11000 10999 10996 ] final -138.13 input  -57.11 | X-H torsion

> <Gold.Protein.ActiveResidues>
 VAL166  LYS551  ARG553  GLY616  TRP617  ASP618  TYR619  PRO620  LYS621  CYS622 
 ASP623  PHE694  ASN695  SER759  ASP760  ASP761  ALA762  ILE779  LEU786  VAL792 
 PHE793  MET794  SER795  GLU796  ALA797  LYS798  CYS799  TRP800  GLU811  SER814 

> <Gold.Protein.RotatedAtoms>
  151.7727  133.3342  159.3448 H   0  0  0  0  0  0  0  0  0  0  0  0  # atno 6907 bound_to 6896
  150.7456  134.6004  159.6043 H   0  0  0  0  0  0  0  0  0  0  0  0  # atno 6908 bound_to 6896
  152.3330  134.7236  160.0336 H   0  0  0  0  0  0  0  0  0  0  0  0  # atno 6909 bound_to 6896
  146.2212  139.8573  142.8611 H   0  0  0  0  0  0  0  0  0  0  0  0  # atno 7974 bound_to 7965
  154.4617  140.1995  156.0228 H   0  0  0  0  0  0  0  0  0  0  0  0  # atno 8008 bound_to 7997
  156.0852  140.3266  155.7715 H   0  0  0  0  0  0  0  0  0  0  0  0  # atno 8009 bound_to 7997
  155.5047  140.0557  157.2924 H   0  0  0  0  0  0  0  0  0  0  0  0  # atno 8010 bound_to 7997
  140.6770  143.2780  151.3942 H   0  0  0  0  0  0  0  0  0  0  0  0  # atno 10167 bound_to 10162
  156.0828  130.6025  150.8771 H   0  0  0  0  0  0  0  0  0  0  0  0  # atno 10718 bound_to 10713
  153.2426  135.4286  155.0714 H   0  0  0  0  0  0  0  0  0  0  0  0  # atno 10763 bound_to 10752
  154.8347  135.3406  154.6627 H   0  0  0  0  0  0  0  0  0  0  0  0  # atno 10764 bound_to 10752
  153.7050  135.7026  153.5109 H   0  0  0  0  0  0  0  0  0  0  0  0  # atno 10765 bound_to 10752
  140.8645  134.2128  157.4688 H   0  0  0  0  0  0  0  0  0  0  0  0  # atno 11005 bound_to 11000
  145.2740  141.0118  143.3755 LP  0  0  0  0  0  0  0  0  0  0  0  0  # atno 17320 bound_to 7965
  144.9201  139.4422  143.6545 LP  0  0  0  0  0  0  0  0  0  0  0  0  # atno 17321 bound_to 7965
  139.6069  144.1179  152.2258 LP  0  0  0  0  0  0  0  0  0  0  0  0  # atno 17342 bound_to 10162
  140.0581  144.5879  150.7284 LP  0  0  0  0  0  0  0  0  0  0  0  0  # atno 17343 bound_to 10162
  157.5951  131.0943  150.9054 LP  0  0  0  0  0  0  0  0  0  0  0  0  # atno 17370 bound_to 10713
  156.9222  130.5319  149.5279 LP  0  0  0  0  0  0  0  0  0  0  0  0  # atno 17371 bound_to 10713
  139.8708  134.9745  156.4849 LP  0  0  0  0  0  0  0  0  0  0  0  0  # atno 17394 bound_to 11000
  140.8645  133.8035  155.9299 LP  0  0  0  0  0  0  0  0  0  0  0  0  # atno 17395 bound_to 11000

$$$$
