#       Name:                AV-unprocessed.smi:946
#       Creating user name   scv26
#       Creation time:       Fri Mar 27 02:14:52 2020


#       File generated by GOLD software.
#

@<TRIPOS>MOLECULE
AV-unprocessed.smi:946
    49    50     1
SMALL
NO_CHARGES


@<TRIPOS>ATOM
      1 ****        -1.4477  -2.4115  -2.3866 C.3            1 S1                 0.0000
      2 ****        -1.0277  -1.6222  -1.1376 C.3            1 S1                 0.0000
      3 ****         0.3970  -1.5781  -1.1155 O.3            1 S1                 0.0000
      4 ****         0.9780  -1.1164   0.0991 C.3            1 S1                 0.0000
      5 ****         2.4986  -1.3046   0.0245 C.3            1 S1                 0.0000
      6 ****         3.2237  -0.5725   1.1708 C.3            1 S1                 0.0000
      7 ****         4.7296  -0.8551   1.1248 C.3            1 S1                 0.0000
      8 ****         4.9695  -2.3681   1.0986 C.3            1 S1                 0.0000
      9 ****         4.1549  -3.0181  -0.0307 C.3            1 S1                 0.0000
     10 ****         2.7750  -2.7005   0.1237 O.3            1 S1                 0.0000
     11 ****        -1.6120  -0.2001  -1.1477 C.2            1 S1                 0.0000
     12 ****        -1.4770   0.5087  -2.1457 O.2            1 S1                 0.0000
     13 ****        -2.2369   0.1805  -0.0175 N.am           1 S1                 0.0000
     14 ****        -2.8566   1.4249   0.2700 C.ar           1 S1                 0.0000
     15 ****        -3.4278   1.5260   1.5576 C.ar           1 S1                 0.0000
     16 ****        -4.0645   2.7218   1.9399 C.ar           1 S1                 0.0000
     17 ****        -4.1149   3.7877   1.0243 C.ar           1 S1                 0.0000
     18 ****        -3.5224   3.6089  -0.2440 C.ar           1 S1                 0.0000
     19 ****        -3.5368   4.7109  -1.2943 C.3            1 S1                 0.0000
     20 ****        -4.1672   4.2817  -2.3878 F              1 S1                 0.0000
     21 ****        -4.1581   5.8050  -0.8526 F              1 S1                 0.0000
     22 ****        -2.2862   5.0388  -1.6196 F              1 S1                 0.0000
     23 ****        -2.9111   2.4582  -0.6059 N.ar           1 S1                 0.0000
     24 ****        -2.5334  -2.4691  -2.4724 H              1 S1                 0.0000
     25 ****        -1.0670  -3.4322  -2.3432 H              1 S1                 0.0000
     26 ****        -1.0620  -1.9563  -3.2997 H              1 S1                 0.0000
     27 ****        -1.3845  -2.1624  -0.2584 H              1 S1                 0.0000
     28 ****         0.7502  -0.0590   0.2384 H              1 S1                 0.0000
     29 ****         0.5718  -1.6554   0.9565 H              1 S1                 0.0000
     30 ****         2.8579  -0.9234  -0.9332 H              1 S1                 0.0000
     31 ****         3.0455   0.5014   1.1075 H              1 S1                 0.0000
     32 ****         2.8209  -0.9004   2.1301 H              1 S1                 0.0000
     33 ****         5.1620  -0.3983   0.2339 H              1 S1                 0.0000
     34 ****         5.2286  -0.4053   1.9835 H              1 S1                 0.0000
     35 ****         6.0313  -2.5801   0.9708 H              1 S1                 0.0000
     36 ****         4.6756  -2.8030   2.0548 H              1 S1                 0.0000
     37 ****         4.5090  -2.6875  -1.0085 H              1 S1                 0.0000
     38 ****         4.2716  -4.1015  -0.0002 H              1 S1                 0.0000
     39 ****        -2.2688  -0.5027   0.7248 H              1 S1                 0.0000
     40 ****        -3.3811   0.6976   2.2495 H              1 S1                 0.0000
     41 ****        -4.5074   2.8190   2.9200 H              1 S1                 0.0000
     42 ****        -4.5982   4.7143   1.2963 H              1 S1                 0.0000
     43 ****         0.6977  -0.9710  -1.8509 LP             1 S1                 0.0000
     44 ****         0.7363  -2.5030  -1.2871 LP             1 S1                 0.0000
     45 ****         2.2588  -3.1769  -0.5881 LP             1 S1                 0.0000
     46 ****         2.4753  -3.0196   1.0229 LP             1 S1                 0.0000
     47 ****        -0.9890   0.1587  -2.9452 LP             1 S1                 0.0000
     48 ****        -1.8555   1.4342  -2.1565 LP             1 S1                 0.0000
     49 ****        -2.5018   2.3700  -1.5140 LP             1 S1                 0.0000
@<TRIPOS>BOND
    1    1    2 1     
    2    1   24 1     
    3    1   25 1     
    4    1   26 1     
    5    2    3 1     
    6    2   11 1     
    7    2   27 1     
    8    3    4 1     
    9    4    5 1     
   10    4   28 1     
   11    4   29 1     
   12    5   10 1     
   13    5    6 1     
   14    5   30 1     
   15    6    7 1     
   16    6   31 1     
   17    6   32 1     
   18    7    8 1     
   19    7   33 1     
   20    7   34 1     
   21    8    9 1     
   22    8   35 1     
   23    8   36 1     
   24    9   10 1     
   25    9   37 1     
   26    9   38 1     
   27   11   12 2     
   28   11   13 am    
   29   13   14 1     
   30   13   39 1     
   31   14   23 ar    
   32   14   15 ar    
   33   15   16 ar    
   34   15   40 1     
   35   16   17 ar    
   36   16   41 1     
   37   17   18 ar    
   38   17   42 1     
   39   18   19 1     
   40   18   23 ar    
   41   19   20 1     
   42   19   21 1     
   43   19   22 1     
   44    3   43 1     
   45    3   44 1     
   46   10   45 1     
   47   10   46 1     
   48   12   47 1     
   49   12   48 1     
   50   23   49 1     
@<TRIPOS>SUBSTRUCTURE
      1 S1             1
@<TRIPOS>SET
LONE_PAIRS      STATIC     ATOMS    <user>   **** ""
7 43 44 45 46 47 48 49
DONOR_HYDROGENS      STATIC     ATOMS    <user>   **** ""
1 39
ATOM$BLUE        STATIC     ATOMS    COLORGROUP SYSTEM
7 43 44 45 46 47 48 49
ATOM$RED        STATIC     ATOMS    COLORGROUP SYSTEM
1 39
