AV-unprocessed.smi:300|AV-procd|sdf|2269|dock3
  -GOLD-   2262022163D 1   1.00000     0.00000
 Structure written by MMmdl.
 45 46  0  0  0  0  0  0  0  0  1 V2000
  145.5865  137.1638  155.4790 C   0  0  0  0  0  0  0  0  0  0  0  0
  146.0598  137.9806  154.3808 N   0  0  0  0  0  0  0  0  0  0  0  0
  145.9045  137.5058  153.0560 C   0  0  0  0  0  0  0  0  0  0  0  0
  145.3781  136.4236  152.7956 O   0  0  0  0  0  0  0  0  0  0  0  0
  146.4274  138.4000  152.0299 C   0  0  0  0  0  0  0  0  0  0  0  0
  147.0111  139.5722  152.3621 C   0  0  0  0  0  0  0  0  0  0  0  0
  147.1591  140.0079  153.6663 N   0  0  0  0  0  0  0  0  0  0  0  0
  147.8209  141.2911  153.9348 C   0  0  0  0  0  0  0  0  0  0  0  0
  149.1719  141.1371  154.6465 C   0  0  0  0  0  0  0  0  0  0  0  0
  149.8900  140.1589  154.4336 O   0  0  0  0  0  0  0  0  0  0  0  0
  149.5146  142.1320  155.4784 N   0  0  0  0  0  0  0  0  0  0  0  0
  150.7528  142.1925  156.2450 C   0  0  0  0  0  0  0  0  0  0  0  0
  150.9016  140.9730  157.1738 C   0  0  0  0  0  0  0  0  0  0  0  0
  151.4659  141.3582  158.4757 N   0  0  0  0  0  0  0  0  0  0  0  0
  150.8307  142.5124  159.1303 C   0  0  0  0  0  0  0  0  0  0  0  0
  151.7844  143.7144  159.2730 C   0  0  0  0  0  0  0  0  0  0  0  0
  152.7363  143.6182  160.4744 C   0  0  0  0  0  0  0  0  0  0  0  0
  153.7215  142.4421  160.4100 C   0  0  0  0  0  0  0  0  0  0  0  0
  153.0286  141.0695  160.3978 C   0  0  0  0  0  0  0  0  0  0  0  0
  152.5115  140.6805  159.0071 C   0  0  0  0  0  0  0  0  0  0  0  0
  153.0608  139.7444  158.4244 O   0  0  0  0  0  0  0  0  0  0  0  0
  146.6823  139.2016  154.7220 C   0  0  0  0  0  0  0  0  0  0  0  0
  146.8143  139.5585  155.8956 O   0  0  0  0  0  0  0  0  0  0  0  0
  144.9428  136.3607  155.1211 H   0  0  0  0  0  0  0  0  0  0  0  0
  145.0076  137.8036  156.1479 H   0  0  0  0  0  0  0  0  0  0  0  0
  146.4688  136.7596  155.9775 H   0  0  0  0  0  0  0  0  0  0  0  0
  146.3484  138.1182  150.9902 H   0  0  0  0  0  0  0  0  0  0  0  0
  147.3861  140.1970  151.5646 H   0  0  0  0  0  0  0  0  0  0  0  0
  147.9901  141.8246  152.9986 H   0  0  0  0  0  0  0  0  0  0  0  0
  147.1642  141.9337  154.5244 H   0  0  0  0  0  0  0  0  0  0  0  0
  148.8699  142.9012  155.5911 H   0  0  0  0  0  0  0  0  0  0  0  0
  151.5821  142.2343  155.5383 H   0  0  0  0  0  0  0  0  0  0  0  0
  150.7906  143.1192  156.8203 H   0  0  0  0  0  0  0  0  0  0  0  0
  149.9377  140.4795  157.3024 H   0  0  0  0  0  0  0  0  0  0  0  0
  151.5339  140.2208  156.6981 H   0  0  0  0  0  0  0  0  0  0  0  0
  149.9677  142.8451  158.5530 H   0  0  0  0  0  0  0  0  0  0  0  0
  150.4265  142.2197  160.1003 H   0  0  0  0  0  0  0  0  0  0  0  0
  152.3488  143.8611  158.3510 H   0  0  0  0  0  0  0  0  0  0  0  0
  151.1825  144.6151  159.3980 H   0  0  0  0  0  0  0  0  0  0  0  0
  153.3049  144.5459  160.5452 H   0  0  0  0  0  0  0  0  0  0  0  0
  152.1538  143.5550  161.3944 H   0  0  0  0  0  0  0  0  0  0  0  0
  154.3714  142.5483  159.5401 H   0  0  0  0  0  0  0  0  0  0  0  0
  154.3785  142.4936  161.2787 H   0  0  0  0  0  0  0  0  0  0  0  0
  153.7495  140.3124  160.7094 H   0  0  0  0  0  0  0  0  0  0  0  0
  152.2218  141.0268  161.1300 H   0  0  0  0  0  0  0  0  0  0  0  0
  1  2  1  0  0  0  0
  1 24  1  0  0  0  0
  1 25  1  0  0  0  0
  1 26  1  0  0  0  0
  2 22  1  0  0  0  0
  2  3  1  0  0  0  0
  3  4  2  0  0  0  0
  3  5  1  0  0  0  0
  5  6  2  0  0  0  0
  5 27  1  0  0  0  0
  6  7  1  0  0  0  0
  6 28  1  0  0  0  0
  7  8  1  0  0  0  0
  7 22  1  0  0  0  0
  8  9  1  0  0  0  0
  8 29  1  0  0  0  0
  8 30  1  0  0  0  0
  9 10  2  0  0  0  0
  9 11  1  0  0  0  0
 11 12  1  0  0  0  0
 11 31  1  0  0  0  0
 12 13  1  0  0  0  0
 12 32  1  0  0  0  0
 12 33  1  0  0  0  0
 13 14  1  0  0  0  0
 13 34  1  0  0  0  0
 13 35  1  0  0  0  0
 14 20  1  0  0  0  0
 14 15  1  0  0  0  0
 15 16  1  0  0  0  0
 15 36  1  0  0  0  0
 15 37  1  0  0  0  0
 16 17  1  0  0  0  0
 16 38  1  0  0  0  0
 16 39  1  0  0  0  0
 17 18  1  0  0  0  0
 17 40  1  0  0  0  0
 17 41  1  0  0  0  0
 18 19  1  0  0  0  0
 18 42  1  0  0  0  0
 18 43  1  0  0  0  0
 19 20  1  0  0  0  0
 19 44  1  0  0  0  0
 19 45  1  0  0  0  0
 20 21  2  0  0  0  0
 22 23  2  0  0  0  0
M  END
> <s_m_source_file>
AV-unprocessed.smi

> <i_m_source_file_index>
300

> <i_lp_mmshare_version>
43012

> <i_f3d_flags>
0

> <s_epik_input>
W0NIM11uMWMoPU8pW2NIXVtjSF1uKGMxPU8pW0NIMl1DKD1PKVtOSF1bQ0gyXVtDSDJdTjJbQ0gyXVtDSDJdW0NIMl1bQ0gyXVtDSDJdQzI9Tw==

> <s_epik_cmdline>
J2VwaWtfcHl0aG9uJywgJy1waCcsICc3LjAnLCAnLXRuJywgJzgnLCAnLW1hJywgJzIwMCcsICctbWV0YWxfYmluZGluZycsICctaW1hZScsICc8aW5maWxlLm1hZT4nLCAnLW9tYWUnLCAnPG91dGZpbGUubWFlPic=

> <r_lp_tautomer_probability>
1

> <r_epik_Ionization_Penalty>
6.11943e-08

> <r_epik_Ionization_Penalty_Charging>
1.13819e-08

> <r_epik_Ionization_Penalty_Neutral>
4.98124e-08

> <r_epik_State_Penalty>
-0

> <r_epik_Charging_Adjusted_Penalty>
1.13819e-08

> <i_epik_Tot_Q>
0

> <i_epik_Tot_abs_Q>
0

> <r_epik_Metal_State_Penalty>
-0

> <b_epik_Metal_Only>
0

> <s_lp_Force_Field>
OPLS_2005

> <r_lp_Energy>
25.2871

> <b_lp_Chiralities_Consistent>
1

> <s_lp_Variant>
AV-unprocessed.smi:300-1

> <Gold.Version>
5.8.1

> <Gold.Id.Protein>
6NUR|6NUR_protein|mol2

> <Gold.PLP.Fitness>
51.4128

> <Gold.PLP.PLP>
-42.7625

> <Gold.PLP.part.hbond>
-3.0000

> <Gold.PLP.part.metal>
0.0000

> <Gold.PLP.part.buried>
-1.4741

> <Gold.PLP.part.nonpolar>
-38.6880

> <Gold.PLP.part.repulsive>
1.1452

> <Gold.PLP.ligand.clash>
0.0000

> <Gold.PLP.ligand.torsion>
0.8097

> <Gold.PLP.Chemscore.Hbond>
2.8720

> <Gold.PLP.Chemscore.CHOScore>
0.5373

> <Gold.PLP.Chemscore.Metal>
0.0000

> <Gold.Chemscore.Hbonds>
donor molecule, donor type, donor heavy atom, donor atom, acceptor molecule, acceptor atom, score
      L1  H    11    31       P1  8028  0.80
      P1  H  7989  7998       L1    10  0.81
      P1  H  7997  8010       L1    21  0.84
      L1  C     6    28       P1  7957  0.74

> <Gold.PLP.Chemscore.Internal.Correction>
0.0418

> <Gold.Rescore>
     Score         DG    S(hbond)    S(metal)    S(lipo)     H(rot)  DE(clash)    DE(int)     intcor
     16.38     -18.75       2.44        0.00      91.38       2.18       0.55       1.82       ----

> <Gold.Chemscore.Fitness>
16.3789

> <Gold.Chemscore.DG>
-18.7474

> <Gold.Chemscore.ZeroCoef>
-5.4800

> <Gold.Chemscore.Hbond>
2.4437

> <Gold.Chemscore.Metal>
0.0000

> <Gold.Chemscore.Lipo>
91.3805

> <Gold.Chemscore.Internal_Hbond>
0.0000

> <Gold.Chemscore.DEClash>
0.5472

> <Gold.Chemscore.DEInternal>
1.8212

> <Gold.Chemscore.Rot>
2.1820

> <Gold.Chemscore.Internal.Correction>
   9.000000E+99

> <Gold.Chemscore.Hbonds>
donor molecule, donor type, donor heavy atom, donor atom, acceptor molecule, acceptor atom, score
      L1  H    11    31       P1  8028  0.80
      P1  H  7989  7998       L1    10  0.42
      P1  H  7997  8010       L1    21  0.81

> <Gold.Chemscore.Hbond.Weighted>
-8.1618

> <Gold.Chemscore.Metal.Weighted>
-0.0000

> <Gold.Chemscore.Lipo.Weighted>
-10.6915

> <Gold.Chemscore.Internal_Hbond.Weighted>
0.0000

> <Gold.Chemscore.DEClash.Weighted>
0.5472

> <Gold.Chemscore.DEInternal.Weighted>
1.8212

> <Gold.Chemscore.Rot.Weighted>
5.5860

> <Gold.Chemscore.Internal.Correction.Weighted>
   9.000000E+99

> <Gold.Protein.RotatedTorsions>
[ 6907 6896 6895 6894 ] final -178.23 input  -60.11 | X-H torsion
[ 7974 7965 7964 7962 ] final  -29.00 input  175.53 | X-H torsion
[ 8008 7997 7996 7995 ] final   29.67 input   59.86 | X-H torsion
[ 10167 10162 10161 10158 ] final   79.17 input  -65.29 | X-H torsion
[ 10718 10713 10712 10709 ] final  -48.08 input   66.30 | X-H torsion
[ 10763 10752 10751 10750 ] final   35.65 input  -60.55 | X-H torsion
[ 11005 11000 10999 10996 ] final   22.56 input  -57.11 | X-H torsion

> <Gold.Protein.ActiveResidues>
 VAL166  LYS551  ARG553  GLY616  TRP617  ASP618  TYR619  PRO620  LYS621  CYS622 
 ASP623  PHE694  ASN695  SER759  ASP760  ASP761  ALA762  ILE779  LEU786  VAL792 
 PHE793  MET794  SER795  GLU796  ALA797  LYS798  CYS799  TRP800  GLU811  SER814 

> <Gold.Protein.RotatedAtoms>
  151.6339  133.3330  159.3114 H   0  0  0  0  0  0  0  0  0  0  0  0  # atno 6907 bound_to 6896
  150.8042  134.7160  159.6640 H   0  0  0  0  0  0  0  0  0  0  0  0  # atno 6908 bound_to 6896
  152.4136  134.6085  160.0070 H   0  0  0  0  0  0  0  0  0  0  0  0  # atno 6909 bound_to 6896
  146.1248  140.5356  142.8719 H   0  0  0  0  0  0  0  0  0  0  0  0  # atno 7974 bound_to 7965
  155.0782  140.3207  155.4609 H   0  0  0  0  0  0  0  0  0  0  0  0  # atno 8008 bound_to 7997
  156.2774  140.2099  156.5855 H   0  0  0  0  0  0  0  0  0  0  0  0  # atno 8009 bound_to 7997
  154.7000  140.0508  157.0435 H   0  0  0  0  0  0  0  0  0  0  0  0  # atno 8010 bound_to 7997
  139.9632  144.5946  150.8053 H   0  0  0  0  0  0  0  0  0  0  0  0  # atno 10167 bound_to 10162
  156.2022  130.4157  149.9225 H   0  0  0  0  0  0  0  0  0  0  0  0  # atno 10718 bound_to 10713
  153.0110  135.6327  154.1861 H   0  0  0  0  0  0  0  0  0  0  0  0  # atno 10763 bound_to 10752
  154.1603  135.2824  155.3112 H   0  0  0  0  0  0  0  0  0  0  0  0  # atno 10764 bound_to 10752
  154.5987  135.5594  153.7412 H   0  0  0  0  0  0  0  0  0  0  0  0  # atno 10765 bound_to 10752
  140.3792  134.1938  155.7664 H   0  0  0  0  0  0  0  0  0  0  0  0  # atno 11005 bound_to 11000
  144.7632  140.5469  143.6721 LP  0  0  0  0  0  0  0  0  0  0  0  0  # atno 17320 bound_to 7965
  145.5389  139.1475  143.3458 LP  0  0  0  0  0  0  0  0  0  0  0  0  # atno 17321 bound_to 7965
  140.7546  143.3031  151.3030 LP  0  0  0  0  0  0  0  0  0  0  0  0  # atno 17342 bound_to 10162
  139.6538  144.0314  152.2645 LP  0  0  0  0  0  0  0  0  0  0  0  0  # atno 17343 bound_to 10162
  156.6931  130.8903  151.3590 LP  0  0  0  0  0  0  0  0  0  0  0  0  # atno 17370 bound_to 10713
  157.6992  130.9315  150.0735 LP  0  0  0  0  0  0  0  0  0  0  0  0  # atno 17371 bound_to 10713
  141.1929  133.8163  157.0821 LP  0  0  0  0  0  0  0  0  0  0  0  0  # atno 17394 bound_to 11000
  140.0491  134.9815  157.1104 LP  0  0  0  0  0  0  0  0  0  0  0  0  # atno 17395 bound_to 11000

$$$$
