AV-unprocessed.smi:3303|AV-procd|sdf|12675|dock7
  -GOLD-   2272019 13D 1   1.00000     0.00000
 Structure written by MMmdl.
 44 45  0  0  0  0  0  0  0  0  2 V2000
  147.6232  139.6807  153.5767 C   0  0  0  0  0  0  0  0  0  0  0  0
  148.9811  140.2701  153.9939 C   0  0  2  0  0  0  0  0  0  0  0  0
  149.9366  139.1359  154.4191 C   0  0  0  0  0  0  0  0  0  0  0  0
  151.2355  139.6743  154.8227 N   0  0  0  0  0  0  0  0  0  0  0  0
  152.1911  138.5944  155.0351 C   0  0  0  0  0  0  0  0  0  0  0  0
  151.1471  140.5906  155.9694 C   0  0  2  0  0  0  0  0  0  0  0  0
  150.7204  139.9229  157.2969 C   0  0  0  0  0  0  0  0  0  0  0  0
  150.2361  141.7733  155.5825 C   0  0  0  0  0  0  0  0  0  0  0  0
  148.8402  141.3184  155.1189 C   0  0  1  0  0  0  0  0  0  0  0  0
  148.0689  142.4907  154.6482 N   0  3  0  0  0  0  0  0  0  0  0  0
  146.6049  142.3020  154.6259 C   0  0  0  0  0  0  0  0  0  0  0  0
  145.9486  143.2177  153.5839 C   0  0  0  0  0  0  0  0  0  0  0  0
  145.0451  144.2561  154.2212 C   0  0  0  0  0  0  0  0  0  0  0  0
  144.4431  145.2650  153.4394 C   0  0  0  0  0  0  0  0  0  0  0  0
  143.6064  146.1997  154.0799 C   0  0  0  0  0  0  0  0  0  0  0  0
  143.4059  146.0898  155.4693 C   0  0  0  0  0  0  0  0  0  0  0  0
  144.0512  145.0444  156.1596 C   0  0  0  0  0  0  0  0  0  0  0  0
  144.8537  144.1414  155.5547 N   0  0  0  0  0  0  0  0  0  0  0  0
  147.1299  139.1909  154.4169 H   0  0  0  0  0  0  0  0  0  0  0  0
  147.7460  138.9385  152.7874 H   0  0  0  0  0  0  0  0  0  0  0  0
  146.9497  140.4488  153.1964 H   0  0  0  0  0  0  0  0  0  0  0  0
  149.4157  140.7592  153.1203 H   0  0  0  0  0  0  0  0  0  0  0  0
  149.5016  138.5403  155.2220 H   0  0  0  0  0  0  0  0  0  0  0  0
  150.0818  138.4594  153.5757 H   0  0  0  0  0  0  0  0  0  0  0  0
  153.1617  138.9912  155.3342 H   0  0  0  0  0  0  0  0  0  0  0  0
  152.3350  138.0318  154.1121 H   0  0  0  0  0  0  0  0  0  0  0  0
  151.8511  137.8963  155.8004 H   0  0  0  0  0  0  0  0  0  0  0  0
  152.1474  140.9963  156.1266 H   0  0  0  0  0  0  0  0  0  0  0  0
  150.6720  140.6629  158.0959 H   0  0  0  0  0  0  0  0  0  0  0  0
  151.4355  139.1663  157.6186 H   0  0  0  0  0  0  0  0  0  0  0  0
  149.7405  139.4508  157.2380 H   0  0  0  0  0  0  0  0  0  0  0  0
  150.1457  142.4630  156.4229 H   0  0  0  0  0  0  0  0  0  0  0  0
  150.7169  142.3372  154.7813 H   0  0  0  0  0  0  0  0  0  0  0  0
  148.3242  140.8574  155.9626 H   0  0  0  0  0  0  0  0  0  0  0  0
  148.2857  143.2778  155.2429 H   0  0  0  0  0  0  0  0  0  0  0  0
  146.3809  141.2599  154.3938 H   0  0  0  0  0  0  0  0  0  0  0  0
  146.2025  142.5079  155.6188 H   0  0  0  0  0  0  0  0  0  0  0  0
  146.7144  143.7277  152.9972 H   0  0  0  0  0  0  0  0  0  0  0  0
  145.3671  142.6231  152.8778 H   0  0  0  0  0  0  0  0  0  0  0  0
  144.6154  145.3239  152.3746 H   0  0  0  0  0  0  0  0  0  0  0  0
  143.1266  146.9859  153.5156 H   0  0  0  0  0  0  0  0  0  0  0  0
  142.7721  146.7899  155.9934 H   0  0  0  0  0  0  0  0  0  0  0  0
  143.9182  144.9296  157.2253 H   0  0  0  0  0  0  0  0  0  0  0  0
  148.3725  142.7065  153.7095 H   0  0  0  0  0  0  0  0  0  0  0  0
  1  2  1  0  0  0  0
  1 19  1  0  0  0  0
  1 20  1  0  0  0  0
  1 21  1  0  0  0  0
  2  9  1  0  0  0  0
  2  3  1  0  0  0  0
  2 22  1  0  0  0  0
  3  4  1  0  0  0  0
  3 23  1  0  0  0  0
  3 24  1  0  0  0  0
  4  5  1  0  0  0  0
  4  6  1  0  0  0  0
  5 25  1  0  0  0  0
  5 26  1  0  0  0  0
  5 27  1  0  0  0  0
  6  7  1  0  0  0  0
  6  8  1  0  0  0  0
  6 28  1  0  0  0  0
  7 29  1  0  0  0  0
  7 30  1  0  0  0  0
  7 31  1  0  0  0  0
  8  9  1  0  0  0  0
  8 32  1  0  0  0  0
  8 33  1  0  0  0  0
  9 10  1  0  0  0  0
  9 34  1  0  0  0  0
 10 11  1  0  0  0  0
 10 35  1  0  0  0  0
 10 44  1  0  0  0  0
 11 12  1  0  0  0  0
 11 36  1  0  0  0  0
 11 37  1  0  0  0  0
 12 13  1  0  0  0  0
 12 38  1  0  0  0  0
 12 39  1  0  0  0  0
 13 18  1  0  0  0  0
 13 14  2  0  0  0  0
 14 15  1  0  0  0  0
 14 40  1  0  0  0  0
 15 16  2  0  0  0  0
 15 41  1  0  0  0  0
 16 17  1  0  0  0  0
 16 42  1  0  0  0  0
 17 18  2  0  0  0  0
 17 43  1  0  0  0  0
M  CHG  1  10   1
M  END
> <s_m_source_file>
AV-unprocessed.smi

> <i_m_source_file_index>
3303

> <i_lp_mmshare_version>
43012

> <i_f3d_flags>
0

> <s_epik_input>
W0NIM11bQ0BASF0xW0NIMl1OKFtDSDNdKVtDQEBIXShbQ0gzXSlbQ0gyXVtDQEhdMVtOSF1bQ0gyXVtDSDJdYzJbY0hdW2NIXVtjSF1bY0hdbjI=

> <s_epik_cmdline>
J2VwaWtfcHl0aG9uJywgJy1waCcsICc3LjAnLCAnLXRuJywgJzgnLCAnLW1hJywgJzIwMCcsICctbWV0YWxfYmluZGluZycsICctaW1hZScsICc8aW5maWxlLm1hZT4nLCAnLW9tYWUnLCAnPG91dGZpbGUubWFlPic=

> <r_epik_Ionization_Penalty>
1.37325

> <r_epik_Ionization_Penalty_Charging>
0.000251572

> <r_epik_Ionization_Penalty_Neutral>
1.373

> <r_epik_State_Penalty>
1.46343

> <r_epik_Charging_Adjusted_Penalty>
1.46368

> <i_epik_Tot_Q>
1

> <i_epik_Tot_abs_Q>
1

> <r_epik_Metal_State_Penalty>
1.46331

> <b_epik_Metal_Only>
0

> <s_lp_Force_Field>
OPLS_2005

> <r_lp_Energy>
23.1884

> <b_lp_Chiralities_Consistent>
1

> <s_lp_Variant>
AV-unprocessed.smi:3303-19

> <Gold.Version>
5.8.1

> <Gold.Id.Protein>
6NUR|6NUR_protein|mol2

> <Gold.PLP.Fitness>
46.9998

> <Gold.PLP.PLP>
-39.4682

> <Gold.PLP.part.hbond>
-2.0000

> <Gold.PLP.part.metal>
0.0000

> <Gold.PLP.part.buried>
-2.7233

> <Gold.PLP.part.nonpolar>
-34.6396

> <Gold.PLP.part.repulsive>
0.3900

> <Gold.PLP.ligand.clash>
0.0000

> <Gold.PLP.ligand.torsion>
0.7376

> <Gold.PLP.Chemscore.Hbond>
3.0000

> <Gold.PLP.Chemscore.CHOScore>
0.0000

> <Gold.PLP.Chemscore.Metal>
0.0000

> <Gold.Chemscore.Hbonds>
donor molecule, donor type, donor heavy atom, donor atom, acceptor molecule, acceptor atom, score
      L1  H    10    35       P1  8028  2.00
      P1  H  7989  7998       L1     4  1.00

> <Gold.PLP.Chemscore.Internal.Correction>
0.0067

> <Gold.Rescore>
     Score         DG    S(hbond)    S(metal)    S(lipo)     H(rot)  DE(clash)    DE(int)     intcor
     15.24     -17.12       1.01        0.00      99.62       1.33       0.97       0.90       ----

> <Gold.Chemscore.Fitness>
15.2436

> <Gold.Chemscore.DG>
-17.1154

> <Gold.Chemscore.ZeroCoef>
-5.4800

> <Gold.Chemscore.Hbond>
1.0132

> <Gold.Chemscore.Metal>
0.0000

> <Gold.Chemscore.Lipo>
99.6216

> <Gold.Chemscore.Internal_Hbond>
0.0000

> <Gold.Chemscore.DEClash>
0.9693

> <Gold.Chemscore.DEInternal>
0.9025

> <Gold.Chemscore.Rot>
1.3298

> <Gold.Chemscore.Internal.Correction>
   9.000000E+99

> <Gold.Chemscore.Hbonds>
donor molecule, donor type, donor heavy atom, donor atom, acceptor molecule, acceptor atom, score
      L1  H    10    35       P1  8028  0.94
      P1  H  7989  7998       L1     4  0.11

> <Gold.Chemscore.Hbond.Weighted>
-3.3840

> <Gold.Chemscore.Metal.Weighted>
-0.0000

> <Gold.Chemscore.Lipo.Weighted>
-11.6557

> <Gold.Chemscore.Internal_Hbond.Weighted>
0.0000

> <Gold.Chemscore.DEClash.Weighted>
0.9693

> <Gold.Chemscore.DEInternal.Weighted>
0.9025

> <Gold.Chemscore.Rot.Weighted>
3.4043

> <Gold.Chemscore.Internal.Correction.Weighted>
   9.000000E+99

> <Gold.Protein.RotatedTorsions>
[ 6907 6896 6895 6894 ] final   53.42 input  -60.11 | X-H torsion
[ 7974 7965 7964 7962 ] final  140.40 input  175.53 | X-H torsion
[ 8008 7997 7996 7995 ] final  -12.00 input   59.86 | X-H torsion
[ 10167 10162 10161 10158 ] final  102.95 input  -65.29 | X-H torsion
[ 10718 10713 10712 10709 ] final  -60.10 input   66.30 | X-H torsion
[ 10763 10752 10751 10750 ] final -158.31 input  -60.55 | X-H torsion
[ 11005 11000 10999 10996 ] final   15.05 input  -57.11 | X-H torsion

> <Gold.Protein.ActiveResidues>
 VAL166  LYS551  ARG553  GLY616  TRP617  ASP618  TYR619  PRO620  LYS621  CYS622 
 ASP623  PHE694  ASN695  SER759  ASP760  ASP761  ALA762  ILE779  LEU786  VAL792 
 PHE793  MET794  SER795  GLU796  ALA797  LYS798  CYS799  TRP800  GLU811  SER814 

> <Gold.Protein.RotatedAtoms>
  152.3335  134.7228  160.0282 H   0  0  0  0  0  0  0  0  0  0  0  0  # atno 6907 bound_to 6896
  151.7636  133.3330  159.3433 H   0  0  0  0  0  0  0  0  0  0  0  0  # atno 6908 bound_to 6896
  150.7437  134.6015  159.6083 H   0  0  0  0  0  0  0  0  0  0  0  0  # atno 6909 bound_to 6896
  144.9190  139.5192  143.5672 H   0  0  0  0  0  0  0  0  0  0  0  0  # atno 7974 bound_to 7965
  154.5415  140.2287  155.8633 H   0  0  0  0  0  0  0  0  0  0  0  0  # atno 8008 bound_to 7997
  156.1863  140.3088  155.9206 H   0  0  0  0  0  0  0  0  0  0  0  0  # atno 8009 bound_to 7997
  155.3248  140.0442  157.3031 H   0  0  0  0  0  0  0  0  0  0  0  0  # atno 8010 bound_to 7997
  139.7305  144.7037  151.0730 H   0  0  0  0  0  0  0  0  0  0  0  0  # atno 10167 bound_to 10162
  156.1014  130.4186  150.0807 H   0  0  0  0  0  0  0  0  0  0  0  0  # atno 10718 bound_to 10713
  154.7566  135.3106  154.8457 H   0  0  0  0  0  0  0  0  0  0  0  0  # atno 10763 bound_to 10752
  153.9229  135.6793  153.4751 H   0  0  0  0  0  0  0  0  0  0  0  0  # atno 10764 bound_to 10752
  153.1164  135.4842  154.9053 H   0  0  0  0  0  0  0  0  0  0  0  0  # atno 10765 bound_to 10752
  140.4626  134.1112  155.7719 H   0  0  0  0  0  0  0  0  0  0  0  0  # atno 11005 bound_to 11000
  146.3196  139.8055  142.8956 LP  0  0  0  0  0  0  0  0  0  0  0  0  # atno 17320 bound_to 7965
  145.3327  141.0270  143.3437 LP  0  0  0  0  0  0  0  0  0  0  0  0  # atno 17321 bound_to 7965
  140.7770  143.5049  150.9724 LP  0  0  0  0  0  0  0  0  0  0  0  0  # atno 17342 bound_to 10162
  139.8737  143.7159  152.3164 LP  0  0  0  0  0  0  0  0  0  0  0  0  # atno 17343 bound_to 10162
  156.8793  130.9551  151.3601 LP  0  0  0  0  0  0  0  0  0  0  0  0  # atno 17370 bound_to 10713
  157.6185  130.8637  149.9068 LP  0  0  0  0  0  0  0  0  0  0  0  0  # atno 17371 bound_to 10713
  141.1614  133.8786  157.1837 LP  0  0  0  0  0  0  0  0  0  0  0  0  # atno 17394 bound_to 11000
  139.9935  135.0055  157.0030 LP  0  0  0  0  0  0  0  0  0  0  0  0  # atno 17395 bound_to 11000

$$$$
