AV-unprocessed.smi:1657|AV-procd|sdf|6647|dock2
  -GOLD-   22720 7353D 1   1.00000     0.00000
 Structure written by MMmdl.
 52 54  0  0  0  0  0  0  0  0  2 V2000
  149.6633  135.3582  156.2732 O   0  0  0  0  0  0  0  0  0  0  0  0
  149.5589  135.7166  155.1001 C   0  0  0  0  0  0  0  0  0  0  0  0
  149.1147  134.9144  154.1222 N   0  0  0  0  0  0  0  0  0  0  0  0
  148.6933  133.5306  154.3071 C   0  0  0  0  0  0  0  0  0  0  0  0
  147.6760  133.1030  153.2320 C   0  0  0  0  0  0  0  0  0  0  0  0
  146.9195  134.2550  152.6803 N   0  3  0  0  0  0  0  0  0  0  0  0
  146.0897  133.8725  151.5076 C   0  0  0  0  0  0  0  0  0  0  0  0
  145.4256  135.1042  150.8694 C   0  0  0  0  0  0  0  0  0  0  0  0
  144.5882  135.8726  151.8994 C   0  0  0  0  0  0  0  0  0  0  0  0
  145.4510  136.2268  153.1174 C   0  0  0  0  0  0  0  0  0  0  0  0
  146.1149  134.9709  153.7073 C   0  0  0  0  0  0  0  0  0  0  0  0
  149.8895  136.9292  154.6244 N   0  0  0  0  0  0  0  0  0  0  0  0
  150.3879  138.0493  155.3421 C   0  0  0  0  0  0  0  0  0  0  0  0
  150.8338  139.2463  154.7366 C   0  0  0  0  0  0  0  0  0  0  0  0
  151.3269  140.2815  155.5536 C   0  0  0  0  0  0  0  0  0  0  0  0
  151.3684  140.0994  156.9566 C   0  0  0  0  0  0  0  0  0  0  0  0
  151.8541  141.1265  157.7967 N   0  0  0  0  0  0  0  0  0  0  0  0
  152.1257  140.7980  159.1955 C   0  0  0  0  0  0  0  0  0  0  0  0
  152.9127  141.9328  159.8725 C   0  0  0  0  0  0  0  0  0  0  0  0
  152.2087  143.1609  159.7230 O   0  0  0  0  0  0  0  0  0  0  0  0
  152.0560  143.5186  158.3537 C   0  0  0  0  0  0  0  0  0  0  0  0
  151.2393  142.4405  157.6202 C   0  0  0  0  0  0  0  0  0  0  0  0
  150.9593  138.9407  157.5301 N   0  0  0  0  0  0  0  0  0  0  0  0
  150.4893  137.9503  156.7436 C   0  0  0  0  0  0  0  0  0  0  0  0
  149.0616  135.2888  153.1858 H   0  0  0  0  0  0  0  0  0  0  0  0
  149.5726  132.8856  154.3073 H   0  0  0  0  0  0  0  0  0  0  0  0
  148.2454  133.4431  155.2973 H   0  0  0  0  0  0  0  0  0  0  0  0
  148.2264  132.6129  152.4274 H   0  0  0  0  0  0  0  0  0  0  0  0
  146.9776  132.3604  153.6213 H   0  0  0  0  0  0  0  0  0  0  0  0
  146.7107  133.3770  150.7604 H   0  0  0  0  0  0  0  0  0  0  0  0
  145.3304  133.1527  151.8174 H   0  0  0  0  0  0  0  0  0  0  0  0
  146.1920  135.7606  150.4549 H   0  0  0  0  0  0  0  0  0  0  0  0
  144.7964  134.7971  150.0334 H   0  0  0  0  0  0  0  0  0  0  0  0
  144.1756  136.7776  151.4522 H   0  0  0  0  0  0  0  0  0  0  0  0
  143.7395  135.2631  152.2131 H   0  0  0  0  0  0  0  0  0  0  0  0
  146.2183  136.9464  152.8280 H   0  0  0  0  0  0  0  0  0  0  0  0
  144.8393  136.7159  153.8763 H   0  0  0  0  0  0  0  0  0  0  0  0
  145.3534  134.2992  154.1073 H   0  0  0  0  0  0  0  0  0  0  0  0
  146.7435  135.2662  154.5464 H   0  0  0  0  0  0  0  0  0  0  0  0
  149.8350  137.0466  153.6230 H   0  0  0  0  0  0  0  0  0  0  0  0
  150.8249  139.3838  153.6664 H   0  0  0  0  0  0  0  0  0  0  0  0
  151.6838  141.1900  155.0923 H   0  0  0  0  0  0  0  0  0  0  0  0
  151.1817  140.6354  159.7174 H   0  0  0  0  0  0  0  0  0  0  0  0
  152.7003  139.8733  159.2635 H   0  0  0  0  0  0  0  0  0  0  0  0
  153.0363  141.7213  160.9346 H   0  0  0  0  0  0  0  0  0  0  0  0
  153.9136  142.0199  159.4467 H   0  0  0  0  0  0  0  0  0  0  0  0
  151.5463  144.4802  158.2933 H   0  0  0  0  0  0  0  0  0  0  0  0
  153.0349  143.6481  157.8888 H   0  0  0  0  0  0  0  0  0  0  0  0
  151.1600  142.7148  156.5696 H   0  0  0  0  0  0  0  0  0  0  0  0
  150.2236  142.4089  158.0165 H   0  0  0  0  0  0  0  0  0  0  0  0
  150.1777  137.0507  157.2541 H   0  0  0  0  0  0  0  0  0  0  0  0
  147.6066  134.9093  152.3341 H   0  0  0  0  0  0  0  0  0  0  0  0
  1  2  2  0  0  0  0
  2  3  1  0  0  0  0
  2 12  1  0  0  0  0
  3  4  1  0  0  0  0
  3 25  1  0  0  0  0
  4  5  1  0  0  0  0
  4 26  1  0  0  0  0
  4 27  1  0  0  0  0
  5  6  1  0  0  0  0
  5 28  1  0  0  0  0
  5 29  1  0  0  0  0
  6 11  1  0  0  0  0
  6  7  1  0  0  0  0
  6 52  1  0  0  0  0
  7  8  1  0  0  0  0
  7 30  1  0  0  0  0
  7 31  1  0  0  0  0
  8  9  1  0  0  0  0
  8 32  1  0  0  0  0
  8 33  1  0  0  0  0
  9 10  1  0  0  0  0
  9 34  1  0  0  0  0
  9 35  1  0  0  0  0
 10 11  1  0  0  0  0
 10 36  1  0  0  0  0
 10 37  1  0  0  0  0
 11 38  1  0  0  0  0
 11 39  1  0  0  0  0
 12 13  1  0  0  0  0
 12 40  1  0  0  0  0
 13 24  1  0  0  0  0
 13 14  2  0  0  0  0
 14 15  1  0  0  0  0
 14 41  1  0  0  0  0
 15 16  2  0  0  0  0
 15 42  1  0  0  0  0
 16 17  1  0  0  0  0
 16 23  1  0  0  0  0
 17 22  1  0  0  0  0
 17 18  1  0  0  0  0
 18 19  1  0  0  0  0
 18 43  1  0  0  0  0
 18 44  1  0  0  0  0
 19 20  1  0  0  0  0
 19 45  1  0  0  0  0
 19 46  1  0  0  0  0
 20 21  1  0  0  0  0
 21 22  1  0  0  0  0
 21 47  1  0  0  0  0
 21 48  1  0  0  0  0
 22 49  1  0  0  0  0
 22 50  1  0  0  0  0
 23 24  2  0  0  0  0
 24 51  1  0  0  0  0
M  CHG  1   6   1
M  END
> <s_m_source_file>
AV-unprocessed.smi

> <i_m_source_file_index>
1657

> <i_lp_mmshare_version>
43012

> <i_f3d_flags>
0

> <s_epik_input>
W0NIMl0xW0NIMl1bQ0gyXVtDSDJdW0NIMl1OMVtDSDJdW0NIMl1bTkhdQyg9TylbTkhdYzJbY0hdW2NIXWMobltjSF0yKU4zW0NIMl1bQ0gyXU9bQ0gyXVtDSDJdMw==

> <s_epik_cmdline>
J2VwaWtfcHl0aG9uJywgJy1waCcsICc3LjAnLCAnLXRuJywgJzgnLCAnLW1hJywgJzIwMCcsICctbWV0YWxfYmluZGluZycsICctaW1hZScsICc8aW5maWxlLm1hZT4nLCAnLW9tYWUnLCAnPG91dGZpbGUubWFlPic=

> <r_lp_tautomer_probability>
1

> <r_epik_Ionization_Penalty>
0.00380107

> <r_epik_Ionization_Penalty_Charging>
0.00211816

> <r_epik_Ionization_Penalty_Neutral>
0.00168291

> <r_epik_State_Penalty>
-0

> <r_epik_Charging_Adjusted_Penalty>
0.00211816

> <i_epik_Tot_Q>
1

> <i_epik_Tot_abs_Q>
1

> <r_epik_Metal_State_Penalty>
-0

> <b_epik_Metal_Only>
0

> <s_lp_Force_Field>
OPLS_2005

> <r_lp_Energy>
33.9821

> <b_lp_Chiralities_Consistent>
1

> <s_lp_Variant>
AV-unprocessed.smi:1657-1

> <Gold.Version>
5.8.1

> <Gold.Id.Protein>
6NUR|6NUR_protein|mol2

> <Gold.PLP.Fitness>
49.2159

> <Gold.PLP.PLP>
-38.7912

> <Gold.PLP.part.hbond>
-3.0000

> <Gold.PLP.part.metal>
0.0000

> <Gold.PLP.part.buried>
-3.3959

> <Gold.PLP.part.nonpolar>
-32.4424

> <Gold.PLP.part.repulsive>
0.0749

> <Gold.PLP.ligand.clash>
0.0000

> <Gold.PLP.ligand.torsion>
0.6129

> <Gold.PLP.Chemscore.Hbond>
3.7441

> <Gold.PLP.Chemscore.CHOScore>
0.0000

> <Gold.PLP.Chemscore.Metal>
0.0000

> <Gold.Chemscore.Hbonds>
donor molecule, donor type, donor heavy atom, donor atom, acceptor molecule, acceptor atom, score
      L1  H     3    25       P1  7948  1.00
      L1  H     6    52       P1  7948  2.00
      L1  H    12    40       P1  7948  0.74

> <Gold.PLP.Chemscore.Internal.Correction>
0.4182

> <Gold.Rescore>
     Score         DG    S(hbond)    S(metal)    S(lipo)     H(rot)  DE(clash)    DE(int)     intcor
     18.06     -20.28       2.43        0.00      92.63       1.62       0.19       2.03       ----

> <Gold.Chemscore.Fitness>
18.0623

> <Gold.Chemscore.DG>
-20.2786

> <Gold.Chemscore.ZeroCoef>
-5.4800

> <Gold.Chemscore.Hbond>
2.4275

> <Gold.Chemscore.Metal>
0.0000

> <Gold.Chemscore.Lipo>
92.6347

> <Gold.Chemscore.Internal_Hbond>
0.0000

> <Gold.Chemscore.DEClash>
0.1876

> <Gold.Chemscore.DEInternal>
2.0287

> <Gold.Chemscore.Rot>
1.6201

> <Gold.Chemscore.Internal.Correction>
   9.000000E+99

> <Gold.Chemscore.Hbonds>
donor molecule, donor type, donor heavy atom, donor atom, acceptor molecule, acceptor atom, score
      L1  H     3    25       P1  7948  0.29
      L1  H     6    52       P1  7948  0.92
      L1  H    12    40       P1  7948  0.39

> <Gold.Chemscore.Hbond.Weighted>
-8.1079

> <Gold.Chemscore.Metal.Weighted>
-0.0000

> <Gold.Chemscore.Lipo.Weighted>
-10.8383

> <Gold.Chemscore.Internal_Hbond.Weighted>
0.0000

> <Gold.Chemscore.DEClash.Weighted>
0.1876

> <Gold.Chemscore.DEInternal.Weighted>
2.0287

> <Gold.Chemscore.Rot.Weighted>
4.1475

> <Gold.Chemscore.Internal.Correction.Weighted>
   9.000000E+99

> <Gold.Protein.RotatedTorsions>
[ 6907 6896 6895 6894 ] final  -74.66 input  -60.11 | X-H torsion
[ 7974 7965 7964 7962 ] final  -96.40 input  175.53 | X-H torsion
[ 8008 7997 7996 7995 ] final  158.56 input   59.86 | X-H torsion
[ 10167 10162 10161 10158 ] final  163.91 input  -65.29 | X-H torsion
[ 10718 10713 10712 10709 ] final -155.50 input   66.30 | X-H torsion
[ 10763 10752 10751 10750 ] final  -72.42 input  -60.55 | X-H torsion
[ 11005 11000 10999 10996 ] final   41.92 input  -57.11 | X-H torsion

> <Gold.Protein.ActiveResidues>
 VAL166  LYS551  ARG553  GLY616  TRP617  ASP618  TYR619  PRO620  LYS621  CYS622 
 ASP623  PHE694  ASN695  SER759  ASP760  ASP761  ALA762  ILE779  LEU786  VAL792 
 PHE793  MET794  SER795  GLU796  ALA797  LYS798  CYS799  TRP800  GLU811  SER814 

> <Gold.Protein.RotatedAtoms>
  150.7085  134.4837  159.5482 H   0  0  0  0  0  0  0  0  0  0  0  0  # atno 6907 bound_to 6896
  152.2469  134.8170  160.0461 H   0  0  0  0  0  0  0  0  0  0  0  0  # atno 6908 bound_to 6896
  151.8931  133.3485  159.3842 H   0  0  0  0  0  0  0  0  0  0  0  0  # atno 6909 bound_to 6896
  145.3473  140.9470  143.2574 H   0  0  0  0  0  0  0  0  0  0  0  0  # atno 7974 bound_to 7965
  156.2295  140.1855  156.7278 H   0  0  0  0  0  0  0  0  0  0  0  0  # atno 8008 bound_to 7997
  154.5998  140.0638  156.9381 H   0  0  0  0  0  0  0  0  0  0  0  0  # atno 8009 bound_to 7997
  155.2194  140.3306  155.4320 H   0  0  0  0  0  0  0  0  0  0  0  0  # atno 8010 bound_to 7997
  139.4881  144.4289  151.9095 H   0  0  0  0  0  0  0  0  0  0  0  0  # atno 10167 bound_to 10162
  156.5137  130.8446  151.2656 H   0  0  0  0  0  0  0  0  0  0  0  0  # atno 10718 bound_to 10713
  154.4455  135.5930  153.6157 H   0  0  0  0  0  0  0  0  0  0  0  0  # atno 10763 bound_to 10752
  152.9809  135.6008  154.3670 H   0  0  0  0  0  0  0  0  0  0  0  0  # atno 10764 bound_to 10752
  154.3525  135.2841  155.2343 H   0  0  0  0  0  0  0  0  0  0  0  0  # atno 10765 bound_to 10752
  140.1788  134.4129  155.8212 H   0  0  0  0  0  0  0  0  0  0  0  0  # atno 11005 bound_to 11000
  144.8744  139.4992  143.6752 LP  0  0  0  0  0  0  0  0  0  0  0  0  # atno 17320 bound_to 7965
  146.2982  139.7345  142.9110 LP  0  0  0  0  0  0  0  0  0  0  0  0  # atno 17321 bound_to 7965
  140.3736  144.2824  150.5917 LP  0  0  0  0  0  0  0  0  0  0  0  0  # atno 17342 bound_to 10162
  140.5296  143.2246  151.8259 LP  0  0  0  0  0  0  0  0  0  0  0  0  # atno 17343 bound_to 10162
  157.7447  130.9941  150.2695 LP  0  0  0  0  0  0  0  0  0  0  0  0  # atno 17370 bound_to 10713
  156.3215  130.3786  149.7571 LP  0  0  0  0  0  0  0  0  0  0  0  0  # atno 17371 bound_to 10713
  141.2222  133.6990  156.7894 LP  0  0  0  0  0  0  0  0  0  0  0  0  # atno 17394 bound_to 11000
  140.2291  134.8699  157.3458 LP  0  0  0  0  0  0  0  0  0  0  0  0  # atno 17395 bound_to 11000

$$$$
