AV-unprocessed.smi:99|AV-procd|sdf|877|dock7
  -GOLD-   2262017353D 1   1.00000     0.00000
 Structure written by MMmdl.
 53 56  0  0  0  0  0  0  0  0  1 V2000
  148.8700  134.3953  158.5351 O   0  0  0  0  0  0  0  0  0  0  0  0
  147.6702  134.1770  158.7166 C   0  0  0  0  0  0  0  0  0  0  0  0
  146.8039  133.9002  157.7231 O   0  0  0  0  0  0  0  0  0  0  0  0
  147.2629  133.8109  156.3850 C   0  0  0  0  0  0  0  0  0  0  0  0
  147.9238  132.4381  156.1750 C   0  0  2  0  0  0  0  0  0  0  0  0
  149.1997  132.4470  156.8162 O   0  0  0  0  0  0  0  0  0  0  0  0
  150.2370  132.6255  155.8911 C   0  0  1  0  0  0  0  0  0  0  0  0
  151.1515  131.4208  155.9343 N   0  0  0  0  0  0  0  0  0  0  0  0
  151.0332  130.3811  155.0203 C   0  0  0  0  0  0  0  0  0  0  0  0
  151.8492  129.3007  155.0210 C   0  0  0  0  0  0  0  0  0  0  0  0
  152.9198  129.1818  156.0051 C   0  0  0  0  0  0  0  0  0  0  0  0
  153.7061  128.2408  156.0869 O   0  0  0  0  0  0  0  0  0  0  0  0
  153.0112  130.2553  156.8953 N   0  0  0  0  0  0  0  0  0  0  0  0
  152.1799  131.3765  156.9013 C   0  0  0  0  0  0  0  0  0  0  0  0
  152.3651  132.2758  157.7203 O   0  0  0  0  0  0  0  0  0  0  0  0
  149.6152  132.7602  154.4936 C   0  0  2  0  0  0  0  0  0  0  0  0
  149.5189  134.1219  154.1190 O   0  0  0  0  0  0  0  0  0  0  0  0
  148.2582  132.1099  154.7193 C   0  0  2  0  0  0  0  0  0  0  0  0
  147.2667  132.4911  153.7715 O   0  0  0  0  0  0  0  0  0  0  0  0
  146.7739  131.5978  152.8875 C   0  0  0  0  0  0  0  0  0  0  0  0
  147.0050  130.3881  152.9374 O   0  0  0  0  0  0  0  0  0  0  0  0
  145.9256  132.2311  151.8377 C   0  0  0  0  0  0  0  0  0  0  0  0
  145.8652  133.6418  151.7531 C   0  0  0  0  0  0  0  0  0  0  0  0
  145.0693  134.2684  150.7745 C   0  0  0  0  0  0  0  0  0  0  0  0
  144.3239  133.4915  149.8687 C   0  0  0  0  0  0  0  0  0  0  0  0
  144.3756  132.0873  149.9422 C   0  0  0  0  0  0  0  0  0  0  0  0
  145.1712  131.4589  150.9199 C   0  0  0  0  0  0  0  0  0  0  0  0
  147.0236  134.1950  160.0603 C   0  0  0  0  0  0  0  0  0  0  0  0
  145.7651  133.5728  160.2324 C   0  0  0  0  0  0  0  0  0  0  0  0
  145.1307  133.5743  161.4899 C   0  0  0  0  0  0  0  0  0  0  0  0
  145.7460  134.1993  162.5900 C   0  0  0  0  0  0  0  0  0  0  0  0
  146.9972  134.8230  162.4314 C   0  0  0  0  0  0  0  0  0  0  0  0
  147.6338  134.8216  161.1750 C   0  0  0  0  0  0  0  0  0  0  0  0
  153.7443  130.2194  157.5887 H   0  0  0  0  0  0  0  0  0  0  0  0
  146.4104  133.9213  155.7136 H   0  0  0  0  0  0  0  0  0  0  0  0
  147.9587  134.6227  156.1719 H   0  0  0  0  0  0  0  0  0  0  0  0
  147.2907  131.6582  156.5995 H   0  0  0  0  0  0  0  0  0  0  0  0
  150.8416  133.4807  156.1998 H   0  0  0  0  0  0  0  0  0  0  0  0
  150.2645  130.4186  154.2627 H   0  0  0  0  0  0  0  0  0  0  0  0
  151.7102  128.5200  154.2870 H   0  0  0  0  0  0  0  0  0  0  0  0
  150.2054  132.2339  153.7423 H   0  0  0  0  0  0  0  0  0  0  0  0
  150.3620  134.5289  154.2483 H   0  0  0  0  0  0  0  0  0  0  0  0
  148.3939  131.0281  154.6727 H   0  0  0  0  0  0  0  0  0  0  0  0
  146.4283  134.2591  152.4383 H   0  0  0  0  0  0  0  0  0  0  0  0
  145.0303  135.3464  150.7199 H   0  0  0  0  0  0  0  0  0  0  0  0
  143.7126  133.9721  149.1190 H   0  0  0  0  0  0  0  0  0  0  0  0
  143.8034  131.4903  149.2476 H   0  0  0  0  0  0  0  0  0  0  0  0
  145.1868  130.3791  150.9490 H   0  0  0  0  0  0  0  0  0  0  0  0
  145.2732  133.0858  159.4027 H   0  0  0  0  0  0  0  0  0  0  0  0
  144.1707  133.0945  161.6102 H   0  0  0  0  0  0  0  0  0  0  0  0
  145.2591  134.2005  163.5541 H   0  0  0  0  0  0  0  0  0  0  0  0
  147.4704  135.3037  163.2747 H   0  0  0  0  0  0  0  0  0  0  0  0
  148.5928  135.3111  161.0878 H   0  0  0  0  0  0  0  0  0  0  0  0
  1  2  2  0  0  0  0
  2  3  1  0  0  0  0
  2 28  1  0  0  0  0
  3  4  1  0  0  0  0
  4  5  1  0  0  0  0
  4 35  1  0  0  0  0
  4 36  1  0  0  0  0
  5 18  1  0  0  0  0
  5  6  1  0  0  0  0
  5 37  1  0  0  0  0
  6  7  1  0  0  0  0
  7  8  1  0  0  0  0
  7 16  1  0  0  0  0
  7 38  1  0  0  0  0
  8 14  1  0  0  0  0
  8  9  1  0  0  0  0
  9 10  2  0  0  0  0
  9 39  1  0  0  0  0
 10 11  1  0  0  0  0
 10 40  1  0  0  0  0
 11 12  2  0  0  0  0
 11 13  1  0  0  0  0
 13 34  1  0  0  0  0
 13 14  1  0  0  0  0
 14 15  2  0  0  0  0
 16 17  1  0  0  0  0
 16 18  1  0  0  0  0
 16 41  1  0  0  0  0
 17 42  1  0  0  0  0
 18 19  1  0  0  0  0
 18 43  1  0  0  0  0
 19 20  1  0  0  0  0
 20 21  2  0  0  0  0
 20 22  1  0  0  0  0
 22 27  1  0  0  0  0
 22 23  2  0  0  0  0
 23 24  1  0  0  0  0
 23 44  1  0  0  0  0
 24 25  2  0  0  0  0
 24 45  1  0  0  0  0
 25 26  1  0  0  0  0
 25 46  1  0  0  0  0
 26 27  2  0  0  0  0
 26 47  1  0  0  0  0
 27 48  1  0  0  0  0
 28 33  1  0  0  0  0
 28 29  2  0  0  0  0
 29 30  1  0  0  0  0
 29 49  1  0  0  0  0
 30 31  2  0  0  0  0
 30 50  1  0  0  0  0
 31 32  1  0  0  0  0
 31 51  1  0  0  0  0
 32 33  2  0  0  0  0
 32 52  1  0  0  0  0
 33 53  1  0  0  0  0
M  END
> <s_m_source_file>
AV-unprocessed.smi

> <i_m_source_file_index>
99

> <i_lp_mmshare_version>
43012

> <i_f3d_flags>
0

> <s_epik_input>
W2NIXTFbY0hdW2NIXVtjSF1bY0hdYzFDKD1PKU9bQ0gyXVtDQEBIXTJPW0NAQEhdKG4zW2NIXVtjSF1jKD1PKVtuSF1jMz1PKVtDQEBIXShbT0hdKVtDQEhdMk9DKD1PKWM0W2NIXVtjSF1bY0hdW2NIXVtjSF00

> <s_epik_cmdline>
J2VwaWtfcHl0aG9uJywgJy1waCcsICc3LjAnLCAnLXRuJywgJzgnLCAnLW1hJywgJzIwMCcsICctbWV0YWxfYmluZGluZycsICctaW1hZScsICc8aW5maWxlLm1hZT4nLCAnLW9tYWUnLCAnPG91dGZpbGUubWFlPic=

> <r_lp_tautomer_probability>
1

> <r_epik_Ionization_Penalty>
0.00454555

> <r_epik_Ionization_Penalty_Charging>
0.0045191

> <r_epik_Ionization_Penalty_Neutral>
2.64449e-05

> <r_epik_State_Penalty>
-0

> <r_epik_Charging_Adjusted_Penalty>
0.0045191

> <i_epik_Tot_Q>
0

> <i_epik_Tot_abs_Q>
0

> <r_epik_Metal_State_Penalty>
1.27877

> <b_epik_Metal_Only>
0

> <s_epik_Chemistry_Notes>
This compound has an ester and may undergo hydrolysis at high or low pH. This compound contains an acetal/aminal-like group ( X-CH(R)-Y where X, Y are N, S, or O) that may be acid/base labile, releasing an aldehyde.

> <s_lp_Force_Field>
OPLS_2005

> <r_lp_Energy>
39.429

> <b_lp_Chiralities_Consistent>
1

> <s_lp_Variant>
AV-unprocessed.smi:99-13

> <Gold.Version>
5.8.1

> <Gold.Id.Protein>
6NUR|6NUR_protein|mol2

> <Gold.PLP.Fitness>
50.0557

> <Gold.PLP.PLP>
-47.5536

> <Gold.PLP.part.hbond>
-3.0000

> <Gold.PLP.part.metal>
0.0000

> <Gold.PLP.part.buried>
-6.5726

> <Gold.PLP.part.nonpolar>
-38.0788

> <Gold.PLP.part.repulsive>
0.2099

> <Gold.PLP.ligand.clash>
0.0000

> <Gold.PLP.ligand.torsion>
1.8007

> <Gold.PLP.Chemscore.Hbond>
2.0000

> <Gold.PLP.Chemscore.CHOScore>
0.0000

> <Gold.PLP.Chemscore.Metal>
0.0000

> <Gold.Chemscore.Hbonds>
donor molecule, donor type, donor heavy atom, donor atom, acceptor molecule, acceptor atom, score
      P1  H  6896  6907       L1     1  1.00
      P1  H  6896  6909       L1    15  1.00

> <Gold.PLP.Chemscore.Internal.Correction>
0.1035

> <Gold.Rescore>
     Score         DG    S(hbond)    S(metal)    S(lipo)     H(rot)  DE(clash)    DE(int)     intcor
     13.67     -16.83       1.99        0.00     109.92       3.19       0.00       3.16       ----

> <Gold.Chemscore.Fitness>
13.6715

> <Gold.Chemscore.DG>
-16.8320

> <Gold.Chemscore.ZeroCoef>
-5.4800

> <Gold.Chemscore.Hbond>
1.9936

> <Gold.Chemscore.Metal>
0.0000

> <Gold.Chemscore.Lipo>
109.9173

> <Gold.Chemscore.Internal_Hbond>
0.0000

> <Gold.Chemscore.DEClash>
0.0009

> <Gold.Chemscore.DEInternal>
3.1596

> <Gold.Chemscore.Rot>
3.1903

> <Gold.Chemscore.Internal.Correction>
   9.000000E+99

> <Gold.Chemscore.Hbonds>
donor molecule, donor type, donor heavy atom, donor atom, acceptor molecule, acceptor atom, score
      P1  H  6896  6907       L1     1  0.98
      P1  H  6896  6909       L1    15  0.91

> <Gold.Chemscore.Hbond.Weighted>
-6.6587

> <Gold.Chemscore.Metal.Weighted>
-0.0000

> <Gold.Chemscore.Lipo.Weighted>
-12.8603

> <Gold.Chemscore.Internal_Hbond.Weighted>
0.0000

> <Gold.Chemscore.DEClash.Weighted>
0.0009

> <Gold.Chemscore.DEInternal.Weighted>
3.1596

> <Gold.Chemscore.Rot.Weighted>
8.1671

> <Gold.Chemscore.Internal.Correction.Weighted>
   9.000000E+99

> <Gold.Protein.RotatedTorsions>
[ 6907 6896 6895 6894 ] final  -85.43 input  -60.11 | X-H torsion
[ 7974 7965 7964 7962 ] final  -75.89 input  175.53 | X-H torsion
[ 8008 7997 7996 7995 ] final  -55.39 input   59.86 | X-H torsion
[ 10167 10162 10161 10158 ] final   41.71 input  -65.29 | X-H torsion
[ 10718 10713 10712 10709 ] final  -34.20 input   66.30 | X-H torsion
[ 10763 10752 10751 10750 ] final  -82.75 input  -60.55 | X-H torsion
[ 11005 11000 10999 10996 ] final   22.96 input  -57.11 | X-H torsion

> <Gold.Protein.ActiveResidues>
 VAL166  LYS551  ARG553  GLY616  TRP617  ASP618  TYR619  PRO620  LYS621  CYS622 
 ASP623  PHE694  ASN695  SER759  ASP760  ASP761  ALA762  ILE779  LEU786  VAL792 
 PHE793  MET794  SER795  GLU796  ALA797  LYS798  CYS799  TRP800  GLU811  SER814 

> <Gold.Protein.RotatedAtoms>
  150.6870  134.3206  159.4784 H   0  0  0  0  0  0  0  0  0  0  0  0  # atno 6907 bound_to 6896
  152.1082  134.9291  160.0577 H   0  0  0  0  0  0  0  0  0  0  0  0  # atno 6908 bound_to 6896
  152.0544  133.3999  159.4428 H   0  0  0  0  0  0  0  0  0  0  0  0  # atno 6909 bound_to 6896
  145.6201  140.9365  143.1142 H   0  0  0  0  0  0  0  0  0  0  0  0  # atno 7974 bound_to 7965
  154.4193  140.1154  156.5469 H   0  0  0  0  0  0  0  0  0  0  0  0  # atno 8008 bound_to 7997
  155.6450  140.3496  155.4709 H   0  0  0  0  0  0  0  0  0  0  0  0  # atno 8009 bound_to 7997
  155.9840  140.1166  157.0690 H   0  0  0  0  0  0  0  0  0  0  0  0  # atno 8010 bound_to 7997
  140.3616  144.2220  150.6138 H   0  0  0  0  0  0  0  0  0  0  0  0  # atno 10167 bound_to 10162
  156.3535  130.4312  149.7684 H   0  0  0  0  0  0  0  0  0  0  0  0  # atno 10718 bound_to 10713
  154.5795  135.5580  153.7171 H   0  0  0  0  0  0  0  0  0  0  0  0  # atno 10763 bound_to 10752
  153.0076  135.6316  154.2003 H   0  0  0  0  0  0  0  0  0  0  0  0  # atno 10764 bound_to 10752
  154.1943  135.2881  155.2991 H   0  0  0  0  0  0  0  0  0  0  0  0  # atno 10765 bound_to 10752
  140.3748  134.1984  155.7665 H   0  0  0  0  0  0  0  0  0  0  0  0  # atno 11005 bound_to 11000
  144.7234  139.7953  143.7373 LP  0  0  0  0  0  0  0  0  0  0  0  0  # atno 17320 bound_to 7965
  146.1437  139.4501  143.0092 LP  0  0  0  0  0  0  0  0  0  0  0  0  # atno 17321 bound_to 7965
  140.5121  143.2288  151.8519 LP  0  0  0  0  0  0  0  0  0  0  0  0  # atno 17342 bound_to 10162
  139.4813  144.4937  151.9151 LP  0  0  0  0  0  0  0  0  0  0  0  0  # atno 17343 bound_to 10162
  156.4876  130.8070  151.3081 LP  0  0  0  0  0  0  0  0  0  0  0  0  # atno 17370 bound_to 10713
  157.7464  130.9986  150.2858 LP  0  0  0  0  0  0  0  0  0  0  0  0  # atno 17371 bound_to 10713
  141.1943  133.8132  157.0764 LP  0  0  0  0  0  0  0  0  0  0  0  0  # atno 17394 bound_to 11000
  140.0524  134.9798  157.1159 LP  0  0  0  0  0  0  0  0  0  0  0  0  # atno 17395 bound_to 11000

$$$$
