AV-unprocessed.smi:702|AV-procd|sdf|3418|dock6
  -GOLD-   22720 0403D 1   1.00000     0.00000
 Structure written by MMmdl.
 49 51  0  0  0  0  0  0  0  0  1 V2000
  145.9305  137.3784  155.6066 C   0  0  0  0  0  0  0  0  0  0  0  0
  146.2701  138.0242  154.2432 C   0  0  2  0  0  0  0  0  0  0  0  0
  146.5870  136.9601  153.2842 N   0  0  0  0  0  0  0  0  0  0  0  0
  145.7493  136.0032  152.8593 C   0  0  0  0  0  0  0  0  0  0  0  0
  144.5896  135.8901  153.2553 O   0  0  0  0  0  0  0  0  0  0  0  0
  146.3537  135.1942  151.9722 N   0  0  0  0  0  0  0  0  0  0  0  0
  145.8173  134.0807  151.2701 C   0  0  0  0  0  0  0  0  0  0  0  0
  144.4149  134.0002  151.1450 C   0  0  0  0  0  0  0  0  0  0  0  0
  143.8550  132.8981  150.4686 C   0  0  0  0  0  0  0  0  0  0  0  0
  144.5933  131.9010  149.9373 N   0  0  0  0  0  0  0  0  0  0  0  0
  145.9346  131.9718  150.0705 C   0  0  0  0  0  0  0  0  0  0  0  0
  146.5954  133.0299  150.7264 C   0  0  0  0  0  0  0  0  0  0  0  0
  147.4079  139.1126  154.3100 C   0  0  0  0  0  0  0  0  0  0  0  0
  148.7637  138.4887  154.4277 N   0  0  0  0  0  0  0  0  0  0  0  0
  149.8934  139.4321  154.3918 C   0  0  0  0  0  0  0  0  0  0  0  0
  151.2510  138.7108  154.3751 C   0  0  0  0  0  0  0  0  0  0  0  0
  151.3581  137.8759  155.5209 O   0  0  0  0  0  0  0  0  0  0  0  0
  150.3170  136.9096  155.5843 C   0  0  0  0  0  0  0  0  0  0  0  0
  148.9485  137.6131  155.5951 C   0  0  0  0  0  0  0  0  0  0  0  0
  147.2859  140.0166  153.0352 C   0  0  0  0  0  0  0  0  0  0  0  0
  146.8195  141.4032  153.4868 C   0  0  0  0  0  0  0  0  0  0  0  0
  147.2715  141.5172  154.9340 C   0  0  0  0  0  0  0  0  0  0  0  0
  147.1192  140.1002  155.4866 C   0  0  0  0  0  0  0  0  0  0  0  0
  145.6303  138.1179  156.3481 H   0  0  0  0  0  0  0  0  0  0  0  0
  146.7739  136.8266  156.0207 H   0  0  0  0  0  0  0  0  0  0  0  0
  145.1013  136.6768  155.5094 H   0  0  0  0  0  0  0  0  0  0  0  0
  145.3667  138.5080  153.8708 H   0  0  0  0  0  0  0  0  0  0  0  0
  147.5220  136.9680  152.9043 H   0  0  0  0  0  0  0  0  0  0  0  0
  147.3346  135.3703  151.8122 H   0  0  0  0  0  0  0  0  0  0  0  0
  143.7756  134.7693  151.5537 H   0  0  0  0  0  0  0  0  0  0  0  0
  142.7845  132.8148  150.3535 H   0  0  0  0  0  0  0  0  0  0  0  0
  146.5003  131.1552  149.6462 H   0  0  0  0  0  0  0  0  0  0  0  0
  147.6710  133.0051  150.8081 H   0  0  0  0  0  0  0  0  0  0  0  0
  149.8532  140.0839  153.5231 H   0  0  0  0  0  0  0  0  0  0  0  0
  149.8654  140.0858  155.2636 H   0  0  0  0  0  0  0  0  0  0  0  0
  151.3633  138.1168  153.4668 H   0  0  0  0  0  0  0  0  0  0  0  0
  152.0648  139.4357  154.3878 H   0  0  0  0  0  0  0  0  0  0  0  0
  150.3926  136.2274  154.7361 H   0  0  0  0  0  0  0  0  0  0  0  0
  150.4419  136.3116  156.4871 H   0  0  0  0  0  0  0  0  0  0  0  0
  148.8498  138.1830  156.5187 H   0  0  0  0  0  0  0  0  0  0  0  0
  148.1923  136.8323  155.6289 H   0  0  0  0  0  0  0  0  0  0  0  0
  148.2242  140.1050  152.4927 H   0  0  0  0  0  0  0  0  0  0  0  0
  146.5951  139.6280  152.2878 H   0  0  0  0  0  0  0  0  0  0  0  0
  147.2147  142.2028  152.8597 H   0  0  0  0  0  0  0  0  0  0  0  0
  145.7309  141.4558  153.4420 H   0  0  0  0  0  0  0  0  0  0  0  0
  148.3167  141.8251  154.9705 H   0  0  0  0  0  0  0  0  0  0  0  0
  146.6919  142.2498  155.4966 H   0  0  0  0  0  0  0  0  0  0  0  0
  146.1012  139.9925  155.8599 H   0  0  0  0  0  0  0  0  0  0  0  0
  147.7549  139.9512  156.3583 H   0  0  0  0  0  0  0  0  0  0  0  0
  1  2  1  0  0  0  0
  1 24  1  0  0  0  0
  1 25  1  0  0  0  0
  1 26  1  0  0  0  0
  2  3  1  0  0  0  0
  2 13  1  0  0  0  0
  2 27  1  0  0  0  0
  3  4  1  0  0  0  0
  3 28  1  0  0  0  0
  4  5  2  0  0  0  0
  4  6  1  0  0  0  0
  6  7  1  0  0  0  0
  6 29  1  0  0  0  0
  7 12  1  0  0  0  0
  7  8  2  0  0  0  0
  8  9  1  0  0  0  0
  8 30  1  0  0  0  0
  9 10  2  0  0  0  0
  9 31  1  0  0  0  0
 10 11  1  0  0  0  0
 11 12  2  0  0  0  0
 11 32  1  0  0  0  0
 12 33  1  0  0  0  0
 13 23  1  0  0  0  0
 13 14  1  0  0  0  0
 13 20  1  0  0  0  0
 14 19  1  0  0  0  0
 14 15  1  0  0  0  0
 15 16  1  0  0  0  0
 15 34  1  0  0  0  0
 15 35  1  0  0  0  0
 16 17  1  0  0  0  0
 16 36  1  0  0  0  0
 16 37  1  0  0  0  0
 17 18  1  0  0  0  0
 18 19  1  0  0  0  0
 18 38  1  0  0  0  0
 18 39  1  0  0  0  0
 19 40  1  0  0  0  0
 19 41  1  0  0  0  0
 20 21  1  0  0  0  0
 20 42  1  0  0  0  0
 20 43  1  0  0  0  0
 21 22  1  0  0  0  0
 21 44  1  0  0  0  0
 21 45  1  0  0  0  0
 22 23  1  0  0  0  0
 22 46  1  0  0  0  0
 22 47  1  0  0  0  0
 23 48  1  0  0  0  0
 23 49  1  0  0  0  0
M  END
> <s_m_source_file>
AV-unprocessed.smi

> <i_m_source_file_index>
702

> <i_lp_mmshare_version>
43012

> <i_f3d_flags>
0

> <s_epik_input>
W0NIMl0xW0NIMl1PW0NIMl1bQ0gyXU4xQzIoW0NIMl1bQ0gyXVtDSDJdW0NIMl0yKVtDQEhdKFtDSDNdKVtOSF1DKD1PKVtOSF1jM1tjSF1bY0hdbltjSF1bY0hdMw==

> <s_epik_cmdline>
J2VwaWtfcHl0aG9uJywgJy1waCcsICc3LjAnLCAnLXRuJywgJzgnLCAnLW1hJywgJzIwMCcsICctbWV0YWxfYmluZGluZycsICctaW1hZScsICc8aW5maWxlLm1hZT4nLCAnLW9tYWUnLCAnPG91dGZpbGUubWFlPic=

> <r_epik_Ionization_Penalty>
0.626636

> <r_epik_Ionization_Penalty_Charging>
0

> <r_epik_Ionization_Penalty_Neutral>
0.626636

> <r_epik_State_Penalty>
0.629018

> <r_epik_Charging_Adjusted_Penalty>
0.629018

> <i_epik_Tot_Q>
0

> <i_epik_Tot_abs_Q>
0

> <r_epik_Metal_State_Penalty>
0.606459

> <b_epik_Metal_Only>
0

> <s_lp_Force_Field>
OPLS_2005

> <r_lp_Energy>
67.5809

> <b_lp_Chiralities_Consistent>
1

> <s_lp_Variant>
AV-unprocessed.smi:702-3

> <Gold.Version>
5.8.1

> <Gold.Id.Protein>
6NUR|6NUR_protein|mol2

> <Gold.PLP.Fitness>
42.9434

> <Gold.PLP.PLP>
-32.6919

> <Gold.PLP.part.hbond>
-2.3129

> <Gold.PLP.part.metal>
0.0000

> <Gold.PLP.part.buried>
-5.1703

> <Gold.PLP.part.nonpolar>
-25.9677

> <Gold.PLP.part.repulsive>
0.4827

> <Gold.PLP.ligand.clash>
0.0000

> <Gold.PLP.ligand.torsion>
0.4948

> <Gold.PLP.Chemscore.Hbond>
2.0000

> <Gold.PLP.Chemscore.CHOScore>
1.7058

> <Gold.PLP.Chemscore.Metal>
0.0000

> <Gold.Chemscore.Hbonds>
donor molecule, donor type, donor heavy atom, donor atom, acceptor molecule, acceptor atom, score
      L1  H     3    28       P1  7948  1.00
      L1  H     6    29       P1  7948  1.00
      L1  C     9    31       P1 10186  1.00
      L1  C    11    32       P1 10747  0.77

> <Gold.PLP.Chemscore.Internal.Correction>
0.1238

> <Gold.Rescore>
     Score         DG    S(hbond)    S(metal)    S(lipo)     H(rot)  DE(clash)    DE(int)     intcor
     16.17     -18.87       1.92        0.00      90.41       1.41       0.06       2.64       ----

> <Gold.Chemscore.Fitness>
16.1702

> <Gold.Chemscore.DG>
-18.8653

> <Gold.Chemscore.ZeroCoef>
-5.4800

> <Gold.Chemscore.Hbond>
1.9222

> <Gold.Chemscore.Metal>
0.0000

> <Gold.Chemscore.Lipo>
90.4054

> <Gold.Chemscore.Internal_Hbond>
0.0000

> <Gold.Chemscore.DEClash>
0.0589

> <Gold.Chemscore.DEInternal>
2.6363

> <Gold.Chemscore.Rot>
1.4111

> <Gold.Chemscore.Internal.Correction>
   9.000000E+99

> <Gold.Chemscore.Hbonds>
donor molecule, donor type, donor heavy atom, donor atom, acceptor molecule, acceptor atom, score
      L1  H     3    28       P1  7948  0.97
      L1  H     6    29       P1  7948  0.99

> <Gold.Chemscore.Hbond.Weighted>
-6.4203

> <Gold.Chemscore.Metal.Weighted>
-0.0000

> <Gold.Chemscore.Lipo.Weighted>
-10.5774

> <Gold.Chemscore.Internal_Hbond.Weighted>
0.0000

> <Gold.Chemscore.DEClash.Weighted>
0.0589

> <Gold.Chemscore.DEInternal.Weighted>
2.6363

> <Gold.Chemscore.Rot.Weighted>
3.6123

> <Gold.Chemscore.Internal.Correction.Weighted>
   9.000000E+99

> <Gold.Protein.RotatedTorsions>
[ 6907 6896 6895 6894 ] final  168.99 input  -60.11 | X-H torsion
[ 7974 7965 7964 7962 ] final -174.40 input  175.53 | X-H torsion
[ 8008 7997 7996 7995 ] final  -40.70 input   59.86 | X-H torsion
[ 10167 10162 10161 10158 ] final   23.62 input  -65.29 | X-H torsion
[ 10718 10713 10712 10709 ] final  -59.76 input   66.30 | X-H torsion
[ 10763 10752 10751 10750 ] final   46.81 input  -60.55 | X-H torsion
[ 11005 11000 10999 10996 ] final -127.01 input  -57.11 | X-H torsion

> <Gold.Protein.ActiveResidues>
 VAL166  LYS551  ARG553  GLY616  TRP617  ASP618  TYR619  PRO620  LYS621  CYS622 
 ASP623  PHE694  ASN695  SER759  ASP760  ASP761  ALA762  ILE779  LEU786  VAL792 
 PHE793  MET794  SER795  GLU796  ALA797  LYS798  CYS799  TRP800  GLU811  SER814 

> <Gold.Protein.RotatedAtoms>
  151.8390  133.3420  159.3636 H   0  0  0  0  0  0  0  0  0  0  0  0  # atno 6907 bound_to 6896
  150.7240  134.5409  159.5756 H   0  0  0  0  0  0  0  0  0  0  0  0  # atno 6908 bound_to 6896
  152.2879  134.7756  160.0435 H   0  0  0  0  0  0  0  0  0  0  0  0  # atno 6909 bound_to 6896
  144.7132  140.1477  143.6386 H   0  0  0  0  0  0  0  0  0  0  0  0  # atno 7974 bound_to 7965
  154.4010  140.1518  156.3069 H   0  0  0  0  0  0  0  0  0  0  0  0  # atno 8008 bound_to 7997
  155.8650  140.3451  155.5760 H   0  0  0  0  0  0  0  0  0  0  0  0  # atno 8009 bound_to 7997
  155.7838  140.0847  157.2036 H   0  0  0  0  0  0  0  0  0  0  0  0  # atno 8010 bound_to 7997
  140.5254  143.9932  150.6438 H   0  0  0  0  0  0  0  0  0  0  0  0  # atno 10167 bound_to 10162
  156.1038  130.4183  150.0760 H   0  0  0  0  0  0  0  0  0  0  0  0  # atno 10718 bound_to 10713
  152.9806  135.5996  154.3660 H   0  0  0  0  0  0  0  0  0  0  0  0  # atno 10763 bound_to 10752
  154.3337  135.2768  155.2460 H   0  0  0  0  0  0  0  0  0  0  0  0  # atno 10764 bound_to 10752
  154.4573  135.5975  153.6287 H   0  0  0  0  0  0  0  0  0  0  0  0  # atno 10765 bound_to 10752
  140.9635  134.0904  157.3944 H   0  0  0  0  0  0  0  0  0  0  0  0  # atno 11005 bound_to 11000
  145.9145  139.2507  143.1418 LP  0  0  0  0  0  0  0  0  0  0  0  0  # atno 17320 bound_to 7965
  145.9683  140.8781  143.0175 LP  0  0  0  0  0  0  0  0  0  0  0  0  # atno 17321 bound_to 7965
  140.3292  143.3088  152.0704 LP  0  0  0  0  0  0  0  0  0  0  0  0  # atno 17342 bound_to 10162
  139.4936  144.6521  151.6653 LP  0  0  0  0  0  0  0  0  0  0  0  0  # atno 17343 bound_to 10162
  156.8740  130.9534  151.3606 LP  0  0  0  0  0  0  0  0  0  0  0  0  # atno 17370 bound_to 10713
  157.6213  130.8657  149.9113 LP  0  0  0  0  0  0  0  0  0  0  0  0  # atno 17371 bound_to 10713
  139.8886  135.0099  156.6631 LP  0  0  0  0  0  0  0  0  0  0  0  0  # atno 17394 bound_to 11000
  140.7434  133.8959  155.8294 LP  0  0  0  0  0  0  0  0  0  0  0  0  # atno 17395 bound_to 11000

$$$$
