#       Name:                AV-unprocessed.smi:153
#       Creating user name   scv26
#       Creation time:       Thu Mar 26 18:48:25 2020


#       File generated by GOLD software.
#

@<TRIPOS>MOLECULE
AV-unprocessed.smi:153
    71    74     1
SMALL
NO_CHARGES


@<TRIPOS>ATOM
      1 ****        -1.6712  -1.3166  -1.3296 C.3            1 S1                 0.0000
      2 ****        -2.6657  -2.1356  -0.4882 C.3            1 S1                 0.0000
      3 ****        -3.6570  -2.7185  -1.3320 O.3            1 S1                 0.0000
      4 ****        -4.9383  -2.2130  -0.9904 C.3            1 S1                 0.0000
      5 ****        -4.8324  -1.9275   0.5015 C.3            1 S1                 0.0000
      6 ****        -3.4206  -1.3747   0.6332 C.3            1 S1                 0.0000
      7 ****        -3.4673   0.0161   0.3549 O.3            1 S1                 0.0000
      8 ****        -2.8347  -1.5758   2.0528 C.3            1 S1                 0.0000
      9 ****        -1.4477  -1.1544   2.1678 N.pl3          1 S1                 0.0000
     10 ****        -0.3313  -1.9410   1.9999 C.2            1 S1                 0.0000
     11 ****         0.8085  -1.3173   2.1131 N.2            1 S1                 0.0000
     12 ****         0.4558  -0.0052   2.4096 C.ar           1 S1                 0.0000
     13 ****         1.1834   1.2036   2.6216 C.ar           1 S1                 0.0000
     14 ****         2.5335   1.3175   2.5453 N.pl3          1 S1                 0.0000
     15 ****         3.3588   0.1704   2.9014 C.3            1 S1                 0.0000
     16 ****         3.0853   2.3331   1.6463 C.3            1 S1                 0.0000
     17 ****         3.2085   1.8542   0.1823 C.3            1 S1                 0.0000
     18 ****         4.0254   2.7900  -0.4921 O.3            1 S1                 0.0000
     19 ****         1.8520   1.7775  -0.5581 C.3            1 S1                 0.0000
     20 ****         1.9394   1.1421  -1.8977 N.4            1 S1                 1.0000
     21 ****         2.1533  -0.3276  -1.8436 C.3            1 S1                 0.0000
     22 ****         2.2096  -0.9248  -3.2599 C.3            1 S1                 0.0000
     23 ****         1.0217  -0.5964  -3.9674 O.3            1 S1                 0.0000
     24 ****         0.8714   0.8087  -4.1199 C.3            1 S1                 0.0000
     25 ****         0.7576   1.4645  -2.7341 C.3            1 S1                 0.0000
     26 ****         0.4652   2.3310   2.8617 N.ar           1 S1                 0.0000
     27 ****        -0.8691   2.2883   2.9027 C.ar           1 S1                 0.0000
     28 ****        -1.6752   1.2432   2.7126 N.ar           1 S1                 0.0000
     29 ****        -0.9632   0.1087   2.4582 C.ar           1 S1                 0.0000
     30 ****        -0.9349  -0.8228  -0.6964 H              1 S1                 0.0000
     31 ****        -2.1785  -0.5491  -1.9148 H              1 S1                 0.0000
     32 ****        -1.1330  -1.9576  -2.0281 H              1 S1                 0.0000
     33 ****        -2.1305  -2.9781  -0.0495 H              1 S1                 0.0000
     34 ****        -5.1238  -1.2946  -1.5491 H              1 S1                 0.0000
     35 ****        -5.7279  -2.9253  -1.2299 H              1 S1                 0.0000
     36 ****        -5.6066  -1.2501   0.8645 H              1 S1                 0.0000
     37 ****        -4.9265  -2.8653   1.0509 H              1 S1                 0.0000
     38 ****        -3.9741   0.4413   1.0299 H              1 S1                 0.0000
     39 ****        -3.4251  -1.0301   2.7901 H              1 S1                 0.0000
     40 ****        -2.8898  -2.6276   2.3366 H              1 S1                 0.0000
     41 ****        -0.3887  -2.9945   1.7683 H              1 S1                 0.0000
     42 ****         2.9565  -0.3454   3.7741 H              1 S1                 0.0000
     43 ****         4.3710   0.4939   3.1453 H              1 S1                 0.0000
     44 ****         3.4207  -0.5381   2.0753 H              1 S1                 0.0000
     45 ****         2.5147   3.2612   1.6944 H              1 S1                 0.0000
     46 ****         4.0775   2.5832   2.0245 H              1 S1                 0.0000
     47 ****         3.7264   0.8967   0.1711 H              1 S1                 0.0000
     48 ****         4.2575   2.4416  -1.3388 H              1 S1                 0.0000
     49 ****         1.1170   1.2159   0.0143 H              1 S1                 0.0000
     50 ****         1.4478   2.7871  -0.6515 H              1 S1                 0.0000
     51 ****         3.0813  -0.5635  -1.3252 H              1 S1                 0.0000
     52 ****         1.3488  -0.7972  -1.2770 H              1 S1                 0.0000
     53 ****         3.0839  -0.5606  -3.8022 H              1 S1                 0.0000
     54 ****         2.2988  -2.0100  -3.2059 H              1 S1                 0.0000
     55 ****         1.7123   1.2204  -4.6804 H              1 S1                 0.0000
     56 ****        -0.0278   1.0065  -4.7036 H              1 S1                 0.0000
     57 ****        -0.1495   1.1208  -2.2346 H              1 S1                 0.0000
     58 ****         0.6692   2.5457  -2.8473 H              1 S1                 0.0000
     59 ****        -1.3612   3.2278   3.1074 H              1 S1                 0.0000
     60 ****         2.7388   1.5457  -2.3650 H              1 S1                 0.0000
     61 ****        -3.6501  -3.7116  -1.2149 LP             1 S1                 0.0000
     62 ****        -3.4550  -2.4938  -2.2853 LP             1 S1                 0.0000
     63 ****        -3.8973   0.1675  -0.5352 LP             1 S1                 0.0000
     64 ****        -2.5395   0.3891   0.3446 LP             1 S1                 0.0000
     65 ****         1.7280  -1.6967   2.0100 LP             1 S1                 0.0000
     66 ****         4.8550   2.9564   0.0409 LP             1 S1                 0.0000
     67 ****         3.5261   3.6486  -0.6082 LP             1 S1                 0.0000
     68 ****         0.2353  -0.9535  -3.4635 LP             1 S1                 0.0000
     69 ****         1.0569  -1.0186  -4.8732 LP             1 S1                 0.0000
     70 ****         0.9388   3.1994   3.0089 LP             1 S1                 0.0000
     71 ****        -2.6735   1.2861   2.7516 LP             1 S1                 0.0000
@<TRIPOS>BOND
    1    1    2 1     
    2    1   30 1     
    3    1   31 1     
    4    1   32 1     
    5    2    6 1     
    6    2    3 1     
    7    2   33 1     
    8    3    4 1     
    9    4    5 1     
   10    4   34 1     
   11    4   35 1     
   12    5    6 1     
   13    5   36 1     
   14    5   37 1     
   15    6    7 1     
   16    6    8 1     
   17    7   38 1     
   18    8    9 1     
   19    8   39 1     
   20    8   40 1     
   21    9   29 1     
   22    9   10 1     
   23   10   11 2     
   24   10   41 1     
   25   11   12 1     
   26   12   29 ar    
   27   12   13 ar    
   28   13   14 1     
   29   13   26 ar    
   30   14   15 1     
   31   14   16 1     
   32   15   42 1     
   33   15   43 1     
   34   15   44 1     
   35   16   17 1     
   36   16   45 1     
   37   16   46 1     
   38   17   18 1     
   39   17   19 1     
   40   17   47 1     
   41   18   48 1     
   42   19   20 1     
   43   19   49 1     
   44   19   50 1     
   45   20   25 1     
   46   20   21 1     
   47   20   60 1     
   48   21   22 1     
   49   21   51 1     
   50   21   52 1     
   51   22   23 1     
   52   22   53 1     
   53   22   54 1     
   54   23   24 1     
   55   24   25 1     
   56   24   55 1     
   57   24   56 1     
   58   25   57 1     
   59   25   58 1     
   60   26   27 ar    
   61   27   28 ar    
   62   27   59 1     
   63   28   29 ar    
   64    3   61 1     
   65    3   62 1     
   66    7   63 1     
   67    7   64 1     
   68   11   65 1     
   69   18   66 1     
   70   18   67 1     
   71   23   68 1     
   72   23   69 1     
   73   26   70 1     
   74   28   71 1     
@<TRIPOS>SUBSTRUCTURE
      1 S1             1
@<TRIPOS>SET
LONE_PAIRS      STATIC     ATOMS    <user>   **** ""
11 61 62 63 64 65 66 67 68 69 70 71
DONOR_HYDROGENS      STATIC     ATOMS    <user>   **** ""
3 38 48 60
ATOM$BLUE        STATIC     ATOMS    COLORGROUP SYSTEM
11 61 62 63 64 65 66 67 68 69 70 71
ATOM$RED        STATIC     ATOMS    COLORGROUP SYSTEM
3 38 48 60
