AV-unprocessed.smi:3238|AV-procd|sdf|12376|dock3
  -GOLD-   2272018233D 1   1.00000     0.00000
 Structure written by MMmdl.
 37 39  0  0  0  0  0  0  0  0  1 V2000
  146.6511  138.5071  152.5042 C   0  0  0  0  0  0  0  0  0  0  0  0
  147.4933  139.6279  152.8931 N   0  0  0  0  0  0  0  0  0  0  0  0
  147.4883  140.1898  154.1107 C   0  0  0  0  0  0  0  0  0  0  0  0
  146.7630  139.7965  155.0261 O   0  0  0  0  0  0  0  0  0  0  0  0
  148.4569  141.3636  154.3089 C   0  0  0  0  0  0  0  0  0  0  0  0
  149.6346  140.9998  155.1597 C   0  0  0  0  0  0  0  0  0  0  0  0
  150.5245  140.0996  154.7573 N   0  0  0  0  0  0  0  0  0  0  0  0
  151.4462  140.0602  155.8131 O   0  0  0  0  0  0  0  0  0  0  0  0
  150.9944  140.9471  156.7321 C   0  0  0  0  0  0  0  0  0  0  0  0
  151.7885  141.1686  157.9776 C   0  0  0  0  0  0  0  0  0  0  0  0
  151.3649  142.4305  158.7565 C   0  0  1  0  0  0  0  0  0  0  0  0
  152.2429  142.6847  160.0033 C   0  0  0  0  0  0  0  0  0  0  0  0
  152.7386  144.1276  159.7963 C   0  0  2  0  0  0  0  0  0  0  0  0
  151.5624  145.1058  159.9692 C   0  0  0  0  0  0  0  0  0  0  0  0
  150.7314  144.8631  158.6951 C   0  0  0  0  0  0  0  0  0  0  0  0
  151.5271  143.7575  157.9752 C   0  0  1  0  0  0  0  0  0  0  0  0
  152.9633  144.1647  158.2904 C   0  0  0  0  0  0  0  0  0  0  0  0
  149.8789  141.5758  156.3701 N   0  0  0  0  0  0  0  0  0  0  0  0
  146.8246  138.2576  151.4576 H   0  0  0  0  0  0  0  0  0  0  0  0
  145.5954  138.7532  152.6250 H   0  0  0  0  0  0  0  0  0  0  0  0
  146.8746  137.6259  153.1069 H   0  0  0  0  0  0  0  0  0  0  0  0
  148.1196  139.9996  152.1938 H   0  0  0  0  0  0  0  0  0  0  0  0
  148.8015  141.7092  153.3334 H   0  0  0  0  0  0  0  0  0  0  0  0
  147.9286  142.1983  154.7721 H   0  0  0  0  0  0  0  0  0  0  0  0
  151.6671  140.2902  158.6125 H   0  0  0  0  0  0  0  0  0  0  0  0
  152.8460  141.2115  157.7154 H   0  0  0  0  0  0  0  0  0  0  0  0
  150.3253  142.3036  159.0631 H   0  0  0  0  0  0  0  0  0  0  0  0
  151.6855  142.5688  160.9335 H   0  0  0  0  0  0  0  0  0  0  0  0
  153.0896  141.9976  160.0401 H   0  0  0  0  0  0  0  0  0  0  0  0
  153.6113  144.3804  160.3990 H   0  0  0  0  0  0  0  0  0  0  0  0
  150.9954  144.9123  160.8807 H   0  0  0  0  0  0  0  0  0  0  0  0
  151.9152  146.1372  160.0062 H   0  0  0  0  0  0  0  0  0  0  0  0
  149.7057  144.5650  158.9152 H   0  0  0  0  0  0  0  0  0  0  0  0
  150.6907  145.7682  158.0875 H   0  0  0  0  0  0  0  0  0  0  0  0
  151.2917  143.6892  156.9134 H   0  0  0  0  0  0  0  0  0  0  0  0
  153.2246  145.1562  157.9164 H   0  0  0  0  0  0  0  0  0  0  0  0
  153.7089  143.4466  157.9455 H   0  0  0  0  0  0  0  0  0  0  0  0
  1  2  1  0  0  0  0
  1 19  1  0  0  0  0
  1 20  1  0  0  0  0
  1 21  1  0  0  0  0
  2  3  1  0  0  0  0
  2 22  1  0  0  0  0
  3  4  2  0  0  0  0
  3  5  1  0  0  0  0
  5  6  1  0  0  0  0
  5 23  1  0  0  0  0
  5 24  1  0  0  0  0
  6 18  1  0  0  0  0
  6  7  2  0  0  0  0
  7  8  1  0  0  0  0
  8  9  1  0  0  0  0
  9 10  1  0  0  0  0
  9 18  2  0  0  0  0
 10 11  1  0  0  0  0
 10 25  1  0  0  0  0
 10 26  1  0  0  0  0
 11 16  1  0  0  0  0
 11 12  1  0  0  0  0
 11 27  1  0  0  0  0
 12 13  1  0  0  0  0
 12 28  1  0  0  0  0
 12 29  1  0  0  0  0
 13 17  1  0  0  0  0
 13 14  1  0  0  0  0
 13 30  1  0  0  0  0
 14 15  1  0  0  0  0
 14 31  1  0  0  0  0
 14 32  1  0  0  0  0
 15 16  1  0  0  0  0
 15 33  1  0  0  0  0
 15 34  1  0  0  0  0
 16 17  1  0  0  0  0
 16 35  1  0  0  0  0
 17 36  1  0  0  0  0
 17 37  1  0  0  0  0
M  END
> <s_m_source_file>
AV-unprocessed.smi

> <i_m_source_file_index>
3238

> <i_lp_mmshare_version>
43012

> <i_f3d_flags>
0

> <s_epik_input>
W0NIM11bTkhdQyg9TylbQ0gyXWMxbm9jKG4xKVtDSDJdW0NASF0oW0NIMl1bQ0BIXTIzKVtDQEhdKFtDSDJdMylbQ0gyXVtDSDJdMg==

> <s_epik_cmdline>
J2VwaWtfcHl0aG9uJywgJy1waCcsICc3LjAnLCAnLXRuJywgJzgnLCAnLW1hJywgJzIwMCcsICctbWV0YWxfYmluZGluZycsICctaW1hZScsICc8aW5maWxlLm1hZT4nLCAnLW9tYWUnLCAnPG91dGZpbGUubWFlPic=

> <r_lp_tautomer_probability>
1

> <r_epik_Ionization_Penalty>
1.02915e-07

> <r_epik_Ionization_Penalty_Charging>
0

> <r_epik_Ionization_Penalty_Neutral>
1.02915e-07

> <r_epik_State_Penalty>
-0

> <r_epik_Charging_Adjusted_Penalty>
0

> <i_epik_Tot_Q>
0

> <i_epik_Tot_abs_Q>
0

> <r_epik_Metal_State_Penalty>
-0

> <b_epik_Metal_Only>
0

> <s_lp_Force_Field>
OPLS_2005

> <r_lp_Energy>
47.9986

> <b_lp_Chiralities_Consistent>
1

> <s_lp_Variant>
AV-unprocessed.smi:3238-2

> <Gold.Version>
5.8.1

> <Gold.Id.Protein>
6NUR|6NUR_protein|mol2

> <Gold.PLP.Fitness>
48.4744

> <Gold.PLP.PLP>
-43.1125

> <Gold.PLP.part.hbond>
-2.1678

> <Gold.PLP.part.metal>
0.0000

> <Gold.PLP.part.buried>
-5.0516

> <Gold.PLP.part.nonpolar>
-35.8247

> <Gold.PLP.part.repulsive>
0.3555

> <Gold.PLP.ligand.clash>
0.0000

> <Gold.PLP.ligand.torsion>
0.3145

> <Gold.PLP.Chemscore.Hbond>
1.9920

> <Gold.PLP.Chemscore.CHOScore>
0.0000

> <Gold.PLP.Chemscore.Metal>
0.0000

> <Gold.Chemscore.Hbonds>
donor molecule, donor type, donor heavy atom, donor atom, acceptor molecule, acceptor atom, score
      L1  H     2    22       P1  7957  1.00
      P1  H  7989  7998       L1     7  0.90

> <Gold.PLP.Chemscore.Internal.Correction>
0.0150

> <Gold.Rescore>
     Score         DG    S(hbond)    S(metal)    S(lipo)     H(rot)  DE(clash)    DE(int)     intcor
     17.77     -18.12       1.61        0.00     102.58       1.85       0.10       0.25       ----

> <Gold.Chemscore.Fitness>
17.7690

> <Gold.Chemscore.DG>
-18.1201

> <Gold.Chemscore.ZeroCoef>
-5.4800

> <Gold.Chemscore.Hbond>
1.6085

> <Gold.Chemscore.Metal>
0.0000

> <Gold.Chemscore.Lipo>
102.5783

> <Gold.Chemscore.Internal_Hbond>
0.0000

> <Gold.Chemscore.DEClash>
0.1046

> <Gold.Chemscore.DEInternal>
0.2466

> <Gold.Chemscore.Rot>
1.8492

> <Gold.Chemscore.Internal.Correction>
   9.000000E+99

> <Gold.Chemscore.Hbonds>
donor molecule, donor type, donor heavy atom, donor atom, acceptor molecule, acceptor atom, score
      L1  H     2    22       P1  7957  0.99
      P1  H  7989  7998       L1     7  0.12

> <Gold.Chemscore.Hbond.Weighted>
-5.3724

> <Gold.Chemscore.Metal.Weighted>
-0.0000

> <Gold.Chemscore.Lipo.Weighted>
-12.0017

> <Gold.Chemscore.Internal_Hbond.Weighted>
0.0000

> <Gold.Chemscore.DEClash.Weighted>
0.1046

> <Gold.Chemscore.DEInternal.Weighted>
0.2466

> <Gold.Chemscore.Rot.Weighted>
4.7340

> <Gold.Chemscore.Internal.Correction.Weighted>
   9.000000E+99

> <Gold.Protein.RotatedTorsions>
[ 6907 6896 6895 6894 ] final  -92.81 input  -60.11 | X-H torsion
[ 7974 7965 7964 7962 ] final   -9.87 input  175.53 | X-H torsion
[ 8008 7997 7996 7995 ] final  -47.25 input   59.86 | X-H torsion
[ 10167 10162 10161 10158 ] final   95.87 input  -65.29 | X-H torsion
[ 10718 10713 10712 10709 ] final  122.65 input   66.30 | X-H torsion
[ 10763 10752 10751 10750 ] final  140.85 input  -60.55 | X-H torsion
[ 11005 11000 10999 10996 ] final    8.62 input  -57.11 | X-H torsion

> <Gold.Protein.ActiveResidues>
 VAL166  LYS551  ARG553  GLY616  TRP617  ASP618  TYR619  PRO620  LYS621  CYS622 
 ASP623  PHE694  ASN695  SER759  ASP760  ASP761  ALA762  ILE779  LEU786  VAL792 
 PHE793  MET794  SER795  GLU796  ALA797  LYS798  CYS799  TRP800  GLU811  SER814 

> <Gold.Protein.RotatedAtoms>
  150.6912  134.2064  159.4341 H   0  0  0  0  0  0  0  0  0  0  0  0  # atno 6907 bound_to 6896
  152.0028  134.9916  160.0575 H   0  0  0  0  0  0  0  0  0  0  0  0  # atno 6908 bound_to 6896
  152.1562  133.4518  159.4875 H   0  0  0  0  0  0  0  0  0  0  0  0  # atno 6909 bound_to 6896
  146.2238  140.2680  142.8355 H   0  0  0  0  0  0  0  0  0  0  0  0  # atno 7974 bound_to 7965
  154.4015  140.1351  156.4144 H   0  0  0  0  0  0  0  0  0  0  0  0  # atno 8008 bound_to 7997
  155.7702  140.3484  155.5223 H   0  0  0  0  0  0  0  0  0  0  0  0  # atno 8009 bound_to 7997
  155.8774  140.0981  157.1499 H   0  0  0  0  0  0  0  0  0  0  0  0  # atno 8010 bound_to 7997
  139.7948  144.6838  150.9844 H   0  0  0  0  0  0  0  0  0  0  0  0  # atno 10167 bound_to 10162
  157.5726  131.1082  150.8339 H   0  0  0  0  0  0  0  0  0  0  0  0  # atno 10718 bound_to 10713
  153.9295  135.2992  155.3446 H   0  0  0  0  0  0  0  0  0  0  0  0  # atno 10763 bound_to 10752
  154.7534  135.4969  153.9333 H   0  0  0  0  0  0  0  0  0  0  0  0  # atno 10764 bound_to 10752
  153.1099  135.6756  153.9624 H   0  0  0  0  0  0  0  0  0  0  0  0  # atno 10765 bound_to 10752
  140.5350  134.0430  155.7885 H   0  0  0  0  0  0  0  0  0  0  0  0  # atno 11005 bound_to 11000
  144.9289  140.7953  143.5701 LP  0  0  0  0  0  0  0  0  0  0  0  0  # atno 17320 bound_to 7965
  145.2622  139.1988  143.4886 LP  0  0  0  0  0  0  0  0  0  0  0  0  # atno 17321 bound_to 7965
  140.7820  143.4343  151.0647 LP  0  0  0  0  0  0  0  0  0  0  0  0  # atno 17342 bound_to 10162
  139.8018  143.8074  152.3163 LP  0  0  0  0  0  0  0  0  0  0  0  0  # atno 17343 bound_to 10162
  156.8806  130.5178  149.5291 LP  0  0  0  0  0  0  0  0  0  0  0  0  # atno 17370 bound_to 10713
  156.0771  130.5790  150.9494 LP  0  0  0  0  0  0  0  0  0  0  0  0  # atno 17371 bound_to 10713
  141.1260  133.9382  157.2634 LP  0  0  0  0  0  0  0  0  0  0  0  0  # atno 17394 bound_to 11000
  139.9534  135.0171  156.9059 LP  0  0  0  0  0  0  0  0  0  0  0  0  # atno 17395 bound_to 11000

$$$$
