AV-unprocessed.smi:766|AV-procd|sdf|3653|dock4
  -GOLD-   22720 1 63D 1   1.00000     0.00000
 Structure written by MMmdl.
 48 50  0  0  0  0  0  0  0  0  3 V2000
  152.9890  142.5301  160.1087 C   0  0  0  0  0  0  0  0  0  0  0  0
  152.2505  142.0521  158.8699 C   0  0  0  0  0  0  0  0  0  0  0  0
  152.3362  140.6862  158.5189 C   0  0  0  0  0  0  0  0  0  0  0  0
  151.6476  140.2787  157.3828 C   0  0  0  0  0  0  0  0  0  0  0  0
  151.5370  139.0224  156.7837 N   0  3  0  0  0  0  0  0  0  0  0  0
  150.7463  139.1136  155.6790 C   0  0  0  0  0  0  0  0  0  0  0  0
  150.3519  140.4110  155.5612 N   0  0  0  0  0  0  0  0  0  0  0  0
  149.4853  141.0386  154.5525 C   0  0  0  0  0  0  0  0  0  0  0  0
  148.3494  140.1119  154.0768 C   0  0  2  0  0  0  0  0  0  0  0  0
  148.8837  139.0816  153.2686 O   0  0  0  0  0  0  0  0  0  0  0  0
  147.2907  140.8743  153.2629 C   0  0  0  0  0  0  0  0  0  0  0  0
  146.0935  141.1607  154.0776 N   0  3  0  0  0  0  0  0  0  0  0  0
  145.9247  142.5861  154.4244 C   0  0  0  0  0  0  0  0  0  0  0  0
  144.7495  142.7965  155.3967 C   0  0  0  0  0  0  0  0  0  0  0  0
  144.1668  144.1275  155.3241 N   0  0  0  0  0  0  0  0  0  0  0  0
  143.6264  144.7606  154.2240 C   0  0  0  0  0  0  0  0  0  0  0  0
  143.1739  145.9811  154.6362 C   0  0  0  0  0  0  0  0  0  0  0  0
  143.4696  145.9989  156.0275 C   0  0  0  0  0  0  0  0  0  0  0  0
  144.0549  144.8852  156.4376 N   0  0  0  0  0  0  0  0  0  0  0  0
  150.8910  141.1760  156.6035 C   0  0  0  0  0  0  0  0  0  0  0  0
  150.7992  142.5263  156.9341 C   0  0  0  0  0  0  0  0  0  0  0  0
  151.4926  142.9608  158.0865 C   0  0  0  0  0  0  0  0  0  0  0  0
  151.4106  144.4283  158.4715 C   0  0  0  0  0  0  0  0  0  0  0  0
  153.5307  141.7151  160.5896 H   0  0  0  0  0  0  0  0  0  0  0  0
  152.2888  142.9398  160.8369 H   0  0  0  0  0  0  0  0  0  0  0  0
  153.7127  143.3033  159.8500 H   0  0  0  0  0  0  0  0  0  0  0  0
  152.9124  139.9892  159.1099 H   0  0  0  0  0  0  0  0  0  0  0  0
  150.4786  138.3013  155.0185 H   0  0  0  0  0  0  0  0  0  0  0  0
  149.0633  141.9340  155.0109 H   0  0  0  0  0  0  0  0  0  0  0  0
  150.0938  141.3849  153.7168 H   0  0  0  0  0  0  0  0  0  0  0  0
  147.8784  139.6543  154.9480 H   0  0  0  0  0  0  0  0  0  0  0  0
  149.0873  139.4408  152.4181 H   0  0  0  0  0  0  0  0  0  0  0  0
  147.7030  141.8226  152.9157 H   0  0  0  0  0  0  0  0  0  0  0  0
  147.0088  140.3048  152.3756 H   0  0  0  0  0  0  0  0  0  0  0  0
  145.2802  140.8665  153.5548 H   0  0  0  0  0  0  0  0  0  0  0  0
  146.8446  142.9520  154.8818 H   0  0  0  0  0  0  0  0  0  0  0  0
  145.7746  143.1678  153.5139 H   0  0  0  0  0  0  0  0  0  0  0  0
  143.9657  142.0643  155.1976 H   0  0  0  0  0  0  0  0  0  0  0  0
  145.0805  142.6290  156.4222 H   0  0  0  0  0  0  0  0  0  0  0  0
  143.6096  144.2965  153.2487 H   0  0  0  0  0  0  0  0  0  0  0  0
  142.6974  146.7424  154.0367 H   0  0  0  0  0  0  0  0  0  0  0  0
  143.2739  146.7802  156.7470 H   0  0  0  0  0  0  0  0  0  0  0  0
  150.2267  143.2214  156.3377 H   0  0  0  0  0  0  0  0  0  0  0  0
  150.7913  144.9908  157.7722 H   0  0  0  0  0  0  0  0  0  0  0  0
  152.4030  144.8795  158.4744 H   0  0  0  0  0  0  0  0  0  0  0  0
  150.9758  144.5397  159.4649 H   0  0  0  0  0  0  0  0  0  0  0  0
  146.1427  140.6207  154.9295 H   0  0  0  0  0  0  0  0  0  0  0  0
  151.9660  138.1638  157.1053 H   0  0  0  0  0  0  0  0  0  0  0  0
  1  2  1  0  0  0  0
  1 24  1  0  0  0  0
  1 25  1  0  0  0  0
  1 26  1  0  0  0  0
  2 22  1  0  0  0  0
  2  3  2  0  0  0  0
  3  4  1  0  0  0  0
  3 27  1  0  0  0  0
  4 20  2  0  0  0  0
  4  5  1  0  0  0  0
  5  6  2  0  0  0  0
  5 48  1  0  0  0  0
  6  7  1  0  0  0  0
  6 28  1  0  0  0  0
  7  8  1  0  0  0  0
  7 20  1  0  0  0  0
  8  9  1  0  0  0  0
  8 29  1  0  0  0  0
  8 30  1  0  0  0  0
  9 10  1  0  0  0  0
  9 11  1  0  0  0  0
  9 31  1  0  0  0  0
 10 32  1  0  0  0  0
 11 12  1  0  0  0  0
 11 33  1  0  0  0  0
 11 34  1  0  0  0  0
 12 13  1  0  0  0  0
 12 35  1  0  0  0  0
 12 47  1  0  0  0  0
 13 14  1  0  0  0  0
 13 36  1  0  0  0  0
 13 37  1  0  0  0  0
 14 15  1  0  0  0  0
 14 38  1  0  0  0  0
 14 39  1  0  0  0  0
 15 19  1  0  0  0  0
 15 16  1  0  0  0  0
 16 17  2  0  0  0  0
 16 40  1  0  0  0  0
 17 18  1  0  0  0  0
 17 41  1  0  0  0  0
 18 19  2  0  0  0  0
 18 42  1  0  0  0  0
 20 21  1  0  0  0  0
 21 22  2  0  0  0  0
 21 43  1  0  0  0  0
 22 23  1  0  0  0  0
 23 44  1  0  0  0  0
 23 45  1  0  0  0  0
 23 46  1  0  0  0  0
M  CHG  1   5   1
M  CHG  1  12   1
M  END
> <s_m_source_file>
AV-unprocessed.smi

> <i_m_source_file_index>
766

> <i_lp_mmshare_version>
43012

> <i_f3d_flags>
0

> <s_epik_input>
W0NIM11jKFtjSF0xKWMoW0NIM10pW2NIXWMoYzEyKW4oW2NIXW4yKVtDSDJdW0NASF0oW09IXSlbQ0gyXVtOSF1bQ0gyXVtDSDJdbjNbY0hdW2NIXVtjSF1uMw==

> <s_epik_cmdline>
J2VwaWtfcHl0aG9uJywgJy1waCcsICc3LjAnLCAnLXRuJywgJzgnLCAnLW1hJywgJzIwMCcsICctbWV0YWxfYmluZGluZycsICctaW1hZScsICc8aW5maWxlLm1hZT4nLCAnLW9tYWUnLCAnPG91dGZpbGUubWFlPic=

> <r_lp_tautomer_probability>
1

> <r_epik_Ionization_Penalty>
1.25103

> <r_epik_Ionization_Penalty_Charging>
1.25102

> <r_epik_Ionization_Penalty_Neutral>
6.05394e-06

> <r_epik_State_Penalty>
1.2613

> <r_epik_Charging_Adjusted_Penalty>
2.51232

> <i_epik_Tot_Q>
2

> <i_epik_Tot_abs_Q>
2

> <r_epik_Metal_State_Penalty>
1.33164

> <b_epik_Metal_Only>
0

> <s_lp_Force_Field>
OPLS_2005

> <r_lp_Energy>
19.7351

> <b_lp_Chiralities_Consistent>
1

> <s_lp_Variant>
AV-unprocessed.smi:766-3

> <Gold.Version>
5.8.1

> <Gold.Id.Protein>
6NUR|6NUR_protein|mol2

> <Gold.PLP.Fitness>
59.5959

> <Gold.PLP.PLP>
-50.4668

> <Gold.PLP.part.hbond>
-2.6100

> <Gold.PLP.part.metal>
0.0000

> <Gold.PLP.part.buried>
-3.5027

> <Gold.PLP.part.nonpolar>
-43.7070

> <Gold.PLP.part.repulsive>
0.1594

> <Gold.PLP.ligand.clash>
0.0000

> <Gold.PLP.ligand.torsion>
1.5336

> <Gold.PLP.Chemscore.Hbond>
3.0000

> <Gold.PLP.Chemscore.CHOScore>
1.0000

> <Gold.PLP.Chemscore.Metal>
0.0000

> <Gold.Chemscore.Hbonds>
donor molecule, donor type, donor heavy atom, donor atom, acceptor molecule, acceptor atom, score
      L1  H    10    32       P1  7957  0.88
      L1  H    12    35       P1 10175  2.00
      L1  C    16    40       P1 10174  1.00

> <Gold.PLP.Chemscore.Internal.Correction>
0.1964

> <Gold.Rescore>
     Score         DG    S(hbond)    S(metal)    S(lipo)     H(rot)  DE(clash)    DE(int)     intcor
     16.82     -19.09       1.94        0.00     126.93       3.02       0.13       2.14       ----

> <Gold.Chemscore.Fitness>
16.8156

> <Gold.Chemscore.DG>
-19.0872

> <Gold.Chemscore.ZeroCoef>
-5.4800

> <Gold.Chemscore.Hbond>
1.9446

> <Gold.Chemscore.Metal>
0.0000

> <Gold.Chemscore.Lipo>
126.9311

> <Gold.Chemscore.Internal_Hbond>
0.0000

> <Gold.Chemscore.DEClash>
0.1327

> <Gold.Chemscore.DEInternal>
2.1388

> <Gold.Chemscore.Rot>
3.0229

> <Gold.Chemscore.Internal.Correction>
   9.000000E+99

> <Gold.Chemscore.Hbonds>
donor molecule, donor type, donor heavy atom, donor atom, acceptor molecule, acceptor atom, score
      L1  H    10    32       P1  7957  0.86
      L1  H    12    35       P1 10175  0.81

> <Gold.Chemscore.Hbond.Weighted>
-6.4948

> <Gold.Chemscore.Metal.Weighted>
-0.0000

> <Gold.Chemscore.Lipo.Weighted>
-14.8509

> <Gold.Chemscore.Internal_Hbond.Weighted>
0.0000

> <Gold.Chemscore.DEClash.Weighted>
0.1327

> <Gold.Chemscore.DEInternal.Weighted>
2.1388

> <Gold.Chemscore.Rot.Weighted>
7.7386

> <Gold.Chemscore.Internal.Correction.Weighted>
   9.000000E+99

> <Gold.Protein.RotatedTorsions>
[ 6907 6896 6895 6894 ] final  -12.76 input  -60.11 | X-H torsion
[ 7974 7965 7964 7962 ] final  137.61 input  175.53 | X-H torsion
[ 8008 7997 7996 7995 ] final   49.96 input   59.86 | X-H torsion
[ 10167 10162 10161 10158 ] final  -33.46 input  -65.29 | X-H torsion
[ 10718 10713 10712 10709 ] final   76.16 input   66.30 | X-H torsion
[ 10763 10752 10751 10750 ] final -143.57 input  -60.55 | X-H torsion
[ 11005 11000 10999 10996 ] final -155.32 input  -57.11 | X-H torsion

> <Gold.Protein.ActiveResidues>
 VAL166  LYS551  ARG553  GLY616  TRP617  ASP618  TYR619  PRO620  LYS621  CYS622 
 ASP623  PHE694  ASN695  SER759  ASP760  ASP761  ALA762  ILE779  LEU786  VAL792 
 PHE793  MET794  SER795  GLU796  ALA797  LYS798  CYS799  TRP800  GLU811  SER814 

> <Gold.Protein.RotatedAtoms>
  151.3656  135.0912  159.9448 H   0  0  0  0  0  0  0  0  0  0  0  0  # atno 6907 bound_to 6896
  152.5150  133.9215  159.7547 H   0  0  0  0  0  0  0  0  0  0  0  0  # atno 6908 bound_to 6896
  150.9619  133.6382  159.2782 H   0  0  0  0  0  0  0  0  0  0  0  0  # atno 6909 bound_to 6896
  144.9451  139.4885  143.5553 H   0  0  0  0  0  0  0  0  0  0  0  0  # atno 7974 bound_to 7965
  155.4108  140.3442  155.4263 H   0  0  0  0  0  0  0  0  0  0  0  0  # atno 8008 bound_to 7997
  156.1450  140.1553  156.8893 H   0  0  0  0  0  0  0  0  0  0  0  0  # atno 8009 bound_to 7997
  154.5002  140.0816  156.7763 H   0  0  0  0  0  0  0  0  0  0  0  0  # atno 8010 bound_to 7997
  140.7204  143.3619  151.1947 H   0  0  0  0  0  0  0  0  0  0  0  0  # atno 10167 bound_to 10162
  157.6663  130.9761  150.1457 H   0  0  0  0  0  0  0  0  0  0  0  0  # atno 10718 bound_to 10713
  154.8464  135.3464  154.6208 H   0  0  0  0  0  0  0  0  0  0  0  0  # atno 10763 bound_to 10752
  153.6816  135.6980  153.5121 H   0  0  0  0  0  0  0  0  0  0  0  0  # atno 10764 bound_to 10752
  153.2663  135.4307  155.0900 H   0  0  0  0  0  0  0  0  0  0  0  0  # atno 10765 bound_to 10752
  140.6877  134.4075  157.5222 H   0  0  0  0  0  0  0  0  0  0  0  0  # atno 11005 bound_to 11000
  146.3300  139.8497  142.8875 LP  0  0  0  0  0  0  0  0  0  0  0  0  # atno 17320 bound_to 7965
  145.2931  141.0173  143.3652 LP  0  0  0  0  0  0  0  0  0  0  0  0  # atno 17321 bound_to 7965
  139.7172  143.9281  152.2971 LP  0  0  0  0  0  0  0  0  0  0  0  0  # atno 17342 bound_to 10162
  139.9026  144.6903  150.8649 LP  0  0  0  0  0  0  0  0  0  0  0  0  # atno 17343 bound_to 10162
  156.2268  130.3678  149.8491 LP  0  0  0  0  0  0  0  0  0  0  0  0  # atno 17370 bound_to 10713
  156.6328  130.8673  151.3499 LP  0  0  0  0  0  0  0  0  0  0  0  0  # atno 17371 bound_to 10713
  139.8932  134.8735  156.2232 LP  0  0  0  0  0  0  0  0  0  0  0  0  # atno 17394 bound_to 11000
  141.0266  133.7011  156.1359 LP  0  0  0  0  0  0  0  0  0  0  0  0  # atno 17395 bound_to 11000

$$$$
