#       Name:                AV-unprocessed.smi:2470
#       Creating user name   scv26
#       Creation time:       Fri Mar 27 13:37:36 2020


#       File generated by GOLD software.
#

@<TRIPOS>MOLECULE
AV-unprocessed.smi:2470
    39    40     1
SMALL
NO_CHARGES


@<TRIPOS>ATOM
      1 ****        -6.0438  -2.7096  -0.9945 C.3            1 S1                 0.0000
      2 ****        -4.6235  -2.7383  -0.9090 O.3            1 S1                 0.0000
      3 ****        -3.9592  -1.5467  -0.7048 C.ar           1 S1                 0.0000
      4 ****        -2.5516  -1.5460  -0.6219 C.ar           1 S1                 0.0000
      5 ****        -1.9099  -0.3041  -0.4164 C.ar           1 S1                 0.0000
      6 ****        -0.4927  -0.3475  -0.3394 N.am           1 S1                 0.0000
      7 ****         0.3607   0.6790  -0.1790 C.2            1 S1                 0.0000
      8 ****         0.0375   1.8641  -0.0934 O.2            1 S1                 0.0000
      9 ****         1.6303   0.2481  -0.1268 N.am           1 S1                 0.0000
     10 ****         2.8137   1.0876   0.0400 C.3            1 S1                 0.0000
     11 ****         3.5551   1.1851  -1.3008 C.3            1 S1                 0.0000
     12 ****         3.7333   0.5856   1.1369 C.3            1 S1                 0.0000
     13 ****         3.5160   0.9828   2.5771 C.3            1 S1                 0.0000
     14 ****         4.7113   1.5135   1.8173 C.3            1 S1                 0.0000
     15 ****        -2.6478   0.8281  -0.3041 N.ar           1 S1                 0.0000
     16 ****        -3.9747   0.7214  -0.3951 C.ar           1 S1                 0.0000
     17 ****        -4.6709  -0.3994  -0.5889 N.ar           1 S1                 0.0000
     18 ****        -6.4149  -3.7188  -1.1723 H              1 S1                 0.0000
     19 ****        -6.3816  -2.0830  -1.8212 H              1 S1                 0.0000
     20 ****        -6.4912  -2.3506  -0.0666 H              1 S1                 0.0000
     21 ****        -1.9916  -2.4651  -0.7149 H              1 S1                 0.0000
     22 ****        -0.0818  -1.2663  -0.4105 H              1 S1                 0.0000
     23 ****         1.7936  -0.7447  -0.2078 H              1 S1                 0.0000
     24 ****         2.5089   2.0983   0.3175 H              1 S1                 0.0000
     25 ****         4.4250   1.8378  -1.2211 H              1 S1                 0.0000
     26 ****         2.9091   1.5941  -2.0785 H              1 S1                 0.0000
     27 ****         3.9027   0.2069  -1.6351 H              1 S1                 0.0000
     28 ****         4.0874  -0.4313   0.9761 H              1 S1                 0.0000
     29 ****         2.7080   1.6790   2.7938 H              1 S1                 0.0000
     30 ****         3.6981   0.2275   3.3389 H              1 S1                 0.0000
     31 ****         5.6896   1.1121   2.0729 H              1 S1                 0.0000
     32 ****         4.6976   2.5639   1.5330 H              1 S1                 0.0000
     33 ****        -4.5422   1.6354  -0.3020 H              1 S1                 0.0000
     34 ****        -4.2825  -3.1249  -1.7658 LP             1 S1                 0.0000
     35 ****        -4.3842  -3.3450  -0.1510 LP             1 S1                 0.0000
     36 ****        -0.9268   2.1242  -0.1426 LP             1 S1                 0.0000
     37 ****         0.7393   2.5665   0.0253 LP             1 S1                 0.0000
     38 ****        -2.2110   1.7157  -0.1576 LP             1 S1                 0.0000
     39 ****        -5.6693  -0.3934  -0.6459 LP             1 S1                 0.0000
@<TRIPOS>BOND
    1    1    2 1     
    2    1   18 1     
    3    1   19 1     
    4    1   20 1     
    5    2    3 1     
    6    3   17 ar    
    7    3    4 ar    
    8    4    5 ar    
    9    4   21 1     
   10    5    6 1     
   11    5   15 ar    
   12    6    7 am    
   13    6   22 1     
   14    7    8 2     
   15    7    9 am    
   16    9   10 1     
   17    9   23 1     
   18   10   11 1     
   19   10   12 1     
   20   10   24 1     
   21   11   25 1     
   22   11   26 1     
   23   11   27 1     
   24   12   14 1     
   25   12   13 1     
   26   12   28 1     
   27   13   14 1     
   28   13   29 1     
   29   13   30 1     
   30   14   31 1     
   31   14   32 1     
   32   15   16 ar    
   33   16   17 ar    
   34   16   33 1     
   35    2   34 1     
   36    2   35 1     
   37    8   36 1     
   38    8   37 1     
   39   15   38 1     
   40   17   39 1     
@<TRIPOS>SUBSTRUCTURE
      1 S1             1
@<TRIPOS>SET
LONE_PAIRS      STATIC     ATOMS    <user>   **** ""
6 34 35 36 37 38 39
DONOR_HYDROGENS      STATIC     ATOMS    <user>   **** ""
2 22 23
ATOM$BLUE        STATIC     ATOMS    COLORGROUP SYSTEM
6 34 35 36 37 38 39
ATOM$RED        STATIC     ATOMS    COLORGROUP SYSTEM
2 22 23
