AV-unprocessed.smi:1395|AV-procd|sdf|5673|dock1
  -GOLD-   22720 5293D 1   1.00000     0.00000
 Structure written by MMmdl.
 42 43  0  0  0  0  0  0  0  0  3 V2000
  152.8099  140.6931  159.5795 C   0  0  0  0  0  0  0  0  0  0  0  0
  152.2574  141.9413  158.9107 C   0  0  0  0  0  0  0  0  0  0  0  0
  152.6831  143.2101  159.3585 C   0  0  0  0  0  0  0  0  0  0  0  0
  152.1705  144.3632  158.7397 C   0  0  0  0  0  0  0  0  0  0  0  0
  151.2477  144.1974  157.6928 C   0  0  0  0  0  0  0  0  0  0  0  0
  150.8358  142.9889  157.2584 N   0  0  0  0  0  0  0  0  0  0  0  0
  151.3197  141.8658  157.8459 C   0  0  0  0  0  0  0  0  0  0  0  0
  150.9351  140.5584  157.4346 N   0  0  0  0  0  0  0  0  0  0  0  0
  151.1120  139.9729  156.2369 C   0  0  0  0  0  0  0  0  0  0  0  0
  151.5969  140.5126  155.2423 O   0  0  0  0  0  0  0  0  0  0  0  0
  150.6850  138.7017  156.2525 N   0  0  0  0  0  0  0  0  0  0  0  0
  150.7364  137.7748  155.1216 C   0  0  2  0  0  0  0  0  0  0  0  0
  150.3467  138.4970  153.8204 C   0  0  0  0  0  0  0  0  0  0  0  0
  148.8478  138.8499  153.7832 C   0  0  0  0  0  0  0  0  0  0  0  0
  147.9995  137.6484  153.9916 N   0  3  2  0  0  0  0  0  0  0  0  0
  146.5542  137.9536  153.8452 C   0  0  0  0  0  0  0  0  0  0  0  0
  146.1908  138.1168  152.3657 C   0  0  0  0  0  0  0  0  0  0  0  0
  144.8706  137.9730  152.1404 N   0  5  0  0  0  0  0  0  0  0  0  0
  147.0786  138.3367  151.5445 O   0  0  0  0  0  0  0  0  0  0  0  0
  148.3243  136.9580  155.2695 C   0  0  0  0  0  0  0  0  0  0  0  0
  149.8090  136.5603  155.3255 C   0  0  0  0  0  0  0  0  0  0  0  0
  153.5289  140.9459  160.3594 H   0  0  0  0  0  0  0  0  0  0  0  0
  153.3158  140.0604  158.8499 H   0  0  0  0  0  0  0  0  0  0  0  0
  152.0045  140.1191  160.0389 H   0  0  0  0  0  0  0  0  0  0  0  0
  153.3943  143.3025  160.1663 H   0  0  0  0  0  0  0  0  0  0  0  0
  152.4762  145.3485  159.0592 H   0  0  0  0  0  0  0  0  0  0  0  0
  150.8294  145.0564  157.1895 H   0  0  0  0  0  0  0  0  0  0  0  0
  150.4906  139.9975  158.1459 H   0  0  0  0  0  0  0  0  0  0  0  0
  150.2931  138.3468  157.1123 H   0  0  0  0  0  0  0  0  0  0  0  0
  151.7652  137.4236  155.0235 H   0  0  0  0  0  0  0  0  0  0  0  0
  150.9474  139.3984  153.6928 H   0  0  0  0  0  0  0  0  0  0  0  0
  150.5815  137.8546  152.9706 H   0  0  0  0  0  0  0  0  0  0  0  0
  148.6133  139.5963  154.5438 H   0  0  0  0  0  0  0  0  0  0  0  0
  148.6136  139.3003  152.8180 H   0  0  0  0  0  0  0  0  0  0  0  0
  145.9506  137.1943  154.3475 H   0  0  0  0  0  0  0  0  0  0  0  0
  146.3238  138.9023  154.3319 H   0  0  0  0  0  0  0  0  0  0  0  0
  144.4990  138.1820  151.2062 H   0  0  0  0  0  0  0  0  0  0  0  0
  148.0738  137.6064  156.1104 H   0  0  0  0  0  0  0  0  0  0  0  0
  147.7175  136.0590  155.3780 H   0  0  0  0  0  0  0  0  0  0  0  0
  150.0083  135.8239  154.5459 H   0  0  0  0  0  0  0  0  0  0  0  0
  150.0254  136.0596  156.2698 H   0  0  0  0  0  0  0  0  0  0  0  0
  148.2233  137.0056  153.2452 H   0  0  0  0  0  0  0  0  0  0  0  0
  1  2  1  0  0  0  0
  1 22  1  0  0  0  0
  1 23  1  0  0  0  0
  1 24  1  0  0  0  0
  2  7  1  0  0  0  0
  2  3  2  0  0  0  0
  3  4  1  0  0  0  0
  3 25  1  0  0  0  0
  4  5  2  0  0  0  0
  4 26  1  0  0  0  0
  5  6  1  0  0  0  0
  5 27  1  0  0  0  0
  6  7  2  0  0  0  0
  7  8  1  0  0  0  0
  8  9  1  0  0  0  0
  8 28  1  0  0  0  0
  9 10  2  0  0  0  0
  9 11  1  0  0  0  0
 11 12  1  0  0  0  0
 11 29  1  0  0  0  0
 12 21  1  0  0  0  0
 12 13  1  0  0  0  0
 12 30  1  0  0  0  0
 13 14  1  0  0  0  0
 13 31  1  0  0  0  0
 13 32  1  0  0  0  0
 14 15  1  0  0  0  0
 14 33  1  0  0  0  0
 14 34  1  0  0  0  0
 15 16  1  0  0  0  0
 15 20  1  0  0  0  0
 15 42  1  0  0  0  0
 16 17  1  0  0  0  0
 16 35  1  0  0  0  0
 16 36  1  0  0  0  0
 17 18  1  0  0  0  0
 17 19  2  0  0  0  0
 18 37  1  0  0  0  0
 20 21  1  0  0  0  0
 20 38  1  0  0  0  0
 20 39  1  0  0  0  0
 21 40  1  0  0  0  0
 21 41  1  0  0  0  0
M  CHG  1  15   1
M  CHG  1  18  -1
M  END
> <s_m_source_file>
AV-unprocessed.smi

> <i_m_source_file_index>
1395

> <i_lp_mmshare_version>
43012

> <i_f3d_flags>
0

> <s_epik_input>
W0NIM11jMVtjSF1bY0hdW2NIXW5jMVtOSF1DKD1PKVtOSF1bQ0hdMltDSDJdW0NIMl1OKFtDSDJdW0NIMl0yKVtDSDJdQyg9TylbTkgyXQ==

> <s_epik_cmdline>
J2VwaWtfcHl0aG9uJywgJy1waCcsICc3LjAnLCAnLXRuJywgJzgnLCAnLW1hJywgJzIwMCcsICctbWV0YWxfYmluZGluZycsICctaW1hZScsICc8aW5maWxlLm1hZT4nLCAnLW9tYWUnLCAnPG91dGZpbGUubWFlPic=

> <r_epik_Ionization_Penalty>
5.72885

> <r_epik_Ionization_Penalty_Charging>
5.7288

> <r_epik_Ionization_Penalty_Neutral>
4.54304e-05

> <r_epik_State_Penalty>
6.54882

> <r_epik_Charging_Adjusted_Penalty>
12.2776

> <i_epik_Tot_Q>
0

> <i_epik_Tot_abs_Q>
2

> <r_epik_Metal_State_Penalty>
2.51297

> <b_epik_Metal_Only>
1

> <s_lp_Force_Field>
OPLS_2005

> <r_lp_Energy>
8.5501

> <b_lp_Chiralities_Consistent>
1

> <s_lp_Variant>
AV-unprocessed.smi:1395-5

> <Gold.Version>
5.8.1

> <Gold.Id.Protein>
6NUR|6NUR_protein|mol2

> <Gold.PLP.Fitness>
48.2945

> <Gold.PLP.PLP>
-34.0501

> <Gold.PLP.part.hbond>
-5.0000

> <Gold.PLP.part.metal>
0.0000

> <Gold.PLP.part.buried>
-2.4338

> <Gold.PLP.part.nonpolar>
-30.4148

> <Gold.PLP.part.repulsive>
3.4465

> <Gold.PLP.ligand.clash>
0.0000

> <Gold.PLP.ligand.torsion>
1.2755

> <Gold.PLP.Chemscore.Hbond>
4.8160

> <Gold.PLP.Chemscore.CHOScore>
0.7591

> <Gold.PLP.Chemscore.Metal>
0.0000

> <Gold.Chemscore.Hbonds>
donor molecule, donor type, donor heavy atom, donor atom, acceptor molecule, acceptor atom, score
      L1  H    15    42       P1  7948  2.00
      L1  H    18    37       P1 10171  1.00
      P1  H  7954  7966       L1    19  1.00
      P1  H  7989  7998       L1    10  0.82
      L1  C     5    27       P1  8028  0.80

> <Gold.PLP.Chemscore.Internal.Correction>
0.0700

> <Gold.Rescore>
     Score         DG    S(hbond)    S(metal)    S(lipo)     H(rot)  DE(clash)    DE(int)     intcor
     18.11     -22.73       3.72        0.00      83.64       1.93       1.82       2.80       ----

> <Gold.Chemscore.Fitness>
18.1112

> <Gold.Chemscore.DG>
-22.7310

> <Gold.Chemscore.ZeroCoef>
-5.4800

> <Gold.Chemscore.Hbond>
3.7176

> <Gold.Chemscore.Metal>
0.0000

> <Gold.Chemscore.Lipo>
83.6351

> <Gold.Chemscore.Internal_Hbond>
0.0000

> <Gold.Chemscore.DEClash>
1.8163

> <Gold.Chemscore.DEInternal>
2.8035

> <Gold.Chemscore.Rot>
1.9341

> <Gold.Chemscore.Internal.Correction>
   9.000000E+99

> <Gold.Chemscore.Hbonds>
donor molecule, donor type, donor heavy atom, donor atom, acceptor molecule, acceptor atom, score
      L1  H    15    42       P1  7948  1.00
      L1  H    18    37       P1 10171  0.97
      P1  H  7954  7966       L1    19  0.93
      P1  H  7989  7998       L1    10  0.81

> <Gold.Chemscore.Hbond.Weighted>
-12.4169

> <Gold.Chemscore.Metal.Weighted>
-0.0000

> <Gold.Chemscore.Lipo.Weighted>
-9.7853

> <Gold.Chemscore.Internal_Hbond.Weighted>
0.0000

> <Gold.Chemscore.DEClash.Weighted>
1.8163

> <Gold.Chemscore.DEInternal.Weighted>
2.8035

> <Gold.Chemscore.Rot.Weighted>
4.9512

> <Gold.Chemscore.Internal.Correction.Weighted>
   9.000000E+99

> <Gold.Protein.RotatedTorsions>
[ 6907 6896 6895 6894 ] final -100.97 input  -60.11 | X-H torsion
[ 7974 7965 7964 7962 ] final   90.02 input  175.53 | X-H torsion
[ 8008 7997 7996 7995 ] final   80.83 input   59.86 | X-H torsion
[ 10167 10162 10161 10158 ] final -143.96 input  -65.29 | X-H torsion
[ 10718 10713 10712 10709 ] final   94.44 input   66.30 | X-H torsion
[ 10763 10752 10751 10750 ] final  -79.57 input  -60.55 | X-H torsion
[ 11005 11000 10999 10996 ] final   -6.58 input  -57.11 | X-H torsion

> <Gold.Protein.ActiveResidues>
 VAL166  LYS551  ARG553  GLY616  TRP617  ASP618  TYR619  PRO620  LYS621  CYS622 
 ASP623  PHE694  ASN695  SER759  ASP760  ASP761  ALA762  ILE779  LEU786  VAL792 
 PHE793  MET794  SER795  GLU796  ALA797  LYS798  CYS799  TRP800  GLU811  SER814 

> <Gold.Protein.RotatedAtoms>
  150.7136  134.0806  159.3896 H   0  0  0  0  0  0  0  0  0  0  0  0  # atno 6907 bound_to 6896
  151.8790  135.0458  160.0496 H   0  0  0  0  0  0  0  0  0  0  0  0  # atno 6908 bound_to 6896
  152.2583  133.5239  159.5403 H   0  0  0  0  0  0  0  0  0  0  0  0  # atno 6909 bound_to 6896
  145.5245  139.2280  143.2653 H   0  0  0  0  0  0  0  0  0  0  0  0  # atno 7974 bound_to 7965
  155.8888  140.3440  155.5941 H   0  0  0  0  0  0  0  0  0  0  0  0  # atno 8008 bound_to 7997
  155.7635  140.0836  157.2162 H   0  0  0  0  0  0  0  0  0  0  0  0  # atno 8009 bound_to 7997
  154.4031  140.1531  156.2847 H   0  0  0  0  0  0  0  0  0  0  0  0  # atno 8010 bound_to 7997
  139.7944  143.7921  152.2653 H   0  0  0  0  0  0  0  0  0  0  0  0  # atno 10167 bound_to 10162
  157.6948  131.0512  150.4186 H   0  0  0  0  0  0  0  0  0  0  0  0  # atno 10718 bound_to 10713
  154.5403  135.5691  153.6833 H   0  0  0  0  0  0  0  0  0  0  0  0  # atno 10763 bound_to 10752
  152.9961  135.6226  154.2511 H   0  0  0  0  0  0  0  0  0  0  0  0  # atno 10764 bound_to 10752
  154.2442  135.2861  155.2822 H   0  0  0  0  0  0  0  0  0  0  0  0  # atno 10765 bound_to 10752
  140.7035  133.8969  155.8700 H   0  0  0  0  0  0  0  0  0  0  0  0  # atno 11005 bound_to 11000
  146.2084  140.6059  142.9070 LP  0  0  0  0  0  0  0  0  0  0  0  0  # atno 17320 bound_to 7965
  144.7658  140.5527  143.6704 LP  0  0  0  0  0  0  0  0  0  0  0  0  # atno 17321 bound_to 7965
  139.8022  144.7369  150.9809 LP  0  0  0  0  0  0  0  0  0  0  0  0  # atno 17342 bound_to 10162
  140.7820  143.4334  151.0660 LP  0  0  0  0  0  0  0  0  0  0  0  0  # atno 17343 bound_to 10162
  156.4563  130.4022  149.6604 LP  0  0  0  0  0  0  0  0  0  0  0  0  # atno 17370 bound_to 10713
  156.3735  130.7542  151.2528 LP  0  0  0  0  0  0  0  0  0  0  0  0  # atno 17371 bound_to 10713
  141.0144  134.0976  157.4188 LP  0  0  0  0  0  0  0  0  0  0  0  0  # atno 17394 bound_to 11000
  139.8890  135.0102  156.6655 LP  0  0  0  0  0  0  0  0  0  0  0  0  # atno 17395 bound_to 11000

$$$$
