AV-unprocessed.smi:1703|AV-procd|sdf|6872|dock4
  -GOLD-   22720 8 73D 1   1.00000     0.00000
 Structure written by MMmdl.
 49 51  0  0  0  0  0  0  0  0  2 V2000
  147.9659  134.3455  156.3231 C   0  0  0  0  0  0  0  0  0  0  0  0
  148.4154  134.8046  157.7141 C   0  0  1  0  0  0  0  0  0  0  0  0
  149.3558  136.0210  157.6469 C   0  0  0  0  0  0  0  0  0  0  0  0
  149.7199  136.5054  158.9728 N   0  0  0  0  0  0  0  0  0  0  0  0
  150.6494  137.6324  158.8776 C   0  0  0  0  0  0  0  0  0  0  0  0
  150.2860  138.7062  157.8332 C   0  0  1  0  0  0  0  0  0  0  0  0
  149.3149  139.5653  158.3969 O   0  0  0  0  0  0  0  0  0  0  0  0
  151.5211  139.5279  157.4158 C   0  0  0  0  0  0  0  0  0  0  0  0
  151.2612  140.9772  157.3824 N   0  0  0  0  0  0  0  0  0  0  0  0
  150.4735  141.7098  156.5422 C   0  0  0  0  0  0  0  0  0  0  0  0
  149.6450  141.1989  155.4093 C   0  0  0  0  0  0  0  0  0  0  0  0
  149.0251  142.2385  154.6851 O   0  0  0  0  0  0  0  0  0  0  0  0
  150.5696  143.0122  156.9317 N   0  3  0  0  0  0  0  0  0  0  0  0
  151.4236  143.1161  158.0298 C   0  0  0  0  0  0  0  0  0  0  0  0
  151.8262  144.2251  158.7675 C   0  0  0  0  0  0  0  0  0  0  0  0
  152.7091  143.9848  159.8406 C   0  0  0  0  0  0  0  0  0  0  0  0
  153.1558  142.6827  160.1456 C   0  0  0  0  0  0  0  0  0  0  0  0
  152.7421  141.5666  159.3889 C   0  0  0  0  0  0  0  0  0  0  0  0
  151.8707  141.8123  158.3274 C   0  0  0  0  0  0  0  0  0  0  0  0
  148.4988  136.8393  159.7051 C   0  0  0  0  0  0  0  0  0  0  0  0
  147.5033  135.6637  159.7730 C   0  0  2  0  0  0  0  0  0  0  0  0
  147.9351  134.5561  160.7494 C   0  0  0  0  0  0  0  0  0  0  0  0
  147.2524  135.1485  158.4646 O   0  0  0  0  0  0  0  0  0  0  0  0
  148.8202  134.0605  155.7086 H   0  0  0  0  0  0  0  0  0  0  0  0
  147.4270  135.1369  155.8014 H   0  0  0  0  0  0  0  0  0  0  0  0
  147.3043  133.4819  156.3931 H   0  0  0  0  0  0  0  0  0  0  0  0
  148.9282  133.9739  158.1998 H   0  0  0  0  0  0  0  0  0  0  0  0
  150.2557  135.7454  157.0956 H   0  0  0  0  0  0  0  0  0  0  0  0
  148.8774  136.8216  157.0802 H   0  0  0  0  0  0  0  0  0  0  0  0
  150.7222  138.1226  159.8497 H   0  0  0  0  0  0  0  0  0  0  0  0
  151.6492  137.2498  158.6664 H   0  0  0  0  0  0  0  0  0  0  0  0
  149.8620  138.2497  156.9406 H   0  0  0  0  0  0  0  0  0  0  0  0
  149.4672  140.4390  158.0688 H   0  0  0  0  0  0  0  0  0  0  0  0
  152.3702  139.3266  158.0691 H   0  0  0  0  0  0  0  0  0  0  0  0
  151.8396  139.2337  156.4157 H   0  0  0  0  0  0  0  0  0  0  0  0
  150.2755  140.6235  154.7310 H   0  0  0  0  0  0  0  0  0  0  0  0
  148.8815  140.5194  155.7880 H   0  0  0  0  0  0  0  0  0  0  0  0
  149.2508  143.0630  155.0886 H   0  0  0  0  0  0  0  0  0  0  0  0
  151.4824  145.2230  158.5380 H   0  0  0  0  0  0  0  0  0  0  0  0
  153.0484  144.8150  160.4431 H   0  0  0  0  0  0  0  0  0  0  0  0
  153.8288  142.5354  160.9779 H   0  0  0  0  0  0  0  0  0  0  0  0
  153.0858  140.5735  159.6373 H   0  0  0  0  0  0  0  0  0  0  0  0
  148.7304  137.1578  160.7203 H   0  0  0  0  0  0  0  0  0  0  0  0
  148.0088  137.6861  159.2219 H   0  0  0  0  0  0  0  0  0  0  0  0
  146.5513  136.0525  160.1354 H   0  0  0  0  0  0  0  0  0  0  0  0
  148.0060  134.9428  161.7662 H   0  0  0  0  0  0  0  0  0  0  0  0
  148.9082  134.1389  160.4920 H   0  0  0  0  0  0  0  0  0  0  0  0
  147.2122  133.7402  160.7565 H   0  0  0  0  0  0  0  0  0  0  0  0
  150.0802  143.7731  156.4785 H   0  0  0  0  0  0  0  0  0  0  0  0
  1  2  1  0  0  0  0
  1 24  1  0  0  0  0
  1 25  1  0  0  0  0
  1 26  1  0  0  0  0
  2 23  1  0  0  0  0
  2  3  1  0  0  0  0
  2 27  1  0  0  0  0
  3  4  1  0  0  0  0
  3 28  1  0  0  0  0
  3 29  1  0  0  0  0
  4  5  1  0  0  0  0
  4 20  1  0  0  0  0
  5  6  1  0  0  0  0
  5 30  1  0  0  0  0
  5 31  1  0  0  0  0
  6  7  1  0  0  0  0
  6  8  1  0  0  0  0
  6 32  1  0  0  0  0
  7 33  1  0  0  0  0
  8  9  1  0  0  0  0
  8 34  1  0  0  0  0
  8 35  1  0  0  0  0
  9 19  1  0  0  0  0
  9 10  1  0  0  0  0
 10 11  1  0  0  0  0
 10 13  2  0  0  0  0
 11 12  1  0  0  0  0
 11 36  1  0  0  0  0
 11 37  1  0  0  0  0
 12 38  1  0  0  0  0
 13 14  1  0  0  0  0
 13 49  1  0  0  0  0
 14 19  2  0  0  0  0
 14 15  1  0  0  0  0
 15 16  2  0  0  0  0
 15 39  1  0  0  0  0
 16 17  1  0  0  0  0
 16 40  1  0  0  0  0
 17 18  2  0  0  0  0
 17 41  1  0  0  0  0
 18 19  1  0  0  0  0
 18 42  1  0  0  0  0
 20 21  1  0  0  0  0
 20 43  1  0  0  0  0
 20 44  1  0  0  0  0
 21 22  1  0  0  0  0
 21 23  1  0  0  0  0
 21 45  1  0  0  0  0
 22 46  1  0  0  0  0
 22 47  1  0  0  0  0
 22 48  1  0  0  0  0
M  CHG  1  13   1
M  END
> <s_m_source_file>
AV-unprocessed.smi

> <i_m_source_file_index>
1703

> <i_lp_mmshare_version>
43012

> <i_f3d_flags>
0

> <s_epik_input>
W0NIM11bQ0BASF0xW0NIMl1OKFtDSDJdW0NASF0oTzEpW0NIM10pW0NIMl1bQ0BIXShbT0hdKVtDSDJdbihjKG4yKVtDSDJdW09IXSljKGMyMylbY0hdW2NIXVtjSF1bY0hdMw==

> <s_epik_cmdline>
J2VwaWtfcHl0aG9uJywgJy1waCcsICc3LjAnLCAnLXRuJywgJzgnLCAnLW1hJywgJzIwMCcsICctbWV0YWxfYmluZGluZycsICctaW1hZScsICc8aW5maWxlLm1hZT4nLCAnLW9tYWUnLCAnPG91dGZpbGUubWFlPic=

> <r_epik_Ionization_Penalty>
1.7682

> <r_epik_Ionization_Penalty_Charging>
1.55298

> <r_epik_Ionization_Penalty_Neutral>
0.215215

> <r_epik_State_Penalty>
1.83821

> <r_epik_Charging_Adjusted_Penalty>
3.39119

> <i_epik_Tot_Q>
1

> <i_epik_Tot_abs_Q>
1

> <r_epik_Metal_State_Penalty>
5.89206

> <b_epik_Metal_Only>
0

> <s_lp_Force_Field>
OPLS_2005

> <r_lp_Energy>
35.5587

> <b_lp_Chiralities_Consistent>
1

> <s_lp_Variant>
AV-unprocessed.smi:1703-20

> <Gold.Version>
5.8.1

> <Gold.Id.Protein>
6NUR|6NUR_protein|mol2

> <Gold.PLP.Fitness>
52.5330

> <Gold.PLP.PLP>
-42.4163

> <Gold.PLP.part.hbond>
-4.1015

> <Gold.PLP.part.metal>
0.0000

> <Gold.PLP.part.buried>
-5.9708

> <Gold.PLP.part.nonpolar>
-32.5519

> <Gold.PLP.part.repulsive>
0.0445

> <Gold.PLP.ligand.clash>
0.0000

> <Gold.PLP.ligand.torsion>
1.0793

> <Gold.PLP.Chemscore.Hbond>
4.0816

> <Gold.PLP.Chemscore.CHOScore>
0.0000

> <Gold.PLP.Chemscore.Metal>
0.0000

> <Gold.Chemscore.Hbonds>
donor molecule, donor type, donor heavy atom, donor atom, acceptor molecule, acceptor atom, score
      L1  H    12    38       P1  8028  1.00
      L1  H    13    49       P1  8028  2.00
      P1  H  6896  6908       L1     4  0.78

> <Gold.PLP.Chemscore.Internal.Correction>
0.0304

> <Gold.Rescore>
     Score         DG    S(hbond)    S(metal)    S(lipo)     H(rot)  DE(clash)    DE(int)     intcor
     15.03     -17.02       2.10        0.00     103.29       2.96       0.09       1.90       ----

> <Gold.Chemscore.Fitness>
15.0278

> <Gold.Chemscore.DG>
-17.0190

> <Gold.Chemscore.ZeroCoef>
-5.4800

> <Gold.Chemscore.Hbond>
2.1019

> <Gold.Chemscore.Metal>
0.0000

> <Gold.Chemscore.Lipo>
103.2886

> <Gold.Chemscore.Internal_Hbond>
0.0000

> <Gold.Chemscore.DEClash>
0.0901

> <Gold.Chemscore.DEInternal>
1.9011

> <Gold.Chemscore.Rot>
2.9555

> <Gold.Chemscore.Internal.Correction>
   9.000000E+99

> <Gold.Chemscore.Hbonds>
donor molecule, donor type, donor heavy atom, donor atom, acceptor molecule, acceptor atom, score
      L1  H    12    38       P1  8028  0.97
      L1  H    13    49       P1  8028  1.00
      P1  H  6896  6908       L1     4  0.11

> <Gold.Chemscore.Hbond.Weighted>
-7.0202

> <Gold.Chemscore.Metal.Weighted>
-0.0000

> <Gold.Chemscore.Lipo.Weighted>
-12.0848

> <Gold.Chemscore.Internal_Hbond.Weighted>
0.0000

> <Gold.Chemscore.DEClash.Weighted>
0.0901

> <Gold.Chemscore.DEInternal.Weighted>
1.9011

> <Gold.Chemscore.Rot.Weighted>
7.5660

> <Gold.Chemscore.Internal.Correction.Weighted>
   9.000000E+99

> <Gold.Protein.RotatedTorsions>
[ 6907 6896 6895 6894 ] final -158.96 input  -60.11 | X-H torsion
[ 7974 7965 7964 7962 ] final -106.60 input  175.53 | X-H torsion
[ 8008 7997 7996 7995 ] final   82.09 input   59.86 | X-H torsion
[ 10167 10162 10161 10158 ] final -136.35 input  -65.29 | X-H torsion
[ 10718 10713 10712 10709 ] final   99.98 input   66.30 | X-H torsion
[ 10763 10752 10751 10750 ] final   -3.86 input  -60.55 | X-H torsion
[ 11005 11000 10999 10996 ] final  -18.80 input  -57.11 | X-H torsion

> <Gold.Protein.ActiveResidues>
 VAL166  LYS551  ARG553  GLY616  TRP617  ASP618  TYR619  PRO620  LYS621  CYS622 
 ASP623  PHE694  ASN695  SER759  ASP760  ASP761  ALA762  ILE779  LEU786  VAL792 
 PHE793  MET794  SER795  GLU796  ALA797  LYS798  CYS799  TRP800  GLU811  SER814 

> <Gold.Protein.RotatedAtoms>
  151.3263  133.4019  159.2658 H   0  0  0  0  0  0  0  0  0  0  0  0  # atno 6907 bound_to 6896
  150.9993  134.9309  159.7955 H   0  0  0  0  0  0  0  0  0  0  0  0  # atno 6908 bound_to 6896
  152.5270  134.3228  159.9207 H   0  0  0  0  0  0  0  0  0  0  0  0  # atno 6909 bound_to 6896
  145.2159  140.9115  143.3288 H   0  0  0  0  0  0  0  0  0  0  0  0  # atno 7974 bound_to 7965
  155.9059  140.3430  155.6062 H   0  0  0  0  0  0  0  0  0  0  0  0  # atno 8008 bound_to 7997
  155.7445  140.0812  157.2249 H   0  0  0  0  0  0  0  0  0  0  0  0  # atno 8009 bound_to 7997
  154.4049  140.1564  156.2640 H   0  0  0  0  0  0  0  0  0  0  0  0  # atno 8010 bound_to 7997
  139.8687  143.6985  152.2642 H   0  0  0  0  0  0  0  0  0  0  0  0  # atno 10167 bound_to 10162
  157.6864  131.0685  150.5030 H   0  0  0  0  0  0  0  0  0  0  0  0  # atno 10718 bound_to 10713
  153.3770  135.6997  153.6594 H   0  0  0  0  0  0  0  0  0  0  0  0  # atno 10763 bound_to 10752
  153.5221  135.3610  155.2637 H   0  0  0  0  0  0  0  0  0  0  0  0  # atno 10764 bound_to 10752
  154.8688  135.4160  154.3060 H   0  0  0  0  0  0  0  0  0  0  0  0  # atno 10765 bound_to 10752
  140.8304  133.8001  155.9752 H   0  0  0  0  0  0  0  0  0  0  0  0  # atno 11005 bound_to 11000
  144.9812  139.3782  143.6261 LP  0  0  0  0  0  0  0  0  0  0  0  0  # atno 17320 bound_to 7965
  146.3387  139.8953  142.8803 LP  0  0  0  0  0  0  0  0  0  0  0  0  # atno 17321 bound_to 7965
  139.7304  144.7583  151.0811 LP  0  0  0  0  0  0  0  0  0  0  0  0  # atno 17342 bound_to 10162
  140.7764  143.5095  150.9670 LP  0  0  0  0  0  0  0  0  0  0  0  0  # atno 17343 bound_to 10162
  156.5351  130.4194  149.6182 LP  0  0  0  0  0  0  0  0  0  0  0  0  # atno 17370 bound_to 10713
  156.3035  130.7190  151.2067 LP  0  0  0  0  0  0  0  0  0  0  0  0  # atno 17371 bound_to 10713
  140.9005  134.2385  157.5044 LP  0  0  0  0  0  0  0  0  0  0  0  0  # atno 17394 bound_to 11000
  139.8705  134.9704  156.4700 LP  0  0  0  0  0  0  0  0  0  0  0  0  # atno 17395 bound_to 11000

$$$$
