AV-unprocessed.smi:102|AV-procd|sdf|953|dock10
  -GOLD-   2262017483D 1   1.00000     0.00000
 Structure written by MMmdl.
 44 45  0  0  0  0  0  0  0  0  1 V2000
  147.5499  135.1098  160.8089 C   0  0  0  0  0  0  0  0  0  0  0  0
  147.8303  136.4599  160.1609 C   0  0  0  0  0  0  0  0  0  0  0  0
  147.8419  137.4979  160.8227 O   0  0  0  0  0  0  0  0  0  0  0  0
  148.0504  136.3640  158.8405 O   0  0  0  0  0  0  0  0  0  0  0  0
  148.9081  137.2979  158.2055 C   0  0  0  0  0  0  0  0  0  0  0  0
  148.1764  137.9452  157.0215 C   0  0  2  0  0  0  0  0  0  0  0  0
  147.4482  136.9698  156.2792 O   0  0  0  0  0  0  0  0  0  0  0  0
  147.4004  137.3136  154.9260 C   0  0  1  0  0  0  0  0  0  0  0  0
  145.9534  137.4573  154.4802 N   0  0  0  0  0  0  0  0  0  0  0  0
  144.9357  137.2994  155.4125 C   0  0  0  0  0  0  0  0  0  0  0  0
  143.6227  137.4291  155.1088 C   0  0  0  0  0  0  0  0  0  0  0  0
  142.6989  137.2525  156.0684 F   0  0  0  0  0  0  0  0  0  0  0  0
  143.2025  137.7608  153.7515 C   0  0  0  0  0  0  0  0  0  0  0  0
  142.0391  137.8945  153.3773 O   0  0  0  0  0  0  0  0  0  0  0  0
  144.2554  137.9297  152.8491 N   0  0  0  0  0  0  0  0  0  0  0  0
  145.6126  137.8016  153.1497 C   0  0  0  0  0  0  0  0  0  0  0  0
  146.4454  137.9797  152.2650 O   0  0  0  0  0  0  0  0  0  0  0  0
  148.3127  138.5415  154.6947 C   0  0  1  0  0  0  0  0  0  0  0  0
  147.6161  139.7580  154.4440 O   0  0  0  0  0  0  0  0  0  0  0  0
  148.2502  140.8071  153.8886 C   0  0  0  0  0  0  0  0  0  0  0  0
  147.3537  142.0327  153.7787 C   0  0  0  0  0  0  0  0  0  0  0  0
  149.4118  140.8209  153.4819 O   0  0  0  0  0  0  0  0  0  0  0  0
  149.0873  138.6377  156.0016 C   0  0  2  0  0  0  0  0  0  0  0  0
  150.3388  137.9676  155.8798 O   0  0  0  0  0  0  0  0  0  0  0  0
  151.3177  138.4886  155.1183 C   0  0  0  0  0  0  0  0  0  0  0  0
  152.3165  137.4359  154.6563 C   0  0  0  0  0  0  0  0  0  0  0  0
  151.4340  139.6713  154.7974 O   0  0  0  0  0  0  0  0  0  0  0  0
  144.0134  138.1667  151.8979 H   0  0  0  0  0  0  0  0  0  0  0  0
  147.5954  134.3058  160.0738 H   0  0  0  0  0  0  0  0  0  0  0  0
  146.5579  135.1082  161.2605 H   0  0  0  0  0  0  0  0  0  0  0  0
  148.2844  134.9061  161.5883 H   0  0  0  0  0  0  0  0  0  0  0  0
  149.1878  138.0649  158.9292 H   0  0  0  0  0  0  0  0  0  0  0  0
  149.8248  136.8105  157.8701 H   0  0  0  0  0  0  0  0  0  0  0  0
  147.4805  138.6909  157.4035 H   0  0  0  0  0  0  0  0  0  0  0  0
  147.7853  136.4469  154.3879 H   0  0  0  0  0  0  0  0  0  0  0  0
  145.1867  137.0502  156.4334 H   0  0  0  0  0  0  0  0  0  0  0  0
  148.9919  138.3247  153.8684 H   0  0  0  0  0  0  0  0  0  0  0  0
  146.3897  141.7601  153.3485 H   0  0  0  0  0  0  0  0  0  0  0  0
  147.8143  142.7884  153.1424 H   0  0  0  0  0  0  0  0  0  0  0  0
  147.1848  142.4662  154.7645 H   0  0  0  0  0  0  0  0  0  0  0  0
  149.2583  139.6743  156.2978 H   0  0  0  0  0  0  0  0  0  0  0  0
  152.6783  136.8567  155.5059 H   0  0  0  0  0  0  0  0  0  0  0  0
  153.1718  137.9068  154.1710 H   0  0  0  0  0  0  0  0  0  0  0  0
  151.8474  136.7552  153.9460 H   0  0  0  0  0  0  0  0  0  0  0  0
  1  2  1  0  0  0  0
  1 29  1  0  0  0  0
  1 30  1  0  0  0  0
  1 31  1  0  0  0  0
  2  3  2  0  0  0  0
  2  4  1  0  0  0  0
  4  5  1  0  0  0  0
  5  6  1  0  0  0  0
  5 32  1  0  0  0  0
  5 33  1  0  0  0  0
  6 23  1  0  0  0  0
  6  7  1  0  0  0  0
  6 34  1  0  0  0  0
  7  8  1  0  0  0  0
  8  9  1  0  0  0  0
  8 18  1  0  0  0  0
  8 35  1  0  0  0  0
  9 16  1  0  0  0  0
  9 10  1  0  0  0  0
 10 11  2  0  0  0  0
 10 36  1  0  0  0  0
 11 12  1  0  0  0  0
 11 13  1  0  0  0  0
 13 14  2  0  0  0  0
 13 15  1  0  0  0  0
 15 28  1  0  0  0  0
 15 16  1  0  0  0  0
 16 17  2  0  0  0  0
 18 19  1  0  0  0  0
 18 23  1  0  0  0  0
 18 37  1  0  0  0  0
 19 20  1  0  0  0  0
 20 21  1  0  0  0  0
 20 22  2  0  0  0  0
 21 38  1  0  0  0  0
 21 39  1  0  0  0  0
 21 40  1  0  0  0  0
 23 24  1  0  0  0  0
 23 41  1  0  0  0  0
 24 25  1  0  0  0  0
 25 26  1  0  0  0  0
 25 27  2  0  0  0  0
 26 42  1  0  0  0  0
 26 43  1  0  0  0  0
 26 44  1  0  0  0  0
M  END
> <s_m_source_file>
AV-unprocessed.smi

> <i_m_source_file_index>
102

> <i_lp_mmshare_version>
43012

> <i_f3d_flags>
0

> <s_epik_input>
W0NIM11DKD1PKU9bQ0gyXVtDQEBIXTFPW0NASF0oW0NAQEhdKE9DKD1PKVtDSDNdKVtDQEhdMU9DKD1PKVtDSDNdKW4yW2NIXWMoRiljKD1PKVtuSF1jMj1P

> <s_epik_cmdline>
J2VwaWtfcHl0aG9uJywgJy1waCcsICc3LjAnLCAnLXRuJywgJzgnLCAnLW1hJywgJzIwMCcsICctbWV0YWxfYmluZGluZycsICctaW1hZScsICc8aW5maWxlLm1hZT4nLCAnLW9tYWUnLCAnPG91dGZpbGUubWFlPic=

> <r_lp_tautomer_probability>
0.999537

> <r_epik_Ionization_Penalty>
0.058267

> <r_epik_Ionization_Penalty_Charging>
0.058267

> <r_epik_Ionization_Penalty_Neutral>
6.57791e-16

> <r_epik_State_Penalty>
0.0503774

> <r_epik_Charging_Adjusted_Penalty>
0.108644

> <i_epik_Tot_Q>
0

> <i_epik_Tot_abs_Q>
0

> <r_epik_Metal_State_Penalty>
2.6644

> <b_epik_Metal_Only>
0

> <s_epik_Chemistry_Notes>
This compound has an ester and may undergo hydrolysis at high or low pH. This compound contains an acetal/aminal-like group ( X-CH(R)-Y where X, Y are N, S, or O) that may be acid/base labile, releasing an aldehyde.

> <s_lp_Force_Field>
OPLS_2005

> <r_lp_Energy>
10.5548

> <b_lp_Chiralities_Consistent>
1

> <s_lp_Variant>
AV-unprocessed.smi:102-9

> <Gold.Version>
5.8.1

> <Gold.Id.Protein>
6NUR|6NUR_protein|mol2

> <Gold.PLP.Fitness>
41.1349

> <Gold.PLP.PLP>
-30.7291

> <Gold.PLP.part.hbond>
-7.0000

> <Gold.PLP.part.metal>
0.0000

> <Gold.PLP.part.buried>
-5.8266

> <Gold.PLP.part.nonpolar>
-19.7803

> <Gold.PLP.part.repulsive>
2.0323

> <Gold.PLP.ligand.clash>
0.0000

> <Gold.PLP.ligand.torsion>
1.4604

> <Gold.PLP.Chemscore.Hbond>
4.3760

> <Gold.PLP.Chemscore.CHOScore>
0.0000

> <Gold.PLP.Chemscore.Metal>
0.0000

> <Gold.Chemscore.Hbonds>
donor molecule, donor type, donor heavy atom, donor atom, acceptor molecule, acceptor atom, score
      L1  H    15    28       P1 10171  0.76
      P1  H  6931  6943       L1     3  0.70
      P1  H  6934  6947       L1     3  0.77
      P1  H  7989  7998       L1    27  1.00
      P1  H  8011  8017       L1    22  1.00

> <Gold.PLP.Chemscore.Internal.Correction>
0.1985

> <Gold.Rescore>
     Score         DG    S(hbond)    S(metal)    S(lipo)     H(rot)  DE(clash)    DE(int)     intcor
      9.79     -13.09       4.43        0.00      27.15       4.05       0.58       2.72       ----

> <Gold.Chemscore.Fitness>
9.7878

> <Gold.Chemscore.DG>
-13.0870

> <Gold.Chemscore.ZeroCoef>
-5.4800

> <Gold.Chemscore.Hbond>
4.4323

> <Gold.Chemscore.Metal>
0.0000

> <Gold.Chemscore.Lipo>
27.1480

> <Gold.Chemscore.Internal_Hbond>
0.0000

> <Gold.Chemscore.DEClash>
0.5829

> <Gold.Chemscore.DEInternal>
2.7163

> <Gold.Chemscore.Rot>
4.0520

> <Gold.Chemscore.Internal.Correction>
   9.000000E+99

> <Gold.Chemscore.Hbonds>
donor molecule, donor type, donor heavy atom, donor atom, acceptor molecule, acceptor atom, score
      L1  H    15    28       P1 10171  0.76
      P1  H  6931  6943       L1     3  0.70
      P1  H  6934  6947       L1     3  0.76
      P1  H  7989  7998       L1    27  1.00
      P1  H  8011  8017       L1    22  0.81

> <Gold.Chemscore.Hbond.Weighted>
-14.8039

> <Gold.Chemscore.Metal.Weighted>
-0.0000

> <Gold.Chemscore.Lipo.Weighted>
-3.1763

> <Gold.Chemscore.Internal_Hbond.Weighted>
0.0000

> <Gold.Chemscore.DEClash.Weighted>
0.5829

> <Gold.Chemscore.DEInternal.Weighted>
2.7163

> <Gold.Chemscore.Rot.Weighted>
10.3732

> <Gold.Chemscore.Internal.Correction.Weighted>
   9.000000E+99

> <Gold.Protein.RotatedTorsions>
[ 6907 6896 6895 6894 ] final  152.33 input  -60.11 | X-H torsion
[ 7974 7965 7964 7962 ] final -124.24 input  175.53 | X-H torsion
[ 8008 7997 7996 7995 ] final  142.05 input   59.86 | X-H torsion
[ 10167 10162 10161 10158 ] final -172.21 input  -65.29 | X-H torsion
[ 10718 10713 10712 10709 ] final -131.26 input   66.30 | X-H torsion
[ 10763 10752 10751 10750 ] final -114.10 input  -60.55 | X-H torsion
[ 11005 11000 10999 10996 ] final  -24.30 input  -57.11 | X-H torsion

> <Gold.Protein.ActiveResidues>
 VAL166  LYS551  ARG553  GLY616  TRP617  ASP618  TYR619  PRO620  LYS621  CYS622 
 ASP623  PHE694  ASN695  SER759  ASP760  ASP761  ALA762  ILE779  LEU786  VAL792 
 PHE793  MET794  SER795  GLU796  ALA797  LYS798  CYS799  TRP800  GLU811  SER814 

> <Gold.Protein.RotatedAtoms>
  152.0882  133.4187  159.4531 H   0  0  0  0  0  0  0  0  0  0  0  0  # atno 6907 bound_to 6896
  150.6862  134.2903  159.4673 H   0  0  0  0  0  0  0  0  0  0  0  0  # atno 6908 bound_to 6896
  152.0751  134.9507  160.0625 H   0  0  0  0  0  0  0  0  0  0  0  0  # atno 6909 bound_to 6896
  145.0102  140.7899  143.4443 H   0  0  0  0  0  0  0  0  0  0  0  0  # atno 7974 bound_to 7965
  156.2956  140.2299  156.4664 H   0  0  0  0  0  0  0  0  0  0  0  0  # atno 8008 bound_to 7997
  154.7973  140.0450  157.1267 H   0  0  0  0  0  0  0  0  0  0  0  0  # atno 8009 bound_to 7997
  154.9575  140.3050  155.5050 H   0  0  0  0  0  0  0  0  0  0  0  0  # atno 8010 bound_to 7997
  139.5757  144.1537  152.1447 H   0  0  0  0  0  0  0  0  0  0  0  0  # atno 10167 bound_to 10162
  156.2227  130.6988  151.0773 H   0  0  0  0  0  0  0  0  0  0  0  0  # atno 10718 bound_to 10713
  154.8425  135.4430  154.1453 H   0  0  0  0  0  0  0  0  0  0  0  0  # atno 10763 bound_to 10752
  153.2628  135.6938  153.7567 H   0  0  0  0  0  0  0  0  0  0  0  0  # atno 10764 bound_to 10752
  153.6837  135.3398  155.3160 H   0  0  0  0  0  0  0  0  0  0  0  0  # atno 10765 bound_to 10752
  140.8832  133.7639  156.0328 H   0  0  0  0  0  0  0  0  0  0  0  0  # atno 11005 bound_to 11000
  145.2034  139.2241  143.5181 LP  0  0  0  0  0  0  0  0  0  0  0  0  # atno 17320 bound_to 7965
  146.3468  140.1856  142.8589 LP  0  0  0  0  0  0  0  0  0  0  0  0  # atno 17321 bound_to 7965
  140.1080  144.5482  150.6944 LP  0  0  0  0  0  0  0  0  0  0  0  0  # atno 17342 bound_to 10162
  140.7040  143.2455  151.4781 LP  0  0  0  0  0  0  0  0  0  0  0  0  # atno 17343 bound_to 10162
  157.7095  131.0741  150.6550 LP  0  0  0  0  0  0  0  0  0  0  0  0  # atno 17370 bound_to 10713
  156.6614  130.4513  149.5686 LP  0  0  0  0  0  0  0  0  0  0  0  0  # atno 17371 bound_to 10713
  140.8436  134.3037  157.5304 LP  0  0  0  0  0  0  0  0  0  0  0  0  # atno 17394 bound_to 11000
  139.8722  134.9429  156.3839 LP  0  0  0  0  0  0  0  0  0  0  0  0  # atno 17395 bound_to 11000

$$$$
