AV-unprocessed.smi:1376|AV-procd|sdf|5593|dock2
  -GOLD-   22720 5193D 1   1.00000     0.00000
 Structure written by MMmdl.
 42 43  0  0  0  0  0  0  0  0  1 V2000
  151.4354  141.0555  157.2123 O   0  0  0  0  0  0  0  0  0  0  0  0
  150.9578  142.1590  156.9434 C   0  0  0  0  0  0  0  0  0  0  0  0
  151.6579  143.4556  157.3764 C   0  0  0  0  0  0  0  0  0  0  0  0
  151.9719  143.5059  158.8143 N   0  0  0  0  0  0  0  0  0  0  0  0
  152.6400  142.3915  159.3604 C   0  0  0  0  0  0  0  0  0  0  0  0
  152.9689  142.3273  160.6602 C   0  0  0  0  0  0  0  0  0  0  0  0
  152.6198  143.4424  161.5081 C   0  0  0  0  0  0  0  0  0  0  0  0
  151.9785  144.5121  160.9968 C   0  0  0  0  0  0  0  0  0  0  0  0
  151.6146  144.5853  159.5768 C   0  0  0  0  0  0  0  0  0  0  0  0
  151.0238  145.5559  159.1028 O   0  0  0  0  0  0  0  0  0  0  0  0
  149.8148  142.3155  156.2581 N   0  0  0  0  0  0  0  0  0  0  0  0
  148.9800  141.2292  155.7540 C   0  0  1  0  0  0  0  0  0  0  0  0
  147.7923  141.8100  154.9647 C   0  0  0  0  0  0  0  0  0  0  0  0
  146.9107  140.6970  154.3756 C   0  0  0  0  0  0  0  0  0  0  0  0
  147.7324  139.7218  153.5145 C   0  0  0  0  0  0  0  0  0  0  0  0
  148.9214  139.1334  154.2953 C   0  0  2  0  0  0  0  0  0  0  0  0
  148.3886  138.3013  155.3207 O   0  0  0  0  0  0  0  0  0  0  0  0
  149.3384  137.8000  156.2512 C   0  0  0  0  0  0  0  0  0  0  0  0
  148.5989  137.2809  157.4900 C   0  0  0  0  0  0  0  0  0  0  0  0
  147.8171  138.2457  157.9731 F   0  0  0  0  0  0  0  0  0  0  0  0
  147.8388  136.2348  157.1673 F   0  0  0  0  0  0  0  0  0  0  0  0
  149.4718  136.9262  158.4328 F   0  0  0  0  0  0  0  0  0  0  0  0
  149.7991  140.2672  154.8671 C   0  0  0  0  0  0  0  0  0  0  0  0
  152.5710  143.5669  156.7896 H   0  0  0  0  0  0  0  0  0  0  0  0
  151.0329  144.3041  157.0920 H   0  0  0  0  0  0  0  0  0  0  0  0
  152.8585  141.5982  158.6603 H   0  0  0  0  0  0  0  0  0  0  0  0
  153.4776  141.4633  161.0615 H   0  0  0  0  0  0  0  0  0  0  0  0
  152.8728  143.4181  162.5579 H   0  0  0  0  0  0  0  0  0  0  0  0
  151.7246  145.3366  161.6469 H   0  0  0  0  0  0  0  0  0  0  0  0
  149.4939  143.2563  156.0804 H   0  0  0  0  0  0  0  0  0  0  0  0
  148.5834  140.6747  156.6068 H   0  0  0  0  0  0  0  0  0  0  0  0
  147.1900  142.4498  155.6106 H   0  0  0  0  0  0  0  0  0  0  0  0
  148.1599  142.4445  154.1568 H   0  0  0  0  0  0  0  0  0  0  0  0
  146.4252  140.1508  155.1853 H   0  0  0  0  0  0  0  0  0  0  0  0
  146.1105  141.1349  153.7785 H   0  0  0  0  0  0  0  0  0  0  0  0
  147.0924  138.9188  153.1471 H   0  0  0  0  0  0  0  0  0  0  0  0
  148.1025  140.2459  152.6324 H   0  0  0  0  0  0  0  0  0  0  0  0
  149.5118  138.5217  153.6113 H   0  0  0  0  0  0  0  0  0  0  0  0
  149.9178  136.9927  155.8010 H   0  0  0  0  0  0  0  0  0  0  0  0
  150.0376  138.5808  156.5494 H   0  0  0  0  0  0  0  0  0  0  0  0
  150.2359  140.8267  154.0387 H   0  0  0  0  0  0  0  0  0  0  0  0
  150.6445  139.8583  155.4190 H   0  0  0  0  0  0  0  0  0  0  0  0
  1  2  2  0  0  0  0
  2  3  1  0  0  0  0
  2 11  1  0  0  0  0
  3  4  1  0  0  0  0
  3 24  1  0  0  0  0
  3 25  1  0  0  0  0
  4  9  1  0  0  0  0
  4  5  1  0  0  0  0
  5  6  2  0  0  0  0
  5 26  1  0  0  0  0
  6  7  1  0  0  0  0
  6 27  1  0  0  0  0
  7  8  2  0  0  0  0
  7 28  1  0  0  0  0
  8  9  1  0  0  0  0
  8 29  1  0  0  0  0
  9 10  2  0  0  0  0
 11 12  1  0  0  0  0
 11 30  1  0  0  0  0
 12 23  1  0  0  0  0
 12 13  1  0  0  0  0
 12 31  1  0  0  0  0
 13 14  1  0  0  0  0
 13 32  1  0  0  0  0
 13 33  1  0  0  0  0
 14 15  1  0  0  0  0
 14 34  1  0  0  0  0
 14 35  1  0  0  0  0
 15 16  1  0  0  0  0
 15 36  1  0  0  0  0
 15 37  1  0  0  0  0
 16 17  1  0  0  0  0
 16 23  1  0  0  0  0
 16 38  1  0  0  0  0
 17 18  1  0  0  0  0
 18 19  1  0  0  0  0
 18 39  1  0  0  0  0
 18 40  1  0  0  0  0
 19 20  1  0  0  0  0
 19 21  1  0  0  0  0
 19 22  1  0  0  0  0
 23 41  1  0  0  0  0
 23 42  1  0  0  0  0
M  END
> <s_m_source_file>
AV-unprocessed.smi

> <i_m_source_file_index>
1376

> <i_lp_mmshare_version>
43012

> <i_f3d_flags>
0

> <s_epik_input>
Tz1jMVtjSF1bY0hdW2NIXVtjSF1uMVtDSDJdQyg9TylbTkhdW0NAQEhdMltDSDJdW0NIMl1bQ0gyXVtDQEhdKFtDSDJdMilPW0NIMl1DKEYpKEYpRg==

> <s_epik_cmdline>
J2VwaWtfcHl0aG9uJywgJy1waCcsICc3LjAnLCAnLXRuJywgJzgnLCAnLW1hJywgJzIwMCcsICctbWV0YWxfYmluZGluZycsICctaW1hZScsICc8aW5maWxlLm1hZT4nLCAnLW9tYWUnLCAnPG91dGZpbGUubWFlPic=

> <r_lp_tautomer_probability>
1

> <r_epik_Ionization_Penalty>
4.08567e-07

> <r_epik_Ionization_Penalty_Charging>
3.90028e-07

> <r_epik_Ionization_Penalty_Neutral>
1.85393e-08

> <r_epik_State_Penalty>
-0

> <r_epik_Charging_Adjusted_Penalty>
3.90028e-07

> <i_epik_Tot_Q>
0

> <i_epik_Tot_abs_Q>
0

> <r_epik_Metal_State_Penalty>
-0

> <b_epik_Metal_Only>
0

> <s_lp_Force_Field>
OPLS_2005

> <r_lp_Energy>
20.214

> <b_lp_Chiralities_Consistent>
1

> <s_lp_Variant>
AV-unprocessed.smi:1376-4

> <Gold.Version>
5.8.1

> <Gold.Id.Protein>
6NUR|6NUR_protein|mol2

> <Gold.PLP.Fitness>
45.6308

> <Gold.PLP.PLP>
-43.1152

> <Gold.PLP.part.hbond>
-2.1376

> <Gold.PLP.part.metal>
0.0000

> <Gold.PLP.part.buried>
-3.8537

> <Gold.PLP.part.nonpolar>
-38.0773

> <Gold.PLP.part.repulsive>
0.3354

> <Gold.PLP.ligand.clash>
0.0000

> <Gold.PLP.ligand.torsion>
0.2748

> <Gold.PLP.Chemscore.Hbond>
1.0000

> <Gold.PLP.Chemscore.CHOScore>
0.0000

> <Gold.PLP.Chemscore.Metal>
0.0000

> <Gold.Chemscore.Hbonds>
donor molecule, donor type, donor heavy atom, donor atom, acceptor molecule, acceptor atom, score
      L1  H    11    30       P1  8028  1.00

> <Gold.PLP.Chemscore.Internal.Correction>
0.0652

> <Gold.Rescore>
     Score         DG    S(hbond)    S(metal)    S(lipo)     H(rot)  DE(clash)    DE(int)     intcor
     11.95     -14.33       0.99        0.00      95.05       2.18       0.10       2.29       ----

> <Gold.Chemscore.Fitness>
11.9466

> <Gold.Chemscore.DG>
-14.3329

> <Gold.Chemscore.ZeroCoef>
-5.4800

> <Gold.Chemscore.Hbond>
0.9918

> <Gold.Chemscore.Metal>
0.0000

> <Gold.Chemscore.Lipo>
95.0476

> <Gold.Chemscore.Internal_Hbond>
0.0000

> <Gold.Chemscore.DEClash>
0.0989

> <Gold.Chemscore.DEInternal>
2.2874

> <Gold.Chemscore.Rot>
2.1797

> <Gold.Chemscore.Internal.Correction>
   9.000000E+99

> <Gold.Chemscore.Hbonds>
donor molecule, donor type, donor heavy atom, donor atom, acceptor molecule, acceptor atom, score
      L1  H    11    30       P1  8028  1.00

> <Gold.Chemscore.Hbond.Weighted>
-3.3125

> <Gold.Chemscore.Metal.Weighted>
-0.0000

> <Gold.Chemscore.Lipo.Weighted>
-11.1206

> <Gold.Chemscore.Internal_Hbond.Weighted>
0.0000

> <Gold.Chemscore.DEClash.Weighted>
0.0989

> <Gold.Chemscore.DEInternal.Weighted>
2.2874

> <Gold.Chemscore.Rot.Weighted>
5.5802

> <Gold.Chemscore.Internal.Correction.Weighted>
   9.000000E+99

> <Gold.Protein.RotatedTorsions>
[ 6907 6896 6895 6894 ] final  175.07 input  -60.11 | X-H torsion
[ 7974 7965 7964 7962 ] final -151.32 input  175.53 | X-H torsion
[ 8008 7997 7996 7995 ] final   30.74 input   59.86 | X-H torsion
[ 10167 10162 10161 10158 ] final  -30.77 input  -65.29 | X-H torsion
[ 10718 10713 10712 10709 ] final   36.41 input   66.30 | X-H torsion
[ 10763 10752 10751 10750 ] final   -4.63 input  -60.55 | X-H torsion
[ 11005 11000 10999 10996 ] final  -96.38 input  -57.11 | X-H torsion

> <Gold.Protein.ActiveResidues>
 VAL166  LYS551  ARG553  GLY616  TRP617  ASP618  TYR619  PRO620  LYS621  CYS622 
 ASP623  PHE694  ASN695  SER759  ASP760  ASP761  ALA762  ILE779  LEU786  VAL792 
 PHE793  MET794  SER795  GLU796  ALA797  LYS798  CYS799  TRP800  GLU811  SER814 

> <Gold.Protein.RotatedAtoms>
  151.7422  133.3322  159.3368 H   0  0  0  0  0  0  0  0  0  0  0  0  # atno 6907 bound_to 6896
  150.7569  134.6268  159.6174 H   0  0  0  0  0  0  0  0  0  0  0  0  # atno 6908 bound_to 6896
  152.3523  134.6990  160.0284 H   0  0  0  0  0  0  0  0  0  0  0  0  # atno 6909 bound_to 6896
  144.7857  140.4813  143.5808 H   0  0  0  0  0  0  0  0  0  0  0  0  # atno 7974 bound_to 7965
  155.0953  140.3224  155.4562 H   0  0  0  0  0  0  0  0  0  0  0  0  # atno 8008 bound_to 7997
  156.2732  140.2070  156.6026 H   0  0  0  0  0  0  0  0  0  0  0  0  # atno 8009 bound_to 7997
  154.6872  140.0520  157.0313 H   0  0  0  0  0  0  0  0  0  0  0  0  # atno 8010 bound_to 7997
  140.7245  143.3823  151.1579 H   0  0  0  0  0  0  0  0  0  0  0  0  # atno 10167 bound_to 10162
  157.3346  130.7515  149.6870 H   0  0  0  0  0  0  0  0  0  0  0  0  # atno 10718 bound_to 10713
  153.3875  135.7000  153.6520 H   0  0  0  0  0  0  0  0  0  0  0  0  # atno 10763 bound_to 10752
  153.5106  135.3633  155.2585 H   0  0  0  0  0  0  0  0  0  0  0  0  # atno 10764 bound_to 10752
  154.8699  135.4134  154.3185 H   0  0  0  0  0  0  0  0  0  0  0  0  # atno 10765 bound_to 10752
  141.1413  133.8094  157.0564 H   0  0  0  0  0  0  0  0  0  0  0  0  # atno 11005 bound_to 11000
  145.5929  139.1497  143.3172 LP  0  0  0  0  0  0  0  0  0  0  0  0  # atno 17320 bound_to 7965
  146.2087  140.6054  142.9069 LP  0  0  0  0  0  0  0  0  0  0  0  0  # atno 17321 bound_to 7965
  139.7414  143.8919  152.3051 LP  0  0  0  0  0  0  0  0  0  0  0  0  # atno 17342 bound_to 10162
  139.8741  144.7052  150.8953 LP  0  0  0  0  0  0  0  0  0  0  0  0  # atno 17343 bound_to 10162
  155.9700  130.4185  150.4332 LP  0  0  0  0  0  0  0  0  0  0  0  0  # atno 17370 bound_to 10713
  157.2369  131.0517  151.2459 LP  0  0  0  0  0  0  0  0  0  0  0  0  # atno 17371 bound_to 10713
  140.0599  134.9760  157.1286 LP  0  0  0  0  0  0  0  0  0  0  0  0  # atno 17394 bound_to 11000
  140.3864  134.2232  155.7168 LP  0  0  0  0  0  0  0  0  0  0  0  0  # atno 17395 bound_to 11000

$$$$
