AV-unprocessed.smi:236|AV-procd|sdf|1813|dock7
  -GOLD-   2262020403D 1   1.00000     0.00000
 Structure written by MMmdl.
 58 62  0  0  0  0  0  0  0  0  1 V2000
  143.2518  132.3497  150.8929 C   0  0  0  0  0  0  0  0  0  0  0  0
  144.7865  132.4123  150.8891 C   0  0  2  0  0  0  0  0  0  0  0  0
  145.3327  131.5065  151.8444 O   0  0  0  0  0  0  0  0  0  0  0  0
  146.5194  132.0506  152.4162 C   0  0  0  0  0  0  0  0  0  0  0  0
  146.8160  133.3192  151.6223 C   0  0  0  0  0  0  0  0  0  0  0  0
  145.4247  133.7789  151.2036 C   0  0  1  0  0  0  0  0  0  0  0  0
  145.5318  134.5540  150.0240 O   0  0  0  0  0  0  0  0  0  0  0  0
  144.6754  134.5937  152.2930 C   0  0  0  0  0  0  0  0  0  0  0  0
  145.3626  135.8125  152.6906 N   0  0  0  0  0  0  0  0  0  0  0  0
  145.1828  137.0715  152.1645 C   0  0  0  0  0  0  0  0  0  0  0  0
  145.9281  138.0050  152.6898 N   0  0  0  0  0  0  0  0  0  0  0  0
  146.6686  137.3447  153.6642 C   0  0  0  0  0  0  0  0  0  0  0  0
  147.6656  137.7477  154.5991 C   0  0  0  0  0  0  0  0  0  0  0  0
  148.1024  139.0297  154.7092 N   0  0  0  0  0  0  0  0  0  0  0  0
  147.8357  139.9459  153.6024 C   0  0  0  0  0  0  0  0  0  0  0  0
  148.1317  141.3919  154.0297 C   0  0  0  0  0  0  0  0  0  0  0  0
  149.4659  141.4788  154.5184 O   0  0  0  0  0  0  0  0  0  0  0  0
  149.6724  140.6655  155.6710 C   0  0  2  0  0  0  0  0  0  0  0  0
  151.1014  140.8988  156.1767 C   0  0  0  0  0  0  0  0  0  0  0  0
  151.1772  142.1840  156.7713 O   0  0  0  0  0  0  0  0  0  0  0  0
  151.3813  142.1264  158.1722 C   0  0  0  0  0  0  0  0  0  0  0  0
  151.5349  143.5339  158.7075 C   0  0  0  0  0  0  0  0  0  0  0  0
  152.7884  144.3293  158.4204 C   0  0  0  0  0  0  0  0  0  0  0  0
  152.5160  143.8340  159.8181 C   0  0  0  0  0  0  0  0  0  0  0  0
  149.4369  139.1938  155.2782 C   0  0  0  0  0  0  0  0  0  0  0  0
  148.1932  136.7821  155.3996 N   0  0  0  0  0  0  0  0  0  0  0  0
  147.7729  135.5175  155.3046 C   0  0  0  0  0  0  0  0  0  0  0  0
  146.8522  135.0041  154.4876 N   0  0  0  0  0  0  0  0  0  0  0  0
  146.3239  135.9630  153.6748 C   0  0  0  0  0  0  0  0  0  0  0  0
  142.8282  133.0681  150.1910 H   0  0  0  0  0  0  0  0  0  0  0  0
  142.8408  132.5578  151.8808 H   0  0  0  0  0  0  0  0  0  0  0  0
  142.9070  131.3579  150.6003 H   0  0  0  0  0  0  0  0  0  0  0  0
  145.1442  132.0745  149.9143 H   0  0  0  0  0  0  0  0  0  0  0  0
  146.3262  132.2885  153.4626 H   0  0  0  0  0  0  0  0  0  0  0  0
  147.3426  131.3372  152.3787 H   0  0  0  0  0  0  0  0  0  0  0  0
  147.3925  134.0529  152.1845 H   0  0  0  0  0  0  0  0  0  0  0  0
  147.4054  133.0538  150.7427 H   0  0  0  0  0  0  0  0  0  0  0  0
  145.9842  134.0434  149.3700 H   0  0  0  0  0  0  0  0  0  0  0  0
  143.6794  134.8695  151.9449 H   0  0  0  0  0  0  0  0  0  0  0  0
  144.5248  133.9841  153.1847 H   0  0  0  0  0  0  0  0  0  0  0  0
  144.4821  137.2757  151.3680 H   0  0  0  0  0  0  0  0  0  0  0  0
  148.4597  139.6760  152.7493 H   0  0  0  0  0  0  0  0  0  0  0  0
  146.7950  139.8646  153.2860 H   0  0  0  0  0  0  0  0  0  0  0  0
  148.0188  142.0663  153.1809 H   0  0  0  0  0  0  0  0  0  0  0  0
  147.4291  141.7228  154.7963 H   0  0  0  0  0  0  0  0  0  0  0  0
  148.9679  140.9484  156.4557 H   0  0  0  0  0  0  0  0  0  0  0  0
  151.3543  140.1449  156.9237 H   0  0  0  0  0  0  0  0  0  0  0  0
  151.8183  140.8057  155.3594 H   0  0  0  0  0  0  0  0  0  0  0  0
  150.5378  141.6349  158.6599 H   0  0  0  0  0  0  0  0  0  0  0  0
  152.2832  141.5585  158.4051 H   0  0  0  0  0  0  0  0  0  0  0  0
  150.6056  144.1003  158.7263 H   0  0  0  0  0  0  0  0  0  0  0  0
  153.5837  143.8399  157.8615 H   0  0  0  0  0  0  0  0  0  0  0  0
  152.6748  145.3952  158.2336 H   0  0  0  0  0  0  0  0  0  0  0  0
  152.2196  144.5690  160.5638 H   0  0  0  0  0  0  0  0  0  0  0  0
  153.1271  143.0138  160.1896 H   0  0  0  0  0  0  0  0  0  0  0  0
  149.5818  138.5602  156.1517 H   0  0  0  0  0  0  0  0  0  0  0  0
  150.1750  138.8816  154.5381 H   0  0  0  0  0  0  0  0  0  0  0  0
  148.2423  134.8166  155.9791 H   0  0  0  0  0  0  0  0  0  0  0  0
  1  2  1  0  0  0  0
  1 30  1  0  0  0  0
  1 31  1  0  0  0  0
  1 32  1  0  0  0  0
  2  6  1  0  0  0  0
  2  3  1  0  0  0  0
  2 33  1  0  0  0  0
  3  4  1  0  0  0  0
  4  5  1  0  0  0  0
  4 34  1  0  0  0  0
  4 35  1  0  0  0  0
  5  6  1  0  0  0  0
  5 36  1  0  0  0  0
  5 37  1  0  0  0  0
  6  7  1  0  0  0  0
  6  8  1  0  0  0  0
  7 38  1  0  0  0  0
  8  9  1  0  0  0  0
  8 39  1  0  0  0  0
  8 40  1  0  0  0  0
  9 29  1  0  0  0  0
  9 10  1  0  0  0  0
 10 11  2  0  0  0  0
 10 41  1  0  0  0  0
 11 12  1  0  0  0  0
 12 29  2  0  0  0  0
 12 13  1  0  0  0  0
 13 14  1  0  0  0  0
 13 26  2  0  0  0  0
 14 25  1  0  0  0  0
 14 15  1  0  0  0  0
 15 16  1  0  0  0  0
 15 42  1  0  0  0  0
 15 43  1  0  0  0  0
 16 17  1  0  0  0  0
 16 44  1  0  0  0  0
 16 45  1  0  0  0  0
 17 18  1  0  0  0  0
 18 19  1  0  0  0  0
 18 25  1  0  0  0  0
 18 46  1  0  0  0  0
 19 20  1  0  0  0  0
 19 47  1  0  0  0  0
 19 48  1  0  0  0  0
 20 21  1  0  0  0  0
 21 22  1  0  0  0  0
 21 49  1  0  0  0  0
 21 50  1  0  0  0  0
 22 24  1  0  0  0  0
 22 23  1  0  0  0  0
 22 51  1  0  0  0  0
 23 24  1  0  0  0  0
 23 52  1  0  0  0  0
 23 53  1  0  0  0  0
 24 54  1  0  0  0  0
 24 55  1  0  0  0  0
 25 56  1  0  0  0  0
 25 57  1  0  0  0  0
 26 27  1  0  0  0  0
 27 28  2  0  0  0  0
 27 58  1  0  0  0  0
 28 29  1  0  0  0  0
M  END
> <s_m_source_file>
AV-unprocessed.smi

> <i_m_source_file_index>
236

> <i_lp_mmshare_version>
43012

> <i_f3d_flags>
0

> <s_epik_input>
W0NIMl0xW0NIMl1PW0NAQEhdKFtDSDNdKVtDQEBdMShbT0hdKVtDSDJdbihbY0hdbjIpYyhjMjMpbltjSF1uYzNONFtDSDJdW0NIMl1PW0NASF0oW0NIMl00KVtDSDJdT1tDSDJdW0NIXTVbQ0gyXVtDSDJdNQ==

> <s_epik_cmdline>
J2VwaWtfcHl0aG9uJywgJy1waCcsICc3LjAnLCAnLXRuJywgJzgnLCAnLW1hJywgJzIwMCcsICctbWV0YWxfYmluZGluZycsICctaW1hZScsICc8aW5maWxlLm1hZT4nLCAnLW9tYWUnLCAnPG91dGZpbGUubWFlPic=

> <r_lp_tautomer_probability>
1

> <r_epik_Ionization_Penalty>
7.21838e-05

> <r_epik_Ionization_Penalty_Charging>
0

> <r_epik_Ionization_Penalty_Neutral>
7.21838e-05

> <r_epik_State_Penalty>
-0

> <r_epik_Charging_Adjusted_Penalty>
0

> <i_epik_Tot_Q>
0

> <i_epik_Tot_abs_Q>
0

> <r_epik_Metal_State_Penalty>
-0

> <b_epik_Metal_Only>
0

> <s_lp_Force_Field>
OPLS_2005

> <r_lp_Energy>
47.7421

> <b_lp_Chiralities_Consistent>
1

> <s_lp_Variant>
AV-unprocessed.smi:236-5

> <Gold.Version>
5.8.1

> <Gold.Id.Protein>
6NUR|6NUR_protein|mol2

> <Gold.PLP.Fitness>
48.4501

> <Gold.PLP.PLP>
-44.9529

> <Gold.PLP.part.hbond>
-1.7703

> <Gold.PLP.part.metal>
0.0000

> <Gold.PLP.part.buried>
-4.3439

> <Gold.PLP.part.nonpolar>
-40.1384

> <Gold.PLP.part.repulsive>
1.7521

> <Gold.PLP.ligand.clash>
0.0000

> <Gold.PLP.ligand.torsion>
1.6878

> <Gold.PLP.Chemscore.Hbond>
0.9241

> <Gold.PLP.Chemscore.CHOScore>
1.0000

> <Gold.PLP.Chemscore.Metal>
0.0000

> <Gold.Chemscore.Hbonds>
donor molecule, donor type, donor heavy atom, donor atom, acceptor molecule, acceptor atom, score
      L1  H     7    38       P1  7921  0.33
      L1  C    10    41       P1 10171  1.00

> <Gold.PLP.Chemscore.Internal.Correction>
1.1005

> <Gold.Rescore>
     Score         DG    S(hbond)    S(metal)    S(lipo)     H(rot)  DE(clash)    DE(int)     intcor
     11.38     -15.89       0.88        0.00     126.45       2.87       1.39       3.12       ----

> <Gold.Chemscore.Fitness>
11.3768

> <Gold.Chemscore.DG>
-15.8855

> <Gold.Chemscore.ZeroCoef>
-5.4800

> <Gold.Chemscore.Hbond>
0.8822

> <Gold.Chemscore.Metal>
0.0000

> <Gold.Chemscore.Lipo>
126.4503

> <Gold.Chemscore.Internal_Hbond>
0.0000

> <Gold.Chemscore.DEClash>
1.3856

> <Gold.Chemscore.DEInternal>
3.1230

> <Gold.Chemscore.Rot>
2.8655

> <Gold.Chemscore.Internal.Correction>
   9.000000E+99

> <Gold.Chemscore.Hbonds>
donor molecule, donor type, donor heavy atom, donor atom, acceptor molecule, acceptor atom, score
      L1  H     7    38       P1  7921  0.08

> <Gold.Chemscore.Hbond.Weighted>
-2.9466

> <Gold.Chemscore.Metal.Weighted>
-0.0000

> <Gold.Chemscore.Lipo.Weighted>
-14.7947

> <Gold.Chemscore.Internal_Hbond.Weighted>
0.0000

> <Gold.Chemscore.DEClash.Weighted>
1.3856

> <Gold.Chemscore.DEInternal.Weighted>
3.1230

> <Gold.Chemscore.Rot.Weighted>
7.3358

> <Gold.Chemscore.Internal.Correction.Weighted>
   9.000000E+99

> <Gold.Protein.RotatedTorsions>
[ 6907 6896 6895 6894 ] final  -47.75 input  -60.11 | X-H torsion
[ 7974 7965 7964 7962 ] final  146.09 input  175.53 | X-H torsion
[ 8008 7997 7996 7995 ] final  -51.76 input   59.86 | X-H torsion
[ 10167 10162 10161 10158 ] final  112.91 input  -65.29 | X-H torsion
[ 10718 10713 10712 10709 ] final  111.95 input   66.30 | X-H torsion
[ 10763 10752 10751 10750 ] final  -34.57 input  -60.55 | X-H torsion
[ 11005 11000 10999 10996 ] final -142.83 input  -57.11 | X-H torsion

> <Gold.Protein.ActiveResidues>
 VAL166  LYS551  ARG553  GLY616  TRP617  ASP618  TYR619  PRO620  LYS621  CYS622 
 ASP623  PHE694  ASN695  SER759  ASP760  ASP761  ALA762  ILE779  LEU786  VAL792 
 PHE793  MET794  SER795  GLU796  ALA797  LYS798  CYS799  TRP800  GLU811  SER814 

> <Gold.Protein.RotatedAtoms>
  150.8975  134.8385  159.7336 H   0  0  0  0  0  0  0  0  0  0  0  0  # atno 6907 bound_to 6896
  152.4873  134.4553  159.9597 H   0  0  0  0  0  0  0  0  0  0  0  0  # atno 6908 bound_to 6896
  151.4608  133.3554  159.2844 H   0  0  0  0  0  0  0  0  0  0  0  0  # atno 6909 bound_to 6896
  144.8699  139.5862  143.5891 H   0  0  0  0  0  0  0  0  0  0  0  0  # atno 7974 bound_to 7965
  154.4090  140.1240  156.4881 H   0  0  0  0  0  0  0  0  0  0  0  0  # atno 8008 bound_to 7997
  155.7018  140.3494  155.4917 H   0  0  0  0  0  0  0  0  0  0  0  0  # atno 8009 bound_to 7997
  155.9378  140.1081  157.1070 H   0  0  0  0  0  0  0  0  0  0  0  0  # atno 8010 bound_to 7997
  139.6501  144.7128  151.2065 H   0  0  0  0  0  0  0  0  0  0  0  0  # atno 10167 bound_to 10162
  157.6418  131.0959  150.6824 H   0  0  0  0  0  0  0  0  0  0  0  0  # atno 10718 bound_to 10713
  153.8490  135.6850  153.4794 H   0  0  0  0  0  0  0  0  0  0  0  0  # atno 10763 bound_to 10752
  153.1409  135.4658  154.9491 H   0  0  0  0  0  0  0  0  0  0  0  0  # atno 10764 bound_to 10752
  154.7811  135.3269  154.7935 H   0  0  0  0  0  0  0  0  0  0  0  0  # atno 10765 bound_to 10752
  140.8186  134.2659  157.4910 H   0  0  0  0  0  0  0  0  0  0  0  0  # atno 11005 bound_to 11000
  146.2923  139.7175  142.9152 LP  0  0  0  0  0  0  0  0  0  0  0  0  # atno 17320 bound_to 7965
  145.4150  141.0400  143.2996 LP  0  0  0  0  0  0  0  0  0  0  0  0  # atno 17321 bound_to 7965
  140.7533  143.6165  150.8555 LP  0  0  0  0  0  0  0  0  0  0  0  0  # atno 17342 bound_to 10162
  139.9812  143.5949  152.2942 LP  0  0  0  0  0  0  0  0  0  0  0  0  # atno 17343 bound_to 10162
  156.7147  130.4662  149.5538 LP  0  0  0  0  0  0  0  0  0  0  0  0  # atno 17370 bound_to 10713
  156.1706  130.6434  151.0832 LP  0  0  0  0  0  0  0  0  0  0  0  0  # atno 17371 bound_to 10713
  139.8710  134.9522  156.4109 LP  0  0  0  0  0  0  0  0  0  0  0  0  # atno 17394 bound_to 11000
  140.9123  133.7703  155.9807 LP  0  0  0  0  0  0  0  0  0  0  0  0  # atno 17395 bound_to 11000

$$$$
