AV-unprocessed.smi:838|AV-procd|sdf|3908|dock6
  -GOLD-   22720 1373D 1   1.00000     0.00000
 Structure written by MMmdl.
 45 46  0  0  0  0  0  0  0  0  1 V2000
  151.2704  141.7801  157.7569 C   0  0  0  0  0  0  0  0  0  0  0  0
  151.4763  140.7372  156.6562 C   0  0  0  0  0  0  0  0  0  0  0  0
  152.4276  139.9631  156.7633 O   0  0  0  0  0  0  0  0  0  0  0  0
  150.6177  140.7009  155.6097 N   0  0  0  0  0  0  0  0  0  0  0  0
  150.7119  139.7198  154.5250 C   0  0  0  0  0  0  0  0  0  0  0  0
  149.4542  138.8298  154.5435 C   0  0  0  0  0  0  0  0  0  0  0  0
  148.2504  139.6503  154.3849 N   0  0  0  0  0  0  0  0  0  0  0  0
  147.0723  138.7830  154.3662 C   0  0  0  0  0  0  0  0  0  0  0  0
  146.4086  138.6867  152.9770 C   0  0  0  0  0  0  0  0  0  0  0  0
  146.5858  137.3646  152.3833 N   0  0  0  0  0  0  0  0  0  0  0  0
  145.6458  136.4099  152.3203 C   0  0  0  0  0  0  0  0  0  0  0  0
  144.5136  136.5377  152.7877 O   0  0  0  0  0  0  0  0  0  0  0  0
  146.1060  135.3193  151.6826 N   0  0  0  0  0  0  0  0  0  0  0  0
  145.4264  134.0982  151.4118 C   0  0  0  0  0  0  0  0  0  0  0  0
  144.2014  134.0553  150.8300 N   0  0  0  0  0  0  0  0  0  0  0  0
  143.6131  132.8630  150.6047 C   0  0  0  0  0  0  0  0  0  0  0  0
  144.2090  131.6367  150.9455 C   0  0  0  0  0  0  0  0  0  0  0  0
  145.4781  131.6629  151.5484 C   0  0  0  0  0  0  0  0  0  0  0  0
  146.1015  132.9059  151.7878 C   0  0  0  0  0  0  0  0  0  0  0  0
  147.4758  132.9364  152.4369 C   0  0  0  0  0  0  0  0  0  0  0  0
  148.1760  140.6407  155.4661 C   0  0  0  0  0  0  0  0  0  0  0  0
  149.4267  141.5400  155.4440 C   0  0  0  0  0  0  0  0  0  0  0  0
  150.3043  141.6435  158.2435 H   0  0  0  0  0  0  0  0  0  0  0  0
  151.3227  142.7891  157.3476 H   0  0  0  0  0  0  0  0  0  0  0  0
  152.0436  141.6906  158.5205 H   0  0  0  0  0  0  0  0  0  0  0  0
  150.7933  140.2423  153.5707 H   0  0  0  0  0  0  0  0  0  0  0  0
  151.6010  139.0930  154.6002 H   0  0  0  0  0  0  0  0  0  0  0  0
  149.5129  138.1046  153.7311 H   0  0  0  0  0  0  0  0  0  0  0  0
  149.4040  138.2654  155.4761 H   0  0  0  0  0  0  0  0  0  0  0  0
  147.3663  137.7768  154.6686 H   0  0  0  0  0  0  0  0  0  0  0  0
  146.3490  139.1277  155.1067 H   0  0  0  0  0  0  0  0  0  0  0  0
  145.3363  138.8456  153.0909 H   0  0  0  0  0  0  0  0  0  0  0  0
  146.7483  139.4764  152.3069 H   0  0  0  0  0  0  0  0  0  0  0  0
  147.4867  137.1713  151.9713 H   0  0  0  0  0  0  0  0  0  0  0  0
  147.0561  135.3668  151.3460 H   0  0  0  0  0  0  0  0  0  0  0  0
  142.6392  132.8885  150.1390 H   0  0  0  0  0  0  0  0  0  0  0  0
  143.7059  130.7016  150.7487 H   0  0  0  0  0  0  0  0  0  0  0  0
  145.9644  130.7383  151.8225 H   0  0  0  0  0  0  0  0  0  0  0  0
  147.8337  131.9305  152.6574 H   0  0  0  0  0  0  0  0  0  0  0  0
  147.4440  133.4932  153.3739 H   0  0  0  0  0  0  0  0  0  0  0  0
  148.1995  133.4122  151.7744 H   0  0  0  0  0  0  0  0  0  0  0  0
  147.2932  141.2674  155.3493 H   0  0  0  0  0  0  0  0  0  0  0  0
  148.0876  140.1392  156.4312 H   0  0  0  0  0  0  0  0  0  0  0  0
  149.3278  142.3121  156.2049 H   0  0  0  0  0  0  0  0  0  0  0  0
  149.4903  142.0712  154.4928 H   0  0  0  0  0  0  0  0  0  0  0  0
  1  2  1  0  0  0  0
  1 23  1  0  0  0  0
  1 24  1  0  0  0  0
  1 25  1  0  0  0  0
  2  3  2  0  0  0  0
  2  4  1  0  0  0  0
  4 22  1  0  0  0  0
  4  5  1  0  0  0  0
  5  6  1  0  0  0  0
  5 26  1  0  0  0  0
  5 27  1  0  0  0  0
  6  7  1  0  0  0  0
  6 28  1  0  0  0  0
  6 29  1  0  0  0  0
  7  8  1  0  0  0  0
  7 21  1  0  0  0  0
  8  9  1  0  0  0  0
  8 30  1  0  0  0  0
  8 31  1  0  0  0  0
  9 10  1  0  0  0  0
  9 32  1  0  0  0  0
  9 33  1  0  0  0  0
 10 11  1  0  0  0  0
 10 34  1  0  0  0  0
 11 12  2  0  0  0  0
 11 13  1  0  0  0  0
 13 14  1  0  0  0  0
 13 35  1  0  0  0  0
 14 19  1  0  0  0  0
 14 15  2  0  0  0  0
 15 16  1  0  0  0  0
 16 17  2  0  0  0  0
 16 36  1  0  0  0  0
 17 18  1  0  0  0  0
 17 37  1  0  0  0  0
 18 19  2  0  0  0  0
 18 38  1  0  0  0  0
 19 20  1  0  0  0  0
 20 39  1  0  0  0  0
 20 40  1  0  0  0  0
 20 41  1  0  0  0  0
 21 22  1  0  0  0  0
 21 42  1  0  0  0  0
 21 43  1  0  0  0  0
 22 44  1  0  0  0  0
 22 45  1  0  0  0  0
M  END
> <s_m_source_file>
AV-unprocessed.smi

> <i_m_source_file_index>
838

> <i_lp_mmshare_version>
43012

> <i_f3d_flags>
0

> <s_epik_input>
W0NIM11DKD1PKU4xW0NIMl1bQ0gyXU4oW0NIMl1bQ0gyXTEpW0NIMl1bQ0gyXVtOSF1DKD1PKVtOSF1jMm5bY0hdW2NIXVtjSF1jMltDSDNd

> <s_epik_cmdline>
J2VwaWtfcHl0aG9uJywgJy1waCcsICc3LjAnLCAnLXRuJywgJzgnLCAnLW1hJywgJzIwMCcsICctbWV0YWxfYmluZGluZycsICctaW1hZScsICc8aW5maWxlLm1hZT4nLCAnLW9tYWUnLCAnPG91dGZpbGUubWFlPic=

> <r_epik_Ionization_Penalty>
0.25102

> <r_epik_Ionization_Penalty_Charging>
0

> <r_epik_Ionization_Penalty_Neutral>
0.25102

> <r_epik_State_Penalty>
0.242297

> <r_epik_Charging_Adjusted_Penalty>
0.242297

> <i_epik_Tot_Q>
0

> <i_epik_Tot_abs_Q>
0

> <r_epik_Metal_State_Penalty>
0.242294

> <b_epik_Metal_Only>
0

> <s_lp_Force_Field>
OPLS_2005

> <r_lp_Energy>
40.132

> <b_lp_Chiralities_Consistent>
1

> <s_lp_Variant>
AV-unprocessed.smi:838-1

> <Gold.Version>
5.8.1

> <Gold.Id.Protein>
6NUR|6NUR_protein|mol2

> <Gold.PLP.Fitness>
46.1740

> <Gold.PLP.PLP>
-38.1579

> <Gold.PLP.part.hbond>
-2.7356

> <Gold.PLP.part.metal>
0.0000

> <Gold.PLP.part.buried>
-2.5569

> <Gold.PLP.part.nonpolar>
-34.4447

> <Gold.PLP.part.repulsive>
0.6907

> <Gold.PLP.ligand.clash>
0.0000

> <Gold.PLP.ligand.torsion>
1.6161

> <Gold.PLP.Chemscore.Hbond>
2.7433

> <Gold.PLP.Chemscore.CHOScore>
1.0000

> <Gold.PLP.Chemscore.Metal>
0.0000

> <Gold.Chemscore.Hbonds>
donor molecule, donor type, donor heavy atom, donor atom, acceptor molecule, acceptor atom, score
      L1  H    10    34       P1  7948  1.00
      L1  H    13    35       P1  7948  0.70
      P1  H  7997  8010       L1     3  1.00
      L1  C    16    36       P1 10186  1.00

> <Gold.PLP.Chemscore.Internal.Correction>
0.0185

> <Gold.Rescore>
     Score         DG    S(hbond)    S(metal)    S(lipo)     H(rot)  DE(clash)    DE(int)     intcor
     17.19     -19.86       2.69        0.00      79.92       1.54       1.06       1.61       ----

> <Gold.Chemscore.Fitness>
17.1921

> <Gold.Chemscore.DG>
-19.8593

> <Gold.Chemscore.ZeroCoef>
-5.4800

> <Gold.Chemscore.Hbond>
2.6891

> <Gold.Chemscore.Metal>
0.0000

> <Gold.Chemscore.Lipo>
79.9195

> <Gold.Chemscore.Internal_Hbond>
0.0000

> <Gold.Chemscore.DEClash>
1.0551

> <Gold.Chemscore.DEInternal>
1.6121

> <Gold.Chemscore.Rot>
1.5441

> <Gold.Chemscore.Internal.Correction>
   9.000000E+99

> <Gold.Chemscore.Hbonds>
donor molecule, donor type, donor heavy atom, donor atom, acceptor molecule, acceptor atom, score
      L1  H    10    34       P1  7948  0.97
      L1  H    13    35       P1  7948  0.63
      P1  H  7997  8010       L1     3  0.99

> <Gold.Chemscore.Hbond.Weighted>
-8.9817

> <Gold.Chemscore.Metal.Weighted>
-0.0000

> <Gold.Chemscore.Lipo.Weighted>
-9.3506

> <Gold.Chemscore.Internal_Hbond.Weighted>
0.0000

> <Gold.Chemscore.DEClash.Weighted>
1.0551

> <Gold.Chemscore.DEInternal.Weighted>
1.6121

> <Gold.Chemscore.Rot.Weighted>
3.9530

> <Gold.Chemscore.Internal.Correction.Weighted>
   9.000000E+99

> <Gold.Protein.RotatedTorsions>
[ 6907 6896 6895 6894 ] final  148.14 input  -60.11 | X-H torsion
[ 7974 7965 7964 7962 ] final -172.71 input  175.53 | X-H torsion
[ 8008 7997 7996 7995 ] final   66.01 input   59.86 | X-H torsion
[ 10167 10162 10161 10158 ] final  163.18 input  -65.29 | X-H torsion
[ 10718 10713 10712 10709 ] final   75.70 input   66.30 | X-H torsion
[ 10763 10752 10751 10750 ] final  -54.96 input  -60.55 | X-H torsion
[ 11005 11000 10999 10996 ] final   15.52 input  -57.11 | X-H torsion

> <Gold.Protein.ActiveResidues>
 VAL166  LYS551  ARG553  GLY616  TRP617  ASP618  TYR619  PRO620  LYS621  CYS622 
 ASP623  PHE694  ASN695  SER759  ASP760  ASP761  ALA762  ILE779  LEU786  VAL792 
 PHE793  MET794  SER795  GLU796  ALA797  LYS798  CYS799  TRP800  GLU811  SER814 

> <Gold.Protein.RotatedAtoms>
  152.1455  133.4490  159.4787 H   0  0  0  0  0  0  0  0  0  0  0  0  # atno 6907 bound_to 6896
  150.6890  134.2253  159.4422 H   0  0  0  0  0  0  0  0  0  0  0  0  # atno 6908 bound_to 6896
  152.0147  134.9856  160.0619 H   0  0  0  0  0  0  0  0  0  0  0  0  # atno 6909 bound_to 6896
  144.7144  140.1732  143.6365 H   0  0  0  0  0  0  0  0  0  0  0  0  # atno 7974 bound_to 7965
  155.6707  140.3497  155.4817 H   0  0  0  0  0  0  0  0  0  0  0  0  # atno 8008 bound_to 7997
  155.9691  140.1152  157.0851 H   0  0  0  0  0  0  0  0  0  0  0  0  # atno 8009 bound_to 7997
  154.4161  140.1160  156.5268 H   0  0  0  0  0  0  0  0  0  0  0  0  # atno 8010 bound_to 7997
  139.4870  144.4363  151.9007 H   0  0  0  0  0  0  0  0  0  0  0  0  # atno 10167 bound_to 10162
  157.6644  130.9739  150.1391 H   0  0  0  0  0  0  0  0  0  0  0  0  # atno 10718 bound_to 10713
  154.1831  135.6440  153.5039 H   0  0  0  0  0  0  0  0  0  0  0  0  # atno 10763 bound_to 10752
  153.0054  135.5411  154.6493 H   0  0  0  0  0  0  0  0  0  0  0  0  # atno 10764 bound_to 10752
  154.5862  135.2930  155.0654 H   0  0  0  0  0  0  0  0  0  0  0  0  # atno 10765 bound_to 10752
  140.4574  134.1162  155.7711 H   0  0  0  0  0  0  0  0  0  0  0  0  # atno 11005 bound_to 11000
  145.8925  139.2383  143.1541 LP  0  0  0  0  0  0  0  0  0  0  0  0  # atno 17320 bound_to 7965
  145.9890  140.8619  143.0076 LP  0  0  0  0  0  0  0  0  0  0  0  0  # atno 17321 bound_to 7965
  140.3813  144.2732  150.5908 LP  0  0  0  0  0  0  0  0  0  0  0  0  # atno 17342 bound_to 10162
  140.5230  143.2261  151.8358 LP  0  0  0  0  0  0  0  0  0  0  0  0  # atno 17343 bound_to 10162
  156.2218  130.3674  149.8547 LP  0  0  0  0  0  0  0  0  0  0  0  0  # atno 17370 bound_to 10713
  156.6398  130.8700  151.3511 LP  0  0  0  0  0  0  0  0  0  0  0  0  # atno 17371 bound_to 10713
  141.1637  133.8744  157.1776 LP  0  0  0  0  0  0  0  0  0  0  0  0  # atno 17394 bound_to 11000
  139.9967  135.0044  157.0099 LP  0  0  0  0  0  0  0  0  0  0  0  0  # atno 17395 bound_to 11000

$$$$
