#       Name:                AV-unprocessed.smi:1150
#       Creating user name   scv26
#       Creation time:       Fri Mar 27 03:46:49 2020


#       File generated by GOLD software.
#

@<TRIPOS>MOLECULE
AV-unprocessed.smi:1150
    53    54     1
SMALL
NO_CHARGES


@<TRIPOS>ATOM
      1 ****        -1.7468  -1.7820  -3.9122 C.3            1 S1                 0.0000
      2 ****        -1.8200  -1.9963  -2.3935 C.3            1 S1                 0.0000
      3 ****        -1.6082  -0.7034  -1.5787 C.3            1 S1                 0.0000
      4 ****        -0.2577  -0.1880  -1.7983 N.am           1 S1                 0.0000
      5 ****         0.0742   1.0769  -2.1007 C.2            1 S1                 0.0000
      6 ****        -0.7416   1.9436  -2.4122 O.2            1 S1                 0.0000
      7 ****         1.5576   1.4267  -1.9757 C.3            1 S1                 0.0000
      8 ****         1.9976   1.2034  -0.5480 C.2            1 S1                 0.0000
      9 ****         2.7073   0.0832  -0.0237 C.2            1 S1                 0.0000
     10 ****         3.2058  -1.1264  -0.7609 C.3            1 S1                 0.0000
     11 ****         2.8982   0.1719   1.2821 N.2            1 S1                 0.0000
     12 ****         2.3234   1.3388   1.6351 N.pl3          1 S1                 0.0000
     13 ****         2.3393   1.7480   3.0258 C.3            1 S1                 0.0000
     14 ****         1.7752   1.9922   0.5493 C.2            1 S1                 0.0000
     15 ****         1.0706   3.3035   0.6819 C.3            1 S1                 0.0000
     16 ****        -1.8750  -0.8924  -0.0595 C.3            1 S1                 0.0000
     17 ****        -1.9781   0.4632   0.6782 C.3            1 S1                 0.0000
     18 ****        -2.2835   0.2865   2.1735 C.3            1 S1                 0.0000
     19 ****        -1.2331  -0.6066   2.8485 C.3            1 S1                 0.0000
     20 ****        -1.1386  -1.9665   2.1425 C.3            1 S1                 0.0000
     21 ****        -0.8324  -1.7962   0.6462 C.3            1 S1                 0.0000
     22 ****        -1.9434  -2.7130  -4.4440 H              1 S1                 0.0000
     23 ****        -0.7627  -1.4285  -4.2207 H              1 S1                 0.0000
     24 ****        -2.4840  -1.0494  -4.2422 H              1 S1                 0.0000
     25 ****        -2.7958  -2.4186  -2.1510 H              1 S1                 0.0000
     26 ****        -1.0840  -2.7483  -2.1086 H              1 S1                 0.0000
     27 ****        -2.3394   0.0174  -1.9491 H              1 S1                 0.0000
     28 ****         0.4977  -0.8185  -1.5728 H              1 S1                 0.0000
     29 ****         2.1248   0.8121  -2.6750 H              1 S1                 0.0000
     30 ****         1.7136   2.4615  -2.2820 H              1 S1                 0.0000
     31 ****         2.3832  -1.6537  -1.2439 H              1 S1                 0.0000
     32 ****         3.7029  -1.8315  -0.0938 H              1 S1                 0.0000
     33 ****         3.9195  -0.8438  -1.5345 H              1 S1                 0.0000
     34 ****         2.9705   2.6295   3.1400 H              1 S1                 0.0000
     35 ****         2.7277   0.9491   3.6588 H              1 S1                 0.0000
     36 ****         1.3263   1.9897   3.3486 H              1 S1                 0.0000
     37 ****         0.8346   3.7261  -0.2946 H              1 S1                 0.0000
     38 ****         1.6873   4.0253   1.2176 H              1 S1                 0.0000
     39 ****         0.1356   3.1839   1.2291 H              1 S1                 0.0000
     40 ****        -2.8479  -1.3767   0.0383 H              1 S1                 0.0000
     41 ****        -1.0452   1.0168   0.5784 H              1 S1                 0.0000
     42 ****        -2.7511   1.0805   0.2195 H              1 S1                 0.0000
     43 ****        -2.3125   1.2602   2.6632 H              1 S1                 0.0000
     44 ****        -3.2741  -0.1530   2.2968 H              1 S1                 0.0000
     45 ****        -0.2606  -0.1129   2.8243 H              1 S1                 0.0000
     46 ****        -1.4838  -0.7481   3.8999 H              1 S1                 0.0000
     47 ****        -0.3649  -2.5747   2.6120 H              1 S1                 0.0000
     48 ****        -2.0765  -2.5096   2.2650 H              1 S1                 0.0000
     49 ****        -0.8018  -2.7795   0.1784 H              1 S1                 0.0000
     50 ****         0.1676  -1.3747   0.5421 H              1 S1                 0.0000
     51 ****        -1.7160   1.7223  -2.4509 LP             1 S1                 0.0000
     52 ****        -0.4302   2.8694  -2.6267 LP             1 S1                 0.0000
     53 ****         3.3659  -0.4824   1.8764 LP             1 S1                 0.0000
@<TRIPOS>BOND
    1    1    2 1     
    2    1   22 1     
    3    1   23 1     
    4    1   24 1     
    5    2    3 1     
    6    2   25 1     
    7    2   26 1     
    8    3    4 1     
    9    3   16 1     
   10    3   27 1     
   11    4    5 am    
   12    4   28 1     
   13    5    6 2     
   14    5    7 1     
   15    7    8 1     
   16    7   29 1     
   17    7   30 1     
   18    8   14 2     
   19    8    9 1     
   20    9   10 1     
   21    9   11 2     
   22   10   31 1     
   23   10   32 1     
   24   10   33 1     
   25   11   12 1     
   26   12   13 1     
   27   12   14 1     
   28   13   34 1     
   29   13   35 1     
   30   13   36 1     
   31   14   15 1     
   32   15   37 1     
   33   15   38 1     
   34   15   39 1     
   35   16   21 1     
   36   16   17 1     
   37   16   40 1     
   38   17   18 1     
   39   17   41 1     
   40   17   42 1     
   41   18   19 1     
   42   18   43 1     
   43   18   44 1     
   44   19   20 1     
   45   19   45 1     
   46   19   46 1     
   47   20   21 1     
   48   20   47 1     
   49   20   48 1     
   50   21   49 1     
   51   21   50 1     
   52    6   51 1     
   53    6   52 1     
   54   11   53 1     
@<TRIPOS>SUBSTRUCTURE
      1 S1             1
@<TRIPOS>SET
LONE_PAIRS      STATIC     ATOMS    <user>   **** ""
3 51 52 53
DONOR_HYDROGENS      STATIC     ATOMS    <user>   **** ""
1 28
ATOM$BLUE        STATIC     ATOMS    COLORGROUP SYSTEM
3 51 52 53
ATOM$RED        STATIC     ATOMS    COLORGROUP SYSTEM
1 28
