AV-unprocessed.smi:1600|AV-procd|sdf|6429|dock10
  -GOLD-   22720 7 73D 1   1.00000     0.00000
 Structure written by MMmdl.
 46 47  0  0  0  0  0  0  0  0  2 V2000
  150.7025  142.0739  156.2421 C   0  0  0  0  0  0  0  0  0  0  0  0
  150.3823  140.8527  155.4315 C   0  0  0  0  0  0  0  0  0  0  0  0
  149.1488  140.5163  154.8017 C   0  0  0  0  0  0  0  0  0  0  0  0
  149.4293  139.3133  154.2133 C   0  0  0  0  0  0  0  0  0  0  0  0
  148.6161  138.5133  153.4733 N   0  0  0  0  0  0  0  0  0  0  0  0
  147.3029  138.6544  153.2212 C   0  0  0  0  0  0  0  0  0  0  0  0
  146.5872  139.5635  153.6420 O   0  0  0  0  0  0  0  0  0  0  0  0
  146.8501  137.6653  152.4372 N   0  0  0  0  0  0  0  0  0  0  0  0
  145.4768  137.5396  151.9595 C   0  0  0  0  0  0  0  0  0  0  0  0
  144.8891  136.1414  152.2319 C   0  0  2  0  0  0  0  0  0  0  0  0
  145.7352  135.2548  153.1445 C   0  0  0  0  0  0  0  0  0  0  0  0
  145.3528  133.8194  152.7575 C   0  0  0  0  0  0  0  0  0  0  0  0
  144.5905  133.8960  151.4850 N   0  3  2  0  0  0  0  0  0  0  0  0
  144.8849  132.8147  150.5023 C   0  0  0  0  0  0  0  0  0  0  0  0
  144.0487  132.9674  149.2171 C   0  0  0  0  0  0  0  0  0  0  0  0
  144.6339  131.4240  151.1163 C   0  0  0  0  0  0  0  0  0  0  0  0
  144.7456  135.2779  150.9811 C   0  0  0  0  0  0  0  0  0  0  0  0
  150.7368  138.9780  154.4877 N   0  0  0  0  0  0  0  0  0  0  0  0
  151.4914  137.8054  154.0900 C   0  0  0  0  0  0  0  0  0  0  0  0
  151.3220  139.9331  155.2422 N   0  0  0  0  0  0  0  0  0  0  0  0
  149.8501  142.7521  156.2866 H   0  0  0  0  0  0  0  0  0  0  0  0
  151.5405  142.6228  155.8116 H   0  0  0  0  0  0  0  0  0  0  0  0
  150.9675  141.8072  157.2656 H   0  0  0  0  0  0  0  0  0  0  0  0
  148.2268  141.0778  154.7969 H   0  0  0  0  0  0  0  0  0  0  0  0
  149.0693  137.7188  153.0466 H   0  0  0  0  0  0  0  0  0  0  0  0
  147.5049  136.9586  152.1354 H   0  0  0  0  0  0  0  0  0  0  0  0
  144.8544  138.3072  152.4225 H   0  0  0  0  0  0  0  0  0  0  0  0
  145.4726  137.7468  150.8890 H   0  0  0  0  0  0  0  0  0  0  0  0
  143.8991  136.2464  152.6795 H   0  0  0  0  0  0  0  0  0  0  0  0
  146.7957  135.4148  152.9441 H   0  0  0  0  0  0  0  0  0  0  0  0
  145.5642  135.4620  154.2015 H   0  0  0  0  0  0  0  0  0  0  0  0
  146.2548  133.2140  152.6568 H   0  0  0  0  0  0  0  0  0  0  0  0
  144.7256  133.3570  153.5203 H   0  0  0  0  0  0  0  0  0  0  0  0
  145.9389  132.8837  150.2282 H   0  0  0  0  0  0  0  0  0  0  0  0
  144.2386  132.1434  148.5285 H   0  0  0  0  0  0  0  0  0  0  0  0
  144.2869  133.8855  148.6796 H   0  0  0  0  0  0  0  0  0  0  0  0
  142.9802  132.9737  149.4364 H   0  0  0  0  0  0  0  0  0  0  0  0
  144.8328  130.6354  150.3899 H   0  0  0  0  0  0  0  0  0  0  0  0
  143.5990  131.3166  151.4431 H   0  0  0  0  0  0  0  0  0  0  0  0
  145.2756  131.2306  151.9757 H   0  0  0  0  0  0  0  0  0  0  0  0
  143.8962  135.5844  150.3698 H   0  0  0  0  0  0  0  0  0  0  0  0
  145.6484  135.3470  150.3711 H   0  0  0  0  0  0  0  0  0  0  0  0
  151.3654  137.6317  153.0210 H   0  0  0  0  0  0  0  0  0  0  0  0
  151.1312  136.9353  154.6395 H   0  0  0  0  0  0  0  0  0  0  0  0
  152.5533  137.9437  154.2994 H   0  0  0  0  0  0  0  0  0  0  0  0
  143.6170  133.8066  151.7395 H   0  0  0  0  0  0  0  0  0  0  0  0
  1  2  1  0  0  0  0
  1 21  1  0  0  0  0
  1 22  1  0  0  0  0
  1 23  1  0  0  0  0
  2 20  2  0  0  0  0
  2  3  1  0  0  0  0
  3  4  2  0  0  0  0
  3 24  1  0  0  0  0
  4  5  1  0  0  0  0
  4 18  1  0  0  0  0
  5  6  1  0  0  0  0
  5 25  1  0  0  0  0
  6  7  2  0  0  0  0
  6  8  1  0  0  0  0
  8  9  1  0  0  0  0
  8 26  1  0  0  0  0
  9 10  1  0  0  0  0
  9 27  1  0  0  0  0
  9 28  1  0  0  0  0
 10 17  1  0  0  0  0
 10 11  1  0  0  0  0
 10 29  1  0  0  0  0
 11 12  1  0  0  0  0
 11 30  1  0  0  0  0
 11 31  1  0  0  0  0
 12 13  1  0  0  0  0
 12 32  1  0  0  0  0
 12 33  1  0  0  0  0
 13 14  1  0  0  0  0
 13 17  1  0  0  0  0
 13 46  1  0  0  0  0
 14 15  1  0  0  0  0
 14 16  1  0  0  0  0
 14 34  1  0  0  0  0
 15 35  1  0  0  0  0
 15 36  1  0  0  0  0
 15 37  1  0  0  0  0
 16 38  1  0  0  0  0
 16 39  1  0  0  0  0
 16 40  1  0  0  0  0
 17 41  1  0  0  0  0
 17 42  1  0  0  0  0
 18 19  1  0  0  0  0
 18 20  1  0  0  0  0
 19 43  1  0  0  0  0
 19 44  1  0  0  0  0
 19 45  1  0  0  0  0
M  CHG  1  13   1
M  END
> <s_m_source_file>
AV-unprocessed.smi

> <i_m_source_file_index>
1600

> <i_lp_mmshare_version>
43012

> <i_f3d_flags>
0

> <s_epik_input>
W0NIM11jMVtjSF1jKG4objEpW0NIM10pW05IXUMoPU8pW05IXVtDSDJdW0NAQEhdMltDSDJdW0NIMl1OKFtDSDJdMilbQ0hdKFtDSDNdKVtDSDNd

> <s_epik_cmdline>
J2VwaWtfcHl0aG9uJywgJy1waCcsICc3LjAnLCAnLXRuJywgJzgnLCAnLW1hJywgJzIwMCcsICctbWV0YWxfYmluZGluZycsICctaW1hZScsICc8aW5maWxlLm1hZT4nLCAnLW9tYWUnLCAnPG91dGZpbGUubWFlPic=

> <r_lp_tautomer_probability>
1

> <r_epik_Ionization_Penalty>
0.000297652

> <r_epik_Ionization_Penalty_Charging>
0.000213653

> <r_epik_Ionization_Penalty_Neutral>
8.3999e-05

> <r_epik_State_Penalty>
-0

> <r_epik_Charging_Adjusted_Penalty>
0.000213653

> <i_epik_Tot_Q>
1

> <i_epik_Tot_abs_Q>
1

> <r_epik_Metal_State_Penalty>
-0

> <b_epik_Metal_Only>
0

> <s_lp_Force_Field>
OPLS_2005

> <r_lp_Energy>
32.0246

> <b_lp_Chiralities_Consistent>
1

> <s_lp_Variant>
AV-unprocessed.smi:1600-3

> <Gold.Version>
5.8.1

> <Gold.Id.Protein>
6NUR|6NUR_protein|mol2

> <Gold.PLP.Fitness>
42.5547

> <Gold.PLP.PLP>
-37.9618

> <Gold.PLP.part.hbond>
-4.0000

> <Gold.PLP.part.metal>
0.0000

> <Gold.PLP.part.buried>
-1.5381

> <Gold.PLP.part.nonpolar>
-32.7643

> <Gold.PLP.part.repulsive>
0.3171

> <Gold.PLP.ligand.clash>
0.0562

> <Gold.PLP.ligand.torsion>
0.7408

> <Gold.PLP.Chemscore.Hbond>
2.0350

> <Gold.PLP.Chemscore.CHOScore>
0.0000

> <Gold.PLP.Chemscore.Metal>
0.0000

> <Gold.Chemscore.Hbonds>
donor molecule, donor type, donor heavy atom, donor atom, acceptor molecule, acceptor atom, score
      L1  H     5    25       P1  7948  0.98
      L1  H     8    26       P1  7948  1.00
      P1  H  7989  7998       L1    20  0.06

> <Gold.PLP.Chemscore.Internal.Correction>
0.0256

> <Gold.Rescore>
     Score         DG    S(hbond)    S(metal)    S(lipo)     H(rot)  DE(clash)    DE(int)     intcor
     15.49     -17.39       1.88        0.00      79.50       1.44       0.02       1.88       ----

> <Gold.Chemscore.Fitness>
15.4884

> <Gold.Chemscore.DG>
-17.3883

> <Gold.Chemscore.ZeroCoef>
-5.4800

> <Gold.Chemscore.Hbond>
1.8819

> <Gold.Chemscore.Metal>
0.0000

> <Gold.Chemscore.Lipo>
79.4977

> <Gold.Chemscore.Internal_Hbond>
0.0000

> <Gold.Chemscore.DEClash>
0.0178

> <Gold.Chemscore.DEInternal>
1.8821

> <Gold.Chemscore.Rot>
1.4369

> <Gold.Chemscore.Internal.Correction>
   9.000000E+99

> <Gold.Chemscore.Hbonds>
donor molecule, donor type, donor heavy atom, donor atom, acceptor molecule, acceptor atom, score
      L1  H     5    25       P1  7948  0.93
      L1  H     8    26       P1  7948  0.99

> <Gold.Chemscore.Hbond.Weighted>
-6.2856

> <Gold.Chemscore.Metal.Weighted>
-0.0000

> <Gold.Chemscore.Lipo.Weighted>
-9.3012

> <Gold.Chemscore.Internal_Hbond.Weighted>
0.0000

> <Gold.Chemscore.DEClash.Weighted>
0.0178

> <Gold.Chemscore.DEInternal.Weighted>
1.8821

> <Gold.Chemscore.Rot.Weighted>
3.6785

> <Gold.Chemscore.Internal.Correction.Weighted>
   9.000000E+99

> <Gold.Protein.RotatedTorsions>
[ 6907 6896 6895 6894 ] final   25.98 input  -60.11 | X-H torsion
[ 7974 7965 7964 7962 ] final -147.57 input  175.53 | X-H torsion
[ 8008 7997 7996 7995 ] final   21.66 input   59.86 | X-H torsion
[ 10167 10162 10161 10158 ] final  163.07 input  -65.29 | X-H torsion
[ 10718 10713 10712 10709 ] final -128.46 input   66.30 | X-H torsion
[ 10763 10752 10751 10750 ] final  166.94 input  -60.55 | X-H torsion
[ 11005 11000 10999 10996 ] final   83.28 input  -57.11 | X-H torsion

> <Gold.Protein.ActiveResidues>
 VAL166  LYS551  ARG553  GLY616  TRP617  ASP618  TYR619  PRO620  LYS621  CYS622 
 ASP623  PHE694  ASN695  SER759  ASP760  ASP761  ALA762  ILE779  LEU786  VAL792 
 PHE793  MET794  SER795  GLU796  ALA797  LYS798  CYS799  TRP800  GLU811  SER814 

> <Gold.Protein.RotatedAtoms>
  151.9807  135.0030  160.0556 H   0  0  0  0  0  0  0  0  0  0  0  0  # atno 6907 bound_to 6896
  152.1699  133.4632  159.4912 H   0  0  0  0  0  0  0  0  0  0  0  0  # atno 6908 bound_to 6896
  150.6900  134.1884  159.4318 H   0  0  0  0  0  0  0  0  0  0  0  0  # atno 6909 bound_to 6896
  144.8085  140.5310  143.5658 H   0  0  0  0  0  0  0  0  0  0  0  0  # atno 7974 bound_to 7965
  154.9540  140.3069  155.5061 H   0  0  0  0  0  0  0  0  0  0  0  0  # atno 8008 bound_to 7997
  156.2984  140.2313  156.4558 H   0  0  0  0  0  0  0  0  0  0  0  0  # atno 8009 bound_to 7997
  154.8027  140.0433  157.1273 H   0  0  0  0  0  0  0  0  0  0  0  0  # atno 8010 bound_to 7997
  139.4869  144.4374  151.8995 H   0  0  0  0  0  0  0  0  0  0  0  0  # atno 10167 bound_to 10162
  156.1953  130.6822  151.0474 H   0  0  0  0  0  0  0  0  0  0  0  0  # atno 10718 bound_to 10713
  154.3465  135.2753  155.2395 H   0  0  0  0  0  0  0  0  0  0  0  0  # atno 10763 bound_to 10752
  154.4642  135.5899  153.6280 H   0  0  0  0  0  0  0  0  0  0  0  0  # atno 10764 bound_to 10752
  152.9853  135.6072  154.3671 H   0  0  0  0  0  0  0  0  0  0  0  0  # atno 10765 bound_to 10752
  139.9036  134.8133  156.2288 H   0  0  0  0  0  0  0  0  0  0  0  0  # atno 11005 bound_to 11000
  145.5380  139.1475  143.3462 LP  0  0  0  0  0  0  0  0  0  0  0  0  # atno 17320 bound_to 7965
  146.2380  140.5520  142.8946 LP  0  0  0  0  0  0  0  0  0  0  0  0  # atno 17321 bound_to 7965
  140.3824  144.2719  150.5907 LP  0  0  0  0  0  0  0  0  0  0  0  0  # atno 17342 bound_to 10162
  140.5221  143.2263  151.8373 LP  0  0  0  0  0  0  0  0  0  0  0  0  # atno 17343 bound_to 10162
  157.6954  131.0796  150.6985 LP  0  0  0  0  0  0  0  0  0  0  0  0  # atno 17370 bound_to 10713
  156.7041  130.4632  149.5565 LP  0  0  0  0  0  0  0  0  0  0  0  0  # atno 17371 bound_to 10713
  141.0359  133.6964  156.1511 LP  0  0  0  0  0  0  0  0  0  0  0  0  # atno 17394 bound_to 11000
  140.7028  134.4545  157.5585 LP  0  0  0  0  0  0  0  0  0  0  0  0  # atno 17395 bound_to 11000

$$$$
