AV-unprocessed.smi:109|AV-procd|sdf|1044|dock1
  -GOLD-   2262018 83D 1   1.00000     0.00000
 Structure written by MMmdl.
 58 61  0  0  0  0  0  0  0  0  1 V2000
  142.4363  139.1547  157.9296 O   0  0  0  0  0  0  0  0  0  0  0  0
  143.1117  139.4038  156.7157 C   0  0  0  0  0  0  0  0  0  0  0  0
  144.1593  138.3053  156.4636 C   0  0  0  0  0  0  0  0  0  0  0  0
  144.9779  138.4986  155.1634 C   0  0  1  0  0  0  0  0  0  0  0  0
  144.0886  138.3674  154.0062 N   0  0  0  0  0  0  0  0  0  0  0  0
  143.4754  137.2008  153.7044 C   0  0  0  0  0  0  0  0  0  0  0  0
  142.2780  136.8665  154.2513 N   0  0  0  0  0  0  0  0  0  0  0  0
  141.6951  135.7079  153.9298 C   0  0  0  0  0  0  0  0  0  0  0  0
  142.1278  134.7594  153.0959 N   0  0  0  0  0  0  0  0  0  0  0  0
  143.3298  135.0919  152.5416 C   0  0  0  0  0  0  0  0  0  0  0  0
  144.0646  136.2822  152.7977 C   0  0  0  0  0  0  0  0  0  0  0  0
  145.2419  136.2735  152.0631 N   0  0  0  0  0  0  0  0  0  0  0  0
  145.2011  135.1406  151.4149 C   0  0  0  0  0  0  0  0  0  0  0  0
  144.0744  134.3715  151.6321 N   0  0  0  0  0  0  0  0  0  0  0  0
  143.7029  133.0216  151.0864 C   0  0  2  0  0  0  0  0  0  0  0  0
  144.2830  132.0549  151.9017 O   0  0  0  0  0  0  0  0  0  0  0  0
  145.5905  131.7661  151.4287 C   0  0  1  0  0  0  0  0  0  0  0  0
  146.0291  130.3917  151.9572 C   0  0  0  0  0  0  0  0  0  0  0  0
  147.1198  129.9008  151.2076 O   0  0  0  0  0  0  0  0  0  0  0  0
  145.4508  131.8555  149.8991 C   0  0  2  0  0  0  0  0  0  0  0  0
  146.6287  132.3958  149.3330 O   0  0  0  0  0  0  0  0  0  0  0  0
  144.2631  132.7982  149.6717 C   0  0  1  0  0  0  0  0  0  0  0  0
  143.2981  132.1931  148.8351 O   0  0  0  0  0  0  0  0  0  0  0  0
  145.7270  139.8600  155.0892 C   0  0  0  0  0  0  0  0  0  0  0  0
  146.6487  139.9156  153.8436 C   0  0  0  0  0  0  0  0  0  0  0  0
  147.4165  141.2424  153.7346 C   0  0  0  0  0  0  0  0  0  0  0  0
  148.2421  141.5095  154.9987 C   0  0  0  0  0  0  0  0  0  0  0  0
  147.3445  141.4883  156.2413 C   0  0  0  0  0  0  0  0  0  0  0  0
  146.5688  140.1653  156.3540 C   0  0  0  0  0  0  0  0  0  0  0  0
  142.6139  132.9921  151.1378 H   0  0  0  0  0  0  0  0  0  0  0  0
  146.2596  132.5404  151.8080 H   0  0  0  0  0  0  0  0  0  0  0  0
  145.2562  130.8707  149.4709 H   0  0  0  0  0  0  0  0  0  0  0  0
  144.5470  133.7489  149.2181 H   0  0  0  0  0  0  0  0  0  0  0  0
  141.5846  138.7957  157.7321 H   0  0  0  0  0  0  0  0  0  0  0  0
  142.3834  139.4342  155.9048 H   0  0  0  0  0  0  0  0  0  0  0  0
  143.5757  140.3881  156.7764 H   0  0  0  0  0  0  0  0  0  0  0  0
  144.8345  138.2364  157.3177 H   0  0  0  0  0  0  0  0  0  0  0  0
  143.6181  137.3615  156.4214 H   0  0  0  0  0  0  0  0  0  0  0  0
  145.7456  137.7256  155.1511 H   0  0  0  0  0  0  0  0  0  0  0  0
  143.8341  139.2379  153.5618 H   0  0  0  0  0  0  0  0  0  0  0  0
  140.7461  135.5139  154.4076 H   0  0  0  0  0  0  0  0  0  0  0  0
  146.0026  134.8427  150.7560 H   0  0  0  0  0  0  0  0  0  0  0  0
  146.3418  130.4745  152.9986 H   0  0  0  0  0  0  0  0  0  0  0  0
  145.2065  129.6769  151.9233 H   0  0  0  0  0  0  0  0  0  0  0  0
  147.7153  130.6152  151.0392 H   0  0  0  0  0  0  0  0  0  0  0  0
  147.3763  131.9831  149.7366 H   0  0  0  0  0  0  0  0  0  0  0  0
  142.5075  132.7099  148.8662 H   0  0  0  0  0  0  0  0  0  0  0  0
  144.9815  140.6511  154.9922 H   0  0  0  0  0  0  0  0  0  0  0  0
  147.3605  139.0898  153.8795 H   0  0  0  0  0  0  0  0  0  0  0  0
  146.0710  139.7775  152.9295 H   0  0  0  0  0  0  0  0  0  0  0  0
  148.0709  141.2212  152.8627 H   0  0  0  0  0  0  0  0  0  0  0  0
  146.7137  142.0609  153.5744 H   0  0  0  0  0  0  0  0  0  0  0  0
  149.0228  140.7540  155.0962 H   0  0  0  0  0  0  0  0  0  0  0  0
  148.7479  142.4722  154.9195 H   0  0  0  0  0  0  0  0  0  0  0  0
  147.9477  141.6408  157.1366 H   0  0  0  0  0  0  0  0  0  0  0  0
  146.6416  142.3212  156.1977 H   0  0  0  0  0  0  0  0  0  0  0  0
  145.9324  140.2375  157.2345 H   0  0  0  0  0  0  0  0  0  0  0  0
  147.2664  139.3473  156.5386 H   0  0  0  0  0  0  0  0  0  0  0  0
  1  2  1  0  0  0  0
  1 34  1  0  0  0  0
  2  3  1  0  0  0  0
  2 35  1  0  0  0  0
  2 36  1  0  0  0  0
  3  4  1  0  0  0  0
  3 37  1  0  0  0  0
  3 38  1  0  0  0  0
  4  5  1  0  0  0  0
  4 24  1  0  0  0  0
  4 39  1  0  0  0  0
  5  6  1  0  0  0  0
  5 40  1  0  0  0  0
  6 11  1  0  0  0  0
  6  7  2  0  0  0  0
  7  8  1  0  0  0  0
  8  9  2  0  0  0  0
  8 41  1  0  0  0  0
  9 10  1  0  0  0  0
 10 14  1  0  0  0  0
 10 11  2  0  0  0  0
 11 12  1  0  0  0  0
 12 13  2  0  0  0  0
 13 14  1  0  0  0  0
 13 42  1  0  0  0  0
 14 15  1  0  0  0  0
 15 30  1  0  0  0  0
 15 22  1  0  0  0  0
 15 16  1  0  0  0  0
 16 17  1  0  0  0  0
 17 31  1  0  0  0  0
 17 18  1  0  0  0  0
 17 20  1  0  0  0  0
 18 19  1  0  0  0  0
 18 43  1  0  0  0  0
 18 44  1  0  0  0  0
 19 45  1  0  0  0  0
 20 32  1  0  0  0  0
 20 21  1  0  0  0  0
 20 22  1  0  0  0  0
 21 46  1  0  0  0  0
 22 33  1  0  0  0  0
 22 23  1  0  0  0  0
 23 47  1  0  0  0  0
 24 29  1  0  0  0  0
 24 25  1  0  0  0  0
 24 48  1  0  0  0  0
 25 26  1  0  0  0  0
 25 49  1  0  0  0  0
 25 50  1  0  0  0  0
 26 27  1  0  0  0  0
 26 51  1  0  0  0  0
 26 52  1  0  0  0  0
 27 28  1  0  0  0  0
 27 53  1  0  0  0  0
 27 54  1  0  0  0  0
 28 29  1  0  0  0  0
 28 55  1  0  0  0  0
 28 56  1  0  0  0  0
 29 57  1  0  0  0  0
 29 58  1  0  0  0  0
M  END
> <s_m_source_file>
AV-unprocessed.smi

> <i_m_source_file_index>
109

> <i_lp_mmshare_version>
43012

> <i_f3d_flags>
0

> <s_epik_input>
W0NIMl0xW0NIMl1bQ0gyXVtDSDJdW0NIMl1bQ0hdMVtDQEhdKFtDSDJdW0NIMl1bT0hdKVtOSF1jKG5bY0hdbjIpYyhjMjMpbltjSF1uM1tDQEBIXTRPW0NASF0oW0NIMl1bT0hdKVtDQEBIXShbT0hdKVtDQEhdNFtPSF0=

> <s_epik_cmdline>
J2VwaWtfcHl0aG9uJywgJy1waCcsICc3LjAnLCAnLXRuJywgJzgnLCAnLW1hJywgJzIwMCcsICctbWV0YWxfYmluZGluZycsICctaW1hZScsICc8aW5maWxlLm1hZT4nLCAnLW9tYWUnLCAnPG91dGZpbGUubWFlPic=

> <r_lp_tautomer_probability>
1

> <r_epik_Ionization_Penalty>
0.000793976

> <r_epik_Ionization_Penalty_Charging>
0

> <r_epik_Ionization_Penalty_Neutral>
0.000793976

> <r_epik_State_Penalty>
-0

> <r_epik_Charging_Adjusted_Penalty>
0

> <i_epik_Tot_Q>
0

> <i_epik_Tot_abs_Q>
0

> <r_epik_Metal_State_Penalty>
-0

> <b_epik_Metal_Only>
0

> <s_epik_Chemistry_Notes>
This compound contains an acetal/aminal-like group ( X-CH(R)-Y where X, Y are N, S, or O) that may be acid/base labile, releasing an aldehyde.

> <s_lp_Force_Field>
OPLS_2005

> <r_lp_Energy>
47.5037

> <b_lp_Chiralities_Consistent>
1

> <s_lp_Variant>
AV-unprocessed.smi:109-14

> <Gold.Version>
5.8.1

> <Gold.Id.Protein>
6NUR|6NUR_protein|mol2

> <Gold.PLP.Fitness>
52.1329

> <Gold.PLP.PLP>
-40.5797

> <Gold.PLP.part.hbond>
-6.3792

> <Gold.PLP.part.metal>
0.0000

> <Gold.PLP.part.buried>
-7.7348

> <Gold.PLP.part.nonpolar>
-29.5271

> <Gold.PLP.part.repulsive>
0.6229

> <Gold.PLP.ligand.clash>
0.0000

> <Gold.PLP.ligand.torsion>
1.7241

> <Gold.PLP.Chemscore.Hbond>
4.2773

> <Gold.PLP.Chemscore.CHOScore>
0.6896

> <Gold.PLP.Chemscore.Metal>
0.0000

> <Gold.Chemscore.Hbonds>
donor molecule, donor type, donor heavy atom, donor atom, acceptor molecule, acceptor atom, score
      L1  H     5    40       P1 10175  1.00
      L1  H    19    45       P1 10747  0.66
      L1  H    21    46       P1 10747  1.00
      L1  H    23    47       P1 10186  0.16
      P1  H 10785 10796       L1    23  0.87
      L1  C     8    41       P1 11000  0.63

> <Gold.PLP.Chemscore.Internal.Correction>
0.1007

> <Gold.Rescore>
     Score         DG    S(hbond)    S(metal)    S(lipo)     H(rot)  DE(clash)    DE(int)     intcor
     12.59     -14.33       4.36        0.00      70.86       5.47       0.07       1.67       ----

> <Gold.Chemscore.Fitness>
12.5943

> <Gold.Chemscore.DG>
-14.3338

> <Gold.Chemscore.ZeroCoef>
-5.4800

> <Gold.Chemscore.Hbond>
4.3583

> <Gold.Chemscore.Metal>
0.0000

> <Gold.Chemscore.Lipo>
70.8585

> <Gold.Chemscore.Internal_Hbond>
0.0000

> <Gold.Chemscore.DEClash>
0.0717

> <Gold.Chemscore.DEInternal>
1.6678

> <Gold.Chemscore.Rot>
5.4662

> <Gold.Chemscore.Internal.Correction>
   9.000000E+99

> <Gold.Chemscore.Hbonds>
donor molecule, donor type, donor heavy atom, donor atom, acceptor molecule, acceptor atom, score
      L1  H     5    40       P1 10175  0.99
      L1  H    19    45       P1 10747  0.63
      L1  H    21    46       P1 10747  0.95
      L1  H    23    47       P1 10186  0.17
      P1  H 10785 10796       L1    23  0.77

> <Gold.Chemscore.Hbond.Weighted>
-14.5568

> <Gold.Chemscore.Metal.Weighted>
-0.0000

> <Gold.Chemscore.Lipo.Weighted>
-8.2904

> <Gold.Chemscore.Internal_Hbond.Weighted>
0.0000

> <Gold.Chemscore.DEClash.Weighted>
0.0717

> <Gold.Chemscore.DEInternal.Weighted>
1.6678

> <Gold.Chemscore.Rot.Weighted>
13.9935

> <Gold.Chemscore.Internal.Correction.Weighted>
   9.000000E+99

> <Gold.Protein.RotatedTorsions>
[ 6907 6896 6895 6894 ] final  -27.05 input  -60.11 | X-H torsion
[ 7974 7965 7964 7962 ] final   74.84 input  175.53 | X-H torsion
[ 8008 7997 7996 7995 ] final   67.88 input   59.86 | X-H torsion
[ 10167 10162 10161 10158 ] final   68.77 input  -65.29 | X-H torsion
[ 10718 10713 10712 10709 ] final -161.20 input   66.30 | X-H torsion
[ 10763 10752 10751 10750 ] final  -11.85 input  -60.55 | X-H torsion
[ 11005 11000 10999 10996 ] final -112.69 input  -57.11 | X-H torsion

> <Gold.Protein.ActiveResidues>
 VAL166  LYS551  ARG553  GLY616  TRP617  ASP618  TYR619  PRO620  LYS621  CYS622 
 ASP623  PHE694  ASN695  SER759  ASP760  ASP761  ALA762  ILE779  LEU786  VAL792 
 PHE793  MET794  SER795  GLU796  ALA797  LYS798  CYS799  TRP800  GLU811  SER814 

> <Gold.Protein.RotatedAtoms>
  151.1523  135.0233  159.8673 H   0  0  0  0  0  0  0  0  0  0  0  0  # atno 6907 bound_to 6896
  152.5452  134.1375  159.8475 H   0  0  0  0  0  0  0  0  0  0  0  0  # atno 6908 bound_to 6896
  151.1461  133.4893  159.2628 H   0  0  0  0  0  0  0  0  0  0  0  0  # atno 6909 bound_to 6896
  145.7232  139.2656  143.1584 H   0  0  0  0  0  0  0  0  0  0  0  0  # atno 7974 bound_to 7965
  155.6997  140.3495  155.4928 H   0  0  0  0  0  0  0  0  0  0  0  0  # atno 8008 bound_to 7997
  155.9451  140.1109  157.1046 H   0  0  0  0  0  0  0  0  0  0  0  0  # atno 8009 bound_to 7997
  154.4110  140.1205  156.4965 H   0  0  0  0  0  0  0  0  0  0  0  0  # atno 8010 bound_to 7997
  140.0751  144.5119  150.7200 H   0  0  0  0  0  0  0  0  0  0  0  0  # atno 10167 bound_to 10162
  156.5929  130.8778  151.2894 H   0  0  0  0  0  0  0  0  0  0  0  0  # atno 10718 bound_to 10713
  153.4898  135.7017  153.5890 H   0  0  0  0  0  0  0  0  0  0  0  0  # atno 10763 bound_to 10752
  153.4068  135.3858  155.2024 H   0  0  0  0  0  0  0  0  0  0  0  0  # atno 10764 bound_to 10752
  154.8717  135.3895  154.4357 H   0  0  0  0  0  0  0  0  0  0  0  0  # atno 10765 bound_to 10752
  141.0660  133.9459  157.2578 H   0  0  0  0  0  0  0  0  0  0  0  0  # atno 11005 bound_to 11000
  146.0606  140.7974  142.9736 LP  0  0  0  0  0  0  0  0  0  0  0  0  # atno 17320 bound_to 7965
  144.6911  140.3192  143.7235 LP  0  0  0  0  0  0  0  0  0  0  0  0  # atno 17321 bound_to 7965
  140.7106  143.2502  151.4592 LP  0  0  0  0  0  0  0  0  0  0  0  0  # atno 17342 bound_to 10162
  139.5813  144.1704  152.1971 LP  0  0  0  0  0  0  0  0  0  0  0  0  # atno 17343 bound_to 10162
  157.7299  130.9678  150.1808 LP  0  0  0  0  0  0  0  0  0  0  0  0  # atno 17370 bound_to 10713
  156.2534  130.3703  149.8207 LP  0  0  0  0  0  0  0  0  0  0  0  0  # atno 17371 bound_to 10713
  139.9476  135.0181  156.8900 LP  0  0  0  0  0  0  0  0  0  0  0  0  # atno 17394 bound_to 11000
  140.5773  134.0386  155.7451 LP  0  0  0  0  0  0  0  0  0  0  0  0  # atno 17395 bound_to 11000

$$$$
