#       Name:                AV-unprocessed.smi:85
#       Creating user name   scv26
#       Creation time:       Thu Mar 26 17:20:41 2020


#       File generated by GOLD software.
#

@<TRIPOS>MOLECULE
AV-unprocessed.smi:85
    72    75     1
SMALL
NO_CHARGES


@<TRIPOS>ATOM
      1 ****        -2.2861  -4.0379  -1.5869 C.3            1 S1                 0.0000
      2 ****        -2.8583  -2.6866  -1.1267 C.3            1 S1                 0.0000
      3 ****        -2.2172  -1.5324  -1.7603 N.3            1 S1                 0.0000
      4 ****        -0.8686  -1.4708  -1.6291 C.ar           1 S1                 0.0000
      5 ****        -0.1406  -1.3609  -2.7686 N.ar           1 S1                 0.0000
      6 ****         1.1923  -1.2967  -2.7094 C.ar           1 S1                 0.0000
      7 ****         1.9820  -1.3232  -1.6343 N.ar           1 S1                 0.0000
      8 ****         1.2549  -1.4367  -0.4859 C.ar           1 S1                 0.0000
      9 ****        -0.1625  -1.5295  -0.3928 C.ar           1 S1                 0.0000
     10 ****        -0.5402  -1.6528   0.9391 N.2            1 S1                 0.0000
     11 ****         0.5868  -1.6230   1.5949 C.2            1 S1                 0.0000
     12 ****         1.7145  -1.4730   0.8196 N.pl3          1 S1                 0.0000
     13 ****         3.0893  -1.3966   1.2931 C.3            1 S1                 0.0000
     14 ****         3.6097   0.0474   1.5630 C.3            1 S1                 0.0000
     15 ****         2.6823   0.7967   2.5627 C.3            1 S1                 0.0000
     16 ****         2.5659   0.1171   3.7968 O.3            1 S1                 0.0000
     17 ****         5.0583  -0.0510   2.1036 C.3            1 S1                 0.0000
     18 ****         5.7824   1.3066   2.1331 C.3            1 S1                 0.0000
     19 ****         5.7867   1.8800   0.8325 O.3            1 S1                 0.0000
     20 ****         4.4789   2.1473   0.3440 C.3            1 S1                 0.0000
     21 ****         3.6767   0.8378   0.2315 C.3            1 S1                 0.0000
     22 ****        -2.9404  -0.2535  -1.6824 C.3            1 S1                 0.0000
     23 ****        -2.4187   0.8248  -2.6488 C.3            1 S1                 0.0000
     24 ****        -3.2827   2.0885  -2.5456 C.3            1 S1                 0.0000
     25 ****        -3.2974   2.5720  -1.2031 O.3            1 S1                 0.0000
     26 ****        -3.7908   1.6694  -0.2072 C.3            1 S1                 0.0000
     27 ****        -3.5325   2.3729   1.1356 C.3            1 S1                 0.0000
     28 ****        -5.3098   1.4477  -0.3718 C.3            1 S1                 0.0000
     29 ****        -2.9901   0.3464  -0.2622 C.3            1 S1                 0.0000
     30 ****        -2.8443  -4.8617  -1.1420 H              1 S1                 0.0000
     31 ****        -1.2421  -4.1595  -1.2974 H              1 S1                 0.0000
     32 ****        -2.3501  -4.1413  -2.6703 H              1 S1                 0.0000
     33 ****        -3.9219  -2.6616  -1.3656 H              1 S1                 0.0000
     34 ****        -2.7924  -2.6070  -0.0423 H              1 S1                 0.0000
     35 ****         1.6985  -1.2081  -3.6593 H              1 S1                 0.0000
     36 ****         0.6257  -1.6988   2.6718 H              1 S1                 0.0000
     37 ****         3.1612  -1.9970   2.2009 H              1 S1                 0.0000
     38 ****         3.7241  -1.8976   0.5610 H              1 S1                 0.0000
     39 ****         3.0463   1.8001   2.7758 H              1 S1                 0.0000
     40 ****         1.6840   0.9274   2.1450 H              1 S1                 0.0000
     41 ****         2.0106   0.6258   4.3677 H              1 S1                 0.0000
     42 ****         5.0712  -0.4987   3.0978 H              1 S1                 0.0000
     43 ****         5.6356  -0.7245   1.4687 H              1 S1                 0.0000
     44 ****         5.3259   1.9913   2.8483 H              1 S1                 0.0000
     45 ****         6.8150   1.1672   2.4534 H              1 S1                 0.0000
     46 ****         3.9776   2.8733   0.9846 H              1 S1                 0.0000
     47 ****         4.5654   2.6111  -0.6389 H              1 S1                 0.0000
     48 ****         4.1502   0.2203  -0.5329 H              1 S1                 0.0000
     49 ****         2.6742   1.0599  -0.1350 H              1 S1                 0.0000
     50 ****        -3.9619  -0.4819  -1.9866 H              1 S1                 0.0000
     51 ****        -1.3871   1.0892  -2.4133 H              1 S1                 0.0000
     52 ****        -2.4258   0.4527  -3.6739 H              1 S1                 0.0000
     53 ****        -2.8727   2.8689  -3.1868 H              1 S1                 0.0000
     54 ****        -4.2949   1.8999  -2.9029 H              1 S1                 0.0000
     55 ****        -3.8578   1.7577   1.9753 H              1 S1                 0.0000
     56 ****        -4.0665   3.3218   1.1938 H              1 S1                 0.0000
     57 ****        -2.4719   2.5868   1.2738 H              1 S1                 0.0000
     58 ****        -5.7037   0.8357   0.4402 H              1 S1                 0.0000
     59 ****        -5.5657   0.9437  -1.3024 H              1 S1                 0.0000
     60 ****        -5.8474   2.3962  -0.3572 H              1 S1                 0.0000
     61 ****        -3.4099  -0.3691   0.4455 H              1 S1                 0.0000
     62 ****        -1.9724   0.5479   0.0718 H              1 S1                 0.0000
     63 ****        -2.3256  -1.7435  -2.7318 LP             1 S1                 0.0000
     64 ****        -0.6029  -1.3279  -3.6548 LP             1 S1                 0.0000
     65 ****         2.9799  -1.2670  -1.6664 LP             1 S1                 0.0000
     66 ****        -1.4646  -1.7436   1.3097 LP             1 S1                 0.0000
     67 ****         3.4700   0.0125   4.2109 LP             1 S1                 0.0000
     68 ****         2.1609  -0.7851   3.6482 LP             1 S1                 0.0000
     69 ****         6.2386   1.2458   0.2052 LP             1 S1                 0.0000
     70 ****         6.2978   2.7389   0.8636 LP             1 S1                 0.0000
     71 ****        -3.8697   3.3918  -1.1812 LP             1 S1                 0.0000
     72 ****        -2.3590   2.8139  -0.9565 LP             1 S1                 0.0000
@<TRIPOS>BOND
    1    1    2 1     
    2    1   30 1     
    3    1   31 1     
    4    1   32 1     
    5    2    3 1     
    6    2   33 1     
    7    2   34 1     
    8    3    4 1     
    9    3   22 1     
   10    4    9 ar    
   11    4    5 ar    
   12    5    6 ar    
   13    6    7 ar    
   14    6   35 1     
   15    7    8 ar    
   16    8   12 1     
   17    8    9 ar    
   18    9   10 1     
   19   10   11 2     
   20   11   12 1     
   21   11   36 1     
   22   12   13 1     
   23   13   14 1     
   24   13   37 1     
   25   13   38 1     
   26   14   21 1     
   27   14   15 1     
   28   14   17 1     
   29   15   16 1     
   30   15   39 1     
   31   15   40 1     
   32   16   41 1     
   33   17   18 1     
   34   17   42 1     
   35   17   43 1     
   36   18   19 1     
   37   18   44 1     
   38   18   45 1     
   39   19   20 1     
   40   20   21 1     
   41   20   46 1     
   42   20   47 1     
   43   21   48 1     
   44   21   49 1     
   45   22   29 1     
   46   22   23 1     
   47   22   50 1     
   48   23   24 1     
   49   23   51 1     
   50   23   52 1     
   51   24   25 1     
   52   24   53 1     
   53   24   54 1     
   54   25   26 1     
   55   26   27 1     
   56   26   28 1     
   57   26   29 1     
   58   27   55 1     
   59   27   56 1     
   60   27   57 1     
   61   28   58 1     
   62   28   59 1     
   63   28   60 1     
   64   29   61 1     
   65   29   62 1     
   66    3   63 1     
   67    5   64 1     
   68    7   65 1     
   69   10   66 1     
   70   16   67 1     
   71   16   68 1     
   72   19   69 1     
   73   19   70 1     
   74   25   71 1     
   75   25   72 1     
@<TRIPOS>SUBSTRUCTURE
      1 S1             1
@<TRIPOS>SET
LONE_PAIRS      STATIC     ATOMS    <user>   **** ""
10 63 64 65 66 67 68 69 70 71 72
DONOR_HYDROGENS      STATIC     ATOMS    <user>   **** ""
1 41
ATOM$BLUE        STATIC     ATOMS    COLORGROUP SYSTEM
10 63 64 65 66 67 68 69 70 71 72
ATOM$RED        STATIC     ATOMS    COLORGROUP SYSTEM
1 41
