#       Name:                AV-unprocessed.smi:194
#       Creating user name   scv26
#       Creation time:       Thu Mar 26 19:36:29 2020


#       File generated by GOLD software.
#

@<TRIPOS>MOLECULE
AV-unprocessed.smi:194
    60    62     1
SMALL
NO_CHARGES


@<TRIPOS>ATOM
      1 ****        -4.8382  -1.6606  -0.4189 C.3            1 S1                 0.0000
      2 ****        -3.6845  -1.8965  -1.4073 C.3            1 S1                 0.0000
      3 ****        -3.9429  -3.1403  -2.2850 C.3            1 S1                 0.0000
      4 ****        -2.5746  -3.3462  -3.5272 S.o            1 S1                 0.0000
      5 ****        -3.0412  -1.9714  -4.6819 C.3            1 S1                 0.0000
      6 ****        -2.8411  -4.6595  -4.2652 O.2            1 S1                 0.0000
      7 ****        -2.3974  -1.9611  -0.7011 N.pl3          1 S1                 0.0000
      8 ****        -2.1453  -2.9948   0.2987 C.3            1 S1                 0.0000
      9 ****        -1.6063  -0.8564  -0.6988 C.ar           1 S1                 0.0000
     10 ****        -1.3601  -0.2459  -1.8877 N.ar           1 S1                 0.0000
     11 ****        -0.5787   0.8352  -1.9473 C.ar           1 S1                 0.0000
     12 ****         0.0511   1.4632  -0.9539 N.ar           1 S1                 0.0000
     13 ****        -0.1871   0.8584   0.2448 C.ar           1 S1                 0.0000
     14 ****        -1.0009  -0.2910   0.4629 C.ar           1 S1                 0.0000
     15 ****        -1.0275  -0.5920   1.8204 N.2            1 S1                 0.0000
     16 ****        -0.2693   0.3170   2.3678 C.2            1 S1                 0.0000
     17 ****         0.2942   1.2172   1.4927 N.pl3          1 S1                 0.0000
     18 ****         1.1706   2.3277   1.8357 C.3            1 S1                 0.0000
     19 ****         2.7005   2.0374   1.7530 C.3            1 S1                 0.0000
     20 ****         3.1181   0.9379   2.7761 C.3            1 S1                 0.0000
     21 ****         2.7338  -0.3690   2.3986 O.3            1 S1                 0.0000
     22 ****         3.1200   1.6674   0.3069 C.3            1 S1                 0.0000
     23 ****         4.6450   1.6920   0.1083 C.3            1 S1                 0.0000
     24 ****         5.1490   2.9826   0.4269 O.3            1 S1                 0.0000
     25 ****         4.9357   3.3375   1.7868 C.3            1 S1                 0.0000
     26 ****         3.4269   3.3620   2.1018 C.3            1 S1                 0.0000
     27 ****        -5.7835  -1.5298  -0.9462 H              1 S1                 0.0000
     28 ****        -4.6674  -0.7628   0.1761 H              1 S1                 0.0000
     29 ****        -4.9573  -2.4989   0.2680 H              1 S1                 0.0000
     30 ****        -3.6919  -1.0318  -2.0688 H              1 S1                 0.0000
     31 ****        -4.0008  -4.0409  -1.6745 H              1 S1                 0.0000
     32 ****        -4.8936  -3.0587  -2.8126 H              1 S1                 0.0000
     33 ****        -2.9946  -1.0041  -4.1841 H              1 S1                 0.0000
     34 ****        -4.0507  -2.1208  -5.0644 H              1 S1                 0.0000
     35 ****        -2.3529  -1.9504  -5.5266 H              1 S1                 0.0000
     36 ****        -1.0772  -3.0979   0.4934 H              1 S1                 0.0000
     37 ****        -2.5069  -3.9654  -0.0374 H              1 S1                 0.0000
     38 ****        -2.6466  -2.7549   1.2366 H              1 S1                 0.0000
     39 ****        -0.4364   1.2558  -2.9318 H              1 S1                 0.0000
     40 ****        -0.0886   0.3496   3.4324 H              1 S1                 0.0000
     41 ****         0.9116   3.1597   1.1792 H              1 S1                 0.0000
     42 ****         0.9110   2.6575   2.8426 H              1 S1                 0.0000
     43 ****         4.1974   0.9094   2.9132 H              1 S1                 0.0000
     44 ****         2.6956   1.1540   3.7580 H              1 S1                 0.0000
     45 ****         3.0491  -0.9760   3.0507 H              1 S1                 0.0000
     46 ****         2.7286   0.6920   0.0179 H              1 S1                 0.0000
     47 ****         2.6796   2.3827  -0.3888 H              1 S1                 0.0000
     48 ****         5.1397   0.9301   0.7121 H              1 S1                 0.0000
     49 ****         4.8860   1.4723  -0.9320 H              1 S1                 0.0000
     50 ****         5.4783   2.6563   2.4422 H              1 S1                 0.0000
     51 ****         5.3618   4.3267   1.9550 H              1 S1                 0.0000
     52 ****         2.9852   4.1804   1.5314 H              1 S1                 0.0000
     53 ****         3.2740   3.6136   3.1521 H              1 S1                 0.0000
     54 ****        -1.7677  -0.6095  -2.7253 LP             1 S1                 0.0000
     55 ****         0.6246   2.2738  -1.0727 LP             1 S1                 0.0000
     56 ****        -1.5171  -1.3367   2.2740 LP             1 S1                 0.0000
     57 ****         3.1316  -0.5934   1.5090 LP             1 S1                 0.0000
     58 ****         1.7370  -0.4237   2.3413 LP             1 S1                 0.0000
     59 ****         4.6926   3.6562  -0.1544 LP             1 S1                 0.0000
     60 ****         6.1320   2.9958   0.2437 LP             1 S1                 0.0000
@<TRIPOS>BOND
    1    1    2 1     
    2    1   27 1     
    3    1   28 1     
    4    1   29 1     
    5    2    3 1     
    6    2    7 1     
    7    2   30 1     
    8    3    4 1     
    9    3   31 1     
   10    3   32 1     
   11    4    5 1     
   12    4    6 2     
   13    5   33 1     
   14    5   34 1     
   15    5   35 1     
   16    7    8 1     
   17    7    9 1     
   18    8   36 1     
   19    8   37 1     
   20    8   38 1     
   21    9   14 ar    
   22    9   10 ar    
   23   10   11 ar    
   24   11   12 ar    
   25   11   39 1     
   26   12   13 ar    
   27   13   17 1     
   28   13   14 ar    
   29   14   15 1     
   30   15   16 2     
   31   16   17 1     
   32   16   40 1     
   33   17   18 1     
   34   18   19 1     
   35   18   41 1     
   36   18   42 1     
   37   19   26 1     
   38   19   20 1     
   39   19   22 1     
   40   20   21 1     
   41   20   43 1     
   42   20   44 1     
   43   21   45 1     
   44   22   23 1     
   45   22   46 1     
   46   22   47 1     
   47   23   24 1     
   48   23   48 1     
   49   23   49 1     
   50   24   25 1     
   51   25   26 1     
   52   25   50 1     
   53   25   51 1     
   54   26   52 1     
   55   26   53 1     
   56   10   54 1     
   57   12   55 1     
   58   15   56 1     
   59   21   57 1     
   60   21   58 1     
   61   24   59 1     
   62   24   60 1     
@<TRIPOS>SUBSTRUCTURE
      1 S1             1
@<TRIPOS>SET
LONE_PAIRS      STATIC     ATOMS    <user>   **** ""
8 6 54 55 56 57 58 59 60
DONOR_HYDROGENS      STATIC     ATOMS    <user>   **** ""
1 45
ATOM$BLUE        STATIC     ATOMS    COLORGROUP SYSTEM
8 6 54 55 56 57 58 59 60
ATOM$RED        STATIC     ATOMS    COLORGROUP SYSTEM
1 45
