#       Name:                AV-unprocessed.smi:94
#       Creating user name   scv26
#       Creation time:       Thu Mar 26 17:30:01 2020


#       File generated by GOLD software.
#

@<TRIPOS>MOLECULE
AV-unprocessed.smi:94
    63    65     1
SMALL
NO_CHARGES


@<TRIPOS>ATOM
      1 ****        -3.7977   4.5422   2.2080 C.3            1 S1                 0.0000
      2 ****        -3.2417   3.2647   1.9335 O.3            1 S1                 0.0000
      3 ****        -4.0666   2.2826   1.4225 C.ar           1 S1                 0.0000
      4 ****        -5.4454   2.4876   1.1590 C.ar           1 S1                 0.0000
      5 ****        -6.2440   1.4465   0.6519 C.ar           1 S1                 0.0000
      6 ****        -5.6813   0.1813   0.4053 C.ar           1 S1                 0.0000
      7 ****        -6.5382  -0.9466  -0.1316 C.3            1 S1                 0.0000
      8 ****        -4.3133  -0.0319   0.6585 C.ar           1 S1                 0.0000
      9 ****        -3.4969   1.0110   1.1567 C.ar           1 S1                 0.0000
     10 ****        -2.0147   0.7588   1.4395 C.3            1 S1                 0.0000
     11 ****        -1.8051   0.3136   2.8964 C.3            1 S1                 0.0000
     12 ****        -1.4295  -0.2184   0.5213 N.am           1 S1                 0.0000
     13 ****        -0.1308  -0.3118   0.1963 C.2            1 S1                 0.0000
     14 ****         0.7371   0.4293   0.6602 O.2            1 S1                 0.0000
     15 ****         0.2254  -1.4075  -0.8198 C.3            1 S1                 0.0000
     16 ****         1.6564  -1.7821  -0.8051 N.am           1 S1                 0.0000
     17 ****         2.0826  -2.7829   0.1033 C.2            1 S1                 0.0000
     18 ****         1.2859  -3.3385   0.8611 O.2            1 S1                 0.0000
     19 ****         3.5079  -3.0916   0.0780 C.2            1 S1                 0.0000
     20 ****         4.0021  -4.0240   0.9100 F              1 S1                 0.0000
     21 ****         4.3419  -2.4516  -0.7667 C.2            1 S1                 0.0000
     22 ****         3.9116  -1.4789  -1.6499 N.am           1 S1                 0.0000
     23 ****         4.8853  -0.7723  -2.5652 C.3            1 S1                 0.0000
     24 ****         5.4856   0.4496  -1.8595 C.3            1 S1                 0.0000
     25 ****         6.8070  -0.0926  -1.3573 C.3            1 S1                 0.0000
     26 ****         7.1726  -1.0775  -2.4609 C.3            1 S1                 0.0000
     27 ****         5.9334  -1.6465  -2.8723 O.3            1 S1                 0.0000
     28 ****         2.5488  -1.1102  -1.6747 C.2            1 S1                 0.0000
     29 ****         2.1505  -0.2179  -2.4266 O.2            1 S1                 0.0000
     30 ****        -3.0201   5.1941   2.6057 H              1 S1                 0.0000
     31 ****        -4.5896   4.4813   2.9557 H              1 S1                 0.0000
     32 ****        -4.1877   5.0103   1.3032 H              1 S1                 0.0000
     33 ****        -5.9208   3.4393   1.3407 H              1 S1                 0.0000
     34 ****        -7.2922   1.6230   0.4586 H              1 S1                 0.0000
     35 ****        -6.2699  -1.8915   0.3417 H              1 S1                 0.0000
     36 ****        -6.3950  -1.0478  -1.2075 H              1 S1                 0.0000
     37 ****        -7.5960  -0.7627   0.0589 H              1 S1                 0.0000
     38 ****        -3.8966  -1.0108   0.4725 H              1 S1                 0.0000
     39 ****        -1.4820   1.6988   1.2869 H              1 S1                 0.0000
     40 ****        -2.1880   1.0608   3.5923 H              1 S1                 0.0000
     41 ****        -0.7482   0.1699   3.1222 H              1 S1                 0.0000
     42 ****        -2.3199  -0.6256   3.1011 H              1 S1                 0.0000
     43 ****        -2.0695  -0.8681   0.0882 H              1 S1                 0.0000
     44 ****        -0.4013  -2.2819  -0.6348 H              1 S1                 0.0000
     45 ****        -0.0849  -1.0664  -1.8085 H              1 S1                 0.0000
     46 ****         5.3887  -2.7153  -0.7391 H              1 S1                 0.0000
     47 ****         4.3381  -0.5295  -3.4773 H              1 S1                 0.0000
     48 ****         5.6514   1.2321  -2.6009 H              1 S1                 0.0000
     49 ****         4.8355   0.8380  -1.0743 H              1 S1                 0.0000
     50 ****         7.5604   0.6815  -1.2100 H              1 S1                 0.0000
     51 ****         6.6660  -0.6173  -0.4115 H              1 S1                 0.0000
     52 ****         7.6163  -0.5518  -3.3075 H              1 S1                 0.0000
     53 ****         7.8744  -1.8425  -2.1284 H              1 S1                 0.0000
     54 ****        -2.8647   2.9163   2.7917 LP             1 S1                 0.0000
     55 ****        -2.5014   3.4003   1.2750 LP             1 S1                 0.0000
     56 ****         0.4874   1.1441   1.3134 LP             1 S1                 0.0000
     57 ****         1.6914   0.3160   0.3836 LP             1 S1                 0.0000
     58 ****         0.3186  -3.0856   0.8424 LP             1 S1                 0.0000
     59 ****         1.6065  -4.0425   1.4949 LP             1 S1                 0.0000
     60 ****         5.9533  -1.8073  -3.8591 LP             1 S1                 0.0000
     61 ****         5.7922  -2.5144  -2.3960 LP             1 S1                 0.0000
     62 ****         1.1845   0.0406  -2.4280 LP             1 S1                 0.0000
     63 ****         2.7935   0.2472  -3.0350 LP             1 S1                 0.0000
@<TRIPOS>BOND
    1    1    2 1     
    2    1   30 1     
    3    1   31 1     
    4    1   32 1     
    5    2    3 1     
    6    3    9 ar    
    7    3    4 ar    
    8    4    5 ar    
    9    4   33 1     
   10    5    6 ar    
   11    5   34 1     
   12    6    7 1     
   13    6    8 ar    
   14    7   35 1     
   15    7   36 1     
   16    7   37 1     
   17    8    9 ar    
   18    8   38 1     
   19    9   10 1     
   20   10   11 1     
   21   10   12 1     
   22   10   39 1     
   23   11   40 1     
   24   11   41 1     
   25   11   42 1     
   26   12   13 am    
   27   12   43 1     
   28   13   14 2     
   29   13   15 1     
   30   15   16 1     
   31   15   44 1     
   32   15   45 1     
   33   16   28 am    
   34   16   17 am    
   35   17   18 2     
   36   17   19 1     
   37   19   20 1     
   38   19   21 2     
   39   21   22 1     
   40   21   46 1     
   41   22   23 1     
   42   22   28 am    
   43   23   27 1     
   44   23   24 1     
   45   23   47 1     
   46   24   25 1     
   47   24   48 1     
   48   24   49 1     
   49   25   26 1     
   50   25   50 1     
   51   25   51 1     
   52   26   27 1     
   53   26   52 1     
   54   26   53 1     
   55   28   29 2     
   56    2   54 1     
   57    2   55 1     
   58   14   56 1     
   59   14   57 1     
   60   18   58 1     
   61   18   59 1     
   62   27   60 1     
   63   27   61 1     
   64   29   62 1     
   65   29   63 1     
@<TRIPOS>SUBSTRUCTURE
      1 S1             1
@<TRIPOS>SET
LONE_PAIRS      STATIC     ATOMS    <user>   **** ""
10 54 55 56 57 58 59 60 61 62 63
DONOR_HYDROGENS      STATIC     ATOMS    <user>   **** ""
1 43
ATOM$BLUE        STATIC     ATOMS    COLORGROUP SYSTEM
10 54 55 56 57 58 59 60 61 62 63
ATOM$RED        STATIC     ATOMS    COLORGROUP SYSTEM
1 43
