AV-unprocessed.smi:1703|AV-procd|sdf|6864|dock5
  -GOLD-   22720 8 53D 1   1.00000     0.00000
 Structure written by MMmdl.
 49 51  0  0  0  0  0  0  0  0  2 V2000
  146.2655  142.9439  153.8948 C   0  0  0  0  0  0  0  0  0  0  0  0
  145.8839  141.9482  155.0046 C   0  0  1  0  0  0  0  0  0  0  0  0
  147.1003  141.3391  155.7294 C   0  0  0  0  0  0  0  0  0  0  0  0
  147.7311  142.3243  156.6388 N   0  3  2  0  0  0  0  0  0  0  0  0
  148.9489  141.7888  157.2983 C   0  0  0  0  0  0  0  0  0  0  0  0
  149.9155  141.1130  156.3010 C   0  0  2  0  0  0  0  0  0  0  0  0
  149.8705  139.7139  156.4955 O   0  0  0  0  0  0  0  0  0  0  0  0
  151.3823  141.5626  156.4561 C   0  0  0  0  0  0  0  0  0  0  0  0
  151.7585  141.7781  157.8472 N   0  0  0  0  0  0  0  0  0  0  0  0
  152.1121  140.8596  158.7832 C   0  0  0  0  0  0  0  0  0  0  0  0
  152.1710  139.3915  158.4895 C   0  0  0  0  0  0  0  0  0  0  0  0
  153.0921  139.0761  157.4677 O   0  0  0  0  0  0  0  0  0  0  0  0
  152.4007  141.3451  159.9908 N   0  0  0  0  0  0  0  0  0  0  0  0
  152.2325  142.7051  159.8215 C   0  0  0  0  0  0  0  0  0  0  0  0
  152.3907  143.7710  160.7358 C   0  0  0  0  0  0  0  0  0  0  0  0
  152.1612  145.1013  160.3276 C   0  0  0  0  0  0  0  0  0  0  0  0
  151.7700  145.3841  159.0031 C   0  0  0  0  0  0  0  0  0  0  0  0
  151.6044  144.3367  158.0769 C   0  0  0  0  0  0  0  0  0  0  0  0
  151.8345  143.0104  158.4893 C   0  0  0  0  0  0  0  0  0  0  0  0
  146.7264  142.8609  157.5881 C   0  0  0  0  0  0  0  0  0  0  0  0
  145.5481  143.4874  156.8214 C   0  0  2  0  0  0  0  0  0  0  0  0
  144.4468  143.9813  157.7659 C   0  0  0  0  0  0  0  0  0  0  0  0
  144.9767  142.5138  155.9509 O   0  0  0  0  0  0  0  0  0  0  0  0
  146.8507  142.4504  153.1184 H   0  0  0  0  0  0  0  0  0  0  0  0
  146.8627  143.7747  154.2693 H   0  0  0  0  0  0  0  0  0  0  0  0
  145.3750  143.3575  153.4215 H   0  0  0  0  0  0  0  0  0  0  0  0
  145.3449  141.1324  154.5217 H   0  0  0  0  0  0  0  0  0  0  0  0
  146.7845  140.4715  156.3112 H   0  0  0  0  0  0  0  0  0  0  0  0
  147.8260  140.9813  154.9979 H   0  0  0  0  0  0  0  0  0  0  0  0
  149.4390  142.6023  157.8349 H   0  0  0  0  0  0  0  0  0  0  0  0
  148.6652  141.0544  158.0536 H   0  0  0  0  0  0  0  0  0  0  0  0
  149.6025  141.3153  155.2777 H   0  0  0  0  0  0  0  0  0  0  0  0
  149.4230  139.3201  155.7618 H   0  0  0  0  0  0  0  0  0  0  0  0
  152.0529  140.8331  156.0029 H   0  0  0  0  0  0  0  0  0  0  0  0
  151.5451  142.4965  155.9166 H   0  0  0  0  0  0  0  0  0  0  0  0
  152.4587  138.8539  159.3937 H   0  0  0  0  0  0  0  0  0  0  0  0
  151.1807  139.0302  158.2131 H   0  0  0  0  0  0  0  0  0  0  0  0
  152.7273  138.3854  156.9356 H   0  0  0  0  0  0  0  0  0  0  0  0
  152.6913  143.5654  161.7524 H   0  0  0  0  0  0  0  0  0  0  0  0
  152.2877  145.9083  161.0343 H   0  0  0  0  0  0  0  0  0  0  0  0
  151.5984  146.4063  158.6986 H   0  0  0  0  0  0  0  0  0  0  0  0
  151.3070  144.5517  157.0613 H   0  0  0  0  0  0  0  0  0  0  0  0
  146.3717  142.0576  158.2361 H   0  0  0  0  0  0  0  0  0  0  0  0
  147.1743  143.6146  158.2344 H   0  0  0  0  0  0  0  0  0  0  0  0
  145.9005  144.3399  156.2402 H   0  0  0  0  0  0  0  0  0  0  0  0
  144.8264  144.7427  158.4479 H   0  0  0  0  0  0  0  0  0  0  0  0
  144.0447  143.1648  158.3665 H   0  0  0  0  0  0  0  0  0  0  0  0
  143.6210  144.4204  157.2054 H   0  0  0  0  0  0  0  0  0  0  0  0
  148.0360  143.0937  156.0592 H   0  0  0  0  0  0  0  0  0  0  0  0
  1  2  1  0  0  0  0
  1 24  1  0  0  0  0
  1 25  1  0  0  0  0
  1 26  1  0  0  0  0
  2 23  1  0  0  0  0
  2  3  1  0  0  0  0
  2 27  1  0  0  0  0
  3  4  1  0  0  0  0
  3 28  1  0  0  0  0
  3 29  1  0  0  0  0
  4  5  1  0  0  0  0
  4 20  1  0  0  0  0
  4 49  1  0  0  0  0
  5  6  1  0  0  0  0
  5 30  1  0  0  0  0
  5 31  1  0  0  0  0
  6  7  1  0  0  0  0
  6  8  1  0  0  0  0
  6 32  1  0  0  0  0
  7 33  1  0  0  0  0
  8  9  1  0  0  0  0
  8 34  1  0  0  0  0
  8 35  1  0  0  0  0
  9 19  1  0  0  0  0
  9 10  1  0  0  0  0
 10 11  1  0  0  0  0
 10 13  2  0  0  0  0
 11 12  1  0  0  0  0
 11 36  1  0  0  0  0
 11 37  1  0  0  0  0
 12 38  1  0  0  0  0
 13 14  1  0  0  0  0
 14 19  2  0  0  0  0
 14 15  1  0  0  0  0
 15 16  2  0  0  0  0
 15 39  1  0  0  0  0
 16 17  1  0  0  0  0
 16 40  1  0  0  0  0
 17 18  2  0  0  0  0
 17 41  1  0  0  0  0
 18 19  1  0  0  0  0
 18 42  1  0  0  0  0
 20 21  1  0  0  0  0
 20 43  1  0  0  0  0
 20 44  1  0  0  0  0
 21 22  1  0  0  0  0
 21 23  1  0  0  0  0
 21 45  1  0  0  0  0
 22 46  1  0  0  0  0
 22 47  1  0  0  0  0
 22 48  1  0  0  0  0
M  CHG  1   4   1
M  END
> <s_m_source_file>
AV-unprocessed.smi

> <i_m_source_file_index>
1703

> <i_lp_mmshare_version>
43012

> <i_f3d_flags>
0

> <s_epik_input>
W0NIM11bQ0BASF0xW0NIMl1OKFtDSDJdW0NASF0oTzEpW0NIM10pW0NIMl1bQ0BIXShbT0hdKVtDSDJdbihjKG4yKVtDSDJdW09IXSljKGMyMylbY0hdW2NIXVtjSF1bY0hdMw==

> <s_epik_cmdline>
J2VwaWtfcHl0aG9uJywgJy1waCcsICc3LjAnLCAnLXRuJywgJzgnLCAnLW1hJywgJzIwMCcsICctbWV0YWxfYmluZGluZycsICctaW1hZScsICc8aW5maWxlLm1hZT4nLCAnLW9tYWUnLCAnPG91dGZpbGUubWFlPic=

> <r_epik_Ionization_Penalty>
0.655661

> <r_epik_Ionization_Penalty_Charging>
0.608065

> <r_epik_Ionization_Penalty_Neutral>
0.0475963

> <r_epik_State_Penalty>
0.695267

> <r_epik_Charging_Adjusted_Penalty>
1.30333

> <i_epik_Tot_Q>
1

> <i_epik_Tot_abs_Q>
1

> <r_epik_Metal_State_Penalty>
0.653591

> <b_epik_Metal_Only>
0

> <s_lp_Force_Field>
OPLS_2005

> <r_lp_Energy>
25.3139

> <b_lp_Chiralities_Consistent>
1

> <s_lp_Variant>
AV-unprocessed.smi:1703-12

> <Gold.Version>
5.8.1

> <Gold.Id.Protein>
6NUR|6NUR_protein|mol2

> <Gold.PLP.Fitness>
50.2707

> <Gold.PLP.PLP>
-43.6521

> <Gold.PLP.part.hbond>
-2.0000

> <Gold.PLP.part.metal>
0.0000

> <Gold.PLP.part.buried>
-7.6090

> <Gold.PLP.part.nonpolar>
-34.1130

> <Gold.PLP.part.repulsive>
0.1076

> <Gold.PLP.ligand.clash>
0.0000

> <Gold.PLP.ligand.torsion>
1.2504

> <Gold.PLP.Chemscore.Hbond>
3.0000

> <Gold.PLP.Chemscore.CHOScore>
0.0000

> <Gold.PLP.Chemscore.Metal>
0.0000

> <Gold.Chemscore.Hbonds>
donor molecule, donor type, donor heavy atom, donor atom, acceptor molecule, acceptor atom, score
      L1  H     4    49       P1  8028  2.00
      P1  H  7997  8010       L1    12  1.00

> <Gold.PLP.Chemscore.Internal.Correction>
0.1194

> <Gold.Rescore>
     Score         DG    S(hbond)    S(metal)    S(lipo)     H(rot)  DE(clash)    DE(int)     intcor
     15.48     -16.90       1.75        0.00     112.45       2.96       0.16       1.26       ----

> <Gold.Chemscore.Fitness>
15.4772

> <Gold.Chemscore.DG>
-16.8981

> <Gold.Chemscore.ZeroCoef>
-5.4800

> <Gold.Chemscore.Hbond>
1.7489

> <Gold.Chemscore.Metal>
0.0000

> <Gold.Chemscore.Lipo>
112.4539

> <Gold.Chemscore.Internal_Hbond>
0.0000

> <Gold.Chemscore.DEClash>
0.1596

> <Gold.Chemscore.DEInternal>
1.2613

> <Gold.Chemscore.Rot>
2.9611

> <Gold.Chemscore.Internal.Correction>
   9.000000E+99

> <Gold.Chemscore.Hbonds>
donor molecule, donor type, donor heavy atom, donor atom, acceptor molecule, acceptor atom, score
      L1  H     4    49       P1  8028  0.55
      P1  H  7997  8010       L1    12  0.97

> <Gold.Chemscore.Hbond.Weighted>
-5.8414

> <Gold.Chemscore.Metal.Weighted>
-0.0000

> <Gold.Chemscore.Lipo.Weighted>
-13.1571

> <Gold.Chemscore.Internal_Hbond.Weighted>
0.0000

> <Gold.Chemscore.DEClash.Weighted>
0.1596

> <Gold.Chemscore.DEInternal.Weighted>
1.2613

> <Gold.Chemscore.Rot.Weighted>
7.5803

> <Gold.Chemscore.Internal.Correction.Weighted>
   9.000000E+99

> <Gold.Protein.RotatedTorsions>
[ 6907 6896 6895 6894 ] final  -96.79 input  -60.11 | X-H torsion
[ 7974 7965 7964 7962 ] final   58.28 input  175.53 | X-H torsion
[ 8008 7997 7996 7995 ] final   29.94 input   59.86 | X-H torsion
[ 10167 10162 10161 10158 ] final   74.35 input  -65.29 | X-H torsion
[ 10718 10713 10712 10709 ] final   71.03 input   66.30 | X-H torsion
[ 10763 10752 10751 10750 ] final  169.37 input  -60.55 | X-H torsion
[ 11005 11000 10999 10996 ] final -147.62 input  -57.11 | X-H torsion

> <Gold.Protein.ActiveResidues>
 VAL166  LYS551  ARG553  GLY616  TRP617  ASP618  TYR619  PRO620  LYS621  CYS622 
 ASP623  PHE694  ASN695  SER759  ASP760  ASP761  ALA762  ILE779  LEU786  VAL792 
 PHE793  MET794  SER795  GLU796  ALA797  LYS798  CYS799  TRP800  GLU811  SER814 

> <Gold.Protein.RotatedAtoms>
  150.6998  134.1448  159.4118 H   0  0  0  0  0  0  0  0  0  0  0  0  # atno 6907 bound_to 6896
  151.9432  135.0201  160.0546 H   0  0  0  0  0  0  0  0  0  0  0  0  # atno 6908 bound_to 6896
  152.2075  133.4851  159.5129 H   0  0  0  0  0  0  0  0  0  0  0  0  # atno 6909 bound_to 6896
  145.9199  139.3721  143.0484 H   0  0  0  0  0  0  0  0  0  0  0  0  # atno 7974 bound_to 7965
  155.0825  140.3211  155.4597 H   0  0  0  0  0  0  0  0  0  0  0  0  # atno 8008 bound_to 7997
  156.2763  140.2092  156.5899 H   0  0  0  0  0  0  0  0  0  0  0  0  # atno 8009 bound_to 7997
  154.6967  140.0511  157.0405 H   0  0  0  0  0  0  0  0  0  0  0  0  # atno 8010 bound_to 7997
  140.0147  144.5587  150.7630 H   0  0  0  0  0  0  0  0  0  0  0  0  # atno 10167 bound_to 10162
  157.6431  130.9507  150.0733 H   0  0  0  0  0  0  0  0  0  0  0  0  # atno 10718 bound_to 10713
  154.3822  135.2753  155.2204 H   0  0  0  0  0  0  0  0  0  0  0  0  # atno 10763 bound_to 10752
  154.4306  135.5978  153.6070 H   0  0  0  0  0  0  0  0  0  0  0  0  # atno 10764 bound_to 10752
  152.9834  135.5994  154.4066 H   0  0  0  0  0  0  0  0  0  0  0  0  # atno 10765 bound_to 10752
  140.7698  134.3202  157.5078 H   0  0  0  0  0  0  0  0  0  0  0  0  # atno 11005 bound_to 11000
  145.8563  140.9500  143.0723 LP  0  0  0  0  0  0  0  0  0  0  0  0  # atno 17320 bound_to 7965
  144.6752  140.0472  143.7479 LP  0  0  0  0  0  0  0  0  0  0  0  0  # atno 17321 bound_to 7965
  140.7367  143.2756  151.3751 LP  0  0  0  0  0  0  0  0  0  0  0  0  # atno 17342 bound_to 10162
  139.6181  144.0962  152.2365 LP  0  0  0  0  0  0  0  0  0  0  0  0  # atno 17343 bound_to 10162
  156.1731  130.3647  149.9138 LP  0  0  0  0  0  0  0  0  0  0  0  0  # atno 17370 bound_to 10713
  156.7109  130.8969  151.3609 LP  0  0  0  0  0  0  0  0  0  0  0  0  # atno 17371 bound_to 10713
  139.8757  134.9253  156.3373 LP  0  0  0  0  0  0  0  0  0  0  0  0  # atno 17394 bound_to 11000
  140.9585  133.7404  156.0368 LP  0  0  0  0  0  0  0  0  0  0  0  0  # atno 17395 bound_to 11000

$$$$
