AV-unprocessed.smi:3183|AV-procd|sdf|12155|dock5
  -GOLD-   2272017593D 1   1.00000     0.00000
 Structure written by MMmdl.
 43 44  0  0  0  0  0  0  0  0  2 V2000
  152.3554  143.5208  162.1308 C   0  0  0  0  0  0  0  0  0  0  0  0
  152.5519  143.6772  160.6124 C   0  0  2  0  0  0  0  0  0  0  0  0
  151.6426  144.8043  160.0825 C   0  0  0  0  0  0  0  0  0  0  0  0
  151.8068  145.0192  158.5699 C   0  0  0  0  0  0  0  0  0  0  0  0
  151.5674  143.7253  157.7746 C   0  0  2  0  0  0  0  0  0  0  0  0
  150.1365  143.3454  157.7998 N   0  3  0  0  0  0  0  0  0  0  0  0
  149.8291  142.0326  157.1987 C   0  0  0  0  0  0  0  0  0  0  0  0
  150.6779  141.7899  155.9420 C   0  0  0  0  0  0  0  0  0  0  0  0
  150.2836  140.5753  155.1571 C   0  0  0  0  0  0  0  0  0  0  0  0
  149.1387  140.2902  154.4636 C   0  0  0  0  0  0  0  0  0  0  0  0
  149.3629  138.9889  153.9368 C   0  0  0  0  0  0  0  0  0  0  0  0
  150.5451  138.5046  154.2722 N   0  0  0  0  0  0  0  0  0  0  0  0
  151.1126  139.4737  155.0202 N   0  0  0  0  0  0  0  0  0  0  0  0
  152.4426  139.2433  155.5518 C   0  0  0  0  0  0  0  0  0  0  0  0
  152.4494  142.5828  158.3101 C   0  0  0  0  0  0  0  0  0  0  0  0
  152.3033  142.3588  159.8321 C   0  0  1  0  0  0  0  0  0  0  0  0
  153.2325  141.2161  160.2798 C   0  0  0  0  0  0  0  0  0  0  0  0
  151.3587  143.1454  162.3658 H   0  0  0  0  0  0  0  0  0  0  0  0
  152.4775  144.4761  162.6421 H   0  0  0  0  0  0  0  0  0  0  0  0
  153.0835  142.8367  162.5658 H   0  0  0  0  0  0  0  0  0  0  0  0
  153.5865  143.9810  160.4456 H   0  0  0  0  0  0  0  0  0  0  0  0
  150.6005  144.5757  160.3106 H   0  0  0  0  0  0  0  0  0  0  0  0
  151.8683  145.7367  160.6016 H   0  0  0  0  0  0  0  0  0  0  0  0
  151.1334  145.8058  158.2267 H   0  0  0  0  0  0  0  0  0  0  0  0
  152.8174  145.3789  158.3721 H   0  0  0  0  0  0  0  0  0  0  0  0
  151.8583  143.9135  156.7397 H   0  0  0  0  0  0  0  0  0  0  0  0
  149.8292  143.3365  158.7619 H   0  0  0  0  0  0  0  0  0  0  0  0
  150.0191  141.2507  157.9355 H   0  0  0  0  0  0  0  0  0  0  0  0
  148.7682  141.9958  156.9470 H   0  0  0  0  0  0  0  0  0  0  0  0
  150.6140  142.6658  155.2949 H   0  0  0  0  0  0  0  0  0  0  0  0
  151.7257  141.6994  156.2317 H   0  0  0  0  0  0  0  0  0  0  0  0
  148.2659  140.9154  154.3467 H   0  0  0  0  0  0  0  0  0  0  0  0
  148.7072  138.3865  153.3256 H   0  0  0  0  0  0  0  0  0  0  0  0
  152.7854  140.0994  156.1317 H   0  0  0  0  0  0  0  0  0  0  0  0
  153.1411  139.0734  154.7319 H   0  0  0  0  0  0  0  0  0  0  0  0
  152.4326  138.3645  156.1972 H   0  0  0  0  0  0  0  0  0  0  0  0
  152.2221  141.6616  157.7714 H   0  0  0  0  0  0  0  0  0  0  0  0
  153.4923  142.8108  158.0844 H   0  0  0  0  0  0  0  0  0  0  0  0
  151.2788  142.0382  160.0271 H   0  0  0  0  0  0  0  0  0  0  0  0
  154.2819  141.4994  160.1909 H   0  0  0  0  0  0  0  0  0  0  0  0
  153.0787  140.3245  159.6717 H   0  0  0  0  0  0  0  0  0  0  0  0
  153.0498  140.9267  161.3145 H   0  0  0  0  0  0  0  0  0  0  0  0
  149.6133  144.0535  157.3048 H   0  0  0  0  0  0  0  0  0  0  0  0
  1  2  1  0  0  0  0
  1 18  1  0  0  0  0
  1 19  1  0  0  0  0
  1 20  1  0  0  0  0
  2 16  1  0  0  0  0
  2  3  1  0  0  0  0
  2 21  1  0  0  0  0
  3  4  1  0  0  0  0
  3 22  1  0  0  0  0
  3 23  1  0  0  0  0
  4  5  1  0  0  0  0
  4 24  1  0  0  0  0
  4 25  1  0  0  0  0
  5  6  1  0  0  0  0
  5 15  1  0  0  0  0
  5 26  1  0  0  0  0
  6  7  1  0  0  0  0
  6 27  1  0  0  0  0
  6 43  1  0  0  0  0
  7  8  1  0  0  0  0
  7 28  1  0  0  0  0
  7 29  1  0  0  0  0
  8  9  1  0  0  0  0
  8 30  1  0  0  0  0
  8 31  1  0  0  0  0
  9 13  1  0  0  0  0
  9 10  2  0  0  0  0
 10 11  1  0  0  0  0
 10 32  1  0  0  0  0
 11 12  2  0  0  0  0
 11 33  1  0  0  0  0
 12 13  1  0  0  0  0
 13 14  1  0  0  0  0
 14 34  1  0  0  0  0
 14 35  1  0  0  0  0
 14 36  1  0  0  0  0
 15 16  1  0  0  0  0
 15 37  1  0  0  0  0
 15 38  1  0  0  0  0
 16 17  1  0  0  0  0
 16 39  1  0  0  0  0
 17 40  1  0  0  0  0
 17 41  1  0  0  0  0
 17 42  1  0  0  0  0
M  CHG  1   6   1
M  END
> <s_m_source_file>
AV-unprocessed.smi

> <i_m_source_file_index>
3183

> <i_lp_mmshare_version>
43012

> <i_f3d_flags>
0

> <s_epik_input>
W0NIM11bQ0BASF0xW0NIMl1bQ0gyXVtDQEhdKFtDSDJdW0NASF0xW0NIM10pW05IXVtDSDJdW0NIMl1jMltjSF1bY0hdbm4yW0NIM10=

> <s_epik_cmdline>
J2VwaWtfcHl0aG9uJywgJy1waCcsICc3LjAnLCAnLXRuJywgJzgnLCAnLW1hJywgJzIwMCcsICctbWV0YWxfYmluZGluZycsICctaW1hZScsICc8aW5maWxlLm1hZT4nLCAnLW9tYWUnLCAnPG91dGZpbGUubWFlPic=

> <r_lp_tautomer_probability>
1

> <r_epik_Ionization_Penalty>
0.000327718

> <r_epik_Ionization_Penalty_Charging>
0.000294043

> <r_epik_Ionization_Penalty_Neutral>
3.36755e-05

> <r_epik_State_Penalty>
-0

> <r_epik_Charging_Adjusted_Penalty>
0.000294043

> <i_epik_Tot_Q>
1

> <i_epik_Tot_abs_Q>
1

> <r_epik_Metal_State_Penalty>
-0

> <b_epik_Metal_Only>
0

> <s_lp_Force_Field>
OPLS_2005

> <r_lp_Energy>
17.888

> <b_lp_Chiralities_Consistent>
1

> <s_lp_Variant>
AV-unprocessed.smi:3183-3

> <Gold.Version>
5.8.1

> <Gold.Id.Protein>
6NUR|6NUR_protein|mol2

> <Gold.PLP.Fitness>
54.0895

> <Gold.PLP.PLP>
-45.4642

> <Gold.PLP.part.hbond>
-1.0000

> <Gold.PLP.part.metal>
0.0000

> <Gold.PLP.part.buried>
-2.4853

> <Gold.PLP.part.nonpolar>
-41.6698

> <Gold.PLP.part.repulsive>
0.2181

> <Gold.PLP.ligand.clash>
0.0000

> <Gold.PLP.ligand.torsion>
0.1939

> <Gold.PLP.Chemscore.Hbond>
2.0000

> <Gold.PLP.Chemscore.CHOScore>
1.0000

> <Gold.PLP.Chemscore.Metal>
0.0000

> <Gold.Chemscore.Hbonds>
donor molecule, donor type, donor heavy atom, donor atom, acceptor molecule, acceptor atom, score
      L1  H     6    43       P1  8028  2.00
      L1  C    11    33       P1  7948  0.84
      L1  C    11    33       P1  7957  0.02

> <Gold.PLP.Chemscore.Internal.Correction>
0.0132

> <Gold.Rescore>
     Score         DG    S(hbond)    S(metal)    S(lipo)     H(rot)  DE(clash)    DE(int)     intcor
     19.88     -20.29       0.78        0.00     134.37       1.38       0.20       0.20       ----

> <Gold.Chemscore.Fitness>
19.8842

> <Gold.Chemscore.DG>
-20.2887

> <Gold.Chemscore.ZeroCoef>
-5.4800

> <Gold.Chemscore.Hbond>
0.7820

> <Gold.Chemscore.Metal>
0.0000

> <Gold.Chemscore.Lipo>
134.3717

> <Gold.Chemscore.Internal_Hbond>
0.0000

> <Gold.Chemscore.DEClash>
0.2043

> <Gold.Chemscore.DEInternal>
0.2002

> <Gold.Chemscore.Rot>
1.3768

> <Gold.Chemscore.Internal.Correction>
   9.000000E+99

> <Gold.Chemscore.Hbonds>
donor molecule, donor type, donor heavy atom, donor atom, acceptor molecule, acceptor atom, score
      L1  H     6    43       P1  8028  0.43

> <Gold.Chemscore.Hbond.Weighted>
-2.6119

> <Gold.Chemscore.Metal.Weighted>
-0.0000

> <Gold.Chemscore.Lipo.Weighted>
-15.7215

> <Gold.Chemscore.Internal_Hbond.Weighted>
0.0000

> <Gold.Chemscore.DEClash.Weighted>
0.2043

> <Gold.Chemscore.DEInternal.Weighted>
0.2002

> <Gold.Chemscore.Rot.Weighted>
3.5247

> <Gold.Chemscore.Internal.Correction.Weighted>
   9.000000E+99

> <Gold.Protein.RotatedTorsions>
[ 6907 6896 6895 6894 ] final -132.02 input  -60.11 | X-H torsion
[ 7974 7965 7964 7962 ] final   82.28 input  175.53 | X-H torsion
[ 8008 7997 7996 7995 ] final  -11.05 input   59.86 | X-H torsion
[ 10167 10162 10161 10158 ] final -149.46 input  -65.29 | X-H torsion
[ 10718 10713 10712 10709 ] final  138.88 input   66.30 | X-H torsion
[ 10763 10752 10751 10750 ] final  157.27 input  -60.55 | X-H torsion
[ 11005 11000 10999 10996 ] final  145.63 input  -57.11 | X-H torsion

> <Gold.Protein.ActiveResidues>
 VAL166  LYS551  ARG553  GLY616  TRP617  ASP618  TYR619  PRO620  LYS621  CYS622 
 ASP623  PHE694  ASN695  SER759  ASP760  ASP761  ALA762  ILE779  LEU786  VAL792 
 PHE793  MET794  SER795  GLU796  ALA797  LYS798  CYS799  TRP800  GLU811  SER814 

> <Gold.Protein.RotatedAtoms>
  150.9576  133.6480  159.2759 H   0  0  0  0  0  0  0  0  0  0  0  0  # atno 6907 bound_to 6896
  151.3814  135.0939  159.9507 H   0  0  0  0  0  0  0  0  0  0  0  0  # atno 6908 bound_to 6896
  152.5135  133.9110  159.7542 H   0  0  0  0  0  0  0  0  0  0  0  0  # atno 6909 bound_to 6896
  145.6271  139.2397  143.2105 H   0  0  0  0  0  0  0  0  0  0  0  0  # atno 7974 bound_to 7965
  154.5499  140.2313  155.8501 H   0  0  0  0  0  0  0  0  0  0  0  0  # atno 8008 bound_to 7997
  156.1937  140.3070  155.9345 H   0  0  0  0  0  0  0  0  0  0  0  0  # atno 8009 bound_to 7997
  155.3090  140.0435  157.3024 H   0  0  0  0  0  0  0  0  0  0  0  0  # atno 8010 bound_to 7997
  139.7441  143.8618  152.2570 H   0  0  0  0  0  0  0  0  0  0  0  0  # atno 10167 bound_to 10162
  157.4205  131.1038  151.0358 H   0  0  0  0  0  0  0  0  0  0  0  0  # atno 10718 bound_to 10713
  154.1976  135.2792  155.3001 H   0  0  0  0  0  0  0  0  0  0  0  0  # atno 10763 bound_to 10752
  154.5880  135.5569  153.7253 H   0  0  0  0  0  0  0  0  0  0  0  0  # atno 10764 bound_to 10752
  153.0096  135.6361  154.2114 H   0  0  0  0  0  0  0  0  0  0  0  0  # atno 10765 bound_to 10752
  140.0728  134.9142  157.1373 H   0  0  0  0  0  0  0  0  0  0  0  0  # atno 11005 bound_to 11000
  146.1385  140.7089  142.9378 LP  0  0  0  0  0  0  0  0  0  0  0  0  # atno 17320 bound_to 7965
  144.7208  140.4366  143.7010 LP  0  0  0  0  0  0  0  0  0  0  0  0  # atno 17321 bound_to 7965
  139.8577  144.7133  150.9137 LP  0  0  0  0  0  0  0  0  0  0  0  0  # atno 17342 bound_to 10162
  140.7790  143.3844  151.1419 LP  0  0  0  0  0  0  0  0  0  0  0  0  # atno 17343 bound_to 10162
  157.1290  130.6094  149.5524 LP  0  0  0  0  0  0  0  0  0  0  0  0  # atno 17370 bound_to 10713
  155.9879  130.4920  150.7146 LP  0  0  0  0  0  0  0  0  0  0  0  0  # atno 17371 bound_to 10713
  140.3602  134.2502  155.7188 LP  0  0  0  0  0  0  0  0  0  0  0  0  # atno 17394 bound_to 11000
  141.2018  133.7953  157.0422 LP  0  0  0  0  0  0  0  0  0  0  0  0  # atno 17395 bound_to 11000

$$$$
