AV-unprocessed.smi:1740|AV-procd|sdf|7011|dock4
  -GOLD-   22720 8223D 1   1.00000     0.00000
 Structure written by MMmdl.
 53 55  0  0  0  0  0  0  0  0  3 V2000
  146.6963  135.4231  153.2443 N   0  0  0  0  0  0  0  0  0  0  0  0
  146.3467  136.1291  154.3215 C   0  0  0  0  0  0  0  0  0  0  0  0
  145.5562  135.6976  155.1590 O   0  0  0  0  0  0  0  0  0  0  0  0
  146.9927  137.5093  154.4831 C   0  0  0  0  0  0  0  0  0  0  0  0
  148.4772  137.4618  154.4512 N   0  3  2  0  0  0  0  0  0  0  0  0
  149.0664  136.7827  155.6359 C   0  0  0  0  0  0  0  0  0  0  0  0
  150.5881  136.6146  155.4776 C   0  0  0  0  0  0  0  0  0  0  0  0
  151.2962  137.9529  155.2023 C   0  0  2  0  0  0  0  0  0  0  0  0
  151.3363  138.7784  156.4097 N   0  0  0  0  0  0  0  0  0  0  0  0
  151.5735  140.0983  156.4289 C   0  0  0  0  0  0  0  0  0  0  0  0
  151.7699  140.7703  155.4166 O   0  0  0  0  0  0  0  0  0  0  0  0
  151.5448  140.5888  157.6792 N   0  0  0  0  0  0  0  0  0  0  0  0
  151.7433  141.9422  158.0722 C   0  0  0  0  0  0  0  0  0  0  0  0
  151.2914  143.0055  157.2493 C   0  0  0  0  0  0  0  0  0  0  0  0
  151.5590  144.3384  157.6127 C   0  0  0  0  0  0  0  0  0  0  0  0
  152.2900  144.5886  158.7865 C   0  0  0  0  0  0  0  0  0  0  0  0
  152.7156  143.5553  159.5424 N   0  3  0  0  0  0  0  0  0  0  0  0
  152.4765  142.2511  159.2547 C   0  0  0  0  0  0  0  0  0  0  0  0
  152.9700  141.2761  160.1518 N   0  0  0  0  0  0  0  0  0  0  0  0
  153.7736  140.1619  159.6606 C   0  0  0  0  0  0  0  0  0  0  0  0
  154.4301  139.5662  160.9031 C   0  0  0  0  0  0  0  0  0  0  0  0
  154.6729  140.7989  161.7684 C   0  0  0  0  0  0  0  0  0  0  0  0
  153.4778  141.7035  161.4522 C   0  0  0  0  0  0  0  0  0  0  0  0
  150.6079  138.6857  154.0336 C   0  0  0  0  0  0  0  0  0  0  0  0
  149.0862  138.7983  154.2342 C   0  0  0  0  0  0  0  0  0  0  0  0
  146.3002  134.5052  153.0987 H   0  0  0  0  0  0  0  0  0  0  0  0
  147.3570  135.7995  152.5798 H   0  0  0  0  0  0  0  0  0  0  0  0
  146.6264  138.1214  153.6579 H   0  0  0  0  0  0  0  0  0  0  0  0
  146.6523  137.9872  155.4033 H   0  0  0  0  0  0  0  0  0  0  0  0
  148.8401  137.3555  156.5363 H   0  0  0  0  0  0  0  0  0  0  0  0
  148.6139  135.7999  155.7694 H   0  0  0  0  0  0  0  0  0  0  0  0
  151.0084  136.1377  156.3639 H   0  0  0  0  0  0  0  0  0  0  0  0
  150.7820  135.9328  154.6484 H   0  0  0  0  0  0  0  0  0  0  0  0
  152.3250  137.7280  154.9145 H   0  0  0  0  0  0  0  0  0  0  0  0
  151.1904  138.3079  157.2910 H   0  0  0  0  0  0  0  0  0  0  0  0
  151.2587  139.9539  158.4102 H   0  0  0  0  0  0  0  0  0  0  0  0
  150.7592  142.8142  156.3291 H   0  0  0  0  0  0  0  0  0  0  0  0
  151.2192  145.1552  156.9925 H   0  0  0  0  0  0  0  0  0  0  0  0
  152.5489  145.5760  159.1405 H   0  0  0  0  0  0  0  0  0  0  0  0
  153.1605  139.4284  159.1360 H   0  0  0  0  0  0  0  0  0  0  0  0
  154.5454  140.5186  158.9773 H   0  0  0  0  0  0  0  0  0  0  0  0
  153.7369  138.8895  161.4050 H   0  0  0  0  0  0  0  0  0  0  0  0
  155.3429  139.0139  160.6783 H   0  0  0  0  0  0  0  0  0  0  0  0
  154.7599  140.5654  162.8299 H   0  0  0  0  0  0  0  0  0  0  0  0
  155.5965  141.2881  161.4554 H   0  0  0  0  0  0  0  0  0  0  0  0
  153.7659  142.7557  161.4588 H   0  0  0  0  0  0  0  0  0  0  0  0
  152.6942  141.5600  162.1966 H   0  0  0  0  0  0  0  0  0  0  0  0
  151.0417  139.6762  153.8916 H   0  0  0  0  0  0  0  0  0  0  0  0
  150.8017  138.1395  153.1095 H   0  0  0  0  0  0  0  0  0  0  0  0
  148.6465  139.2652  153.3520 H   0  0  0  0  0  0  0  0  0  0  0  0
  148.8589  139.4469  155.0817 H   0  0  0  0  0  0  0  0  0  0  0  0
  148.7183  136.9056  153.6426 H   0  0  0  0  0  0  0  0  0  0  0  0
  153.2430  143.7704  160.3885 H   0  0  0  0  0  0  0  0  0  0  0  0
  1  2  1  0  0  0  0
  1 26  1  0  0  0  0
  1 27  1  0  0  0  0
  2  3  2  0  0  0  0
  2  4  1  0  0  0  0
  4  5  1  0  0  0  0
  4 28  1  0  0  0  0
  4 29  1  0  0  0  0
  5 25  1  0  0  0  0
  5  6  1  0  0  0  0
  5 52  1  0  0  0  0
  6  7  1  0  0  0  0
  6 30  1  0  0  0  0
  6 31  1  0  0  0  0
  7  8  1  0  0  0  0
  7 32  1  0  0  0  0
  7 33  1  0  0  0  0
  8  9  1  0  0  0  0
  8 24  1  0  0  0  0
  8 34  1  0  0  0  0
  9 10  1  0  0  0  0
  9 35  1  0  0  0  0
 10 11  2  0  0  0  0
 10 12  1  0  0  0  0
 12 13  1  0  0  0  0
 12 36  1  0  0  0  0
 13 18  1  0  0  0  0
 13 14  2  0  0  0  0
 14 15  1  0  0  0  0
 14 37  1  0  0  0  0
 15 16  2  0  0  0  0
 15 38  1  0  0  0  0
 16 17  1  0  0  0  0
 16 39  1  0  0  0  0
 17 18  2  0  0  0  0
 17 53  1  0  0  0  0
 18 19  1  0  0  0  0
 19 23  1  0  0  0  0
 19 20  1  0  0  0  0
 20 21  1  0  0  0  0
 20 40  1  0  0  0  0
 20 41  1  0  0  0  0
 21 22  1  0  0  0  0
 21 42  1  0  0  0  0
 21 43  1  0  0  0  0
 22 23  1  0  0  0  0
 22 44  1  0  0  0  0
 22 45  1  0  0  0  0
 23 46  1  0  0  0  0
 23 47  1  0  0  0  0
 24 25  1  0  0  0  0
 24 48  1  0  0  0  0
 24 49  1  0  0  0  0
 25 50  1  0  0  0  0
 25 51  1  0  0  0  0
M  CHG  1   5   1
M  CHG  1  17   1
M  END
> <s_m_source_file>
AV-unprocessed.smi

> <i_m_source_file_index>
1740

> <i_lp_mmshare_version>
43012

> <i_f3d_flags>
0

> <s_epik_input>
W05IMl1DKD1PKVtDSDJdTjFbQ0gyXVtDSDJdW0NIXShbQ0gyXVtDSDJdMSlbTkhdQyg9TylbTkhdYzJbY0hdW2NIXVtjSF1uYzJOM1tDSDJdW0NIMl1bQ0gyXVtDSDJdMw==

> <s_epik_cmdline>
J2VwaWtfcHl0aG9uJywgJy1waCcsICc3LjAnLCAnLXRuJywgJzgnLCAnLW1hJywgJzIwMCcsICctbWV0YWxfYmluZGluZycsICctaW1hZScsICc8aW5maWxlLm1hZT4nLCAnLW9tYWUnLCAnPG91dGZpbGUubWFlPic=

> <r_lp_tautomer_probability>
0.999994

> <r_epik_Ionization_Penalty>
2.11361

> <r_epik_Ionization_Penalty_Charging>
2.11355

> <r_epik_Ionization_Penalty_Neutral>
5.98217e-05

> <r_epik_State_Penalty>
2.13444

> <r_epik_Charging_Adjusted_Penalty>
4.24799

> <i_epik_Tot_Q>
2

> <i_epik_Tot_abs_Q>
2

> <r_epik_Metal_State_Penalty>
2.23528

> <b_epik_Metal_Only>
0

> <s_lp_Force_Field>
OPLS_2005

> <r_lp_Energy>
48.4513

> <b_lp_Chiralities_Consistent>
1

> <s_lp_Variant>
AV-unprocessed.smi:1740-6

> <Gold.Version>
5.8.1

> <Gold.Id.Protein>
6NUR|6NUR_protein|mol2

> <Gold.PLP.Fitness>
50.7494

> <Gold.PLP.PLP>
-41.1150

> <Gold.PLP.part.hbond>
-3.0000

> <Gold.PLP.part.metal>
0.0000

> <Gold.PLP.part.buried>
-3.2162

> <Gold.PLP.part.nonpolar>
-34.4703

> <Gold.PLP.part.repulsive>
0.1618

> <Gold.PLP.ligand.clash>
0.0000

> <Gold.PLP.ligand.torsion>
0.8207

> <Gold.PLP.Chemscore.Hbond>
3.6240

> <Gold.PLP.Chemscore.CHOScore>
0.0000

> <Gold.PLP.Chemscore.Metal>
0.0000

> <Gold.Chemscore.Hbonds>
donor molecule, donor type, donor heavy atom, donor atom, acceptor molecule, acceptor atom, score
      L1  H     1    27       P1  7948  1.00
      L1  H     5    52       P1  7948  2.00
      P1  H  7989  7998       L1    11  0.61

> <Gold.PLP.Chemscore.Internal.Correction>
0.4039

> <Gold.Rescore>
     Score         DG    S(hbond)    S(metal)    S(lipo)     H(rot)  DE(clash)    DE(int)     intcor
     17.79     -21.17       2.68        0.00     106.28       2.22       0.08       3.30       ----

> <Gold.Chemscore.Fitness>
17.7919

> <Gold.Chemscore.DG>
-21.1668

> <Gold.Chemscore.ZeroCoef>
-5.4800

> <Gold.Chemscore.Hbond>
2.6757

> <Gold.Chemscore.Metal>
0.0000

> <Gold.Chemscore.Lipo>
106.2815

> <Gold.Chemscore.Internal_Hbond>
0.0000

> <Gold.Chemscore.DEClash>
0.0765

> <Gold.Chemscore.DEInternal>
3.2984

> <Gold.Chemscore.Rot>
2.2207

> <Gold.Chemscore.Internal.Correction>
   9.000000E+99

> <Gold.Chemscore.Hbonds>
donor molecule, donor type, donor heavy atom, donor atom, acceptor molecule, acceptor atom, score
      L1  H     1    27       P1  7948  0.99
      L1  H     5    52       P1  7948  1.00
      P1  H  7989  7998       L1    11  0.62

> <Gold.Chemscore.Hbond.Weighted>
-8.9368

> <Gold.Chemscore.Metal.Weighted>
-0.0000

> <Gold.Chemscore.Lipo.Weighted>
-12.4349

> <Gold.Chemscore.Internal_Hbond.Weighted>
0.0000

> <Gold.Chemscore.DEClash.Weighted>
0.0765

> <Gold.Chemscore.DEInternal.Weighted>
3.2984

> <Gold.Chemscore.Rot.Weighted>
5.6849

> <Gold.Chemscore.Internal.Correction.Weighted>
   9.000000E+99

> <Gold.Protein.RotatedTorsions>
[ 6907 6896 6895 6894 ] final  113.88 input  -60.11 | X-H torsion
[ 7974 7965 7964 7962 ] final  -12.49 input  175.53 | X-H torsion
[ 8008 7997 7996 7995 ] final -147.25 input   59.86 | X-H torsion
[ 10167 10162 10161 10158 ] final -141.24 input  -65.29 | X-H torsion
[ 10718 10713 10712 10709 ] final -102.24 input   66.30 | X-H torsion
[ 10763 10752 10751 10750 ] final  146.90 input  -60.55 | X-H torsion
[ 11005 11000 10999 10996 ] final  -85.15 input  -57.11 | X-H torsion

> <Gold.Protein.ActiveResidues>
 VAL166  LYS551  ARG553  GLY616  TRP617  ASP618  TYR619  PRO620  LYS621  CYS622 
 ASP623  PHE694  ASN695  SER759  ASP760  ASP761  ALA762  ILE779  LEU786  VAL792 
 PHE793  MET794  SER795  GLU796  ALA797  LYS798  CYS799  TRP800  GLU811  SER814 

> <Gold.Protein.RotatedAtoms>
  152.4835  133.8313  159.7104 H   0  0  0  0  0  0  0  0  0  0  0  0  # atno 6907 bound_to 6896
  150.8903  133.7243  159.2913 H   0  0  0  0  0  0  0  0  0  0  0  0  # atno 6908 bound_to 6896
  151.4718  135.1050  159.9806 H   0  0  0  0  0  0  0  0  0  0  0  0  # atno 6909 bound_to 6896
  146.2150  140.3065  142.8379 H   0  0  0  0  0  0  0  0  0  0  0  0  # atno 7974 bound_to 7965
  155.5726  140.0635  157.2803 H   0  0  0  0  0  0  0  0  0  0  0  0  # atno 8008 bound_to 7997
  154.4356  140.1866  156.0940 H   0  0  0  0  0  0  0  0  0  0  0  0  # atno 8009 bound_to 7997
  156.0365  140.3300  155.7200 H   0  0  0  0  0  0  0  0  0  0  0  0  # atno 8010 bound_to 7997
  139.8204  143.7582  152.2666 H   0  0  0  0  0  0  0  0  0  0  0  0  # atno 10167 bound_to 10162
  156.0222  130.5411  150.7080 H   0  0  0  0  0  0  0  0  0  0  0  0  # atno 10718 bound_to 10713
  154.0295  135.2899  155.3370 H   0  0  0  0  0  0  0  0  0  0  0  0  # atno 10763 bound_to 10752
  154.6996  135.5193  153.8511 H   0  0  0  0  0  0  0  0  0  0  0  0  # atno 10764 bound_to 10752
  153.0646  135.6626  154.0509 H   0  0  0  0  0  0  0  0  0  0  0  0  # atno 10765 bound_to 10752
  141.1644  133.7384  156.8972 H   0  0  0  0  0  0  0  0  0  0  0  0  # atno 11005 bound_to 11000
  144.9019  140.7653  143.5862 LP  0  0  0  0  0  0  0  0  0  0  0  0  # atno 17320 bound_to 7965
  145.2992  139.1856  143.4699 LP  0  0  0  0  0  0  0  0  0  0  0  0  # atno 17321 bound_to 7965
  139.7758  144.7461  151.0159 LP  0  0  0  0  0  0  0  0  0  0  0  0  # atno 17342 bound_to 10162
  140.7813  143.4595  151.0297 LP  0  0  0  0  0  0  0  0  0  0  0  0  # atno 17343 bound_to 10162
  157.4725  131.0894  151.0627 LP  0  0  0  0  0  0  0  0  0  0  0  0  # atno 17370 bound_to 10713
  157.1083  130.6011  149.5476 LP  0  0  0  0  0  0  0  0  0  0  0  0  # atno 17371 bound_to 10713
  140.1607  134.9167  157.2711 LP  0  0  0  0  0  0  0  0  0  0  0  0  # atno 17394 bound_to 11000
  140.2614  134.3567  155.7405 LP  0  0  0  0  0  0  0  0  0  0  0  0  # atno 17395 bound_to 11000

$$$$
