AV-unprocessed.smi:52|AV-procd|sdf|510|dock6
  -GOLD-   2262016383D 1   1.00000     0.00000
 Structure written by MMmdl.
 27 28  0  0  0  0  0  0  0  0  3 V2000
  146.5002  137.7194  161.4077 O   0  0  0  0  0  0  0  0  0  0  0  0
  146.8978  136.6950  162.0050 C   0  0  0  0  0  0  0  0  0  0  0  0
  148.0443  136.6198  162.4988 O   0  5  0  0  0  0  0  0  0  0  0  0
  145.9826  135.5314  162.1265 C   0  0  0  0  0  0  0  0  0  0  0  0
  146.3126  134.2649  162.5384 C   0  0  0  0  0  0  0  0  0  0  0  0
  145.1910  133.4807  162.5259 O   0  0  0  0  0  0  0  0  0  0  0  0
  144.2055  134.3149  162.0966 C   0  0  0  0  0  0  0  0  0  0  0  0
  142.8107  133.7940  161.9877 C   0  0  0  0  0  0  0  0  0  0  0  0
  142.8690  132.8385  160.8564 N   0  3  1  0  0  0  0  0  0  0  0  0
  143.6452  131.5954  161.1034 C   0  0  0  0  0  0  0  0  0  0  0  0
  142.7962  130.4294  160.5808 C   0  0  0  0  0  0  0  0  0  0  0  0
  141.7797  131.0949  159.6580 C   0  0  1  0  0  0  0  0  0  0  0  0
  140.5921  130.3407  159.5416 O   0  0  0  0  0  0  0  0  0  0  0  0
  141.5447  132.4410  160.3383 C   0  0  0  0  0  0  0  0  0  0  0  0
  144.6233  135.5519  161.8414 N   0  0  0  0  0  0  0  0  0  0  0  0
  142.2170  131.2479  158.6701 H   0  0  0  0  0  0  0  0  0  0  0  0
  147.2336  133.7980  162.8557 H   0  0  0  0  0  0  0  0  0  0  0  0
  142.4952  133.3140  162.9150 H   0  0  0  0  0  0  0  0  0  0  0  0
  142.1335  134.6203  161.7688 H   0  0  0  0  0  0  0  0  0  0  0  0
  144.5894  131.6637  160.5623 H   0  0  0  0  0  0  0  0  0  0  0  0
  143.8808  131.4531  162.1592 H   0  0  0  0  0  0  0  0  0  0  0  0
  143.3891  129.6651  160.0777 H   0  0  0  0  0  0  0  0  0  0  0  0
  142.2854  129.9549  161.4204 H   0  0  0  0  0  0  0  0  0  0  0  0
  140.1737  130.5578  158.7221 H   0  0  0  0  0  0  0  0  0  0  0  0
  140.8518  132.3217  161.1737 H   0  0  0  0  0  0  0  0  0  0  0  0
  141.1326  133.1904  159.6617 H   0  0  0  0  0  0  0  0  0  0  0  0
  143.3345  133.3134  160.0960 H   0  0  0  0  0  0  0  0  0  0  0  0
  1  2  2  0  0  0  0
  2  3  1  0  0  0  0
  2  4  1  0  0  0  0
  4 15  1  0  0  0  0
  4  5  2  0  0  0  0
  5  6  1  0  0  0  0
  5 17  1  0  0  0  0
  6  7  1  0  0  0  0
  7  8  1  0  0  0  0
  7 15  2  0  0  0  0
  8  9  1  0  0  0  0
  8 18  1  0  0  0  0
  8 19  1  0  0  0  0
  9 14  1  0  0  0  0
  9 10  1  0  0  0  0
  9 27  1  0  0  0  0
 10 11  1  0  0  0  0
 10 20  1  0  0  0  0
 10 21  1  0  0  0  0
 11 12  1  0  0  0  0
 11 22  1  0  0  0  0
 11 23  1  0  0  0  0
 12 16  1  0  0  0  0
 12 13  1  0  0  0  0
 12 14  1  0  0  0  0
 13 24  1  0  0  0  0
 14 25  1  0  0  0  0
 14 26  1  0  0  0  0
M  CHG  1   3  -1
M  CHG  1   9   1
M  END
> <s_m_source_file>
AV-unprocessed.smi

> <i_m_source_file_index>
52

> <i_lp_mmshare_version>
43012

> <i_f3d_flags>
0

> <s_epik_input>
Tz1DKFtPSF0pYzFbY0hdb2MobjEpW0NIMl1OMltDSDJdW0NIMl1bQ0BIXShbT0hdKVtDSDJdMg==

> <s_epik_cmdline>
J2VwaWtfcHl0aG9uJywgJy1waCcsICc3LjAnLCAnLXRuJywgJzgnLCAnLW1hJywgJzIwMCcsICctbWV0YWxfYmluZGluZycsICctaW1hZScsICc8aW5maWxlLm1hZT4nLCAnLW9tYWUnLCAnPG91dGZpbGUubWFlPic=

> <r_epik_Ionization_Penalty>
0.0376014

> <r_epik_Ionization_Penalty_Charging>
0.0376013

> <r_epik_Ionization_Penalty_Neutral>
1.78687e-08

> <r_epik_State_Penalty>
0.0314164

> <r_epik_Charging_Adjusted_Penalty>
0.0690177

> <i_epik_Tot_Q>
0

> <i_epik_Tot_abs_Q>
2

> <r_epik_Metal_State_Penalty>
0.0314164

> <b_epik_Metal_Only>
0

> <s_lp_Force_Field>
OPLS_2005

> <r_lp_Energy>
19.8896

> <b_lp_Chiralities_Consistent>
1

> <s_lp_Variant>
AV-unprocessed.smi:52-4

> <Gold.Version>
5.8.1

> <Gold.Id.Protein>
6NUR|6NUR_protein|mol2

> <Gold.PLP.Fitness>
39.3775

> <Gold.PLP.PLP>
-24.8406

> <Gold.PLP.part.hbond>
-3.3960

> <Gold.PLP.part.metal>
0.0000

> <Gold.PLP.part.buried>
-4.9042

> <Gold.PLP.part.nonpolar>
-16.7750

> <Gold.PLP.part.repulsive>
0.0742

> <Gold.PLP.ligand.clash>
0.0000

> <Gold.PLP.ligand.torsion>
0.2014

> <Gold.PLP.Chemscore.Hbond>
4.9760

> <Gold.PLP.Chemscore.CHOScore>
0.0000

> <Gold.PLP.Chemscore.Metal>
0.0000

> <Gold.Chemscore.Hbonds>
donor molecule, donor type, donor heavy atom, donor atom, acceptor molecule, acceptor atom, score
      L1  H    13    24       P1 10998  0.83
      P1  H  6931  6943       L1     3  2.00
      P1  H  6934  6947       L1     1  2.00

> <Gold.PLP.Chemscore.Internal.Correction>
0.0117

> <Gold.Rescore>
     Score         DG    S(hbond)    S(metal)    S(lipo)     H(rot)  DE(clash)    DE(int)     intcor
     13.47     -15.03       2.92        0.00      41.73       1.99       0.00       1.56       ----

> <Gold.Chemscore.Fitness>
13.4658

> <Gold.Chemscore.DG>
-15.0267

> <Gold.Chemscore.ZeroCoef>
-5.4800

> <Gold.Chemscore.Hbond>
2.9232

> <Gold.Chemscore.Metal>
0.0000

> <Gold.Chemscore.Lipo>
41.7290

> <Gold.Chemscore.Internal_Hbond>
0.0000

> <Gold.Chemscore.DEClash>
0.0000

> <Gold.Chemscore.DEInternal>
1.5609

> <Gold.Chemscore.Rot>
1.9919

> <Gold.Chemscore.Internal.Correction>
   9.000000E+99

> <Gold.Chemscore.Hbonds>
donor molecule, donor type, donor heavy atom, donor atom, acceptor molecule, acceptor atom, score
      L1  H    13    24       P1 10998  0.78
      P1  H  6931  6943       L1     3  0.63
      P1  H  6934  6947       L1     1  0.91

> <Gold.Chemscore.Hbond.Weighted>
-9.7636

> <Gold.Chemscore.Metal.Weighted>
-0.0000

> <Gold.Chemscore.Lipo.Weighted>
-4.8823

> <Gold.Chemscore.Internal_Hbond.Weighted>
0.0000

> <Gold.Chemscore.DEClash.Weighted>
0.0000

> <Gold.Chemscore.DEInternal.Weighted>
1.5609

> <Gold.Chemscore.Rot.Weighted>
5.0991

> <Gold.Chemscore.Internal.Correction.Weighted>
   9.000000E+99

> <Gold.Protein.RotatedTorsions>
[ 6907 6896 6895 6894 ] final   57.04 input  -60.11 | X-H torsion
[ 7974 7965 7964 7962 ] final   74.24 input  175.53 | X-H torsion
[ 8008 7997 7996 7995 ] final  110.37 input   59.86 | X-H torsion
[ 10167 10162 10161 10158 ] final -175.26 input  -65.29 | X-H torsion
[ 10718 10713 10712 10709 ] final   71.74 input   66.30 | X-H torsion
[ 10763 10752 10751 10750 ] final   89.33 input  -60.55 | X-H torsion
[ 11005 11000 10999 10996 ] final -156.64 input  -57.11 | X-H torsion

> <Gold.Protein.ActiveResidues>
 VAL166  LYS551  ARG553  GLY616  TRP617  ASP618  TYR619  PRO620  LYS621  CYS622 
 ASP623  PHE694  ASN695  SER759  ASP760  ASP761  ALA762  ILE779  LEU786  VAL792 
 PHE793  MET794  SER795  GLU796  ALA797  LYS798  CYS799  TRP800  GLU811  SER814 

> <Gold.Protein.RotatedAtoms>
  152.3694  134.6756  160.0180 H   0  0  0  0  0  0  0  0  0  0  0  0  # atno 6907 bound_to 6896
  151.7054  133.3306  159.3285 H   0  0  0  0  0  0  0  0  0  0  0  0  # atno 6908 bound_to 6896
  150.7662  134.6514  159.6335 H   0  0  0  0  0  0  0  0  0  0  0  0  # atno 6909 bound_to 6896
  145.7308  139.2683  143.1542 H   0  0  0  0  0  0  0  0  0  0  0  0  # atno 7974 bound_to 7965
  156.2047  140.3040  155.9602 H   0  0  0  0  0  0  0  0  0  0  0  0  # atno 8008 bound_to 7997
  155.2869  140.0440  157.3037 H   0  0  0  0  0  0  0  0  0  0  0  0  # atno 8009 bound_to 7997
  154.5618  140.2322  155.8333 H   0  0  0  0  0  0  0  0  0  0  0  0  # atno 8010 bound_to 7997
  139.5590  144.1917  152.1207 H   0  0  0  0  0  0  0  0  0  0  0  0  # atno 10167 bound_to 10162
  157.6467  130.9543  150.0831 H   0  0  0  0  0  0  0  0  0  0  0  0  # atno 10718 bound_to 10713
  153.1859  135.4474  155.0088 H   0  0  0  0  0  0  0  0  0  0  0  0  # atno 10763 bound_to 10752
  154.8060  135.3274  154.7432 H   0  0  0  0  0  0  0  0  0  0  0  0  # atno 10764 bound_to 10752
  153.7891  135.6971  153.4930 H   0  0  0  0  0  0  0  0  0  0  0  0  # atno 10765 bound_to 10752
  140.6733  134.4223  157.5230 H   0  0  0  0  0  0  0  0  0  0  0  0  # atno 11005 bound_to 11000
  146.0539  140.8040  142.9768 LP  0  0  0  0  0  0  0  0  0  0  0  0  # atno 17320 bound_to 7965
  144.6893  140.3095  143.7250 LP  0  0  0  0  0  0  0  0  0  0  0  0  # atno 17321 bound_to 7965
  140.1427  144.5188  150.6734 LP  0  0  0  0  0  0  0  0  0  0  0  0  # atno 17342 bound_to 10162
  140.6867  143.2354  151.5241 LP  0  0  0  0  0  0  0  0  0  0  0  0  # atno 17343 bound_to 10162
  156.1802  130.3650  149.9046 LP  0  0  0  0  0  0  0  0  0  0  0  0  # atno 17370 bound_to 10713
  156.7000  130.8929  151.3598 LP  0  0  0  0  0  0  0  0  0  0  0  0  # atno 17371 bound_to 10713
  139.8974  134.8636  156.2044 LP  0  0  0  0  0  0  0  0  0  0  0  0  # atno 17394 bound_to 11000
  141.0375  133.6955  156.1538 LP  0  0  0  0  0  0  0  0  0  0  0  0  # atno 17395 bound_to 11000

$$$$
