AV-unprocessed.smi:1918|AV-procd|sdf|7769|dock8
  -GOLD-   22720 9513D 1   1.00000     0.00000
 Structure written by MMmdl.
 35 37  0  0  0  0  0  0  0  0  1 V2000
  151.7491  139.0859  155.0366 C   0  0  0  0  0  0  0  0  0  0  0  0
  151.7677  140.0590  156.1724 C   0  0  0  0  0  0  0  0  0  0  0  0
  152.5296  139.8767  157.2513 N   0  0  0  0  0  0  0  0  0  0  0  0
  152.2369  140.9866  158.0203 C   0  0  0  0  0  0  0  0  0  0  0  0
  152.7214  141.3806  159.2882 C   0  0  0  0  0  0  0  0  0  0  0  0
  152.2685  142.5752  159.8858 C   0  0  0  0  0  0  0  0  0  0  0  0
  151.3272  143.3918  159.2259 C   0  0  0  0  0  0  0  0  0  0  0  0
  150.8325  143.0184  157.9615 C   0  0  0  0  0  0  0  0  0  0  0  0
  151.2877  141.8251  157.3698 C   0  0  0  0  0  0  0  0  0  0  0  0
  151.0093  141.1831  156.1677 N   0  0  0  0  0  0  0  0  0  0  0  0
  150.0908  141.6515  155.1389 C   0  0  0  0  0  0  0  0  0  0  0  0
  148.8785  140.7173  154.9563 C   0  0  2  0  0  0  0  0  0  0  0  0
  149.0694  139.8952  153.8201 O   0  0  0  0  0  0  0  0  0  0  0  0
  147.5798  141.5101  154.8911 C   0  0  0  0  0  0  0  0  0  0  0  0
  147.2659  142.2765  153.7459 C   0  0  0  0  0  0  0  0  0  0  0  0
  146.0694  143.0168  153.6902 C   0  0  0  0  0  0  0  0  0  0  0  0
  145.1797  143.0003  154.7807 C   0  0  0  0  0  0  0  0  0  0  0  0
  144.0292  143.7124  154.7275 F   0  0  0  0  0  0  0  0  0  0  0  0
  145.4890  142.2455  155.9279 C   0  0  0  0  0  0  0  0  0  0  0  0
  146.6855  141.5043  155.9860 C   0  0  0  0  0  0  0  0  0  0  0  0
  146.9710  140.7910  157.1020 F   0  0  0  0  0  0  0  0  0  0  0  0
  152.3606  138.2137  155.2695 H   0  0  0  0  0  0  0  0  0  0  0  0
  152.1456  139.5523  154.1347 H   0  0  0  0  0  0  0  0  0  0  0  0
  150.7312  138.7478  154.8424 H   0  0  0  0  0  0  0  0  0  0  0  0
  153.4428  140.7622  159.8016 H   0  0  0  0  0  0  0  0  0  0  0  0
  152.6448  142.8662  160.8557 H   0  0  0  0  0  0  0  0  0  0  0  0
  150.9847  144.3046  159.6909 H   0  0  0  0  0  0  0  0  0  0  0  0
  150.1110  143.6406  157.4529 H   0  0  0  0  0  0  0  0  0  0  0  0
  149.7501  142.6469  155.4267 H   0  0  0  0  0  0  0  0  0  0  0  0
  150.6256  141.7763  154.1974 H   0  0  0  0  0  0  0  0  0  0  0  0
  148.8252  140.0406  155.8096 H   0  0  0  0  0  0  0  0  0  0  0  0
  149.2527  140.4492  153.0767 H   0  0  0  0  0  0  0  0  0  0  0  0
  147.9438  142.3027  152.9052 H   0  0  0  0  0  0  0  0  0  0  0  0
  145.8350  143.5991  152.8111 H   0  0  0  0  0  0  0  0  0  0  0  0
  144.8085  142.2364  156.7666 H   0  0  0  0  0  0  0  0  0  0  0  0
  1  2  1  0  0  0  0
  1 22  1  0  0  0  0
  1 23  1  0  0  0  0
  1 24  1  0  0  0  0
  2 10  1  0  0  0  0
  2  3  2  0  0  0  0
  3  4  1  0  0  0  0
  4  9  2  0  0  0  0
  4  5  1  0  0  0  0
  5  6  2  0  0  0  0
  5 25  1  0  0  0  0
  6  7  1  0  0  0  0
  6 26  1  0  0  0  0
  7  8  2  0  0  0  0
  7 27  1  0  0  0  0
  8  9  1  0  0  0  0
  8 28  1  0  0  0  0
  9 10  1  0  0  0  0
 10 11  1  0  0  0  0
 11 12  1  0  0  0  0
 11 29  1  0  0  0  0
 11 30  1  0  0  0  0
 12 13  1  0  0  0  0
 12 14  1  0  0  0  0
 12 31  1  0  0  0  0
 13 32  1  0  0  0  0
 14 20  1  0  0  0  0
 14 15  2  0  0  0  0
 15 16  1  0  0  0  0
 15 33  1  0  0  0  0
 16 17  2  0  0  0  0
 16 34  1  0  0  0  0
 17 18  1  0  0  0  0
 17 19  1  0  0  0  0
 19 20  2  0  0  0  0
 19 35  1  0  0  0  0
 20 21  1  0  0  0  0
M  END
> <s_m_source_file>
AV-unprocessed.smi

> <i_m_source_file_index>
1918

> <i_lp_mmshare_version>
43012

> <i_f3d_flags>
0

> <s_epik_input>
W2NIXTFbY0hdW2NIXVtjSF1jKGMxMiluKGMobjIpW0NIM10pW0NIMl1bQ0BIXShbT0hdKWMzW2NIXVtjSF1jKEYpW2NIXWMzRg==

> <s_epik_cmdline>
J2VwaWtfcHl0aG9uJywgJy1waCcsICc3LjAnLCAnLXRuJywgJzgnLCAnLW1hJywgJzIwMCcsICctbWV0YWxfYmluZGluZycsICctaW1hZScsICc8aW5maWxlLm1hZT4nLCAnLW9tYWUnLCAnPG91dGZpbGUubWFlPic=

> <r_epik_Ionization_Penalty>
0.129663

> <r_epik_Ionization_Penalty_Charging>
0

> <r_epik_Ionization_Penalty_Neutral>
0.129663

> <r_epik_State_Penalty>
0.119073

> <r_epik_Charging_Adjusted_Penalty>
0.119073

> <i_epik_Tot_Q>
0

> <i_epik_Tot_abs_Q>
0

> <r_epik_Metal_State_Penalty>
0.000131867

> <b_epik_Metal_Only>
0

> <s_lp_Force_Field>
OPLS_2005

> <r_lp_Energy>
11.5863

> <b_lp_Chiralities_Consistent>
1

> <s_lp_Variant>
AV-unprocessed.smi:1918-1

> <Gold.Version>
5.8.1

> <Gold.Id.Protein>
6NUR|6NUR_protein|mol2

> <Gold.PLP.Fitness>
47.6630

> <Gold.PLP.PLP>
-44.6840

> <Gold.PLP.part.hbond>
-2.0000

> <Gold.PLP.part.metal>
0.0000

> <Gold.PLP.part.buried>
-5.8415

> <Gold.PLP.part.nonpolar>
-36.8220

> <Gold.PLP.part.repulsive>
0.0000

> <Gold.PLP.ligand.clash>
0.0000

> <Gold.PLP.ligand.torsion>
0.8786

> <Gold.PLP.Chemscore.Hbond>
1.5702

> <Gold.PLP.Chemscore.CHOScore>
0.0000

> <Gold.PLP.Chemscore.Metal>
0.0000

> <Gold.Chemscore.Hbonds>
donor molecule, donor type, donor heavy atom, donor atom, acceptor molecule, acceptor atom, score
      L1  H    13    32       P1  7957  0.66
      P1  H  7997  8009       L1     3  1.00

> <Gold.PLP.Chemscore.Internal.Correction>
0.0256

> <Gold.Rescore>
     Score         DG    S(hbond)    S(metal)    S(lipo)     H(rot)  DE(clash)    DE(int)     intcor
     15.10     -17.27       1.27        0.00     105.77       1.88       1.21       0.96       ----

> <Gold.Chemscore.Fitness>
15.0960

> <Gold.Chemscore.DG>
-17.2684

> <Gold.Chemscore.ZeroCoef>
-5.4800

> <Gold.Chemscore.Hbond>
1.2683

> <Gold.Chemscore.Metal>
0.0000

> <Gold.Chemscore.Lipo>
105.7696

> <Gold.Chemscore.Internal_Hbond>
0.0000

> <Gold.Chemscore.DEClash>
1.2146

> <Gold.Chemscore.DEInternal>
0.9578

> <Gold.Chemscore.Rot>
1.8839

> <Gold.Chemscore.Internal.Correction>
   9.000000E+99

> <Gold.Chemscore.Hbonds>
donor molecule, donor type, donor heavy atom, donor atom, acceptor molecule, acceptor atom, score
      L1  H    13    32       P1  7957  0.64
      P1  H  7997  8009       L1     3  0.19

> <Gold.Chemscore.Hbond.Weighted>
-4.2361

> <Gold.Chemscore.Metal.Weighted>
-0.0000

> <Gold.Chemscore.Lipo.Weighted>
-12.3750

> <Gold.Chemscore.Internal_Hbond.Weighted>
0.0000

> <Gold.Chemscore.DEClash.Weighted>
1.2146

> <Gold.Chemscore.DEInternal.Weighted>
0.9578

> <Gold.Chemscore.Rot.Weighted>
4.8227

> <Gold.Chemscore.Internal.Correction.Weighted>
   9.000000E+99

> <Gold.Protein.RotatedTorsions>
[ 6907 6896 6895 6894 ] final  -16.20 input  -60.11 | X-H torsion
[ 7974 7965 7964 7962 ] final -147.40 input  175.53 | X-H torsion
[ 8008 7997 7996 7995 ] final -168.68 input   59.86 | X-H torsion
[ 10167 10162 10161 10158 ] final   24.90 input  -65.29 | X-H torsion
[ 10718 10713 10712 10709 ] final   54.52 input   66.30 | X-H torsion
[ 10763 10752 10751 10750 ] final -103.95 input  -60.55 | X-H torsion
[ 11005 11000 10999 10996 ] final  -66.91 input  -57.11 | X-H torsion

> <Gold.Protein.ActiveResidues>
 VAL166  LYS551  ARG553  GLY616  TRP617  ASP618  TYR619  PRO620  LYS621  CYS622 
 ASP623  PHE694  ASN695  SER759  ASP760  ASP761  ALA762  ILE779  LEU786  VAL792 
 PHE793  MET794  SER795  GLU796  ALA797  LYS798  CYS799  TRP800  GLU811  SER814 

> <Gold.Protein.RotatedAtoms>
  151.3122  135.0797  159.9275 H   0  0  0  0  0  0  0  0  0  0  0  0  # atno 6907 bound_to 6896
  152.5275  133.9724  159.7779 H   0  0  0  0  0  0  0  0  0  0  0  0  # atno 6908 bound_to 6896
  151.0030  133.5986  159.2723 H   0  0  0  0  0  0  0  0  0  0  0  0  # atno 6909 bound_to 6896
  144.8096  140.5332  143.5651 H   0  0  0  0  0  0  0  0  0  0  0  0  # atno 7974 bound_to 7965
  155.8947  140.1030  157.1394 H   0  0  0  0  0  0  0  0  0  0  0  0  # atno 8008 bound_to 7997
  154.4019  140.1304  156.4423 H   0  0  0  0  0  0  0  0  0  0  0  0  # atno 8009 bound_to 7997
  155.7493  140.3465  155.5145 H   0  0  0  0  0  0  0  0  0  0  0  0  # atno 8010 bound_to 7997
  140.5150  144.0097  150.6390 H   0  0  0  0  0  0  0  0  0  0  0  0  # atno 10167 bound_to 10162
  157.5264  130.8600  149.8628 H   0  0  0  0  0  0  0  0  0  0  0  0  # atno 10718 bound_to 10713
  154.7844  135.4804  153.9913 H   0  0  0  0  0  0  0  0  0  0  0  0  # atno 10763 bound_to 10752
  153.1539  135.6796  153.8849 H   0  0  0  0  0  0  0  0  0  0  0  0  # atno 10764 bound_to 10752
  153.8485  135.3170  155.3409 H   0  0  0  0  0  0  0  0  0  0  0  0  # atno 10765 bound_to 10752
  141.1494  133.6708  156.6212 H   0  0  0  0  0  0  0  0  0  0  0  0  # atno 11005 bound_to 11000
  145.5355  139.1475  143.3476 LP  0  0  0  0  0  0  0  0  0  0  0  0  # atno 17320 bound_to 7965
  146.2393  140.5496  142.8941 LP  0  0  0  0  0  0  0  0  0  0  0  0  # atno 17321 bound_to 7965
  140.3430  143.3008  152.0568 LP  0  0  0  0  0  0  0  0  0  0  0  0  # atno 17342 bound_to 10162
  139.4906  144.6428  151.6840 LP  0  0  0  0  0  0  0  0  0  0  0  0  # atno 17343 bound_to 10162
  156.0390  130.3743  150.1484 LP  0  0  0  0  0  0  0  0  0  0  0  0  # atno 17370 bound_to 10713
  156.9670  130.9823  151.3467 LP  0  0  0  0  0  0  0  0  0  0  0  0  # atno 17371 bound_to 10713
  140.3539  134.7745  157.4486 LP  0  0  0  0  0  0  0  0  0  0  0  0  # atno 17394 bound_to 11000
  140.0839  134.5693  155.8512 LP  0  0  0  0  0  0  0  0  0  0  0  0  # atno 17395 bound_to 11000

$$$$
