AV-unprocessed.smi:2889|AV-procd|sdf|11111|dock6
  -GOLD-   2272015573D 1   1.00000     0.00000
 Structure written by MMmdl.
 36 37  0  0  0  0  0  0  0  0  1 V2000
  154.2171  141.3553  161.8511 C   0  0  0  0  0  0  0  0  0  0  0  0
  154.0714  141.0183  160.0749 S   0  0  0  0  0  0  0  0  0  0  0  0
  152.6544  142.0712  159.6255 C   0  0  1  0  0  0  0  0  0  0  0  0
  153.0457  143.5526  159.7848 C   0  0  0  0  0  0  0  0  0  0  0  0
  151.9035  144.4957  159.3784 C   0  0  0  0  0  0  0  0  0  0  0  0
  151.4475  144.2180  157.9394 C   0  0  0  0  0  0  0  0  0  0  0  0
  151.0324  142.7499  157.7686 C   0  0  0  0  0  0  0  0  0  0  0  0
  152.1612  141.7876  158.1863 C   0  0  2  0  0  0  0  0  0  0  0  0
  151.6745  140.4111  158.0759 N   0  0  0  0  0  0  0  0  0  0  0  0
  151.6028  139.6778  156.5163 S   0  0  0  0  0  0  0  0  0  0  0  0
  151.2697  140.7279  155.5409 O   0  0  0  0  0  0  0  0  0  0  0  0
  152.8296  138.8815  156.3621 O   0  0  0  0  0  0  0  0  0  0  0  0
  150.1650  138.5345  156.6884 C   0  0  0  0  0  0  0  0  0  0  0  0
  150.5760  137.1303  156.3411 C   0  0  0  0  0  0  0  0  0  0  0  0
  149.9762  136.2367  155.4105 C   0  0  0  0  0  0  0  0  0  0  0  0
  150.7515  135.1167  155.4983 C   0  0  0  0  0  0  0  0  0  0  0  0
  151.7417  135.2948  156.4083 O   0  0  0  0  0  0  0  0  0  0  0  0
  151.6203  136.5826  156.9423 N   0  0  0  0  0  0  0  0  0  0  0  0
  155.0698  140.8153  162.2625 H   0  0  0  0  0  0  0  0  0  0  0  0
  153.3231  141.0363  162.3854 H   0  0  0  0  0  0  0  0  0  0  0  0
  154.3681  142.4203  162.0268 H   0  0  0  0  0  0  0  0  0  0  0  0
  151.8462  141.8649  160.3286 H   0  0  0  0  0  0  0  0  0  0  0  0
  153.3337  143.7520  160.8174 H   0  0  0  0  0  0  0  0  0  0  0  0
  153.9237  143.7675  159.1740 H   0  0  0  0  0  0  0  0  0  0  0  0
  151.0627  144.3703  160.0616 H   0  0  0  0  0  0  0  0  0  0  0  0
  152.2269  145.5327  159.4721 H   0  0  0  0  0  0  0  0  0  0  0  0
  150.6154  144.8730  157.6793 H   0  0  0  0  0  0  0  0  0  0  0  0
  152.2557  144.4530  157.2458 H   0  0  0  0  0  0  0  0  0  0  0  0
  150.1423  142.5563  158.3691 H   0  0  0  0  0  0  0  0  0  0  0  0
  150.7486  142.5674  156.7314 H   0  0  0  0  0  0  0  0  0  0  0  0
  153.0040  141.9189  157.5057 H   0  0  0  0  0  0  0  0  0  0  0  0
  152.1530  139.8046  158.7413 H   0  0  0  0  0  0  0  0  0  0  0  0
  149.8179  138.5929  157.7205 H   0  0  0  0  0  0  0  0  0  0  0  0
  149.3556  138.8874  156.0502 H   0  0  0  0  0  0  0  0  0  0  0  0
  149.1180  136.3953  154.7749 H   0  0  0  0  0  0  0  0  0  0  0  0
  150.7280  134.1566  155.0041 H   0  0  0  0  0  0  0  0  0  0  0  0
  1  2  1  0  0  0  0
  1 19  1  0  0  0  0
  1 20  1  0  0  0  0
  1 21  1  0  0  0  0
  2  3  1  0  0  0  0
  3  8  1  0  0  0  0
  3  4  1  0  0  0  0
  3 22  1  0  0  0  0
  4  5  1  0  0  0  0
  4 23  1  0  0  0  0
  4 24  1  0  0  0  0
  5  6  1  0  0  0  0
  5 25  1  0  0  0  0
  5 26  1  0  0  0  0
  6  7  1  0  0  0  0
  6 27  1  0  0  0  0
  6 28  1  0  0  0  0
  7  8  1  0  0  0  0
  7 29  1  0  0  0  0
  7 30  1  0  0  0  0
  8  9  1  0  0  0  0
  8 31  1  0  0  0  0
  9 10  1  0  0  0  0
  9 32  1  0  0  0  0
 10 11  2  0  0  0  0
 10 12  2  0  0  0  0
 10 13  1  0  0  0  0
 13 14  1  0  0  0  0
 13 33  1  0  0  0  0
 13 34  1  0  0  0  0
 14 18  2  0  0  0  0
 14 15  1  0  0  0  0
 15 16  2  0  0  0  0
 15 35  1  0  0  0  0
 16 17  1  0  0  0  0
 16 36  1  0  0  0  0
 17 18  1  0  0  0  0
M  END
> <s_m_source_file>
AV-unprocessed.smi

> <i_m_source_file_index>
2889

> <i_lp_mmshare_version>
43012

> <i_f3d_flags>
0

> <s_epik_input>
W0NIM11TW0NAQEhdMVtDSDJdW0NIMl1bQ0gyXVtDSDJdW0NASF0xW05IXVMoPU8pKD1PKVtDSDJdYzJbY0hdW2NIXW9uMg==

> <s_epik_cmdline>
J2VwaWtfcHl0aG9uJywgJy1waCcsICc3LjAnLCAnLXRuJywgJzgnLCAnLW1hJywgJzIwMCcsICctbWV0YWxfYmluZGluZycsICctaW1hZScsICc8aW5maWxlLm1hZT4nLCAnLW9tYWUnLCAnPG91dGZpbGUubWFlPic=

> <r_lp_tautomer_probability>
1

> <r_epik_Ionization_Penalty>
0.000229547

> <r_epik_Ionization_Penalty_Charging>
0

> <r_epik_Ionization_Penalty_Neutral>
0.000229547

> <r_epik_State_Penalty>
-0

> <r_epik_Charging_Adjusted_Penalty>
0

> <i_epik_Tot_Q>
0

> <i_epik_Tot_abs_Q>
0

> <r_epik_Metal_State_Penalty>
0.145979

> <b_epik_Metal_Only>
0

> <s_lp_Force_Field>
OPLS_2005

> <r_lp_Energy>
3.91212

> <b_lp_Chiralities_Consistent>
1

> <s_lp_Variant>
AV-unprocessed.smi:2889-4

> <Gold.Version>
5.8.1

> <Gold.Id.Protein>
6NUR|6NUR_protein|mol2

> <Gold.PLP.Fitness>
41.2778

> <Gold.PLP.PLP>
-34.6609

> <Gold.PLP.part.hbond>
-3.0000

> <Gold.PLP.part.metal>
0.0000

> <Gold.PLP.part.buried>
-3.5711

> <Gold.PLP.part.nonpolar>
-27.8963

> <Gold.PLP.part.repulsive>
0.0413

> <Gold.PLP.ligand.clash>
0.0000

> <Gold.PLP.ligand.torsion>
0.8777

> <Gold.PLP.Chemscore.Hbond>
2.7360

> <Gold.PLP.Chemscore.CHOScore>
0.0000

> <Gold.PLP.Chemscore.Metal>
0.0000

> <Gold.Chemscore.Hbonds>
donor molecule, donor type, donor heavy atom, donor atom, acceptor molecule, acceptor atom, score
      P1  H  7989  7998       L1    11  0.70
      P1  H  7997  8008       L1    12  1.00
      P1  H 10752 10764       L1    17  0.75

> <Gold.PLP.Chemscore.Internal.Correction>
0.1643

> <Gold.Rescore>
     Score         DG    S(hbond)    S(metal)    S(lipo)     H(rot)  DE(clash)    DE(int)     intcor
     15.08     -18.43       1.82        0.00      98.30       1.81       0.06       3.29       ----

> <Gold.Chemscore.Fitness>
15.0847

> <Gold.Chemscore.DG>
-18.4289

> <Gold.Chemscore.ZeroCoef>
-5.4800

> <Gold.Chemscore.Hbond>
1.8175

> <Gold.Chemscore.Metal>
0.0000

> <Gold.Chemscore.Lipo>
98.3010

> <Gold.Chemscore.Internal_Hbond>
0.0000

> <Gold.Chemscore.DEClash>
0.0556

> <Gold.Chemscore.DEInternal>
3.2887

> <Gold.Chemscore.Rot>
1.8058

> <Gold.Chemscore.Internal.Correction>
   9.000000E+99

> <Gold.Chemscore.Hbonds>
donor molecule, donor type, donor heavy atom, donor atom, acceptor molecule, acceptor atom, score
      P1  H  7989  7998       L1    11  0.68
      P1  H  7997  8008       L1    12  0.65
      P1  H 10752 10764       L1    17  0.05

> <Gold.Chemscore.Hbond.Weighted>
-6.0706

> <Gold.Chemscore.Metal.Weighted>
-0.0000

> <Gold.Chemscore.Lipo.Weighted>
-11.5012

> <Gold.Chemscore.Internal_Hbond.Weighted>
0.0000

> <Gold.Chemscore.DEClash.Weighted>
0.0556

> <Gold.Chemscore.DEInternal.Weighted>
3.2887

> <Gold.Chemscore.Rot.Weighted>
4.6228

> <Gold.Chemscore.Internal.Correction.Weighted>
   9.000000E+99

> <Gold.Protein.RotatedTorsions>
[ 6907 6896 6895 6894 ] final -126.54 input  -60.11 | X-H torsion
[ 7974 7965 7964 7962 ] final   10.52 input  175.53 | X-H torsion
[ 8008 7997 7996 7995 ] final  -52.92 input   59.86 | X-H torsion
[ 10167 10162 10161 10158 ] final   57.44 input  -65.29 | X-H torsion
[ 10718 10713 10712 10709 ] final -146.20 input   66.30 | X-H torsion
[ 10763 10752 10751 10750 ] final  -27.15 input  -60.55 | X-H torsion
[ 11005 11000 10999 10996 ] final -122.08 input  -57.11 | X-H torsion

> <Gold.Protein.ActiveResidues>
 VAL166  LYS551  ARG553  GLY616  TRP617  ASP618  TYR619  PRO620  LYS621  CYS622 
 ASP623  PHE694  ASN695  SER759  ASP760  ASP761  ALA762  ILE779  LEU786  VAL792 
 PHE793  MET794  SER795  GLU796  ALA797  LYS798  CYS799  TRP800  GLU811  SER814 

> <Gold.Protein.RotatedAtoms>
  150.8979  133.7156  159.2886 H   0  0  0  0  0  0  0  0  0  0  0  0  # atno 6907 bound_to 6896
  151.4684  135.1042  159.9754 H   0  0  0  0  0  0  0  0  0  0  0  0  # atno 6908 bound_to 6896
  152.4860  133.8325  159.7166 H   0  0  0  0  0  0  0  0  0  0  0  0  # atno 6909 bound_to 6896
  146.2387  139.9622  142.8457 H   0  0  0  0  0  0  0  0  0  0  0  0  # atno 7974 bound_to 7965
  154.4119  140.1212  156.5070 H   0  0  0  0  0  0  0  0  0  0  0  0  # atno 8008 bound_to 7997
  155.6837  140.3496  155.4846 H   0  0  0  0  0  0  0  0  0  0  0  0  # atno 8009 bound_to 7997
  155.9529  140.1108  157.0951 H   0  0  0  0  0  0  0  0  0  0  0  0  # atno 8010 bound_to 7997
  140.1979  144.4018  150.6542 H   0  0  0  0  0  0  0  0  0  0  0  0  # atno 10167 bound_to 10162
  156.3920  130.7890  151.2093 H   0  0  0  0  0  0  0  0  0  0  0  0  # atno 10718 bound_to 10713
  153.7275  135.6941  153.4997 H   0  0  0  0  0  0  0  0  0  0  0  0  # atno 10763 bound_to 10752
  153.2159  135.4386  155.0433 H   0  0  0  0  0  0  0  0  0  0  0  0  # atno 10764 bound_to 10752
  154.8264  135.3448  154.6806 H   0  0  0  0  0  0  0  0  0  0  0  0  # atno 10765 bound_to 10752
  141.0022  134.0386  157.3523 H   0  0  0  0  0  0  0  0  0  0  0  0  # atno 11005 bound_to 11000
  145.1760  140.9744  143.4294 LP  0  0  0  0  0  0  0  0  0  0  0  0  # atno 17320 bound_to 7965
  144.9985  139.3620  143.6179 LP  0  0  0  0  0  0  0  0  0  0  0  0  # atno 17321 bound_to 7965
  140.6411  143.2204  151.6289 LP  0  0  0  0  0  0  0  0  0  0  0  0  # atno 17342 bound_to 10162
  139.5229  144.3149  152.0961 LP  0  0  0  0  0  0  0  0  0  0  0  0  # atno 17343 bound_to 10162
  157.7499  131.0313  150.4174 LP  0  0  0  0  0  0  0  0  0  0  0  0  # atno 17370 bound_to 10713
  156.4437  130.3997  149.6680 LP  0  0  0  0  0  0  0  0  0  0  0  0  # atno 17371 bound_to 10713
  139.9044  135.0175  156.7420 LP  0  0  0  0  0  0  0  0  0  0  0  0  # atno 17394 bound_to 11000
  140.6871  133.9423  155.7944 LP  0  0  0  0  0  0  0  0  0  0  0  0  # atno 17395 bound_to 11000

$$$$
