#       Name:                AV-unprocessed.smi:1617
#       Creating user name   scv26
#       Creation time:       Fri Mar 27 07:14:50 2020


#       File generated by GOLD software.
#

@<TRIPOS>MOLECULE
AV-unprocessed.smi:1617
    55    57     1
SMALL
NO_CHARGES


@<TRIPOS>ATOM
      1 ****        -1.1047   1.3253   0.2517 O.2            1 S1                 0.0000
      2 ****        -1.4139   0.1794  -0.0743 C.2            1 S1                 0.0000
      3 ****        -0.5508  -0.8257  -0.2995 N.am           1 S1                 0.0000
      4 ****         0.8655  -0.8176  -0.1867 C.ar           1 S1                 0.0000
      5 ****         1.5888  -1.8215  -0.8587 C.ar           1 S1                 0.0000
      6 ****         2.9919  -1.8487  -0.7522 C.ar           1 S1                 0.0000
      7 ****         3.6431  -0.8707   0.0355 C.ar           1 S1                 0.0000
      8 ****         5.0499  -0.8764   0.1552 N.3            1 S1                 0.0000
      9 ****         5.7923  -0.8944  -1.1028 C.3            1 S1                 0.0000
     10 ****         7.2757  -1.2110  -0.8447 C.3            1 S1                 0.0000
     11 ****         7.8094  -0.2887   0.0995 O.3            1 S1                 0.0000
     12 ****         7.1415  -0.3705   1.3542 C.3            1 S1                 0.0000
     13 ****         5.6551  -0.0196   1.1734 C.3            1 S1                 0.0000
     14 ****         2.9446   0.0821   0.7002 N.ar           1 S1                 0.0000
     15 ****         1.5992   0.1075   0.5928 C.ar           1 S1                 0.0000
     16 ****        -2.6803  -0.2184  -0.2683 N.am           1 S1                 0.0000
     17 ****        -3.8696   0.6185  -0.0924 C.3            1 S1                 0.0000
     18 ****        -4.9955   0.0202  -0.9666 C.3            1 S1                 0.0000
     19 ****        -6.1027   1.0263  -1.3260 C.3            1 S1                 0.0000
     20 ****        -6.9245   1.5400  -0.1343 C.3            1 S1                 0.0000
     21 ****        -6.0949   2.3223   0.8983 C.3            1 S1                 0.0000
     22 ****        -5.3177   1.4407   1.7592 N.am           1 S1                 0.0000
     23 ****        -4.3220   0.6223   1.3866 C.2            1 S1                 0.0000
     24 ****        -3.7836  -0.1164   2.2111 O.2            1 S1                 0.0000
     25 ****        -0.9524  -1.6874  -0.6390 H              1 S1                 0.0000
     26 ****         1.0771  -2.5648  -1.4525 H              1 S1                 0.0000
     27 ****         3.5466  -2.6233  -1.2599 H              1 S1                 0.0000
     28 ****         5.3898  -1.6275  -1.8002 H              1 S1                 0.0000
     29 ****         5.6977   0.0820  -1.5797 H              1 S1                 0.0000
     30 ****         7.3968  -2.2325  -0.4804 H              1 S1                 0.0000
     31 ****         7.8417  -1.1361  -1.7732 H              1 S1                 0.0000
     32 ****         7.2570  -1.3704   1.7758 H              1 S1                 0.0000
     33 ****         7.6086   0.3246   2.0519 H              1 S1                 0.0000
     34 ****         5.5515   1.0247   0.8755 H              1 S1                 0.0000
     35 ****         5.1372  -0.1414   2.1256 H              1 S1                 0.0000
     36 ****         1.1169   0.8810   1.1694 H              1 S1                 0.0000
     37 ****        -2.8398  -1.1790  -0.5338 H              1 S1                 0.0000
     38 ****        -3.6410   1.6352  -0.4176 H              1 S1                 0.0000
     39 ****        -4.5671  -0.3300  -1.9072 H              1 S1                 0.0000
     40 ****        -5.4275  -0.8654  -0.4967 H              1 S1                 0.0000
     41 ****        -5.6641   1.8731  -1.8553 H              1 S1                 0.0000
     42 ****        -6.7826   0.5546  -2.0360 H              1 S1                 0.0000
     43 ****        -7.7038   2.1979  -0.5201 H              1 S1                 0.0000
     44 ****        -7.4455   0.7125   0.3496 H              1 S1                 0.0000
     45 ****        -5.4469   3.0540   0.4137 H              1 S1                 0.0000
     46 ****        -6.7675   2.8879   1.5432 H              1 S1                 0.0000
     47 ****        -5.5798   1.4270   2.7343 H              1 S1                 0.0000
     48 ****        -0.1420   1.5692   0.3691 LP             1 S1                 0.0000
     49 ****        -1.8161   2.0124   0.3992 LP             1 S1                 0.0000
     50 ****         5.1670  -1.7882   0.5488 LP             1 S1                 0.0000
     51 ****         7.7084   0.6385  -0.2611 LP             1 S1                 0.0000
     52 ****         8.7795  -0.4897   0.2355 LP             1 S1                 0.0000
     53 ****         3.4202   0.7579   1.2633 LP             1 S1                 0.0000
     54 ****        -3.0450  -0.7280   1.9274 LP             1 S1                 0.0000
     55 ****        -4.0848  -0.1050   3.1646 LP             1 S1                 0.0000
@<TRIPOS>BOND
    1    1    2 2     
    2    2    3 am    
    3    2   16 am    
    4    3    4 1     
    5    3   25 1     
    6    4   15 ar    
    7    4    5 ar    
    8    5    6 ar    
    9    5   26 1     
   10    6    7 ar    
   11    6   27 1     
   12    7    8 1     
   13    7   14 ar    
   14    8   13 1     
   15    8    9 1     
   16    9   10 1     
   17    9   28 1     
   18    9   29 1     
   19   10   11 1     
   20   10   30 1     
   21   10   31 1     
   22   11   12 1     
   23   12   13 1     
   24   12   32 1     
   25   12   33 1     
   26   13   34 1     
   27   13   35 1     
   28   14   15 ar    
   29   15   36 1     
   30   16   17 1     
   31   16   37 1     
   32   17   23 1     
   33   17   18 1     
   34   17   38 1     
   35   18   19 1     
   36   18   39 1     
   37   18   40 1     
   38   19   20 1     
   39   19   41 1     
   40   19   42 1     
   41   20   21 1     
   42   20   43 1     
   43   20   44 1     
   44   21   22 1     
   45   21   45 1     
   46   21   46 1     
   47   22   23 am    
   48   22   47 1     
   49   23   24 2     
   50    1   48 1     
   51    1   49 1     
   52    8   50 1     
   53   11   51 1     
   54   11   52 1     
   55   14   53 1     
   56   24   54 1     
   57   24   55 1     
@<TRIPOS>SUBSTRUCTURE
      1 S1             1
@<TRIPOS>SET
LONE_PAIRS      STATIC     ATOMS    <user>   **** ""
8 48 49 50 51 52 53 54 55
DONOR_HYDROGENS      STATIC     ATOMS    <user>   **** ""
3 25 37 47
ATOM$BLUE        STATIC     ATOMS    COLORGROUP SYSTEM
8 48 49 50 51 52 53 54 55
ATOM$RED        STATIC     ATOMS    COLORGROUP SYSTEM
3 25 37 47
