AV-unprocessed.smi:1978|AV-procd|sdf|8009|dock8
  -GOLD-   2272010193D 1   1.00000     0.00000
 Structure written by MMmdl.
 44 45  0  0  0  0  0  0  0  0  3 V2000
  147.2807  135.5505  162.5444 C   0  0  0  0  0  0  0  0  0  0  0  0
  147.6464  135.8231  161.1256 C   0  0  0  0  0  0  0  0  0  0  0  0
  148.0334  135.0153  160.0939 C   0  0  0  0  0  0  0  0  0  0  0  0
  148.2290  135.9302  159.0249 C   0  0  0  0  0  0  0  0  0  0  0  0
  148.6491  135.4717  157.7482 N   0  0  0  0  0  0  0  0  0  0  0  0
  149.1080  134.2563  157.3977 C   0  0  0  0  0  0  0  0  0  0  0  0
  149.2337  133.3669  158.2478 O   0  0  0  0  0  0  0  0  0  0  0  0
  149.3869  134.1764  156.0679 N   0  5  0  0  0  0  0  0  0  0  0  0
  148.5640  134.7629  155.0105 C   0  0  0  0  0  0  0  0  0  0  0  0
  148.0943  133.6600  154.0101 C   0  0  1  0  0  0  0  0  0  0  0  0
  147.4269  132.4964  154.8068 C   0  0  0  0  0  0  0  0  0  0  0  0
  147.2203  134.2525  152.9314 N   0  3  1  0  0  0  0  0  0  0  0  0
  146.6639  133.2606  151.9538 C   0  0  0  0  0  0  0  0  0  0  0  0
  146.1395  133.9717  150.6948 C   0  0  0  0  0  0  0  0  0  0  0  0
  145.0799  135.0227  151.0442 C   0  0  0  0  0  0  0  0  0  0  0  0
  145.6131  135.9772  152.1236 C   0  0  0  0  0  0  0  0  0  0  0  0
  146.1588  135.2243  153.3566 C   0  0  1  0  0  0  0  0  0  0  0  0
  145.0173  134.5790  154.1802 C   0  0  0  0  0  0  0  0  0  0  0  0
  147.9831  137.1841  159.3746 N   0  0  0  0  0  0  0  0  0  0  0  0
  147.6086  137.1218  160.7221 O   0  0  0  0  0  0  0  0  0  0  0  0
  147.0384  134.4975  162.6882 H   0  0  0  0  0  0  0  0  0  0  0  0
  146.4134  136.1400  162.8422 H   0  0  0  0  0  0  0  0  0  0  0  0
  148.1062  135.8019  163.2101 H   0  0  0  0  0  0  0  0  0  0  0  0
  148.1577  133.9429  160.1044 H   0  0  0  0  0  0  0  0  0  0  0  0
  148.5856  136.1469  157.0012 H   0  0  0  0  0  0  0  0  0  0  0  0
  147.6893  135.2779  155.4097 H   0  0  0  0  0  0  0  0  0  0  0  0
  149.1213  135.5298  154.4737 H   0  0  0  0  0  0  0  0  0  0  0  0
  148.9677  133.2444  153.5041 H   0  0  0  0  0  0  0  0  0  0  0  0
  148.0837  132.0846  155.5762 H   0  0  0  0  0  0  0  0  0  0  0  0
  147.1784  131.6444  154.1788 H   0  0  0  0  0  0  0  0  0  0  0  0
  146.5065  132.8090  155.3043 H   0  0  0  0  0  0  0  0  0  0  0  0
  147.4096  132.5359  151.6314 H   0  0  0  0  0  0  0  0  0  0  0  0
  145.8761  132.6694  152.4198 H   0  0  0  0  0  0  0  0  0  0  0  0
  146.9718  134.4511  150.1777 H   0  0  0  0  0  0  0  0  0  0  0  0
  145.7240  133.2420  149.9993 H   0  0  0  0  0  0  0  0  0  0  0  0
  144.8021  135.5847  150.1520 H   0  0  0  0  0  0  0  0  0  0  0  0
  144.1703  134.5307  151.3888 H   0  0  0  0  0  0  0  0  0  0  0  0
  146.4114  136.5852  151.6954 H   0  0  0  0  0  0  0  0  0  0  0  0
  144.8302  136.6750  152.4225 H   0  0  0  0  0  0  0  0  0  0  0  0
  146.6177  135.9962  153.9725 H   0  0  0  0  0  0  0  0  0  0  0  0
  144.3602  135.3479  154.5872 H   0  0  0  0  0  0  0  0  0  0  0  0
  145.3837  133.9915  155.0198 H   0  0  0  0  0  0  0  0  0  0  0  0
  144.3936  133.9147  153.5842 H   0  0  0  0  0  0  0  0  0  0  0  0
  147.8667  134.8145  152.3961 H   0  0  0  0  0  0  0  0  0  0  0  0
  1  2  1  0  0  0  0
  1 21  1  0  0  0  0
  1 22  1  0  0  0  0
  1 23  1  0  0  0  0
  2 20  1  0  0  0  0
  2  3  2  0  0  0  0
  3  4  1  0  0  0  0
  3 24  1  0  0  0  0
  4  5  1  0  0  0  0
  4 19  2  0  0  0  0
  5  6  1  0  0  0  0
  5 25  1  0  0  0  0
  6  7  2  0  0  0  0
  6  8  1  0  0  0  0
  8  9  1  0  0  0  0
  9 10  1  0  0  0  0
  9 26  1  0  0  0  0
  9 27  1  0  0  0  0
 10 11  1  0  0  0  0
 10 12  1  0  0  0  0
 10 28  1  0  0  0  0
 11 29  1  0  0  0  0
 11 30  1  0  0  0  0
 11 31  1  0  0  0  0
 12 17  1  0  0  0  0
 12 13  1  0  0  0  0
 12 44  1  0  0  0  0
 13 14  1  0  0  0  0
 13 32  1  0  0  0  0
 13 33  1  0  0  0  0
 14 15  1  0  0  0  0
 14 34  1  0  0  0  0
 14 35  1  0  0  0  0
 15 16  1  0  0  0  0
 15 36  1  0  0  0  0
 15 37  1  0  0  0  0
 16 17  1  0  0  0  0
 16 38  1  0  0  0  0
 16 39  1  0  0  0  0
 17 18  1  0  0  0  0
 17 40  1  0  0  0  0
 18 41  1  0  0  0  0
 18 42  1  0  0  0  0
 18 43  1  0  0  0  0
 19 20  1  0  0  0  0
M  CHG  1   8  -1
M  CHG  1  12   1
M  END
> <s_m_source_file>
AV-unprocessed.smi

> <i_m_source_file_index>
1978

> <i_lp_mmshare_version>
43012

> <i_f3d_flags>
0

> <s_epik_input>
W0NIM11jMVtjSF1jKG5vMSlbTkhdQyg9TylbTkhdW0NIMl1bQ0BIXShbQ0gzXSlOMltDSDJdW0NIMl1bQ0gyXVtDSDJdW0NASF0yW0NIM10=

> <s_epik_cmdline>
J2VwaWtfcHl0aG9uJywgJy1waCcsICc3LjAnLCAnLXRuJywgJzgnLCAnLW1hJywgJzIwMCcsICctbWV0YWxfYmluZGluZycsICctaW1hZScsICc8aW5maWxlLm1hZT4nLCAnLW9tYWUnLCAnPG91dGZpbGUubWFlPic=

> <r_epik_Ionization_Penalty>
6.7666

> <r_epik_Ionization_Penalty_Charging>
6.7666

> <r_epik_Ionization_Penalty_Neutral>
5.77131e-06

> <r_epik_State_Penalty>
6.79217

> <r_epik_Charging_Adjusted_Penalty>
13.5588

> <i_epik_Tot_Q>
0

> <i_epik_Tot_abs_Q>
2

> <r_epik_Metal_State_Penalty>
2.72569

> <b_epik_Metal_Only>
1

> <s_lp_Force_Field>
OPLS_2005

> <r_lp_Energy>
25.8375

> <b_lp_Chiralities_Consistent>
1

> <s_lp_Variant>
AV-unprocessed.smi:1978-18

> <Gold.Version>
5.8.1

> <Gold.Id.Protein>
6NUR|6NUR_protein|mol2

> <Gold.PLP.Fitness>
41.5290

> <Gold.PLP.PLP>
-28.4759

> <Gold.PLP.part.hbond>
-4.3815

> <Gold.PLP.part.metal>
0.0000

> <Gold.PLP.part.buried>
-3.9548

> <Gold.PLP.part.nonpolar>
-20.3981

> <Gold.PLP.part.repulsive>
0.0777

> <Gold.PLP.ligand.clash>
0.0000

> <Gold.PLP.ligand.torsion>
0.5160

> <Gold.PLP.Chemscore.Hbond>
4.6512

> <Gold.PLP.Chemscore.CHOScore>
0.0000

> <Gold.PLP.Chemscore.Metal>
0.0000

> <Gold.Chemscore.Hbonds>
donor molecule, donor type, donor heavy atom, donor atom, acceptor molecule, acceptor atom, score
      L1  H    12    44       P1  7948  2.00
      P1  H  6896  6908       L1     7  1.00
      P1  H  6931  6943       L1    20  0.55
      P1  H  6934  6947       L1    20  0.83

> <Gold.PLP.Chemscore.Internal.Correction>
0.1315

> <Gold.Rescore>
     Score         DG    S(hbond)    S(metal)    S(lipo)     H(rot)  DE(clash)    DE(int)     intcor
     15.96     -17.89       2.84        0.00      58.34       1.52       0.02       1.91       ----

> <Gold.Chemscore.Fitness>
15.9633

> <Gold.Chemscore.DG>
-17.8925

> <Gold.Chemscore.ZeroCoef>
-5.4800

> <Gold.Chemscore.Hbond>
2.8368

> <Gold.Chemscore.Metal>
0.0000

> <Gold.Chemscore.Lipo>
58.3433

> <Gold.Chemscore.Internal_Hbond>
0.0000

> <Gold.Chemscore.DEClash>
0.0222

> <Gold.Chemscore.DEInternal>
1.9069

> <Gold.Chemscore.Rot>
1.5190

> <Gold.Chemscore.Internal.Correction>
   9.000000E+99

> <Gold.Chemscore.Hbonds>
donor molecule, donor type, donor heavy atom, donor atom, acceptor molecule, acceptor atom, score
      L1  H    12    44       P1  7948  0.78
      P1  H  6896  6908       L1     7  0.65
      P1  H  6931  6943       L1    20  0.27
      P1  H  6934  6947       L1    20  0.13

> <Gold.Chemscore.Hbond.Weighted>
-9.4749

> <Gold.Chemscore.Metal.Weighted>
-0.0000

> <Gold.Chemscore.Lipo.Weighted>
-6.8262

> <Gold.Chemscore.Internal_Hbond.Weighted>
0.0000

> <Gold.Chemscore.DEClash.Weighted>
0.0222

> <Gold.Chemscore.DEInternal.Weighted>
1.9069

> <Gold.Chemscore.Rot.Weighted>
3.8886

> <Gold.Chemscore.Internal.Correction.Weighted>
   9.000000E+99

> <Gold.Protein.RotatedTorsions>
[ 6907 6896 6895 6894 ] final  116.25 input  -60.11 | X-H torsion
[ 7974 7965 7964 7962 ] final  -49.10 input  175.53 | X-H torsion
[ 8008 7997 7996 7995 ] final -161.34 input   59.86 | X-H torsion
[ 10167 10162 10161 10158 ] final -112.01 input  -65.29 | X-H torsion
[ 10718 10713 10712 10709 ] final   52.33 input   66.30 | X-H torsion
[ 10763 10752 10751 10750 ] final   15.86 input  -60.55 | X-H torsion
[ 11005 11000 10999 10996 ] final  168.99 input  -57.11 | X-H torsion

> <Gold.Protein.ActiveResidues>
 VAL166  LYS551  ARG553  GLY616  TRP617  ASP618  TYR619  PRO620  LYS621  CYS622 
 ASP623  PHE694  ASN695  SER759  ASP760  ASP761  ALA762  ILE779  LEU786  VAL792 
 PHE793  MET794  SER795  GLU796  ALA797  LYS798  CYS799  TRP800  GLU811  SER814 

> <Gold.Protein.RotatedAtoms>
  152.4690  133.7987  159.6940 H   0  0  0  0  0  0  0  0  0  0  0  0  # atno 6907 bound_to 6896
  150.8669  133.7552  159.2980 H   0  0  0  0  0  0  0  0  0  0  0  0  # atno 6908 bound_to 6896
  151.5099  135.1068  159.9903 H   0  0  0  0  0  0  0  0  0  0  0  0  # atno 6909 bound_to 6896
  145.9442  140.7634  142.9537 H   0  0  0  0  0  0  0  0  0  0  0  0  # atno 7974 bound_to 7965
  155.7907  140.0878  157.2010 H   0  0  0  0  0  0  0  0  0  0  0  0  # atno 8008 bound_to 7997
  154.3985  140.1490  156.3217 H   0  0  0  0  0  0  0  0  0  0  0  0  # atno 8009 bound_to 7997
  155.8562  140.3432  155.5728 H   0  0  0  0  0  0  0  0  0  0  0  0  # atno 8010 bound_to 7997
  140.1274  143.4391  152.1651 H   0  0  0  0  0  0  0  0  0  0  0  0  # atno 10167 bound_to 10162
  157.5065  130.8472  149.8381 H   0  0  0  0  0  0  0  0  0  0  0  0  # atno 10718 bound_to 10713
  153.1485  135.6774  153.8918 H   0  0  0  0  0  0  0  0  0  0  0  0  # atno 10763 bound_to 10752
  153.8352  135.3112  155.3423 H   0  0  0  0  0  0  0  0  0  0  0  0  # atno 10764 bound_to 10752
  154.7844  135.4870  153.9999 H   0  0  0  0  0  0  0  0  0  0  0  0  # atno 10765 bound_to 10752
  140.2931  134.7657  157.3855 H   0  0  0  0  0  0  0  0  0  0  0  0  # atno 11005 bound_to 11000
  144.6784  140.2329  143.7353 LP  0  0  0  0  0  0  0  0  0  0  0  0  # atno 17320 bound_to 7965
  145.8259  139.2064  143.1911 LP  0  0  0  0  0  0  0  0  0  0  0  0  # atno 17321 bound_to 7965
  139.5537  144.7357  151.4357 LP  0  0  0  0  0  0  0  0  0  0  0  0  # atno 17342 bound_to 10162
  140.6837  143.8023  150.7156 LP  0  0  0  0  0  0  0  0  0  0  0  0  # atno 17343 bound_to 10162
  156.0261  130.3779  150.1818 LP  0  0  0  0  0  0  0  0  0  0  0  0  # atno 17370 bound_to 10713
  157.0008  130.9921  151.3391 LP  0  0  0  0  0  0  0  0  0  0  0  0  # atno 17371 bound_to 10713
  140.1177  134.5261  155.8210 LP  0  0  0  0  0  0  0  0  0  0  0  0  # atno 17394 bound_to 11000
  141.2142  133.6746  156.6808 LP  0  0  0  0  0  0  0  0  0  0  0  0  # atno 17395 bound_to 11000

$$$$
