AV-unprocessed.smi:2089|AV-procd|sdf|8528|dock5
  -GOLD-   2272011243D 1   1.00000     0.00000
 Structure written by MMmdl.
 39 40  0  0  0  0  0  0  0  0  1 V2000
  146.3148  142.9038  158.5007 C   0  0  0  0  0  0  0  0  0  0  0  0
  146.5654  141.3134  157.6128 S   0  0  0  0  0  0  0  0  0  0  0  0
  147.7073  140.6183  158.2265 O   0  0  0  0  0  0  0  0  0  0  0  0
  145.2727  140.6241  157.4810 O   0  0  0  0  0  0  0  0  0  0  0  0
  147.0544  141.8276  156.0341 N   0  0  0  0  0  0  0  0  0  0  0  0
  146.1970  142.7714  155.3026 C   0  0  0  0  0  0  0  0  0  0  0  0
  146.4809  142.5284  153.8220 C   0  0  0  0  0  0  0  0  0  0  0  0
  146.8522  141.0527  153.7828 C   0  0  0  0  0  0  0  0  0  0  0  0
  147.6036  140.8249  155.1062 C   0  0  1  0  0  0  0  0  0  0  0  0
  149.1314  140.9173  154.9744 C   0  0  0  0  0  0  0  0  0  0  0  0
  149.6599  141.1867  153.8950 O   0  0  0  0  0  0  0  0  0  0  0  0
  149.8330  140.6991  156.0956 N   0  0  0  0  0  0  0  0  0  0  0  0
  151.2848  140.7557  156.1853 C   0  0  0  0  0  0  0  0  0  0  0  0
  151.7350  140.7981  157.6519 C   0  0  0  0  0  0  0  0  0  0  0  0
  151.8605  142.2177  158.1723 C   0  0  0  0  0  0  0  0  0  0  0  0
  152.5276  142.4827  159.3873 C   0  0  0  0  0  0  0  0  0  0  0  0
  152.6275  143.8192  159.8204 C   0  0  0  0  0  0  0  0  0  0  0  0
  152.0602  144.8341  159.0260 C   0  0  0  0  0  0  0  0  0  0  0  0
  151.4157  144.4655  157.8281 C   0  0  0  0  0  0  0  0  0  0  0  0
  151.3149  143.1873  157.4036 N   0  0  0  0  0  0  0  0  0  0  0  0
  146.0437  142.7008  159.5365 H   0  0  0  0  0  0  0  0  0  0  0  0
  145.5148  143.4692  158.0236 H   0  0  0  0  0  0  0  0  0  0  0  0
  147.2367  143.4843  158.4747 H   0  0  0  0  0  0  0  0  0  0  0  0
  145.1503  142.5571  155.5212 H   0  0  0  0  0  0  0  0  0  0  0  0
  146.4051  143.7981  155.6039 H   0  0  0  0  0  0  0  0  0  0  0  0
  145.6309  142.7692  153.1833 H   0  0  0  0  0  0  0  0  0  0  0  0
  147.3277  143.1357  153.4998 H   0  0  0  0  0  0  0  0  0  0  0  0
  145.9466  140.4446  153.7681 H   0  0  0  0  0  0  0  0  0  0  0  0
  147.4282  140.7930  152.8935 H   0  0  0  0  0  0  0  0  0  0  0  0
  147.3596  139.8243  155.4678 H   0  0  0  0  0  0  0  0  0  0  0  0
  149.3247  140.4991  156.9453 H   0  0  0  0  0  0  0  0  0  0  0  0
  151.7140  139.8838  155.6888 H   0  0  0  0  0  0  0  0  0  0  0  0
  151.6431  141.6397  155.6552 H   0  0  0  0  0  0  0  0  0  0  0  0
  151.0260  140.2529  158.2770 H   0  0  0  0  0  0  0  0  0  0  0  0
  152.6942  140.2905  157.7628 H   0  0  0  0  0  0  0  0  0  0  0  0
  152.9563  141.6830  159.9734 H   0  0  0  0  0  0  0  0  0  0  0  0
  153.1317  144.0615  160.7443 H   0  0  0  0  0  0  0  0  0  0  0  0
  152.1182  145.8695  159.3267 H   0  0  0  0  0  0  0  0  0  0  0  0
  150.9702  145.2175  157.1938 H   0  0  0  0  0  0  0  0  0  0  0  0
  1  2  1  0  0  0  0
  1 21  1  0  0  0  0
  1 22  1  0  0  0  0
  1 23  1  0  0  0  0
  2  3  2  0  0  0  0
  2  4  2  0  0  0  0
  2  5  1  0  0  0  0
  5  9  1  0  0  0  0
  5  6  1  0  0  0  0
  6  7  1  0  0  0  0
  6 24  1  0  0  0  0
  6 25  1  0  0  0  0
  7  8  1  0  0  0  0
  7 26  1  0  0  0  0
  7 27  1  0  0  0  0
  8  9  1  0  0  0  0
  8 28  1  0  0  0  0
  8 29  1  0  0  0  0
  9 10  1  0  0  0  0
  9 30  1  0  0  0  0
 10 11  2  0  0  0  0
 10 12  1  0  0  0  0
 12 13  1  0  0  0  0
 12 31  1  0  0  0  0
 13 14  1  0  0  0  0
 13 32  1  0  0  0  0
 13 33  1  0  0  0  0
 14 15  1  0  0  0  0
 14 34  1  0  0  0  0
 14 35  1  0  0  0  0
 15 20  1  0  0  0  0
 15 16  2  0  0  0  0
 16 17  1  0  0  0  0
 16 36  1  0  0  0  0
 17 18  2  0  0  0  0
 17 37  1  0  0  0  0
 18 19  1  0  0  0  0
 18 38  1  0  0  0  0
 19 20  2  0  0  0  0
 19 39  1  0  0  0  0
M  END
> <s_m_source_file>
AV-unprocessed.smi

> <i_m_source_file_index>
2089

> <i_lp_mmshare_version>
43012

> <i_f3d_flags>
0

> <s_epik_input>
W0NIM11TKD1PKSg9TylOMVtDSDJdW0NIMl1bQ0gyXVtDQEhdMUMoPU8pW05IXVtDSDJdW0NIMl1jMltjSF1bY0hdW2NIXVtjSF1uMg==

> <s_epik_cmdline>
J2VwaWtfcHl0aG9uJywgJy1waCcsICc3LjAnLCAnLXRuJywgJzgnLCAnLW1hJywgJzIwMCcsICctbWV0YWxfYmluZGluZycsICctaW1hZScsICc8aW5maWxlLm1hZT4nLCAnLW9tYWUnLCAnPG91dGZpbGUubWFlPic=

> <r_epik_Ionization_Penalty>
0.0244371

> <r_epik_Ionization_Penalty_Charging>
0

> <r_epik_Ionization_Penalty_Neutral>
0.0244371

> <r_epik_State_Penalty>
0.0198365

> <r_epik_Charging_Adjusted_Penalty>
0.0198365

> <i_epik_Tot_Q>
0

> <i_epik_Tot_abs_Q>
0

> <r_epik_Metal_State_Penalty>
0.0190441

> <b_epik_Metal_Only>
0

> <s_lp_Force_Field>
OPLS_2005

> <r_lp_Energy>
6.09758

> <b_lp_Chiralities_Consistent>
1

> <s_lp_Variant>
AV-unprocessed.smi:2089-1

> <Gold.Version>
5.8.1

> <Gold.Id.Protein>
6NUR|6NUR_protein|mol2

> <Gold.PLP.Fitness>
42.9858

> <Gold.PLP.PLP>
-37.8404

> <Gold.PLP.part.hbond>
-3.0000

> <Gold.PLP.part.metal>
0.0000

> <Gold.PLP.part.buried>
-5.4197

> <Gold.PLP.part.nonpolar>
-31.6689

> <Gold.PLP.part.repulsive>
1.4772

> <Gold.PLP.ligand.clash>
0.0000

> <Gold.PLP.ligand.torsion>
0.7083

> <Gold.PLP.Chemscore.Hbond>
1.1200

> <Gold.PLP.Chemscore.CHOScore>
0.8854

> <Gold.PLP.Chemscore.Metal>
0.0000

> <Gold.Chemscore.Hbonds>
donor molecule, donor type, donor heavy atom, donor atom, acceptor molecule, acceptor atom, score
      P1  H  7989  7998       L1    11  0.32
      P1  H  8011  8017       L1    11  0.83
      L1  C    19    39       P1  8028  0.76

> <Gold.PLP.Chemscore.Internal.Correction>
0.5458

> <Gold.Rescore>
     Score         DG    S(hbond)    S(metal)    S(lipo)     H(rot)  DE(clash)    DE(int)     intcor
     14.38     -15.60       1.10        0.00      96.61       1.90       0.46       0.76       ----

> <Gold.Chemscore.Fitness>
14.3837

> <Gold.Chemscore.DG>
-15.5960

> <Gold.Chemscore.ZeroCoef>
-5.4800

> <Gold.Chemscore.Hbond>
1.0998

> <Gold.Chemscore.Metal>
0.0000

> <Gold.Chemscore.Lipo>
96.6141

> <Gold.Chemscore.Internal_Hbond>
0.0000

> <Gold.Chemscore.DEClash>
0.4568

> <Gold.Chemscore.DEInternal>
0.7555

> <Gold.Chemscore.Rot>
1.8990

> <Gold.Chemscore.Internal.Correction>
   9.000000E+99

> <Gold.Chemscore.Hbonds>
donor molecule, donor type, donor heavy atom, donor atom, acceptor molecule, acceptor atom, score
      P1  H  7989  7998       L1    11  0.31
      P1  H  8011  8017       L1    11  0.80

> <Gold.Chemscore.Hbond.Weighted>
-3.6735

> <Gold.Chemscore.Metal.Weighted>
-0.0000

> <Gold.Chemscore.Lipo.Weighted>
-11.3039

> <Gold.Chemscore.Internal_Hbond.Weighted>
0.0000

> <Gold.Chemscore.DEClash.Weighted>
0.4568

> <Gold.Chemscore.DEInternal.Weighted>
0.7555

> <Gold.Chemscore.Rot.Weighted>
4.8613

> <Gold.Chemscore.Internal.Correction.Weighted>
   9.000000E+99

> <Gold.Protein.RotatedTorsions>
[ 6907 6896 6895 6894 ] final   61.48 input  -60.11 | X-H torsion
[ 7974 7965 7964 7962 ] final    9.00 input  175.53 | X-H torsion
[ 8008 7997 7996 7995 ] final -134.15 input   59.86 | X-H torsion
[ 10167 10162 10161 10158 ] final -133.97 input  -65.29 | X-H torsion
[ 10718 10713 10712 10709 ] final  -21.77 input   66.30 | X-H torsion
[ 10763 10752 10751 10750 ] final   82.19 input  -60.55 | X-H torsion
[ 11005 11000 10999 10996 ] final -150.19 input  -57.11 | X-H torsion

> <Gold.Protein.ActiveResidues>
 VAL166  LYS551  ARG553  GLY616  TRP617  ASP618  TYR619  PRO620  LYS621  CYS622 
 ASP623  PHE694  ASN695  SER759  ASP760  ASP761  ALA762  ILE779  LEU786  VAL792 
 PHE793  MET794  SER795  GLU796  ALA797  LYS798  CYS799  TRP800  GLU811  SER814 

> <Gold.Protein.RotatedAtoms>
  152.4092  134.6154  160.0036 H   0  0  0  0  0  0  0  0  0  0  0  0  # atno 6907 bound_to 6896
  151.6337  133.3325  159.3122 H   0  0  0  0  0  0  0  0  0  0  0  0  # atno 6908 bound_to 6896
  150.7984  134.7101  159.6644 H   0  0  0  0  0  0  0  0  0  0  0  0  # atno 6909 bound_to 6896
  146.2409  139.9848  142.8432 H   0  0  0  0  0  0  0  0  0  0  0  0  # atno 7974 bound_to 7965
  155.3573  140.0480  157.3046 H   0  0  0  0  0  0  0  0  0  0  0  0  # atno 8008 bound_to 7997
  154.5196  140.2220  155.8964 H   0  0  0  0  0  0  0  0  0  0  0  0  # atno 8009 bound_to 7997
  156.1675  140.3103  155.8920 H   0  0  0  0  0  0  0  0  0  0  0  0  # atno 8010 bound_to 7997
  139.8928  143.6701  152.2609 H   0  0  0  0  0  0  0  0  0  0  0  0  # atno 10167 bound_to 10162
  156.5136  130.4616  149.6634 H   0  0  0  0  0  0  0  0  0  0  0  0  # atno 10718 bound_to 10713
  153.1181  135.4737  154.9150 H   0  0  0  0  0  0  0  0  0  0  0  0  # atno 10763 bound_to 10752
  154.7548  135.3115  154.8492 H   0  0  0  0  0  0  0  0  0  0  0  0  # atno 10764 bound_to 10752
  153.9063  135.6870  153.4806 H   0  0  0  0  0  0  0  0  0  0  0  0  # atno 10765 bound_to 10752
  140.7428  134.3495  157.5144 H   0  0  0  0  0  0  0  0  0  0  0  0  # atno 11005 bound_to 11000
  145.1558  140.9647  143.4406 LP  0  0  0  0  0  0  0  0  0  0  0  0  # atno 17320 bound_to 7965
  145.0162  139.3465  143.6095 LP  0  0  0  0  0  0  0  0  0  0  0  0  # atno 17321 bound_to 7965
  139.7094  144.7622  151.1137 LP  0  0  0  0  0  0  0  0  0  0  0  0  # atno 17342 bound_to 10162
  140.7723  143.5351  150.9378 LP  0  0  0  0  0  0  0  0  0  0  0  0  # atno 17343 bound_to 10162
  156.3216  130.7284  151.2197 LP  0  0  0  0  0  0  0  0  0  0  0  0  # atno 17370 bound_to 10713
  157.7447  131.0454  150.4841 LP  0  0  0  0  0  0  0  0  0  0  0  0  # atno 17371 bound_to 10713
  139.8803  134.9092  156.2984 LP  0  0  0  0  0  0  0  0  0  0  0  0  # atno 17394 bound_to 11000
  140.9821  133.7260  156.0688 LP  0  0  0  0  0  0  0  0  0  0  0  0  # atno 17395 bound_to 11000

$$$$
