AV-unprocessed.smi:3350|AV-procd|sdf|12944|dock1
  -GOLD-   2272019373D 1   1.00000     0.00000
 Structure written by MMmdl.
 41 42  0  0  0  0  0  0  0  0  1 V2000
  145.2795  135.6767  150.9740 C   0  0  0  0  0  0  0  0  0  0  0  0
  145.3128  135.1437  152.4127 C   0  0  1  0  0  0  0  0  0  0  0  0
  144.5982  133.7791  152.5222 C   0  0  0  0  0  0  0  0  0  0  0  0
  144.9265  132.8826  151.4280 N   0  0  0  0  0  0  0  0  0  0  0  0
  144.0846  132.3483  150.4752 C   0  0  0  0  0  0  0  0  0  0  0  0
  144.8479  131.5824  149.6420 C   0  0  0  0  0  0  0  0  0  0  0  0
  146.1605  131.7076  150.1769 C   0  0  0  0  0  0  0  0  0  0  0  0
  146.2037  132.4828  151.2484 N   0  0  0  0  0  0  0  0  0  0  0  0
  146.7056  135.0389  152.8467 N   0  0  0  0  0  0  0  0  0  0  0  0
  147.1450  134.3350  153.9003 C   0  0  0  0  0  0  0  0  0  0  0  0
  146.4128  133.6997  154.6588 O   0  0  0  0  0  0  0  0  0  0  0  0
  148.4815  134.3921  154.0071 N   0  0  0  0  0  0  0  0  0  0  0  0
  149.3230  133.7164  154.9977 C   0  0  2  0  0  0  0  0  0  0  0  0
  150.4740  134.6289  155.4634 C   0  0  0  0  0  0  0  0  0  0  0  0
  149.8091  132.3386  154.4951 C   0  0  1  0  0  0  0  0  0  0  0  0
  150.6907  131.5755  155.4841 C   0  0  0  0  0  0  0  0  0  0  0  0
  150.5031  130.1214  155.0811 C   0  0  0  0  0  0  0  0  0  0  0  0
  149.2490  130.1364  154.2026 C   0  0  0  0  0  0  0  0  0  0  0  0
  148.7162  131.4469  154.3355 O   0  0  0  0  0  0  0  0  0  0  0  0
  144.2538  135.8062  150.6281 H   0  0  0  0  0  0  0  0  0  0  0  0
  145.7792  134.9949  150.2848 H   0  0  0  0  0  0  0  0  0  0  0  0
  145.7742  136.6460  150.9023 H   0  0  0  0  0  0  0  0  0  0  0  0
  144.7848  135.8685  153.0355 H   0  0  0  0  0  0  0  0  0  0  0  0
  144.8728  133.2852  153.4554 H   0  0  0  0  0  0  0  0  0  0  0  0
  143.5159  133.9140  152.5506 H   0  0  0  0  0  0  0  0  0  0  0  0
  143.0264  132.5633  150.4639 H   0  0  0  0  0  0  0  0  0  0  0  0
  144.5199  131.0209  148.7801 H   0  0  0  0  0  0  0  0  0  0  0  0
  147.0772  131.2612  149.8209 H   0  0  0  0  0  0  0  0  0  0  0  0
  147.3903  135.5253  152.2869 H   0  0  0  0  0  0  0  0  0  0  0  0
  148.9724  134.9523  153.3261 H   0  0  0  0  0  0  0  0  0  0  0  0
  148.6749  133.5476  155.8582 H   0  0  0  0  0  0  0  0  0  0  0  0
  151.0029  134.1934  156.3111 H   0  0  0  0  0  0  0  0  0  0  0  0
  150.0994  135.6027  155.7806 H   0  0  0  0  0  0  0  0  0  0  0  0
  151.2062  134.7950  154.6729 H   0  0  0  0  0  0  0  0  0  0  0  0
  150.3324  132.4296  153.5417 H   0  0  0  0  0  0  0  0  0  0  0  0
  151.7336  131.8920  155.4507 H   0  0  0  0  0  0  0  0  0  0  0  0
  150.3280  131.7200  156.5028 H   0  0  0  0  0  0  0  0  0  0  0  0
  151.3605  129.7509  154.5182 H   0  0  0  0  0  0  0  0  0  0  0  0
  150.3765  129.4857  155.9581 H   0  0  0  0  0  0  0  0  0  0  0  0
  149.5103  129.9592  153.1585 H   0  0  0  0  0  0  0  0  0  0  0  0
  148.5180  129.3854  154.5024 H   0  0  0  0  0  0  0  0  0  0  0  0
  1  2  1  0  0  0  0
  1 20  1  0  0  0  0
  1 21  1  0  0  0  0
  1 22  1  0  0  0  0
  2  3  1  0  0  0  0
  2  9  1  0  0  0  0
  2 23  1  0  0  0  0
  3  4  1  0  0  0  0
  3 24  1  0  0  0  0
  3 25  1  0  0  0  0
  4  8  1  0  0  0  0
  4  5  1  0  0  0  0
  5  6  2  0  0  0  0
  5 26  1  0  0  0  0
  6  7  1  0  0  0  0
  6 27  1  0  0  0  0
  7  8  2  0  0  0  0
  7 28  1  0  0  0  0
  9 10  1  0  0  0  0
  9 29  1  0  0  0  0
 10 11  2  0  0  0  0
 10 12  1  0  0  0  0
 12 13  1  0  0  0  0
 12 30  1  0  0  0  0
 13 14  1  0  0  0  0
 13 15  1  0  0  0  0
 13 31  1  0  0  0  0
 14 32  1  0  0  0  0
 14 33  1  0  0  0  0
 14 34  1  0  0  0  0
 15 19  1  0  0  0  0
 15 16  1  0  0  0  0
 15 35  1  0  0  0  0
 16 17  1  0  0  0  0
 16 36  1  0  0  0  0
 16 37  1  0  0  0  0
 17 18  1  0  0  0  0
 17 38  1  0  0  0  0
 17 39  1  0  0  0  0
 18 19  1  0  0  0  0
 18 40  1  0  0  0  0
 18 41  1  0  0  0  0
M  END
> <s_m_source_file>
AV-unprocessed.smi

> <i_m_source_file_index>
3350

> <i_lp_mmshare_version>
43012

> <i_f3d_flags>
0

> <s_epik_input>
bjFbY0hdW2NIXVtjSF1uMVtDSDJdW0NAQEhdKFtDSDNdKVtOSF1DKD1PKVtOSF1bQ0BIXShbQ0gzXSlbQ0BASF0yW0NIMl1bQ0gyXVtDSDJdTzI=

> <s_epik_cmdline>
J2VwaWtfcHl0aG9uJywgJy1waCcsICc3LjAnLCAnLXRuJywgJzgnLCAnLW1hJywgJzIwMCcsICctbWV0YWxfYmluZGluZycsICctaW1hZScsICc8aW5maWxlLm1hZT4nLCAnLW9tYWUnLCAnPG91dGZpbGUubWFlPic=

> <r_lp_tautomer_probability>
1

> <r_epik_Ionization_Penalty>
6.42349e-05

> <r_epik_Ionization_Penalty_Charging>
0

> <r_epik_Ionization_Penalty_Neutral>
6.42349e-05

> <r_epik_State_Penalty>
-0

> <r_epik_Charging_Adjusted_Penalty>
0

> <i_epik_Tot_Q>
0

> <i_epik_Tot_abs_Q>
0

> <r_epik_Metal_State_Penalty>
-0

> <b_epik_Metal_Only>
0

> <s_lp_Force_Field>
OPLS_2005

> <r_lp_Energy>
15.9813

> <b_lp_Chiralities_Consistent>
1

> <s_lp_Variant>
AV-unprocessed.smi:3350-6

> <Gold.Version>
5.8.1

> <Gold.Id.Protein>
6NUR|6NUR_protein|mol2

> <Gold.PLP.Fitness>
45.4812

> <Gold.PLP.PLP>
-34.8642

> <Gold.PLP.part.hbond>
-2.0000

> <Gold.PLP.part.metal>
0.0000

> <Gold.PLP.part.buried>
-3.9377

> <Gold.PLP.part.nonpolar>
-29.4175

> <Gold.PLP.part.repulsive>
0.3025

> <Gold.PLP.ligand.clash>
0.0000

> <Gold.PLP.ligand.torsion>
0.7838

> <Gold.PLP.Chemscore.Hbond>
2.0000

> <Gold.PLP.Chemscore.CHOScore>
2.0000

> <Gold.PLP.Chemscore.Metal>
0.0000

> <Gold.Chemscore.Hbonds>
donor molecule, donor type, donor heavy atom, donor atom, acceptor molecule, acceptor atom, score
      L1  H     9    29       P1  7948  1.00
      L1  H    12    30       P1  7948  1.00
      L1  C     5    26       P1 10186  0.10
      L1  C     7    28       P1 10747  0.86

> <Gold.PLP.Chemscore.Internal.Correction>
0.1847

> <Gold.Rescore>
     Score         DG    S(hbond)    S(metal)    S(lipo)     H(rot)  DE(clash)    DE(int)     intcor
     12.62     -15.03       1.53        0.00      77.86       1.82       0.35       2.07       ----

> <Gold.Chemscore.Fitness>
12.6187

> <Gold.Chemscore.DG>
-15.0350

> <Gold.Chemscore.ZeroCoef>
-5.4800

> <Gold.Chemscore.Hbond>
1.5282

> <Gold.Chemscore.Metal>
0.0000

> <Gold.Chemscore.Lipo>
77.8556

> <Gold.Chemscore.Internal_Hbond>
0.0000

> <Gold.Chemscore.DEClash>
0.3476

> <Gold.Chemscore.DEInternal>
2.0687

> <Gold.Chemscore.Rot>
1.8197

> <Gold.Chemscore.Internal.Correction>
   9.000000E+99

> <Gold.Chemscore.Hbonds>
donor molecule, donor type, donor heavy atom, donor atom, acceptor molecule, acceptor atom, score
      L1  H     9    29       P1  7948  0.99
      L1  H    12    30       P1  7948  0.25

> <Gold.Chemscore.Hbond.Weighted>
-5.1042

> <Gold.Chemscore.Metal.Weighted>
-0.0000

> <Gold.Chemscore.Lipo.Weighted>
-9.1091

> <Gold.Chemscore.Internal_Hbond.Weighted>
0.0000

> <Gold.Chemscore.DEClash.Weighted>
0.3476

> <Gold.Chemscore.DEInternal.Weighted>
2.0687

> <Gold.Chemscore.Rot.Weighted>
4.6583

> <Gold.Chemscore.Internal.Correction.Weighted>
   9.000000E+99

> <Gold.Protein.RotatedTorsions>
[ 6907 6896 6895 6894 ] final  167.57 input  -60.11 | X-H torsion
[ 7974 7965 7964 7962 ] final -130.86 input  175.53 | X-H torsion
[ 8008 7997 7996 7995 ] final   36.51 input   59.86 | X-H torsion
[ 10167 10162 10161 10158 ] final   -1.75 input  -65.29 | X-H torsion
[ 10718 10713 10712 10709 ] final -120.02 input   66.30 | X-H torsion
[ 10763 10752 10751 10750 ] final   45.28 input  -60.55 | X-H torsion
[ 11005 11000 10999 10996 ] final -136.30 input  -57.11 | X-H torsion

> <Gold.Protein.ActiveResidues>
 VAL166  LYS551  ARG553  GLY616  TRP617  ASP618  TYR619  PRO620  LYS621  CYS622 
 ASP623  PHE694  ASN695  SER759  ASP760  ASP761  ALA762  ILE779  LEU786  VAL792 
 PHE793  MET794  SER795  GLU796  ALA797  LYS798  CYS799  TRP800  GLU811  SER814 

> <Gold.Protein.RotatedAtoms>
  151.8612  133.3457  159.3704 H   0  0  0  0  0  0  0  0  0  0  0  0  # atno 6907 bound_to 6896
  150.7178  134.5204  159.5660 H   0  0  0  0  0  0  0  0  0  0  0  0  # atno 6908 bound_to 6896
  152.2718  134.7925  160.0464 H   0  0  0  0  0  0  0  0  0  0  0  0  # atno 6909 bound_to 6896
  144.9434  140.7264  143.4833 H   0  0  0  0  0  0  0  0  0  0  0  0  # atno 7974 bound_to 7965
  155.1886  140.3306  155.4362 H   0  0  0  0  0  0  0  0  0  0  0  0  # atno 8008 bound_to 7997
  156.2450  140.1914  156.6930 H   0  0  0  0  0  0  0  0  0  0  0  0  # atno 8009 bound_to 7997
  154.6221  140.0594  156.9614 H   0  0  0  0  0  0  0  0  0  0  0  0  # atno 8010 bound_to 7997
  140.6823  143.6738  150.8163 H   0  0  0  0  0  0  0  0  0  0  0  0  # atno 10167 bound_to 10162
  156.1226  130.6334  150.9488 H   0  0  0  0  0  0  0  0  0  0  0  0  # atno 10718 bound_to 10713
  152.9827  135.6044  154.3412 H   0  0  0  0  0  0  0  0  0  0  0  0  # atno 10763 bound_to 10752
  154.3108  135.2771  155.2568 H   0  0  0  0  0  0  0  0  0  0  0  0  # atno 10764 bound_to 10752
  154.4779  135.5925  153.6424 H   0  0  0  0  0  0  0  0  0  0  0  0  # atno 10765 bound_to 10752
  140.8818  134.1922  157.4586 H   0  0  0  0  0  0  0  0  0  0  0  0  # atno 11005 bound_to 11000
  145.2956  139.1868  143.4717 LP  0  0  0  0  0  0  0  0  0  0  0  0  # atno 17320 bound_to 7965
  146.3294  140.2939  142.8617 LP  0  0  0  0  0  0  0  0  0  0  0  0  # atno 17321 bound_to 7965
  140.0440  143.5317  152.2705 LP  0  0  0  0  0  0  0  0  0  0  0  0  # atno 17342 bound_to 10162
  139.6155  144.7618  151.2857 LP  0  0  0  0  0  0  0  0  0  0  0  0  # atno 17343 bound_to 10162
  157.6408  131.0910  150.8254 LP  0  0  0  0  0  0  0  0  0  0  0  0  # atno 17370 bound_to 10713
  156.8349  130.5028  149.5327 LP  0  0  0  0  0  0  0  0  0  0  0  0  # atno 17371 bound_to 10713
  139.8720  134.9820  156.5140 LP  0  0  0  0  0  0  0  0  0  0  0  0  # atno 17394 bound_to 11000
  140.8452  133.8174  155.9114 LP  0  0  0  0  0  0  0  0  0  0  0  0  # atno 17395 bound_to 11000

$$$$
