#       Name:                AV-unprocessed.smi:11
#       Creating user name   scv26
#       Creation time:       Thu Mar 26 15:17:40 2020


#       File generated by GOLD software.
#

@<TRIPOS>MOLECULE
AV-unprocessed.smi:11
    37    39     1
SMALL
NO_CHARGES


@<TRIPOS>ATOM
      1 ****        -3.5414   2.1107  -1.1273 C.3            1 S1                 0.0000
      2 ****        -2.3079   1.1927  -1.1091 C.3            1 S1                 0.0000
      3 ****        -0.9589   1.9008  -0.8290 C.3            1 S1                 0.0000
      4 ****        -0.7348   2.8619  -1.8417 O.3            1 S1                 0.0000
      5 ****        -0.8634   2.5326   0.5684 C.3            1 S1                 0.0000
      6 ****        -0.4153   1.3669   1.4480 C.3            1 S1                 0.0000
      7 ****         0.4328   0.5576   0.5844 N.pl3          1 S1                 0.0000
      8 ****         0.8514  -0.7329   0.9661 C.ar           1 S1                 0.0000
      9 ****         0.4916  -1.1792   2.2010 N.ar           1 S1                 0.0000
     10 ****         0.8352  -2.3915   2.6586 C.ar           1 S1                 0.0000
     11 ****         1.5626  -3.2544   1.9427 N.pl3          1 S1                 1.0000
     12 ****         1.9563  -2.8458   0.7101 C.ar           1 S1                 0.0000
     13 ****         2.7137  -3.5263  -0.2202 N.pl3          1 S1                 0.0000
     14 ****         2.8972  -2.7417  -1.3456 C.2            1 S1                 0.0000
     15 ****         2.2594  -1.5404  -1.1619 C.2            1 S1                 0.0000
     16 ****         1.6424  -1.5844   0.1409 C.ar           1 S1                 0.0000
     17 ****         0.2014   0.8890  -0.8153 C.3            1 S1                 0.0000
     18 ****         3.0974  -4.4559  -0.1241 H              1 S1                 0.0000
     19 ****        -4.4358   1.5413  -1.3803 H              1 S1                 0.0000
     20 ****        -3.4405   2.9045  -1.8675 H              1 S1                 0.0000
     21 ****        -3.7185   2.5744  -0.1577 H              1 S1                 0.0000
     22 ****        -2.4701   0.4059  -0.3715 H              1 S1                 0.0000
     23 ****        -2.2479   0.6841  -2.0724 H              1 S1                 0.0000
     24 ****         0.0882   3.2939  -1.6703 H              1 S1                 0.0000
     25 ****        -0.0866   3.2993   0.5778 H              1 S1                 0.0000
     26 ****        -1.7824   3.0000   0.9193 H              1 S1                 0.0000
     27 ****         0.1237   1.7110   2.3312 H              1 S1                 0.0000
     28 ****        -1.2784   0.7856   1.7752 H              1 S1                 0.0000
     29 ****         0.5262  -2.7117   3.6429 H              1 S1                 0.0000
     30 ****         3.4709  -3.1015  -2.1876 H              1 S1                 0.0000
     31 ****         2.2259  -0.7172  -1.8599 H              1 S1                 0.0000
     32 ****        -0.0301   0.0100  -1.4180 H              1 S1                 0.0000
     33 ****         1.1155   1.3366  -1.2078 H              1 S1                 0.0000
     34 ****         1.8188  -4.1744   2.3009 H              1 S1                 0.0000
     35 ****        -1.4752   3.5339  -1.8382 LP             1 S1                 0.0000
     36 ****        -0.6989   2.4100  -2.7331 LP             1 S1                 0.0000
     37 ****        -0.0501  -0.5793   2.7897 LP             1 S1                 0.0000
@<TRIPOS>BOND
    1    1    2 1     
    2    1   19 1     
    3    1   20 1     
    4    1   21 1     
    5    2    3 1     
    6    2   22 1     
    7    2   23 1     
    8    3   17 1     
    9    3    4 1     
   10    3    5 1     
   11    4   24 1     
   12    5    6 1     
   13    5   25 1     
   14    5   26 1     
   15    6    7 1     
   16    6   27 1     
   17    6   28 1     
   18    7    8 1     
   19    7   17 1     
   20    8   16 ar    
   21    8    9 ar    
   22    9   10 ar    
   23   10   11 ar    
   24   10   29 1     
   25   11   12 ar    
   26   11   34 1     
   27   12   16 ar    
   28   12   13 1     
   29   13   18 1     
   30   13   14 1     
   31   14   15 2     
   32   14   30 1     
   33   15   16 1     
   34   15   31 1     
   35   17   32 1     
   36   17   33 1     
   37    4   35 1     
   38    4   36 1     
   39    9   37 1     
@<TRIPOS>SUBSTRUCTURE
      1 S1             1
@<TRIPOS>SET
LONE_PAIRS      STATIC     ATOMS    <user>   **** ""
3 35 36 37
DONOR_HYDROGENS      STATIC     ATOMS    <user>   **** ""
3 24 34 18
ATOM$BLUE        STATIC     ATOMS    COLORGROUP SYSTEM
3 35 36 37
ATOM$RED        STATIC     ATOMS    COLORGROUP SYSTEM
3 24 34 18
