#       Name:                AV-unprocessed.smi:1809
#       Creating user name   scv26
#       Creation time:       Fri Mar 27 08:58:14 2020


#       File generated by GOLD software.
#

@<TRIPOS>MOLECULE
AV-unprocessed.smi:1809
    46    48     1
SMALL
NO_CHARGES


@<TRIPOS>ATOM
      1 ****        -8.1684   2.2560   0.0186 C.3            1 S1                 0.0000
      2 ****        -6.7844   2.0644  -0.4990 C.2            1 S1                 0.0000
      3 ****        -6.5150   1.8967  -1.7960 N.2            1 S1                 0.0000
      4 ****        -5.1571   1.7371  -2.0313 N.2            1 S1                 0.0000
      5 ****        -4.4217   1.7730  -0.9109 C.2            1 S1                 0.0000
      6 ****        -3.0851   1.6383  -0.9214 N.pl3          1 S1                -1.0000
      7 ****        -2.5259   0.4348  -0.6632 C.2            1 S1                 0.0000
      8 ****        -3.1244  -0.6123  -0.4066 O.2            1 S1                 0.0000
      9 ****        -1.1879   0.4438  -0.7041 N.am           1 S1                 0.0000
     10 ****        -0.3356  -0.7131  -0.4669 C.3            1 S1                 0.0000
     11 ****         1.1452  -0.3167  -0.5347 C.3            1 S1                 0.0000
     12 ****         2.0705  -1.5366  -0.3989 C.3            1 S1                 0.0000
     13 ****         3.5009  -1.1387  -0.4142 N.4            1 S1                 1.0000
     14 ****         4.3936  -2.2403   0.0066 C.3            1 S1                 0.0000
     15 ****         4.6714  -2.0323   1.5065 C.3            1 S1                 0.0000
     16 ****         4.0360  -0.6829   1.8637 C.3            1 S1                 0.0000
     17 ****         3.8009  -0.0198   0.5055 C.3            1 S1                 0.0000
     18 ****         2.7371   1.0966   0.4728 C.3            1 S1                 0.0000
     19 ****         1.4263   0.5569   0.5519 O.3            1 S1                 0.0000
     20 ****        -5.3759   2.0365   0.5485 S.3            1 S1                 0.0000
     21 ****        -8.6770   1.2942   0.0857 H              1 S1                 0.0000
     22 ****        -8.7340   2.9081  -0.6475 H              1 S1                 0.0000
     23 ****        -8.1426   2.7084   1.0101 H              1 S1                 0.0000
     24 ****        -0.7328   1.3199  -0.9137 H              1 S1                 0.0000
     25 ****        -0.5673  -1.1511   0.5055 H              1 S1                 0.0000
     26 ****        -0.5537  -1.4692  -1.2227 H              1 S1                 0.0000
     27 ****         1.3352   0.1886  -1.4840 H              1 S1                 0.0000
     28 ****         1.8418  -2.0609   0.5307 H              1 S1                 0.0000
     29 ****         1.8899  -2.2417  -1.2111 H              1 S1                 0.0000
     30 ****         3.9771  -3.2250  -0.2107 H              1 S1                 0.0000
     31 ****         5.3264  -2.1539  -0.5520 H              1 S1                 0.0000
     32 ****         4.2403  -2.8335   2.1079 H              1 S1                 0.0000
     33 ****         5.7454  -2.0219   1.6949 H              1 S1                 0.0000
     34 ****         3.0857  -0.8457   2.3742 H              1 S1                 0.0000
     35 ****         4.6662  -0.0819   2.5200 H              1 S1                 0.0000
     36 ****         4.7517   0.4101   0.1855 H              1 S1                 0.0000
     37 ****         2.8901   1.7901   1.2998 H              1 S1                 0.0000
     38 ****         2.8302   1.6816  -0.4436 H              1 S1                 0.0000
     39 ****         3.7278  -0.8578  -1.3577 H              1 S1                 0.0000
     40 ****        -7.2109   1.8873  -2.5140 LP             1 S1                 0.0000
     41 ****        -4.7669   1.6085  -2.9430 LP             1 S1                 0.0000
     42 ****        -2.5042   2.4277  -1.1200 LP             1 S1                 0.0000
     43 ****        -4.1239  -0.6221  -0.3749 LP             1 S1                 0.0000
     44 ****        -2.6103  -1.4517  -0.2301 LP             1 S1                 0.0000
     45 ****         1.3378   0.0471   1.4077 LP             1 S1                 0.0000
     46 ****         0.7663   1.3081   0.5417 LP             1 S1                 0.0000
@<TRIPOS>BOND
    1    1    2 1     
    2    1   21 1     
    3    1   22 1     
    4    1   23 1     
    5    2   20 1     
    6    2    3 2     
    7    3    4 1     
    8    4    5 2     
    9    5    6 1     
   10    5   20 1     
   11    6    7 1     
   12    7    8 2     
   13    7    9 am    
   14    9   10 1     
   15    9   24 1     
   16   10   11 1     
   17   10   25 1     
   18   10   26 1     
   19   11   19 1     
   20   11   12 1     
   21   11   27 1     
   22   12   13 1     
   23   12   28 1     
   24   12   29 1     
   25   13   17 1     
   26   13   14 1     
   27   13   39 1     
   28   14   15 1     
   29   14   30 1     
   30   14   31 1     
   31   15   16 1     
   32   15   32 1     
   33   15   33 1     
   34   16   17 1     
   35   16   34 1     
   36   16   35 1     
   37   17   18 1     
   38   17   36 1     
   39   18   19 1     
   40   18   37 1     
   41   18   38 1     
   42    3   40 1     
   43    4   41 1     
   44    6   42 1     
   45    8   43 1     
   46    8   44 1     
   47   19   45 1     
   48   19   46 1     
@<TRIPOS>SUBSTRUCTURE
      1 S1             1
@<TRIPOS>SET
LONE_PAIRS      STATIC     ATOMS    <user>   **** ""
7 40 41 42 43 44 45 46
DONOR_HYDROGENS      STATIC     ATOMS    <user>   **** ""
2 24 39
ATOM$BLUE        STATIC     ATOMS    COLORGROUP SYSTEM
7 40 41 42 43 44 45 46
ATOM$RED        STATIC     ATOMS    COLORGROUP SYSTEM
2 24 39
