AV-unprocessed.smi:1872|AV-procd|sdf|7605|dock2
  -GOLD-   22720 9323D 1   1.00000     0.00000
 Structure written by MMmdl.
 40 42  0  0  0  0  0  0  0  0  2 V2000
  142.7529  137.0736  153.2287 C   0  0  0  0  0  0  0  0  0  0  0  0
  143.4727  135.9698  152.5294 C   0  0  0  0  0  0  0  0  0  0  0  0
  142.8959  134.9425  151.8448 N   0  3  0  0  0  0  0  0  0  0  0  0
  143.8855  134.1045  151.3291 C   0  0  0  0  0  0  0  0  0  0  0  0
  143.7890  132.9414  150.5712 C   0  0  0  0  0  0  0  0  0  0  0  0
  145.0020  132.3237  150.2027 C   0  0  0  0  0  0  0  0  0  0  0  0
  146.2468  132.8646  150.5850 C   0  0  0  0  0  0  0  0  0  0  0  0
  146.3318  134.0443  151.3532 C   0  0  0  0  0  0  0  0  0  0  0  0
  145.1278  134.6481  151.7166 C   0  0  0  0  0  0  0  0  0  0  0  0
  144.8231  135.7977  152.4564 N   0  0  0  0  0  0  0  0  0  0  0  0
  145.9088  136.6151  153.0209 C   0  0  0  0  0  0  0  0  0  0  0  0
  146.1019  137.9529  152.2794 C   0  0  2  0  0  0  0  0  0  0  0  0
  146.5646  137.7187  150.9633 O   0  0  0  0  0  0  0  0  0  0  0  0
  147.0210  138.8826  153.0554 C   0  0  0  0  0  0  0  0  0  0  0  0
  147.1969  140.2160  152.6310 C   0  0  0  0  0  0  0  0  0  0  0  0
  148.0375  141.0854  153.3520 C   0  0  0  0  0  0  0  0  0  0  0  0
  148.7184  140.6367  154.5014 C   0  0  0  0  0  0  0  0  0  0  0  0
  149.5140  141.5384  155.1712 O   0  0  0  0  0  0  0  0  0  0  0  0
  150.4310  141.0817  156.0651 C   0  0  0  0  0  0  0  0  0  0  0  0
  151.3259  140.2831  155.4350 F   0  0  0  0  0  0  0  0  0  0  0  0
  151.1177  142.1159  156.6096 F   0  0  0  0  0  0  0  0  0  0  0  0
  148.5301  139.3021  154.9342 C   0  0  0  0  0  0  0  0  0  0  0  0
  147.6889  138.4322  154.2143 C   0  0  0  0  0  0  0  0  0  0  0  0
  141.6743  136.9563  153.1219 H   0  0  0  0  0  0  0  0  0  0  0  0
  143.0405  138.0374  152.8085 H   0  0  0  0  0  0  0  0  0  0  0  0
  142.9989  137.0690  154.2908 H   0  0  0  0  0  0  0  0  0  0  0  0
  142.8364  132.5262  150.2758 H   0  0  0  0  0  0  0  0  0  0  0  0
  144.9773  131.4182  149.6138 H   0  0  0  0  0  0  0  0  0  0  0  0
  147.1558  132.3655  150.2821 H   0  0  0  0  0  0  0  0  0  0  0  0
  147.2915  134.4516  151.6343 H   0  0  0  0  0  0  0  0  0  0  0  0
  145.6561  136.8058  154.0646 H   0  0  0  0  0  0  0  0  0  0  0  0
  146.8298  136.0322  153.0370 H   0  0  0  0  0  0  0  0  0  0  0  0
  145.1312  138.4406  152.1818 H   0  0  0  0  0  0  0  0  0  0  0  0
  147.2552  137.0744  151.0000 H   0  0  0  0  0  0  0  0  0  0  0  0
  146.6852  140.5799  151.7519 H   0  0  0  0  0  0  0  0  0  0  0  0
  148.1626  142.1054  153.0189 H   0  0  0  0  0  0  0  0  0  0  0  0
  149.9646  140.4975  156.8589 H   0  0  0  0  0  0  0  0  0  0  0  0
  149.0200  138.9337  155.8231 H   0  0  0  0  0  0  0  0  0  0  0  0
  147.5539  137.4176  154.5597 H   0  0  0  0  0  0  0  0  0  0  0  0
  141.8964  134.8248  151.7391 H   0  0  0  0  0  0  0  0  0  0  0  0
  1  2  1  0  0  0  0
  1 24  1  0  0  0  0
  1 25  1  0  0  0  0
  1 26  1  0  0  0  0
  2 10  1  0  0  0  0
  2  3  2  0  0  0  0
  3  4  1  0  0  0  0
  3 40  1  0  0  0  0
  4  9  2  0  0  0  0
  4  5  1  0  0  0  0
  5  6  2  0  0  0  0
  5 27  1  0  0  0  0
  6  7  1  0  0  0  0
  6 28  1  0  0  0  0
  7  8  2  0  0  0  0
  7 29  1  0  0  0  0
  8  9  1  0  0  0  0
  8 30  1  0  0  0  0
  9 10  1  0  0  0  0
 10 11  1  0  0  0  0
 11 12  1  0  0  0  0
 11 31  1  0  0  0  0
 11 32  1  0  0  0  0
 12 13  1  0  0  0  0
 12 14  1  0  0  0  0
 12 33  1  0  0  0  0
 13 34  1  0  0  0  0
 14 23  1  0  0  0  0
 14 15  2  0  0  0  0
 15 16  1  0  0  0  0
 15 35  1  0  0  0  0
 16 17  2  0  0  0  0
 16 36  1  0  0  0  0
 17 18  1  0  0  0  0
 17 22  1  0  0  0  0
 18 19  1  0  0  0  0
 19 20  1  0  0  0  0
 19 21  1  0  0  0  0
 19 37  1  0  0  0  0
 22 23  2  0  0  0  0
 22 38  1  0  0  0  0
 23 39  1  0  0  0  0
M  CHG  1   3   1
M  END
> <s_m_source_file>
AV-unprocessed.smi

> <i_m_source_file_index>
1872

> <i_lp_mmshare_version>
43012

> <i_f3d_flags>
0

> <s_epik_input>
W2NIXTFbY0hdW2NIXVtjSF1jKGMxMiluKGMobjIpW0NIM10pW0NIMl1bQ0BIXShbT0hdKWMzW2NIXVtjSF1jKE9bQ0hdKEYpRilbY0hdW2NIXTM=

> <s_epik_cmdline>
J2VwaWtfcHl0aG9uJywgJy1waCcsICc3LjAnLCAnLXRuJywgJzgnLCAnLW1hJywgJzIwMCcsICctbWV0YWxfYmluZGluZycsICctaW1hZScsICc8aW5maWxlLm1hZT4nLCAnLW9tYWUnLCAnPG91dGZpbGUubWFlPic=

> <r_lp_tautomer_probability>
1

> <r_epik_Ionization_Penalty>
0.963868

> <r_epik_Ionization_Penalty_Charging>
0.963868

> <r_epik_Ionization_Penalty_Neutral>
2.50501e-07

> <r_epik_State_Penalty>
1.00924

> <r_epik_Charging_Adjusted_Penalty>
1.9731

> <i_epik_Tot_Q>
1

> <i_epik_Tot_abs_Q>
1

> <r_epik_Metal_State_Penalty>
4.98304

> <b_epik_Metal_Only>
0

> <s_lp_Force_Field>
OPLS_2005

> <r_lp_Energy>
14.3509

> <b_lp_Chiralities_Consistent>
1

> <s_lp_Variant>
AV-unprocessed.smi:1872-3

> <Gold.Version>
5.8.1

> <Gold.Id.Protein>
6NUR|6NUR_protein|mol2

> <Gold.PLP.Fitness>
46.6813

> <Gold.PLP.PLP>
-44.5746

> <Gold.PLP.part.hbond>
-3.9151

> <Gold.PLP.part.metal>
0.0000

> <Gold.PLP.part.buried>
-2.4013

> <Gold.PLP.part.nonpolar>
-38.6218

> <Gold.PLP.part.repulsive>
0.1227

> <Gold.PLP.ligand.clash>
0.0000

> <Gold.PLP.ligand.torsion>
0.4764

> <Gold.PLP.Chemscore.Hbond>
1.0000

> <Gold.PLP.Chemscore.CHOScore>
0.0000

> <Gold.PLP.Chemscore.Metal>
0.0000

> <Gold.Chemscore.Hbonds>
donor molecule, donor type, donor heavy atom, donor atom, acceptor molecule, acceptor atom, score
      L1  H    13    34       P1  7948  0.99

> <Gold.PLP.Chemscore.Internal.Correction>
0.0596

> <Gold.Rescore>
     Score         DG    S(hbond)    S(metal)    S(lipo)     H(rot)  DE(clash)    DE(int)     intcor
     12.73     -13.94       0.95        0.00      95.87       2.32       0.28       0.93       ----

> <Gold.Chemscore.Fitness>
12.7292

> <Gold.Chemscore.DG>
-13.9438

> <Gold.Chemscore.ZeroCoef>
-5.4800

> <Gold.Chemscore.Hbond>
0.9534

> <Gold.Chemscore.Metal>
0.0000

> <Gold.Chemscore.Lipo>
95.8744

> <Gold.Chemscore.Internal_Hbond>
0.0000

> <Gold.Chemscore.DEClash>
0.2842

> <Gold.Chemscore.DEInternal>
0.9304

> <Gold.Chemscore.Rot>
2.3195

> <Gold.Chemscore.Internal.Correction>
   9.000000E+99

> <Gold.Chemscore.Hbonds>
donor molecule, donor type, donor heavy atom, donor atom, acceptor molecule, acceptor atom, score
      L1  H    13    34       P1  7948  0.90

> <Gold.Chemscore.Hbond.Weighted>
-3.1844

> <Gold.Chemscore.Metal.Weighted>
-0.0000

> <Gold.Chemscore.Lipo.Weighted>
-11.2173

> <Gold.Chemscore.Internal_Hbond.Weighted>
0.0000

> <Gold.Chemscore.DEClash.Weighted>
0.2842

> <Gold.Chemscore.DEInternal.Weighted>
0.9304

> <Gold.Chemscore.Rot.Weighted>
5.9379

> <Gold.Chemscore.Internal.Correction.Weighted>
   9.000000E+99

> <Gold.Protein.RotatedTorsions>
[ 6907 6896 6895 6894 ] final -152.20 input  -60.11 | X-H torsion
[ 7974 7965 7964 7962 ] final -101.32 input  175.53 | X-H torsion
[ 8008 7997 7996 7995 ] final   49.03 input   59.86 | X-H torsion
[ 10167 10162 10161 10158 ] final   48.22 input  -65.29 | X-H torsion
[ 10718 10713 10712 10709 ] final   91.83 input   66.30 | X-H torsion
[ 10763 10752 10751 10750 ] final  -96.21 input  -60.55 | X-H torsion
[ 11005 11000 10999 10996 ] final  116.08 input  -57.11 | X-H torsion

> <Gold.Protein.ActiveResidues>
 VAL166  LYS551  ARG553  GLY616  TRP617  ASP618  TYR619  PRO620  LYS621  CYS622 
 ASP623  PHE694  ASN695  SER759  ASP760  ASP761  ALA762  ILE779  LEU786  VAL792 
 PHE793  MET794  SER795  GLU796  ALA797  LYS798  CYS799  TRP800  GLU811  SER814 

> <Gold.Protein.RotatedAtoms>
  151.2243  133.4485  159.2601 H   0  0  0  0  0  0  0  0  0  0  0  0  # atno 6907 bound_to 6896
  151.0855  134.9884  159.8387 H   0  0  0  0  0  0  0  0  0  0  0  0  # atno 6908 bound_to 6896
  152.5429  134.2180  159.8829 H   0  0  0  0  0  0  0  0  0  0  0  0  # atno 6909 bound_to 6896
  145.2831  140.9332  143.2920 H   0  0  0  0  0  0  0  0  0  0  0  0  # atno 7974 bound_to 7965
  155.3955  140.3435  155.4254 H   0  0  0  0  0  0  0  0  0  0  0  0  # atno 8008 bound_to 7997
  156.1533  140.1578  156.8766 H   0  0  0  0  0  0  0  0  0  0  0  0  # atno 8009 bound_to 7997
  154.5072  140.0799  156.7900 H   0  0  0  0  0  0  0  0  0  0  0  0  # atno 8010 bound_to 7997
  140.2955  144.2996  150.6231 H   0  0  0  0  0  0  0  0  0  0  0  0  # atno 10167 bound_to 10162
  157.6960  131.0421  150.3790 H   0  0  0  0  0  0  0  0  0  0  0  0  # atno 10718 bound_to 10713
  154.7219  135.5092  153.8825 H   0  0  0  0  0  0  0  0  0  0  0  0  # atno 10763 bound_to 10752
  153.0870  135.6648  153.9938 H   0  0  0  0  0  0  0  0  0  0  0  0  # atno 10764 bound_to 10752
  153.9759  135.3033  155.3403 H   0  0  0  0  0  0  0  0  0  0  0  0  # atno 10765 bound_to 10752
  139.9030  134.9593  156.7143 H   0  0  0  0  0  0  0  0  0  0  0  0  # atno 11005 bound_to 11000
  144.9236  139.4382  143.6529 LP  0  0  0  0  0  0  0  0  0  0  0  0  # atno 17320 bound_to 7965
  146.3210  139.8109  142.8946 LP  0  0  0  0  0  0  0  0  0  0  0  0  # atno 17321 bound_to 7965
  140.5696  143.2182  151.7623 LP  0  0  0  0  0  0  0  0  0  0  0  0  # atno 17342 bound_to 10162
  139.4927  144.4235  151.9951 LP  0  0  0  0  0  0  0  0  0  0  0  0  # atno 17343 bound_to 10162
  156.4206  130.3952  149.6828 LP  0  0  0  0  0  0  0  0  0  0  0  0  # atno 17370 bound_to 10713
  156.4080  130.7708  151.2719 LP  0  0  0  0  0  0  0  0  0  0  0  0  # atno 17371 bound_to 10713
  140.7051  133.9272  155.8049 LP  0  0  0  0  0  0  0  0  0  0  0  0  # atno 17394 bound_to 11000
  141.0342  134.0713  157.3978 LP  0  0  0  0  0  0  0  0  0  0  0  0  # atno 17395 bound_to 11000

$$$$
