AV-unprocessed.smi:89|AV-procd|sdf|825|dock2
  -GOLD-   2262017233D 1   1.00000     0.00000
 Structure written by MMmdl.
 54 56  0  0  0  0  0  0  0  0  1 V2000
  147.8148  141.0654  154.8052 C   0  0  0  0  0  0  0  0  0  0  0  0
  146.5485  140.4715  155.4433 C   0  0  0  0  0  0  0  0  0  0  0  0
  146.4632  139.0137  155.3181 N   0  0  0  0  0  0  0  0  0  0  0  0
  146.2807  138.4890  154.0824 C   0  0  0  0  0  0  0  0  0  0  0  0
  146.8702  139.1335  153.0439 N   0  0  0  0  0  0  0  0  0  0  0  0
  146.7283  138.6711  151.7989 C   0  0  0  0  0  0  0  0  0  0  0  0
  146.0588  137.5956  151.3801 N   0  0  0  0  0  0  0  0  0  0  0  0
  145.4790  136.9342  152.4225 C   0  0  0  0  0  0  0  0  0  0  0  0
  145.5342  137.3104  153.7948 C   0  0  0  0  0  0  0  0  0  0  0  0
  144.8241  136.3952  154.5629 N   0  0  0  0  0  0  0  0  0  0  0  0
  144.3682  135.5346  153.6950 C   0  0  0  0  0  0  0  0  0  0  0  0
  144.7274  135.7722  152.3877 N   0  0  0  0  0  0  0  0  0  0  0  0
  144.3659  134.9730  151.2262 C   0  0  0  0  0  0  0  0  0  0  0  0
  143.9503  133.5166  151.5591 C   0  0  1  0  0  0  0  0  0  0  0  0
  142.6981  133.5269  152.2185 O   0  0  0  0  0  0  0  0  0  0  0  0
  143.8656  132.5911  150.3425 C   0  0  0  0  0  0  0  0  0  0  0  0
  145.1879  131.8394  150.3893 C   0  0  0  0  0  0  0  0  0  0  0  0
  145.3621  131.6231  151.7778 O   0  0  0  0  0  0  0  0  0  0  0  0
  144.9966  132.8201  152.4536 C   0  0  0  0  0  0  0  0  0  0  0  0
  145.8682  138.2150  156.3957 C   0  0  2  0  0  0  0  0  0  0  0  0
  144.4471  138.6933  156.7406 C   0  0  0  0  0  0  0  0  0  0  0  0
  146.7691  138.1520  157.6445 C   0  0  0  0  0  0  0  0  0  0  0  0
  146.1839  136.8732  158.8442 S   0  0  0  0  0  0  0  0  0  0  0  0
  145.8760  137.5410  160.1179 O   0  0  0  0  0  0  0  0  0  0  0  0
  145.1537  136.0581  158.1820 O   0  0  0  0  0  0  0  0  0  0  0  0
  147.6899  135.8332  159.0803 C   0  0  0  0  0  0  0  0  0  0  0  0
  148.8727  136.6459  159.6202 C   0  0  0  0  0  0  0  0  0  0  0  0
  147.8669  142.1391  154.9845 H   0  0  0  0  0  0  0  0  0  0  0  0
  147.8398  140.9143  153.7261 H   0  0  0  0  0  0  0  0  0  0  0  0
  148.7129  140.6148  155.2285 H   0  0  0  0  0  0  0  0  0  0  0  0
  146.5418  140.7400  156.4984 H   0  0  0  0  0  0  0  0  0  0  0  0
  145.6602  140.9345  155.0150 H   0  0  0  0  0  0  0  0  0  0  0  0
  147.2235  139.2440  151.0288 H   0  0  0  0  0  0  0  0  0  0  0  0
  143.7601  134.6912  153.9883 H   0  0  0  0  0  0  0  0  0  0  0  0
  143.5540  135.4838  150.7067 H   0  0  0  0  0  0  0  0  0  0  0  0
  145.2129  134.9729  150.5386 H   0  0  0  0  0  0  0  0  0  0  0  0
  142.7037  132.8564  152.8842 H   0  0  0  0  0  0  0  0  0  0  0  0
  143.0527  131.8722  150.4600 H   0  0  0  0  0  0  0  0  0  0  0  0
  143.7092  133.1009  149.3933 H   0  0  0  0  0  0  0  0  0  0  0  0
  145.1616  130.9018  149.8337 H   0  0  0  0  0  0  0  0  0  0  0  0
  146.0039  132.4518  150.0026 H   0  0  0  0  0  0  0  0  0  0  0  0
  145.8902  133.4351  152.5698 H   0  0  0  0  0  0  0  0  0  0  0  0
  144.6271  132.5921  153.4543 H   0  0  0  0  0  0  0  0  0  0  0  0
  145.7636  137.1873  156.0440 H   0  0  0  0  0  0  0  0  0  0  0  0
  143.9852  138.0399  157.4809 H   0  0  0  0  0  0  0  0  0  0  0  0
  143.8051  138.6928  155.8593 H   0  0  0  0  0  0  0  0  0  0  0  0
  144.4510  139.7037  157.1505 H   0  0  0  0  0  0  0  0  0  0  0  0
  147.8074  137.9480  157.3885 H   0  0  0  0  0  0  0  0  0  0  0  0
  146.7494  139.1114  158.1613 H   0  0  0  0  0  0  0  0  0  0  0  0
  147.4394  135.0124  159.7520 H   0  0  0  0  0  0  0  0  0  0  0  0
  147.9457  135.3984  158.1139 H   0  0  0  0  0  0  0  0  0  0  0  0
  149.7578  136.0171  159.7187 H   0  0  0  0  0  0  0  0  0  0  0  0
  148.6564  137.0639  160.6025 H   0  0  0  0  0  0  0  0  0  0  0  0
  149.1246  137.4690  158.9517 H   0  0  0  0  0  0  0  0  0  0  0  0
  1  2  1  0  0  0  0
  1 28  1  0  0  0  0
  1 29  1  0  0  0  0
  1 30  1  0  0  0  0
  2  3  1  0  0  0  0
  2 31  1  0  0  0  0
  2 32  1  0  0  0  0
  3  4  1  0  0  0  0
  3 20  1  0  0  0  0
  4  9  1  0  0  0  0
  4  5  2  0  0  0  0
  5  6  1  0  0  0  0
  6  7  2  0  0  0  0
  6 33  1  0  0  0  0
  7  8  1  0  0  0  0
  8 12  1  0  0  0  0
  8  9  2  0  0  0  0
  9 10  1  0  0  0  0
 10 11  2  0  0  0  0
 11 12  1  0  0  0  0
 11 34  1  0  0  0  0
 12 13  1  0  0  0  0
 13 14  1  0  0  0  0
 13 35  1  0  0  0  0
 13 36  1  0  0  0  0
 14 19  1  0  0  0  0
 14 15  1  0  0  0  0
 14 16  1  0  0  0  0
 15 37  1  0  0  0  0
 16 17  1  0  0  0  0
 16 38  1  0  0  0  0
 16 39  1  0  0  0  0
 17 18  1  0  0  0  0
 17 40  1  0  0  0  0
 17 41  1  0  0  0  0
 18 19  1  0  0  0  0
 19 42  1  0  0  0  0
 19 43  1  0  0  0  0
 20 21  1  0  0  0  0
 20 22  1  0  0  0  0
 20 44  1  0  0  0  0
 21 45  1  0  0  0  0
 21 46  1  0  0  0  0
 21 47  1  0  0  0  0
 22 23  1  0  0  0  0
 22 48  1  0  0  0  0
 22 49  1  0  0  0  0
 23 24  2  0  0  0  0
 23 25  2  0  0  0  0
 23 26  1  0  0  0  0
 26 27  1  0  0  0  0
 26 50  1  0  0  0  0
 26 51  1  0  0  0  0
 27 52  1  0  0  0  0
 27 53  1  0  0  0  0
 27 54  1  0  0  0  0
M  END
> <s_m_source_file>
AV-unprocessed.smi

> <i_m_source_file_index>
89

> <i_lp_mmshare_version>
43012

> <i_f3d_flags>
0

> <s_epik_input>
W0NIM11bQ0gyXVMoPU8pKD1PKVtDSDJdW0NAQEhdKFtDSDNdKU4oW0NIMl1bQ0gzXSljKG5bY0hdbjEpYyhjMTIpbltjSF1uMltDSDJdW0NAQF0zKFtPSF0pW0NIMl1bQ0gyXU9bQ0gyXTM=

> <s_epik_cmdline>
J2VwaWtfcHl0aG9uJywgJy1waCcsICc3LjAnLCAnLXRuJywgJzgnLCAnLW1hJywgJzIwMCcsICctbWV0YWxfYmluZGluZycsICctaW1hZScsICc8aW5maWxlLm1hZT4nLCAnLW9tYWUnLCAnPG91dGZpbGUubWFlPic=

> <r_lp_tautomer_probability>
1

> <r_epik_Ionization_Penalty>
0.00103773

> <r_epik_Ionization_Penalty_Charging>
0

> <r_epik_Ionization_Penalty_Neutral>
0.00103773

> <r_epik_State_Penalty>
0.000558914

> <r_epik_Charging_Adjusted_Penalty>
0.000558914

> <i_epik_Tot_Q>
0

> <i_epik_Tot_abs_Q>
0

> <r_epik_Metal_State_Penalty>
-0

> <b_epik_Metal_Only>
0

> <s_lp_Force_Field>
OPLS_2005

> <r_lp_Energy>
26.0666

> <b_lp_Chiralities_Consistent>
1

> <s_lp_Variant>
AV-unprocessed.smi:89-1

> <Gold.Version>
5.8.1

> <Gold.Id.Protein>
6NUR|6NUR_protein|mol2

> <Gold.PLP.Fitness>
36.8816

> <Gold.PLP.PLP>
-29.8348

> <Gold.PLP.part.hbond>
-2.0000

> <Gold.PLP.part.metal>
0.0000

> <Gold.PLP.part.buried>
-7.3288

> <Gold.PLP.part.nonpolar>
-24.5263

> <Gold.PLP.part.repulsive>
2.6782

> <Gold.PLP.ligand.clash>
0.0000

> <Gold.PLP.ligand.torsion>
1.3568

> <Gold.PLP.Chemscore.Hbond>
1.9913

> <Gold.PLP.Chemscore.CHOScore>
0.7352

> <Gold.PLP.Chemscore.Metal>
0.0000

> <Gold.Chemscore.Hbonds>
donor molecule, donor type, donor heavy atom, donor atom, acceptor molecule, acceptor atom, score
      L1  H    15    37       P1 10957  0.65
      P1  H  6934  6947       L1    24  0.80
      L1  C     6    33       P1  7957  0.92

> <Gold.PLP.Chemscore.Internal.Correction>
1.5810

> <Gold.Rescore>
     Score         DG    S(hbond)    S(metal)    S(lipo)     H(rot)  DE(clash)    DE(int)     intcor
      4.27      -9.79       1.95        0.00      49.95       3.14       0.13       5.39       ----

> <Gold.Chemscore.Fitness>
4.2749

> <Gold.Chemscore.DG>
-9.7894

> <Gold.Chemscore.ZeroCoef>
-5.4800

> <Gold.Chemscore.Hbond>
1.9461

> <Gold.Chemscore.Metal>
0.0000

> <Gold.Chemscore.Lipo>
49.9524

> <Gold.Chemscore.Internal_Hbond>
0.0000

> <Gold.Chemscore.DEClash>
0.1265

> <Gold.Chemscore.DEInternal>
5.3881

> <Gold.Chemscore.Rot>
3.1386

> <Gold.Chemscore.Internal.Correction>
   9.000000E+99

> <Gold.Chemscore.Hbonds>
donor molecule, donor type, donor heavy atom, donor atom, acceptor molecule, acceptor atom, score
      L1  H    15    37       P1 10957  0.19
      P1  H  6934  6947       L1    24  0.76

> <Gold.Chemscore.Hbond.Weighted>
-6.4999

> <Gold.Chemscore.Metal.Weighted>
-0.0000

> <Gold.Chemscore.Lipo.Weighted>
-5.8444

> <Gold.Chemscore.Internal_Hbond.Weighted>
0.0000

> <Gold.Chemscore.DEClash.Weighted>
0.1265

> <Gold.Chemscore.DEInternal.Weighted>
5.3881

> <Gold.Chemscore.Rot.Weighted>
8.0349

> <Gold.Chemscore.Internal.Correction.Weighted>
   9.000000E+99

> <Gold.Protein.RotatedTorsions>
[ 6907 6896 6895 6894 ] final    7.19 input  -60.11 | X-H torsion
[ 7974 7965 7964 7962 ] final -168.68 input  175.53 | X-H torsion
[ 8008 7997 7996 7995 ] final -170.62 input   59.86 | X-H torsion
[ 10167 10162 10161 10158 ] final -129.58 input  -65.29 | X-H torsion
[ 10718 10713 10712 10709 ] final -172.78 input   66.30 | X-H torsion
[ 10763 10752 10751 10750 ] final  -42.16 input  -60.55 | X-H torsion
[ 11005 11000 10999 10996 ] final  -65.66 input  -57.11 | X-H torsion

> <Gold.Protein.ActiveResidues>
 VAL166  LYS551  ARG553  GLY616  TRP617  ASP618  TYR619  PRO620  LYS621  CYS622 
 ASP623  PHE694  ASN695  SER759  ASP760  ASP761  ALA762  ILE779  LEU786  VAL792 
 PHE793  MET794  SER795  GLU796  ALA797  LYS798  CYS799  TRP800  GLU811  SER814 

> <Gold.Protein.RotatedAtoms>
  151.6859  135.0954  160.0224 H   0  0  0  0  0  0  0  0  0  0  0  0  # atno 6907 bound_to 6896
  152.3807  133.6538  159.6168 H   0  0  0  0  0  0  0  0  0  0  0  0  # atno 6908 bound_to 6896
  150.7745  133.9034  159.3389 H   0  0  0  0  0  0  0  0  0  0  0  0  # atno 6909 bound_to 6896
  144.7199  140.2334  143.6301 H   0  0  0  0  0  0  0  0  0  0  0  0  # atno 7974 bound_to 7965
  155.9208  140.1074  157.1208 H   0  0  0  0  0  0  0  0  0  0  0  0  # atno 8008 bound_to 7997
  154.4054  140.1256  156.4742 H   0  0  0  0  0  0  0  0  0  0  0  0  # atno 8009 bound_to 7997
  155.7198  140.3470  155.5013 H   0  0  0  0  0  0  0  0  0  0  0  0  # atno 8010 bound_to 7997
  139.9383  143.6192  152.2510 H   0  0  0  0  0  0  0  0  0  0  0  0  # atno 10167 bound_to 10162
  156.7606  130.9412  151.3118 H   0  0  0  0  0  0  0  0  0  0  0  0  # atno 10718 bound_to 10713
  153.9745  135.6724  153.4748 H   0  0  0  0  0  0  0  0  0  0  0  0  # atno 10763 bound_to 10752
  153.0777  135.4940  154.8435 H   0  0  0  0  0  0  0  0  0  0  0  0  # atno 10764 bound_to 10752
  154.7200  135.3115  154.9024 H   0  0  0  0  0  0  0  0  0  0  0  0  # atno 10765 bound_to 10752
  141.1461  133.6685  156.6021 H   0  0  0  0  0  0  0  0  0  0  0  0  # atno 11005 bound_to 11000
  145.8389  139.2120  143.1839 LP  0  0  0  0  0  0  0  0  0  0  0  0  # atno 17320 bound_to 7965
  146.0364  140.8208  142.9850 LP  0  0  0  0  0  0  0  0  0  0  0  0  # atno 17321 bound_to 7965
  139.6725  144.7660  151.1757 LP  0  0  0  0  0  0  0  0  0  0  0  0  # atno 17342 bound_to 10162
  140.7618  143.5844  150.8861 LP  0  0  0  0  0  0  0  0  0  0  0  0  # atno 17343 bound_to 10162
  157.6736  130.9074  150.0098 LP  0  0  0  0  0  0  0  0  0  0  0  0  # atno 17370 bound_to 10713
  156.1342  130.3643  149.9684 LP  0  0  0  0  0  0  0  0  0  0  0  0  # atno 17371 bound_to 10713
  140.3681  134.7630  157.4579 LP  0  0  0  0  0  0  0  0  0  0  0  0  # atno 17394 bound_to 11000
  140.0732  134.5833  155.8619 LP  0  0  0  0  0  0  0  0  0  0  0  0  # atno 17395 bound_to 11000

$$$$
