AV-unprocessed.smi:2850|AV-procd|sdf|10965|dock4
  -GOLD-   2272015413D 1   1.00000     0.00000
 Structure written by MMmdl.
 45 46  0  0  0  0  0  0  0  0  2 V2000
  147.1551  135.8983  162.9919 C   0  0  0  0  0  0  0  0  0  0  0  0
  146.1749  134.4072  162.6644 S   0  0  0  0  0  0  0  0  0  0  0  0
  146.7311  133.7428  161.1241 C   0  0  0  0  0  0  0  0  0  0  0  0
  146.1852  132.5488  160.6204 C   0  0  0  0  0  0  0  0  0  0  0  0
  146.6803  132.0910  159.3871 C   0  0  0  0  0  0  0  0  0  0  0  0
  147.6780  132.8598  158.7543 C   0  0  0  0  0  0  0  0  0  0  0  0
  148.1809  132.4269  157.5191 N   0  0  0  0  0  0  0  0  0  0  0  0
  149.0292  133.2770  156.6910 C   0  0  0  0  0  0  0  0  0  0  0  0
  148.7214  133.1596  155.1864 C   0  0  2  0  0  0  0  0  0  0  0  0
  147.4768  133.9664  154.7617 C   0  0  0  0  0  0  0  0  0  0  0  0
  147.1864  133.7538  153.3241 N   0  3  2  0  0  0  0  0  0  0  0  0
  146.0461  134.5772  152.8460 C   0  0  0  0  0  0  0  0  0  0  0  0
  145.7864  134.4322  151.3307 C   0  0  0  0  0  0  0  0  0  0  0  0
  145.0904  135.6724  150.7443 C   0  0  0  0  0  0  0  0  0  0  0  0
  144.9606  133.1694  151.0435 C   0  0  0  0  0  0  0  0  0  0  0  0
  147.0415  132.3057  153.0373 C   0  0  0  0  0  0  0  0  0  0  0  0
  148.2837  131.5396  153.5203 C   0  0  0  0  0  0  0  0  0  0  0  0
  148.4868  131.7838  154.9064 O   0  0  0  0  0  0  0  0  0  0  0  0
  148.1580  134.0040  159.3045 N   0  0  0  0  0  0  0  0  0  0  0  0
  147.6894  134.4447  160.4773 N   0  0  0  0  0  0  0  0  0  0  0  0
  146.8498  136.3464  163.9373 H   0  0  0  0  0  0  0  0  0  0  0  0
  147.0105  136.6333  162.1999 H   0  0  0  0  0  0  0  0  0  0  0  0
  148.2155  135.6524  163.0533 H   0  0  0  0  0  0  0  0  0  0  0  0
  145.4196  132.0066  161.1554 H   0  0  0  0  0  0  0  0  0  0  0  0
  146.3033  131.1812  158.9433 H   0  0  0  0  0  0  0  0  0  0  0  0
  147.9551  131.4997  157.1885 H   0  0  0  0  0  0  0  0  0  0  0  0
  148.9278  134.3134  157.0154 H   0  0  0  0  0  0  0  0  0  0  0  0
  150.0683  133.0030  156.8758 H   0  0  0  0  0  0  0  0  0  0  0  0
  149.5871  133.4901  154.6103 H   0  0  0  0  0  0  0  0  0  0  0  0
  146.6112  133.6731  155.3581 H   0  0  0  0  0  0  0  0  0  0  0  0
  147.6470  135.0285  154.9420 H   0  0  0  0  0  0  0  0  0  0  0  0
  145.1529  134.3181  153.4167 H   0  0  0  0  0  0  0  0  0  0  0  0
  146.2461  135.6288  153.0581 H   0  0  0  0  0  0  0  0  0  0  0  0
  146.7381  134.3064  150.8151 H   0  0  0  0  0  0  0  0  0  0  0  0
  144.1269  135.8510  151.2229 H   0  0  0  0  0  0  0  0  0  0  0  0
  144.9117  135.5520  149.6754 H   0  0  0  0  0  0  0  0  0  0  0  0
  145.6968  136.5696  150.8707 H   0  0  0  0  0  0  0  0  0  0  0  0
  143.9800  133.2197  151.5178 H   0  0  0  0  0  0  0  0  0  0  0  0
  145.4641  132.2759  151.4138 H   0  0  0  0  0  0  0  0  0  0  0  0
  144.8047  133.0364  149.9725 H   0  0  0  0  0  0  0  0  0  0  0  0
  146.1502  131.9209  153.5352 H   0  0  0  0  0  0  0  0  0  0  0  0
  146.9098  132.1357  151.9695 H   0  0  0  0  0  0  0  0  0  0  0  0
  148.1479  130.4690  153.3666 H   0  0  0  0  0  0  0  0  0  0  0  0
  149.1683  131.8328  152.9525 H   0  0  0  0  0  0  0  0  0  0  0  0
  148.0021  134.0758  152.8225 H   0  0  0  0  0  0  0  0  0  0  0  0
  1  2  1  0  0  0  0
  1 21  1  0  0  0  0
  1 22  1  0  0  0  0
  1 23  1  0  0  0  0
  2  3  1  0  0  0  0
  3 20  1  0  0  0  0
  3  4  2  0  0  0  0
  4  5  1  0  0  0  0
  4 24  1  0  0  0  0
  5  6  2  0  0  0  0
  5 25  1  0  0  0  0
  6  7  1  0  0  0  0
  6 19  1  0  0  0  0
  7  8  1  0  0  0  0
  7 26  1  0  0  0  0
  8  9  1  0  0  0  0
  8 27  1  0  0  0  0
  8 28  1  0  0  0  0
  9 18  1  0  0  0  0
  9 10  1  0  0  0  0
  9 29  1  0  0  0  0
 10 11  1  0  0  0  0
 10 30  1  0  0  0  0
 10 31  1  0  0  0  0
 11 12  1  0  0  0  0
 11 16  1  0  0  0  0
 11 45  1  0  0  0  0
 12 13  1  0  0  0  0
 12 32  1  0  0  0  0
 12 33  1  0  0  0  0
 13 14  1  0  0  0  0
 13 15  1  0  0  0  0
 13 34  1  0  0  0  0
 14 35  1  0  0  0  0
 14 36  1  0  0  0  0
 14 37  1  0  0  0  0
 15 38  1  0  0  0  0
 15 39  1  0  0  0  0
 15 40  1  0  0  0  0
 16 17  1  0  0  0  0
 16 41  1  0  0  0  0
 16 42  1  0  0  0  0
 17 18  1  0  0  0  0
 17 43  1  0  0  0  0
 17 44  1  0  0  0  0
 19 20  2  0  0  0  0
M  CHG  1  11   1
M  END
> <s_m_source_file>
AV-unprocessed.smi

> <i_m_source_file_index>
2850

> <i_lp_mmshare_version>
43012

> <i_f3d_flags>
0

> <s_epik_input>
W0NIM11TYzFbY0hdW2NIXWMobm4xKVtOSF1bQ0gyXVtDQEBIXTJbQ0gyXU4oW0NIMl1bQ0gyXU8yKVtDSDJdW0NIXShbQ0gzXSlbQ0gzXQ==

> <s_epik_cmdline>
J2VwaWtfcHl0aG9uJywgJy1waCcsICc3LjAnLCAnLXRuJywgJzgnLCAnLW1hJywgJzIwMCcsICctbWV0YWxfYmluZGluZycsICctaW1hZScsICc8aW5maWxlLm1hZT4nLCAnLW9tYWUnLCAnPG91dGZpbGUubWFlPic=

> <r_lp_tautomer_probability>
0.999978

> <r_epik_Ionization_Penalty>
0.0874875

> <r_epik_Ionization_Penalty_Charging>
0.0831532

> <r_epik_Ionization_Penalty_Neutral>
0.00433433

> <r_epik_State_Penalty>
0.0738301

> <r_epik_Charging_Adjusted_Penalty>
0.156983

> <i_epik_Tot_Q>
1

> <i_epik_Tot_abs_Q>
1

> <r_epik_Metal_State_Penalty>
0.073888

> <b_epik_Metal_Only>
0

> <s_lp_Force_Field>
OPLS_2005

> <r_lp_Energy>
24.5925

> <b_lp_Chiralities_Consistent>
1

> <s_lp_Variant>
AV-unprocessed.smi:2850-1

> <Gold.Version>
5.8.1

> <Gold.Id.Protein>
6NUR|6NUR_protein|mol2

> <Gold.PLP.Fitness>
41.7923

> <Gold.PLP.PLP>
-33.8644

> <Gold.PLP.part.hbond>
-2.0000

> <Gold.PLP.part.metal>
0.0000

> <Gold.PLP.part.buried>
-3.6542

> <Gold.PLP.part.nonpolar>
-28.0627

> <Gold.PLP.part.repulsive>
0.0952

> <Gold.PLP.ligand.clash>
0.0000

> <Gold.PLP.ligand.torsion>
0.6098

> <Gold.PLP.Chemscore.Hbond>
3.0000

> <Gold.PLP.Chemscore.CHOScore>
0.0000

> <Gold.PLP.Chemscore.Metal>
0.0000

> <Gold.PLP.Chemscore.Internal.Correction>
0.1475

> <Gold.Rescore>
     Score         DG    S(hbond)    S(metal)    S(lipo)     H(rot)  DE(clash)    DE(int)     intcor
     13.85     -14.97       1.46        0.00      74.50       1.60       0.16       0.95       ----

> <Gold.Chemscore.Fitness>
13.8538

> <Gold.Chemscore.DG>
-14.9672

> <Gold.Chemscore.ZeroCoef>
-5.4800

> <Gold.Chemscore.Hbond>
1.4575

> <Gold.Chemscore.Metal>
0.0000

> <Gold.Chemscore.Lipo>
74.4970

> <Gold.Chemscore.Internal_Hbond>
0.0000

> <Gold.Chemscore.DEClash>
0.1590

> <Gold.Chemscore.DEInternal>
0.9545

> <Gold.Chemscore.Rot>
1.6003

> <Gold.Chemscore.Internal.Correction>
   9.000000E+99

> <Gold.Chemscore.Hbond.Weighted>
-4.8679

> <Gold.Chemscore.Metal.Weighted>
-0.0000

> <Gold.Chemscore.Lipo.Weighted>
-8.7161

> <Gold.Chemscore.Internal_Hbond.Weighted>
0.0000

> <Gold.Chemscore.DEClash.Weighted>
0.1590

> <Gold.Chemscore.DEInternal.Weighted>
0.9545

> <Gold.Chemscore.Rot.Weighted>
4.0968

> <Gold.Chemscore.Internal.Correction.Weighted>
   9.000000E+99

> <Gold.Protein.RotatedTorsions>
[ 6907 6896 6895 6894 ] final  -77.32 input  -60.11 | X-H torsion
[ 7974 7965 7964 7962 ] final   53.25 input  175.53 | X-H torsion
[ 8008 7997 7996 7995 ] final -169.64 input   59.86 | X-H torsion
[ 10167 10162 10161 10158 ] final  -78.08 input  -65.29 | X-H torsion
[ 10718 10713 10712 10709 ] final  -63.36 input   66.30 | X-H torsion
[ 10763 10752 10751 10750 ] final  -64.45 input  -60.55 | X-H torsion
[ 11005 11000 10999 10996 ] final -106.44 input  -57.11 | X-H torsion

> <Gold.Protein.ActiveResidues>
 VAL166  LYS551  ARG553  GLY616  TRP617  ASP618  TYR619  PRO620  LYS621  CYS622 
 ASP623  PHE694  ASN695  SER759  ASP760  ASP761  ALA762  ILE779  LEU786  VAL792 
 PHE793  MET794  SER795  GLU796  ALA797  LYS798  CYS799  TRP800  GLU811  SER814 

> <Gold.Protein.RotatedAtoms>
  150.7002  134.4440  159.5305 H   0  0  0  0  0  0  0  0  0  0  0  0  # atno 6907 bound_to 6896
  152.2145  134.8468  160.0502 H   0  0  0  0  0  0  0  0  0  0  0  0  # atno 6908 bound_to 6896
  151.9341  133.3584  159.3978 H   0  0  0  0  0  0  0  0  0  0  0  0  # atno 6909 bound_to 6896
  145.9731  139.4168  143.0178 H   0  0  0  0  0  0  0  0  0  0  0  0  # atno 7974 bound_to 7965
  155.9077  140.1052  157.1303 H   0  0  0  0  0  0  0  0  0  0  0  0  # atno 8008 bound_to 7997
  154.4035  140.1280  156.4582 H   0  0  0  0  0  0  0  0  0  0  0  0  # atno 8009 bound_to 7997
  155.7347  140.3468  155.5078 H   0  0  0  0  0  0  0  0  0  0  0  0  # atno 8010 bound_to 7997
  140.4714  143.2426  151.8199 H   0  0  0  0  0  0  0  0  0  0  0  0  # atno 10167 bound_to 10162
  156.0796  130.4220  150.1266 H   0  0  0  0  0  0  0  0  0  0  0  0  # atno 10718 bound_to 10713
  154.3302  135.6178  153.5548 H   0  0  0  0  0  0  0  0  0  0  0  0  # atno 10763 bound_to 10752
  152.9812  135.5745  154.4970 H   0  0  0  0  0  0  0  0  0  0  0  0  # atno 10764 bound_to 10752
  154.4655  135.2857  155.1658 H   0  0  0  0  0  0  0  0  0  0  0  0  # atno 10765 bound_to 10752
  141.1004  133.8894  157.1856 H   0  0  0  0  0  0  0  0  0  0  0  0  # atno 11005 bound_to 11000
  145.7877  140.9828  143.1065 LP  0  0  0  0  0  0  0  0  0  0  0  0  # atno 17320 bound_to 7965
  144.6842  139.9644  143.7481 LP  0  0  0  0  0  0  0  0  0  0  0  0  # atno 17321 bound_to 7965
  139.4819  144.4887  151.9213 LP  0  0  0  0  0  0  0  0  0  0  0  0  # atno 17342 bound_to 10162
  140.3972  144.2539  150.5895 LP  0  0  0  0  0  0  0  0  0  0  0  0  # atno 17343 bound_to 10162
  156.9300  130.9711  151.3534 LP  0  0  0  0  0  0  0  0  0  0  0  0  # atno 17370 bound_to 10713
  157.5907  130.8441  149.8655 LP  0  0  0  0  0  0  0  0  0  0  0  0  # atno 17371 bound_to 10713
  139.9854  135.0084  156.9850 LP  0  0  0  0  0  0  0  0  0  0  0  0  # atno 17394 bound_to 11000
  140.5035  134.1073  155.7255 LP  0  0  0  0  0  0  0  0  0  0  0  0  # atno 17395 bound_to 11000

$$$$
