#       Name:                AV-unprocessed.smi:3310
#       Creating user name   scv26
#       Creation time:       Fri Mar 27 19:05:43 2020


#       File generated by GOLD software.
#

@<TRIPOS>MOLECULE
AV-unprocessed.smi:3310
    47    48     1
SMALL
NO_CHARGES


@<TRIPOS>ATOM
      1 ****        -5.0344   2.6361   2.0630 C.3            1 S1                 0.0000
      2 ****        -3.6407   3.2452   1.8749 C.3            1 S1                 0.0000
      3 ****        -3.4058   3.7221   0.4753 C.2            1 S1                 0.0000
      4 ****        -3.7435   4.9451   0.0495 N.2            1 S1                 0.0000
      5 ****        -3.3885   4.9872  -1.2837 N.2            1 S1                 0.0000
      6 ****        -2.8800   3.7818  -1.5332 C.2            1 S1                 0.0000
      7 ****        -2.8623   2.9442  -0.4849 N.pl3          1 S1                 0.0000
      8 ****        -2.3789   1.5764  -0.4368 C.3            1 S1                 0.0000
      9 ****        -0.9005   1.5164  -0.0289 C.3            1 S1                 0.0000
     10 ****        -0.4042   0.1269  -0.0332 N.4            1 S1                 1.0000
     11 ****         1.0181  -0.0028   0.3421 C.3            1 S1                 0.0000
     12 ****         1.5011  -1.4624   0.2527 C.3            1 S1                 0.0000
     13 ****         2.9007  -1.6148   0.8811 C.3            1 S1                 0.0000
     14 ****         3.4172  -3.0617   0.7913 C.3            1 S1                 0.0000
     15 ****         3.4212  -3.5981  -0.6537 C.3            1 S1                 0.0000
     16 ****         4.5465  -2.9888  -1.5084 C.3            1 S1                 0.0000
     17 ****         2.0304  -3.4238  -1.2946 C.3            1 S1                 0.0000
     18 ****         1.5169  -1.9762  -1.2032 C.3            1 S1                 0.0000
     19 ****        -5.1791   2.3065   3.0919 H              1 S1                 0.0000
     20 ****        -5.1786   1.7732   1.4126 H              1 S1                 0.0000
     21 ****        -5.8148   3.3624   1.8335 H              1 S1                 0.0000
     22 ****        -3.5187   4.0902   2.5534 H              1 S1                 0.0000
     23 ****        -2.8737   2.5224   2.1521 H              1 S1                 0.0000
     24 ****        -2.5103   3.5023  -2.5091 H              1 S1                 0.0000
     25 ****        -2.9969   1.0043   0.2558 H              1 S1                 0.0000
     26 ****        -2.5179   1.1301  -1.4224 H              1 S1                 0.0000
     27 ****        -0.2999   2.1109  -0.7191 H              1 S1                 0.0000
     28 ****        -0.7656   1.9435   0.9658 H              1 S1                 0.0000
     29 ****        -0.9584  -0.4189   0.6112 H              1 S1                 0.0000
     30 ****         1.6275   0.6345  -0.3003 H              1 S1                 0.0000
     31 ****         1.1373   0.3666   1.3616 H              1 S1                 0.0000
     32 ****         0.8131  -2.0839   0.8282 H              1 S1                 0.0000
     33 ****         3.6039  -0.9413   0.3896 H              1 S1                 0.0000
     34 ****         2.8720  -1.3100   1.9279 H              1 S1                 0.0000
     35 ****         4.4175  -3.1281   1.2205 H              1 S1                 0.0000
     36 ****         2.7830  -3.7014   1.4066 H              1 S1                 0.0000
     37 ****         3.6233  -4.6688  -0.6017 H              1 S1                 0.0000
     38 ****         4.4389  -1.9105  -1.6231 H              1 S1                 0.0000
     39 ****         4.5579  -3.4261  -2.5070 H              1 S1                 0.0000
     40 ****         5.5224  -3.1756  -1.0597 H              1 S1                 0.0000
     41 ****         2.0524  -3.7474  -2.3359 H              1 S1                 0.0000
     42 ****         1.3215  -4.0819  -0.7902 H              1 S1                 0.0000
     43 ****         0.5148  -1.9300  -1.6300 H              1 S1                 0.0000
     44 ****         2.1378  -1.3257  -1.8198 H              1 S1                 0.0000
     45 ****        -0.5232  -0.2510  -0.9622 H              1 S1                 0.0000
     46 ****        -4.1653   5.6763   0.5857 LP             1 S1                 0.0000
     47 ****        -3.4903   5.7519  -1.9200 LP             1 S1                 0.0000
@<TRIPOS>BOND
    1    1    2 1     
    2    1   19 1     
    3    1   20 1     
    4    1   21 1     
    5    2    3 1     
    6    2   22 1     
    7    2   23 1     
    8    3    7 1     
    9    3    4 2     
   10    4    5 1     
   11    5    6 2     
   12    6    7 1     
   13    6   24 1     
   14    7    8 1     
   15    8    9 1     
   16    8   25 1     
   17    8   26 1     
   18    9   10 1     
   19    9   27 1     
   20    9   28 1     
   21   10   11 1     
   22   10   29 1     
   23   10   45 1     
   24   11   12 1     
   25   11   30 1     
   26   11   31 1     
   27   12   18 1     
   28   12   13 1     
   29   12   32 1     
   30   13   14 1     
   31   13   33 1     
   32   13   34 1     
   33   14   15 1     
   34   14   35 1     
   35   14   36 1     
   36   15   16 1     
   37   15   17 1     
   38   15   37 1     
   39   16   38 1     
   40   16   39 1     
   41   16   40 1     
   42   17   18 1     
   43   17   41 1     
   44   17   42 1     
   45   18   43 1     
   46   18   44 1     
   47    4   46 1     
   48    5   47 1     
@<TRIPOS>SUBSTRUCTURE
      1 S1             1
@<TRIPOS>SET
LONE_PAIRS      STATIC     ATOMS    <user>   **** ""
2 46 47
DONOR_HYDROGENS      STATIC     ATOMS    <user>   **** ""
2 29 45
ATOM$BLUE        STATIC     ATOMS    COLORGROUP SYSTEM
2 46 47
ATOM$RED        STATIC     ATOMS    COLORGROUP SYSTEM
2 29 45
