AV-unprocessed.smi:1145|AV-procd|sdf|4884|dock6
  -GOLD-   22720 3453D 1   1.00000     0.00000
 Structure written by MMmdl.
 36 37  0  0  0  0  0  0  0  0  1 V2000
  151.5052  143.7519  157.0220 C   0  0  0  0  0  0  0  0  0  0  0  0
  150.9376  142.5932  157.8530 C   0  0  2  0  0  0  0  0  0  0  0  0
  152.0625  141.6825  158.3900 C   0  0  0  0  0  0  0  0  0  0  0  0
  152.4512  142.0160  159.7497 N   0  0  0  0  0  0  0  0  0  0  0  0
  151.9841  143.0399  160.5466 C   0  0  0  0  0  0  0  0  0  0  0  0
  152.6255  142.9441  161.7482 C   0  0  0  0  0  0  0  0  0  0  0  0
  153.4787  141.8168  161.5871 C   0  0  0  0  0  0  0  0  0  0  0  0
  153.3762  141.2665  160.3883 N   0  0  0  0  0  0  0  0  0  0  0  0
  150.0025  141.8289  157.0287 N   0  0  0  0  0  0  0  0  0  0  0  0
  150.3237  141.1036  155.9452 C   0  0  0  0  0  0  0  0  0  0  0  0
  151.4802  140.9520  155.5498 O   0  0  0  0  0  0  0  0  0  0  0  0
  149.1540  140.4775  155.1749 C   0  0  1  0  0  0  0  0  0  0  0  0
  148.3948  141.5503  154.3774 C   0  0  0  0  0  0  0  0  0  0  0  0
  147.1825  140.9460  153.6515 C   0  0  0  0  0  0  0  0  0  0  0  0
  147.4982  139.6307  152.9234 C   0  0  0  0  0  0  0  0  0  0  0  0
  146.7249  139.2156  152.0631 O   0  0  0  0  0  0  0  0  0  0  0  0
  148.5993  138.9406  153.2700 N   0  0  0  0  0  0  0  0  0  0  0  0
  149.6334  139.3706  154.2117 C   0  0  0  0  0  0  0  0  0  0  0  0
  152.1938  144.3567  157.6128 H   0  0  0  0  0  0  0  0  0  0  0  0
  150.7100  144.4097  156.6701 H   0  0  0  0  0  0  0  0  0  0  0  0
  152.0484  143.3871  156.1494 H   0  0  0  0  0  0  0  0  0  0  0  0
  150.4115  143.0339  158.7019 H   0  0  0  0  0  0  0  0  0  0  0  0
  151.7606  140.6345  158.3492 H   0  0  0  0  0  0  0  0  0  0  0  0
  152.9488  141.7739  157.7610 H   0  0  0  0  0  0  0  0  0  0  0  0
  151.2375  143.7385  160.1984 H   0  0  0  0  0  0  0  0  0  0  0  0
  152.5015  143.5805  162.6118 H   0  0  0  0  0  0  0  0  0  0  0  0
  154.1652  141.3853  162.3005 H   0  0  0  0  0  0  0  0  0  0  0  0
  149.0254  141.8974  157.2738 H   0  0  0  0  0  0  0  0  0  0  0  0
  148.4616  140.0327  155.8926 H   0  0  0  0  0  0  0  0  0  0  0  0
  148.0587  142.3486  155.0410 H   0  0  0  0  0  0  0  0  0  0  0  0
  149.0578  142.0178  153.6472 H   0  0  0  0  0  0  0  0  0  0  0  0
  146.3921  140.7405  154.3742 H   0  0  0  0  0  0  0  0  0  0  0  0
  146.7757  141.6670  152.9416 H   0  0  0  0  0  0  0  0  0  0  0  0
  148.7623  138.0641  152.7954 H   0  0  0  0  0  0  0  0  0  0  0  0
  150.4861  139.7110  153.6221 H   0  0  0  0  0  0  0  0  0  0  0  0
  149.9717  138.5016  154.7770 H   0  0  0  0  0  0  0  0  0  0  0  0
  1  2  1  0  0  0  0
  1 19  1  0  0  0  0
  1 20  1  0  0  0  0
  1 21  1  0  0  0  0
  2  3  1  0  0  0  0
  2  9  1  0  0  0  0
  2 22  1  0  0  0  0
  3  4  1  0  0  0  0
  3 23  1  0  0  0  0
  3 24  1  0  0  0  0
  4  8  1  0  0  0  0
  4  5  1  0  0  0  0
  5  6  2  0  0  0  0
  5 25  1  0  0  0  0
  6  7  1  0  0  0  0
  6 26  1  0  0  0  0
  7  8  2  0  0  0  0
  7 27  1  0  0  0  0
  9 10  1  0  0  0  0
  9 28  1  0  0  0  0
 10 11  2  0  0  0  0
 10 12  1  0  0  0  0
 12 18  1  0  0  0  0
 12 13  1  0  0  0  0
 12 29  1  0  0  0  0
 13 14  1  0  0  0  0
 13 30  1  0  0  0  0
 13 31  1  0  0  0  0
 14 15  1  0  0  0  0
 14 32  1  0  0  0  0
 14 33  1  0  0  0  0
 15 16  2  0  0  0  0
 15 17  1  0  0  0  0
 17 18  1  0  0  0  0
 17 34  1  0  0  0  0
 18 35  1  0  0  0  0
 18 36  1  0  0  0  0
M  END
> <s_m_source_file>
AV-unprocessed.smi

> <i_m_source_file_index>
1145

> <i_lp_mmshare_version>
43012

> <i_f3d_flags>
0

> <s_epik_input>
bjFbY0hdW2NIXVtjSF1uMVtDSDJdW0NAQEhdKFtDSDNdKVtOSF1DKD1PKVtDQEBIXTJbQ0gyXVtDSDJdQyg9TylbTkhdW0NIMl0y

> <s_epik_cmdline>
J2VwaWtfcHl0aG9uJywgJy1waCcsICc3LjAnLCAnLXRuJywgJzgnLCAnLW1hJywgJzIwMCcsICctbWV0YWxfYmluZGluZycsICctaW1hZScsICc8aW5maWxlLm1hZT4nLCAnLW9tYWUnLCAnPG91dGZpbGUubWFlPic=

> <r_lp_tautomer_probability>
1

> <r_epik_Ionization_Penalty>
0.000314064

> <r_epik_Ionization_Penalty_Charging>
0

> <r_epik_Ionization_Penalty_Neutral>
0.000314064

> <r_epik_State_Penalty>
-0

> <r_epik_Charging_Adjusted_Penalty>
0

> <i_epik_Tot_Q>
0

> <i_epik_Tot_abs_Q>
0

> <r_epik_Metal_State_Penalty>
-0

> <b_epik_Metal_Only>
0

> <s_lp_Force_Field>
OPLS_2005

> <r_lp_Energy>
12.228

> <b_lp_Chiralities_Consistent>
1

> <s_lp_Variant>
AV-unprocessed.smi:1145-3

> <Gold.Version>
5.8.1

> <Gold.Id.Protein>
6NUR|6NUR_protein|mol2

> <Gold.PLP.Fitness>
41.0185

> <Gold.PLP.PLP>
-37.9389

> <Gold.PLP.part.hbond>
-3.0000

> <Gold.PLP.part.metal>
0.0000

> <Gold.PLP.part.buried>
-1.9920

> <Gold.PLP.part.nonpolar>
-31.3911

> <Gold.PLP.part.repulsive>
0.4944

> <Gold.PLP.ligand.clash>
0.0000

> <Gold.PLP.ligand.torsion>
0.9416

> <Gold.PLP.Chemscore.Hbond>
1.6443

> <Gold.PLP.Chemscore.CHOScore>
0.0000

> <Gold.PLP.Chemscore.Metal>
0.0000

> <Gold.Chemscore.Hbonds>
donor molecule, donor type, donor heavy atom, donor atom, acceptor molecule, acceptor atom, score
      L1  H    17    34       P1  7948  0.98
      P1  H  7989  7998       L1    11  0.59

> <Gold.PLP.Chemscore.Internal.Correction>
0.0299

> <Gold.Rescore>
     Score         DG    S(hbond)    S(metal)    S(lipo)     H(rot)  DE(clash)    DE(int)     intcor
     13.59     -16.82       1.66        0.00      89.02       1.80       1.52       1.72       ----

> <Gold.Chemscore.Fitness>
13.5861

> <Gold.Chemscore.DG>
-16.8247

> <Gold.Chemscore.ZeroCoef>
-5.4800

> <Gold.Chemscore.Hbond>
1.6565

> <Gold.Chemscore.Metal>
0.0000

> <Gold.Chemscore.Lipo>
89.0207

> <Gold.Chemscore.Internal_Hbond>
0.0000

> <Gold.Chemscore.DEClash>
1.5225

> <Gold.Chemscore.DEInternal>
1.7162

> <Gold.Chemscore.Rot>
1.7982

> <Gold.Chemscore.Internal.Correction>
   9.000000E+99

> <Gold.Chemscore.Hbonds>
donor molecule, donor type, donor heavy atom, donor atom, acceptor molecule, acceptor atom, score
      L1  H    17    34       P1  7948  0.92
      P1  H  7989  7998       L1    11  0.50

> <Gold.Chemscore.Hbond.Weighted>
-5.5328

> <Gold.Chemscore.Metal.Weighted>
-0.0000

> <Gold.Chemscore.Lipo.Weighted>
-10.4154

> <Gold.Chemscore.Internal_Hbond.Weighted>
0.0000

> <Gold.Chemscore.DEClash.Weighted>
1.5225

> <Gold.Chemscore.DEInternal.Weighted>
1.7162

> <Gold.Chemscore.Rot.Weighted>
4.6035

> <Gold.Chemscore.Internal.Correction.Weighted>
   9.000000E+99

> <Gold.Protein.RotatedTorsions>
[ 6907 6896 6895 6894 ] final   87.41 input  -60.11 | X-H torsion
[ 7974 7965 7964 7962 ] final -113.45 input  175.53 | X-H torsion
[ 8008 7997 7996 7995 ] final  -28.89 input   59.86 | X-H torsion
[ 10167 10162 10161 10158 ] final -167.08 input  -65.29 | X-H torsion
[ 10718 10713 10712 10709 ] final    4.51 input   66.30 | X-H torsion
[ 10763 10752 10751 10750 ] final  110.83 input  -60.55 | X-H torsion
[ 11005 11000 10999 10996 ] final  -11.55 input  -57.11 | X-H torsion

> <Gold.Protein.ActiveResidues>
 VAL166  LYS551  ARG553  GLY616  TRP617  ASP618  TYR619  PRO620  LYS621  CYS622 
 ASP623  PHE694  ASN695  SER759  ASP760  ASP761  ALA762  ILE779  LEU786  VAL792 
 PHE793  MET794  SER795  GLU796  ALA797  LYS798  CYS799  TRP800  GLU811  SER814 

> <Gold.Protein.RotatedAtoms>
  152.5410  134.2281  159.8813 H   0  0  0  0  0  0  0  0  0  0  0  0  # atno 6907 bound_to 6896
  151.2254  133.4472  159.2609 H   0  0  0  0  0  0  0  0  0  0  0  0  # atno 6908 bound_to 6896
  151.0765  134.9845  159.8391 H   0  0  0  0  0  0  0  0  0  0  0  0  # atno 6909 bound_to 6896
  145.1319  140.8729  143.3753 H   0  0  0  0  0  0  0  0  0  0  0  0  # atno 7974 bound_to 7965
  154.4313  140.1833  156.1161 H   0  0  0  0  0  0  0  0  0  0  0  0  # atno 8008 bound_to 7997
  156.0180  140.3344  155.6983 H   0  0  0  0  0  0  0  0  0  0  0  0  # atno 8009 bound_to 7997
  155.6017  140.0641  157.2722 H   0  0  0  0  0  0  0  0  0  0  0  0  # atno 8010 bound_to 7997
  139.6073  144.0887  152.1806 H   0  0  0  0  0  0  0  0  0  0  0  0  # atno 10167 bound_to 10162
  156.8937  130.5697  149.5649 H   0  0  0  0  0  0  0  0  0  0  0  0  # atno 10718 bound_to 10713
  153.4546  135.3736  155.2303 H   0  0  0  0  0  0  0  0  0  0  0  0  # atno 10763 bound_to 10752
  154.8757  135.3894  154.3998 H   0  0  0  0  0  0  0  0  0  0  0  0  # atno 10764 bound_to 10752
  153.4562  135.7086  153.6142 H   0  0  0  0  0  0  0  0  0  0  0  0  # atno 10765 bound_to 10752
  140.7565  133.8550  155.9088 H   0  0  0  0  0  0  0  0  0  0  0  0  # atno 11005 bound_to 11000
  145.0626  139.3093  143.5872 LP  0  0  0  0  0  0  0  0  0  0  0  0  # atno 17320 bound_to 7965
  146.3513  140.0074  142.8670 LP  0  0  0  0  0  0  0  0  0  0  0  0  # atno 17321 bound_to 7965
  140.0497  144.5942  150.7345 LP  0  0  0  0  0  0  0  0  0  0  0  0  # atno 17342 bound_to 10162
  140.7294  143.2672  151.4006 LP  0  0  0  0  0  0  0  0  0  0  0  0  # atno 17343 bound_to 10162
  156.0616  130.5668  150.9204 LP  0  0  0  0  0  0  0  0  0  0  0  0  # atno 17370 bound_to 10713
  157.6068  131.0938  150.8865 LP  0  0  0  0  0  0  0  0  0  0  0  0  # atno 17371 bound_to 10713
  140.9703  134.1540  157.4582 LP  0  0  0  0  0  0  0  0  0  0  0  0  # atno 17394 bound_to 11000
  139.8778  134.9976  156.5856 LP  0  0  0  0  0  0  0  0  0  0  0  0  # atno 17395 bound_to 11000

$$$$
