AV-unprocessed.smi:2063|AV-procd|sdf|8415|dock9
  -GOLD-   2272011103D 1   1.00000     0.00000
 Structure written by MMmdl.
 38 39  0  0  0  0  0  0  0  0  2 V2000
  152.3727  143.0757  161.9634 C   0  0  0  0  0  0  0  0  0  0  0  0
  152.3939  143.7479  160.5830 C   0  0  0  0  0  0  0  0  0  0  0  0
  151.4092  144.9208  160.4682 C   0  0  0  0  0  0  0  0  0  0  0  0
  152.2254  142.7594  159.4714 C   0  0  0  0  0  0  0  0  0  0  0  0
  151.3142  142.8963  158.5030 N   0  0  0  0  0  0  0  0  0  0  0  0
  151.3586  141.8535  157.5894 N   0  0  0  0  0  0  0  0  0  0  0  0
  152.2929  140.9382  157.8821 C   0  0  0  0  0  0  0  0  0  0  0  0
  152.5030  139.8518  157.1206 N   0  5  0  0  0  0  0  0  0  0  0  0
  151.9955  139.7948  155.8683 C   0  0  0  0  0  0  0  0  0  0  0  0
  152.6420  139.7041  154.8224 O   0  0  0  0  0  0  0  0  0  0  0  0
  150.6565  139.8509  155.8295 N   0  0  0  0  0  0  0  0  0  0  0  0
  149.8190  139.8385  154.6310 C   0  0  1  0  0  0  0  0  0  0  0  0
  149.0182  138.5283  154.5743 C   0  0  0  0  0  0  0  0  0  0  0  0
  148.9025  141.0766  154.6285 C   0  0  1  0  0  0  0  0  0  0  0  0
  147.9037  141.1280  153.4684 C   0  0  0  0  0  0  0  0  0  0  0  0
  146.7343  141.9282  154.0232 C   0  0  0  0  0  0  0  0  0  0  0  0
  147.0352  142.0442  155.5190 C   0  0  0  0  0  0  0  0  0  0  0  0
  148.0471  141.0784  155.7613 O   0  0  0  0  0  0  0  0  0  0  0  0
  153.2203  141.3188  159.3323 S   0  0  0  0  0  0  0  0  0  0  0  0
  153.1443  142.3088  162.0378 H   0  0  0  0  0  0  0  0  0  0  0  0
  151.4107  142.6009  162.1583 H   0  0  0  0  0  0  0  0  0  0  0  0
  152.5514  143.8022  162.7565 H   0  0  0  0  0  0  0  0  0  0  0  0
  153.3912  144.1737  160.4655 H   0  0  0  0  0  0  0  0  0  0  0  0
  151.5074  145.4212  159.5043 H   0  0  0  0  0  0  0  0  0  0  0  0
  151.5897  145.6631  161.2461 H   0  0  0  0  0  0  0  0  0  0  0  0
  150.3769  144.5827  160.5651 H   0  0  0  0  0  0  0  0  0  0  0  0
  150.1763  139.9200  156.7145 H   0  0  0  0  0  0  0  0  0  0  0  0
  150.4508  139.8922  153.7428 H   0  0  0  0  0  0  0  0  0  0  0  0
  148.3984  138.4846  153.6786 H   0  0  0  0  0  0  0  0  0  0  0  0
  148.3620  138.4262  155.4392 H   0  0  0  0  0  0  0  0  0  0  0  0
  149.6818  137.6633  154.5556 H   0  0  0  0  0  0  0  0  0  0  0  0
  149.4993  141.9911  154.6386 H   0  0  0  0  0  0  0  0  0  0  0  0
  148.3327  141.5727  152.5700 H   0  0  0  0  0  0  0  0  0  0  0  0
  147.5669  140.1221  153.2139 H   0  0  0  0  0  0  0  0  0  0  0  0
  146.6592  142.9132  153.5617 H   0  0  0  0  0  0  0  0  0  0  0  0
  145.7954  141.4022  153.8471 H   0  0  0  0  0  0  0  0  0  0  0  0
  147.4230  143.0359  155.7565 H   0  0  0  0  0  0  0  0  0  0  0  0
  146.1575  141.8638  156.1400 H   0  0  0  0  0  0  0  0  0  0  0  0
  1  2  1  0  0  0  0
  1 20  1  0  0  0  0
  1 21  1  0  0  0  0
  1 22  1  0  0  0  0
  2  3  1  0  0  0  0
  2  4  1  0  0  0  0
  2 23  1  0  0  0  0
  3 24  1  0  0  0  0
  3 25  1  0  0  0  0
  3 26  1  0  0  0  0
  4 19  1  0  0  0  0
  4  5  2  0  0  0  0
  5  6  1  0  0  0  0
  6  7  2  0  0  0  0
  7  8  1  0  0  0  0
  7 19  1  0  0  0  0
  8  9  1  0  0  0  0
  9 10  2  0  0  0  0
  9 11  1  0  0  0  0
 11 12  1  0  0  0  0
 11 27  1  0  0  0  0
 12 13  1  0  0  0  0
 12 14  1  0  0  0  0
 12 28  1  0  0  0  0
 13 29  1  0  0  0  0
 13 30  1  0  0  0  0
 13 31  1  0  0  0  0
 14 18  1  0  0  0  0
 14 15  1  0  0  0  0
 14 32  1  0  0  0  0
 15 16  1  0  0  0  0
 15 33  1  0  0  0  0
 15 34  1  0  0  0  0
 16 17  1  0  0  0  0
 16 35  1  0  0  0  0
 16 36  1  0  0  0  0
 17 18  1  0  0  0  0
 17 37  1  0  0  0  0
 17 38  1  0  0  0  0
M  CHG  1   8  -1
M  END
> <s_m_source_file>
AV-unprocessed.smi

> <i_m_source_file_index>
2063

> <i_lp_mmshare_version>
43012

> <i_f3d_flags>
0

> <s_epik_input>
W0NIM11bQ0hdKFtDSDNdKWMxbm5jKHMxKVtOSF1DKD1PKVtOSF1bQ0BIXShbQ0gzXSlbQ0BASF0yW0NIMl1bQ0gyXVtDSDJdTzI=

> <s_epik_cmdline>
J2VwaWtfcHl0aG9uJywgJy1waCcsICc3LjAnLCAnLXRuJywgJzgnLCAnLW1hJywgJzIwMCcsICctbWV0YWxfYmluZGluZycsICctaW1hZScsICc8aW5maWxlLm1hZT4nLCAnLW9tYWUnLCAnPG91dGZpbGUubWFlPic=

> <r_lp_tautomer_probability>
1

> <r_epik_Ionization_Penalty>
4.37022

> <r_epik_Ionization_Penalty_Charging>
4.21437

> <r_epik_Ionization_Penalty_Neutral>
0.15585

> <r_epik_State_Penalty>
4.21389

> <r_epik_Charging_Adjusted_Penalty>
8.42826

> <i_epik_Tot_Q>
-1

> <i_epik_Tot_abs_Q>
1

> <r_epik_Metal_State_Penalty>
0.693772

> <b_epik_Metal_Only>
1

> <s_lp_Force_Field>
OPLS_2005

> <r_lp_Energy>
9.58688

> <b_lp_Chiralities_Consistent>
1

> <s_lp_Variant>
AV-unprocessed.smi:2063-8

> <Gold.Version>
5.8.1

> <Gold.Id.Protein>
6NUR|6NUR_protein|mol2

> <Gold.PLP.Fitness>
46.0719

> <Gold.PLP.PLP>
-39.7178

> <Gold.PLP.part.hbond>
-2.3930

> <Gold.PLP.part.metal>
0.0000

> <Gold.PLP.part.buried>
-5.0898

> <Gold.PLP.part.nonpolar>
-31.7698

> <Gold.PLP.part.repulsive>
0.2792

> <Gold.PLP.ligand.clash>
0.0000

> <Gold.PLP.ligand.torsion>
0.7602

> <Gold.PLP.Chemscore.Hbond>
2.5760

> <Gold.PLP.Chemscore.CHOScore>
0.0000

> <Gold.PLP.Chemscore.Metal>
0.0000

> <Gold.Chemscore.Hbonds>
donor molecule, donor type, donor heavy atom, donor atom, acceptor molecule, acceptor atom, score
      P1  H  7989  7998       L1    10  0.54
      P1  H  7997  8010       L1     8  1.80

> <Gold.PLP.Chemscore.Internal.Correction>
0.1464

> <Gold.Rescore>
     Score         DG    S(hbond)    S(metal)    S(lipo)     H(rot)  DE(clash)    DE(int)     intcor
     14.07     -14.81       0.65        0.00      91.53       1.39       0.00       0.73       ----

> <Gold.Chemscore.Fitness>
14.0745

> <Gold.Chemscore.DG>
-14.8077

> <Gold.Chemscore.ZeroCoef>
-5.4800

> <Gold.Chemscore.Hbond>
0.6512

> <Gold.Chemscore.Metal>
0.0000

> <Gold.Chemscore.Lipo>
91.5342

> <Gold.Chemscore.Internal_Hbond>
0.0000

> <Gold.Chemscore.DEClash>
0.0004

> <Gold.Chemscore.DEInternal>
0.7328

> <Gold.Chemscore.Rot>
1.3893

> <Gold.Chemscore.Internal.Correction>
   9.000000E+99

> <Gold.Chemscore.Hbonds>
donor molecule, donor type, donor heavy atom, donor atom, acceptor molecule, acceptor atom, score
      P1  H  7989  7998       L1    10  0.30
      P1  H  7997  8010       L1     8  0.05

> <Gold.Chemscore.Hbond.Weighted>
-2.1748

> <Gold.Chemscore.Metal.Weighted>
-0.0000

> <Gold.Chemscore.Lipo.Weighted>
-10.7095

> <Gold.Chemscore.Internal_Hbond.Weighted>
0.0000

> <Gold.Chemscore.DEClash.Weighted>
0.0004

> <Gold.Chemscore.DEInternal.Weighted>
0.7328

> <Gold.Chemscore.Rot.Weighted>
3.5567

> <Gold.Chemscore.Internal.Correction.Weighted>
   9.000000E+99

> <Gold.Protein.RotatedTorsions>
[ 6907 6896 6895 6894 ] final -158.42 input  -60.11 | X-H torsion
[ 7974 7965 7964 7962 ] final  141.47 input  175.53 | X-H torsion
[ 8008 7997 7996 7995 ] final   59.54 input   59.86 | X-H torsion
[ 10167 10162 10161 10158 ] final  -24.94 input  -65.29 | X-H torsion
[ 10718 10713 10712 10709 ] final  -57.89 input   66.30 | X-H torsion
[ 10763 10752 10751 10750 ] final   18.96 input  -60.55 | X-H torsion
[ 11005 11000 10999 10996 ] final  -96.75 input  -57.11 | X-H torsion

> <Gold.Protein.ActiveResidues>
 VAL166  LYS551  ARG553  GLY616  TRP617  ASP618  TYR619  PRO620  LYS621  CYS622 
 ASP623  PHE694  ASN695  SER759  ASP760  ASP761  ALA762  ILE779  LEU786  VAL792 
 PHE793  MET794  SER795  GLU796  ALA797  LYS798  CYS799  TRP800  GLU811  SER814 

> <Gold.Protein.RotatedAtoms>
  151.3179  133.4052  159.2651 H   0  0  0  0  0  0  0  0  0  0  0  0  # atno 6907 bound_to 6896
  151.0059  134.9359  159.7990 H   0  0  0  0  0  0  0  0  0  0  0  0  # atno 6908 bound_to 6896
  152.5288  134.3144  159.9178 H   0  0  0  0  0  0  0  0  0  0  0  0  # atno 6909 bound_to 6896
  144.9094  139.5314  143.5716 H   0  0  0  0  0  0  0  0  0  0  0  0  # atno 7974 bound_to 7965
  155.5679  140.3489  155.4508 H   0  0  0  0  0  0  0  0  0  0  0  0  # atno 8008 bound_to 7997
  156.0466  140.1308  157.0122 H   0  0  0  0  0  0  0  0  0  0  0  0  # atno 8009 bound_to 7997
  154.4415  140.1013  156.6300 H   0  0  0  0  0  0  0  0  0  0  0  0  # atno 8010 bound_to 7997
  140.7287  143.4308  151.0804 H   0  0  0  0  0  0  0  0  0  0  0  0  # atno 10167 bound_to 10162
  156.1177  130.4169  150.0502 H   0  0  0  0  0  0  0  0  0  0  0  0  # atno 10718 bound_to 10713
  153.1203  135.6717  153.9346 H   0  0  0  0  0  0  0  0  0  0  0  0  # atno 10763 bound_to 10752
  153.8864  135.3052  155.3448 H   0  0  0  0  0  0  0  0  0  0  0  0  # atno 10764 bound_to 10752
  154.7616  135.4985  153.9553 H   0  0  0  0  0  0  0  0  0  0  0  0  # atno 10765 bound_to 10752
  141.1401  133.8120  157.0613 H   0  0  0  0  0  0  0  0  0  0  0  0  # atno 11005 bound_to 11000
  146.3150  139.7887  142.8990 LP  0  0  0  0  0  0  0  0  0  0  0  0  # atno 17320 bound_to 7965
  145.3481  141.0302  143.3354 LP  0  0  0  0  0  0  0  0  0  0  0  0  # atno 17321 bound_to 7965
  139.7965  143.8144  152.3158 LP  0  0  0  0  0  0  0  0  0  0  0  0  # atno 17342 bound_to 10162
  139.8146  144.7321  150.9652 LP  0  0  0  0  0  0  0  0  0  0  0  0  # atno 17343 bound_to 10162
  156.8448  130.9438  151.3629 LP  0  0  0  0  0  0  0  0  0  0  0  0  # atno 17370 bound_to 10713
  157.6360  130.8767  149.9360 LP  0  0  0  0  0  0  0  0  0  0  0  0  # atno 17371 bound_to 10713
  140.0569  134.9775  157.1237 LP  0  0  0  0  0  0  0  0  0  0  0  0  # atno 17394 bound_to 11000
  140.3905  134.2189  155.7166 LP  0  0  0  0  0  0  0  0  0  0  0  0  # atno 17395 bound_to 11000

$$$$
