AV-unprocessed.smi:1554|AV-procd|sdf|6263|dock2
  -GOLD-   22720 6453D 1   1.00000     0.00000
 Structure written by MMmdl.
 49 51  0  0  0  0  0  0  0  0  3 V2000
  153.7033  143.3679  163.7434 C   0  0  0  0  0  0  0  0  0  0  0  0
  153.2368  143.1699  162.3109 C   0  0  0  0  0  0  0  0  0  0  0  0
  152.4935  144.2020  161.6949 C   0  0  0  0  0  0  0  0  0  0  0  0
  152.0845  143.9929  160.3832 C   0  0  0  0  0  0  0  0  0  0  0  0
  151.3522  144.8026  159.5120 N   0  3  0  0  0  0  0  0  0  0  0  0
  151.2004  144.1651  158.3182 C   0  0  0  0  0  0  0  0  0  0  0  0
  151.8226  142.9586  158.4158 N   0  0  0  0  0  0  0  0  0  0  0  0
  151.9594  141.8837  157.4236 C   0  0  0  0  0  0  0  0  0  0  0  0
  150.8538  141.9135  156.3493 C   0  0  1  0  0  0  0  0  0  0  0  0
  151.1326  140.9207  155.3796 O   0  0  0  0  0  0  0  0  0  0  0  0
  149.4634  141.6483  156.9633 C   0  0  0  0  0  0  0  0  0  0  0  0
  148.3416  142.0697  156.0846 N   0  3  2  0  0  0  0  0  0  0  0  0
  147.0495  142.2279  156.7977 C   0  0  0  0  0  0  0  0  0  0  0  0
  145.9535  142.6949  155.8257 C   0  0  0  0  0  0  0  0  0  0  0  0
  145.8436  141.7712  154.7502 O   0  0  0  0  0  0  0  0  0  0  0  0
  147.0469  141.6761  153.9961 C   0  0  2  0  0  0  0  0  0  0  0  0
  146.7974  140.7326  152.8141 C   0  0  0  0  0  0  0  0  0  0  0  0
  148.1774  141.1730  154.9150 C   0  0  0  0  0  0  0  0  0  0  0  0
  152.3891  142.8078  159.6858 C   0  0  0  0  0  0  0  0  0  0  0  0
  153.1180  141.7795  160.2782 C   0  0  0  0  0  0  0  0  0  0  0  0
  153.5445  141.9740  161.6116 C   0  0  0  0  0  0  0  0  0  0  0  0
  154.3463  140.8725  162.2841 C   0  0  0  0  0  0  0  0  0  0  0  0
  153.3764  144.3292  164.1410 H   0  0  0  0  0  0  0  0  0  0  0  0
  154.7919  143.3373  163.7987 H   0  0  0  0  0  0  0  0  0  0  0  0
  153.3011  142.5869  164.3888 H   0  0  0  0  0  0  0  0  0  0  0  0
  152.2554  145.1150  162.2211 H   0  0  0  0  0  0  0  0  0  0  0  0
  150.6778  144.5460  157.4525 H   0  0  0  0  0  0  0  0  0  0  0  0
  152.9415  141.9910  156.9606 H   0  0  0  0  0  0  0  0  0  0  0  0
  151.9695  140.9281  157.9497 H   0  0  0  0  0  0  0  0  0  0  0  0
  150.8770  142.8853  155.8582 H   0  0  0  0  0  0  0  0  0  0  0  0
  150.5185  140.2100  155.4820 H   0  0  0  0  0  0  0  0  0  0  0  0
  149.3782  140.5810  157.1750 H   0  0  0  0  0  0  0  0  0  0  0  0
  149.3701  142.1553  157.9251 H   0  0  0  0  0  0  0  0  0  0  0  0
  146.7624  141.2776  157.2507 H   0  0  0  0  0  0  0  0  0  0  0  0
  147.1404  142.9523  157.6059 H   0  0  0  0  0  0  0  0  0  0  0  0
  144.9944  142.7529  156.3407 H   0  0  0  0  0  0  0  0  0  0  0  0
  146.1699  143.6941  155.4439 H   0  0  0  0  0  0  0  0  0  0  0  0
  147.3032  142.6621  153.6039 H   0  0  0  0  0  0  0  0  0  0  0  0
  147.6903  140.6314  152.1966 H   0  0  0  0  0  0  0  0  0  0  0  0
  145.9955  141.1086  152.1782 H   0  0  0  0  0  0  0  0  0  0  0  0
  146.5115  139.7374  153.1561 H   0  0  0  0  0  0  0  0  0  0  0  0
  149.1115  141.1282  154.3532 H   0  0  0  0  0  0  0  0  0  0  0  0
  147.9617  140.1603  155.2605 H   0  0  0  0  0  0  0  0  0  0  0  0
  153.3533  140.8702  159.7454 H   0  0  0  0  0  0  0  0  0  0  0  0
  154.4969  140.0231  161.6170 H   0  0  0  0  0  0  0  0  0  0  0  0
  153.8299  140.5100  163.1734 H   0  0  0  0  0  0  0  0  0  0  0  0
  155.3286  141.2415  162.5801 H   0  0  0  0  0  0  0  0  0  0  0  0
  148.5896  142.9744  155.7105 H   0  0  0  0  0  0  0  0  0  0  0  0
  150.9835  145.7235  159.7137 H   0  0  0  0  0  0  0  0  0  0  0  0
  1  2  1  0  0  0  0
  1 23  1  0  0  0  0
  1 24  1  0  0  0  0
  1 25  1  0  0  0  0
  2 21  1  0  0  0  0
  2  3  2  0  0  0  0
  3  4  1  0  0  0  0
  3 26  1  0  0  0  0
  4 19  2  0  0  0  0
  4  5  1  0  0  0  0
  5  6  2  0  0  0  0
  5 49  1  0  0  0  0
  6  7  1  0  0  0  0
  6 27  1  0  0  0  0
  7  8  1  0  0  0  0
  7 19  1  0  0  0  0
  8  9  1  0  0  0  0
  8 28  1  0  0  0  0
  8 29  1  0  0  0  0
  9 10  1  0  0  0  0
  9 11  1  0  0  0  0
  9 30  1  0  0  0  0
 10 31  1  0  0  0  0
 11 12  1  0  0  0  0
 11 32  1  0  0  0  0
 11 33  1  0  0  0  0
 12 18  1  0  0  0  0
 12 13  1  0  0  0  0
 12 48  1  0  0  0  0
 13 14  1  0  0  0  0
 13 34  1  0  0  0  0
 13 35  1  0  0  0  0
 14 15  1  0  0  0  0
 14 36  1  0  0  0  0
 14 37  1  0  0  0  0
 15 16  1  0  0  0  0
 16 17  1  0  0  0  0
 16 18  1  0  0  0  0
 16 38  1  0  0  0  0
 17 39  1  0  0  0  0
 17 40  1  0  0  0  0
 17 41  1  0  0  0  0
 18 42  1  0  0  0  0
 18 43  1  0  0  0  0
 19 20  1  0  0  0  0
 20 21  2  0  0  0  0
 20 44  1  0  0  0  0
 21 22  1  0  0  0  0
 22 45  1  0  0  0  0
 22 46  1  0  0  0  0
 22 47  1  0  0  0  0
M  CHG  1   5   1
M  CHG  1  12   1
M  END
> <s_m_source_file>
AV-unprocessed.smi

> <i_m_source_file_index>
1554

> <i_lp_mmshare_version>
43012

> <i_f3d_flags>
0

> <s_epik_input>
W0NIM11jKFtjSF0xKWMoW0NIM10pW2NIXWMoYzEyKW4oW2NIXW4yKVtDSDJdW0NASF0oW09IXSlbQ0gyXU4zW0NIMl1bQ0gyXU9bQ0BASF0oW0NIM10pW0NIMl0z

> <s_epik_cmdline>
J2VwaWtfcHl0aG9uJywgJy1waCcsICc3LjAnLCAnLXRuJywgJzgnLCAnLW1hJywgJzIwMCcsICctbWV0YWxfYmluZGluZycsICctaW1hZScsICc8aW5maWxlLm1hZT4nLCAnLW9tYWUnLCAnPG91dGZpbGUubWFlPic=

> <r_epik_Ionization_Penalty>
1.8848

> <r_epik_Ionization_Penalty_Charging>
1.88479

> <r_epik_Ionization_Penalty_Neutral>
1.42224e-05

> <r_epik_State_Penalty>
1.94551

> <r_epik_Charging_Adjusted_Penalty>
3.8303

> <i_epik_Tot_Q>
2

> <i_epik_Tot_abs_Q>
2

> <r_epik_Metal_State_Penalty>
5.95849

> <b_epik_Metal_Only>
0

> <s_lp_Force_Field>
OPLS_2005

> <r_lp_Energy>
30.4692

> <b_lp_Chiralities_Consistent>
1

> <s_lp_Variant>
AV-unprocessed.smi:1554-24

> <Gold.Version>
5.8.1

> <Gold.Id.Protein>
6NUR|6NUR_protein|mol2

> <Gold.PLP.Fitness>
58.1759

> <Gold.PLP.PLP>
-48.2829

> <Gold.PLP.part.hbond>
-2.0000

> <Gold.PLP.part.metal>
0.0000

> <Gold.PLP.part.buried>
-5.6946

> <Gold.PLP.part.nonpolar>
-39.6238

> <Gold.PLP.part.repulsive>
0.3346

> <Gold.PLP.ligand.clash>
0.0000

> <Gold.PLP.ligand.torsion>
0.6129

> <Gold.PLP.Chemscore.Hbond>
2.6880

> <Gold.PLP.Chemscore.CHOScore>
0.9960

> <Gold.PLP.Chemscore.Metal>
0.0000

> <Gold.Chemscore.Hbonds>
donor molecule, donor type, donor heavy atom, donor atom, acceptor molecule, acceptor atom, score
      L1  H    12    48       P1  8028  2.00
      P1  H  7989  7998       L1    10  0.70
      L1  C     6    27       P1  8028  1.00

> <Gold.PLP.Chemscore.Internal.Correction>
0.0667

> <Gold.Rescore>
     Score         DG    S(hbond)    S(metal)    S(lipo)     H(rot)  DE(clash)    DE(int)     intcor
     16.77     -19.69       1.10        0.00     136.29       2.11       1.27       1.65       ----

> <Gold.Chemscore.Fitness>
16.7714

> <Gold.Chemscore.DG>
-19.6902

> <Gold.Chemscore.ZeroCoef>
-5.4800

> <Gold.Chemscore.Hbond>
1.0991

> <Gold.Chemscore.Metal>
0.0000

> <Gold.Chemscore.Lipo>
136.2936

> <Gold.Chemscore.Internal_Hbond>
0.0000

> <Gold.Chemscore.DEClash>
1.2708

> <Gold.Chemscore.DEInternal>
1.6479

> <Gold.Chemscore.Rot>
2.1122

> <Gold.Chemscore.Internal.Correction>
   9.000000E+99

> <Gold.Chemscore.Hbonds>
donor molecule, donor type, donor heavy atom, donor atom, acceptor molecule, acceptor atom, score
      L1  H    12    48       P1  8028  0.99
      P1  H  7989  7998       L1    10  0.38

> <Gold.Chemscore.Hbond.Weighted>
-3.6711

> <Gold.Chemscore.Metal.Weighted>
-0.0000

> <Gold.Chemscore.Lipo.Weighted>
-15.9463

> <Gold.Chemscore.Internal_Hbond.Weighted>
0.0000

> <Gold.Chemscore.DEClash.Weighted>
1.2708

> <Gold.Chemscore.DEInternal.Weighted>
1.6479

> <Gold.Chemscore.Rot.Weighted>
5.4073

> <Gold.Chemscore.Internal.Correction.Weighted>
   9.000000E+99

> <Gold.Protein.RotatedTorsions>
[ 6907 6896 6895 6894 ] final -132.33 input  -60.11 | X-H torsion
[ 7974 7965 7964 7962 ] final  -64.22 input  175.53 | X-H torsion
[ 8008 7997 7996 7995 ] final   -6.01 input   59.86 | X-H torsion
[ 10167 10162 10161 10158 ] final  -50.56 input  -65.29 | X-H torsion
[ 10718 10713 10712 10709 ] final  -29.03 input   66.30 | X-H torsion
[ 10763 10752 10751 10750 ] final   89.90 input  -60.55 | X-H torsion
[ 11005 11000 10999 10996 ] final  -67.22 input  -57.11 | X-H torsion

> <Gold.Protein.ActiveResidues>
 VAL166  LYS551  ARG553  GLY616  TRP617  ASP618  TYR619  PRO620  LYS621  CYS622 
 ASP623  PHE694  ASN695  SER759  ASP760  ASP761  ALA762  ILE779  LEU786  VAL792 
 PHE793  MET794  SER795  GLU796  ALA797  LYS798  CYS799  TRP800  GLU811  SER814 

> <Gold.Protein.RotatedAtoms>
  150.9612  133.6444  159.2753 H   0  0  0  0  0  0  0  0  0  0  0  0  # atno 6907 bound_to 6896
  151.3765  135.0931  159.9492 H   0  0  0  0  0  0  0  0  0  0  0  0  # atno 6908 bound_to 6896
  152.5148  133.9155  159.7563 H   0  0  0  0  0  0  0  0  0  0  0  0  # atno 6909 bound_to 6896
  145.7694  140.8821  143.0388 H   0  0  0  0  0  0  0  0  0  0  0  0  # atno 7974 bound_to 7965
  154.5980  140.2444  155.7830 H   0  0  0  0  0  0  0  0  0  0  0  0  # atno 8008 bound_to 7997
  156.2292  140.2972  156.0098 H   0  0  0  0  0  0  0  0  0  0  0  0  # atno 8009 bound_to 7997
  155.2259  140.0402  157.2945 H   0  0  0  0  0  0  0  0  0  0  0  0  # atno 8010 bound_to 7997
  140.6632  143.2653  151.4376 H   0  0  0  0  0  0  0  0  0  0  0  0  # atno 10167 bound_to 10162
  156.4177  130.4420  149.7206 H   0  0  0  0  0  0  0  0  0  0  0  0  # atno 10718 bound_to 10713
  153.1919  135.4453  155.0160 H   0  0  0  0  0  0  0  0  0  0  0  0  # atno 10763 bound_to 10752
  154.8095  135.3288  154.7345 H   0  0  0  0  0  0  0  0  0  0  0  0  # atno 10764 bound_to 10752
  153.7798  135.6978  153.4946 H   0  0  0  0  0  0  0  0  0  0  0  0  # atno 10765 bound_to 10752
  141.1502  133.6714  156.6259 H   0  0  0  0  0  0  0  0  0  0  0  0  # atno 11005 bound_to 11000
  144.6815  139.9834  143.7483 LP  0  0  0  0  0  0  0  0  0  0  0  0  # atno 17320 bound_to 7965
  146.0185  139.3230  143.0827 LP  0  0  0  0  0  0  0  0  0  0  0  0  # atno 17321 bound_to 7965
  139.5872  144.1579  152.2043 LP  0  0  0  0  0  0  0  0  0  0  0  0  # atno 17342 bound_to 10162
  140.0922  144.5611  150.7047 LP  0  0  0  0  0  0  0  0  0  0  0  0  # atno 17343 bound_to 10162
  156.4160  130.7745  151.2760 LP  0  0  0  0  0  0  0  0  0  0  0  0  # atno 17370 bound_to 10713
  157.7508  131.0197  150.3679 LP  0  0  0  0  0  0  0  0  0  0  0  0  # atno 17371 bound_to 10713
  140.3504  134.7773  157.4463 LP  0  0  0  0  0  0  0  0  0  0  0  0  # atno 17394 bound_to 11000
  140.0865  134.5659  155.8487 LP  0  0  0  0  0  0  0  0  0  0  0  0  # atno 17395 bound_to 11000

$$$$
