AV-unprocessed.smi:3150|AV-procd|sdf|12010|dock4
  -GOLD-   2272017413D 1   1.00000     0.00000
 Structure written by MMmdl.
 33 34  0  0  0  0  0  0  0  0  3 V2000
  149.8147  137.7366  158.3721 C   0  0  0  0  0  0  0  0  0  0  0  0
  150.4890  137.9382  157.0065 C   0  0  1  0  0  0  0  0  0  0  0  0
  151.7163  138.6260  157.2339 O   0  0  0  0  0  0  0  0  0  0  0  0
  151.5963  139.9013  157.8523 C   0  0  0  0  0  0  0  0  0  0  0  0
  150.5952  140.7260  157.0724 C   0  0  0  0  0  0  0  0  0  0  0  0
  150.9583  142.1128  156.5926 C   0  0  0  0  0  0  0  0  0  0  0  0
  149.9445  141.9407  157.6948 C   0  0  0  0  0  0  0  0  0  0  0  0
  150.7521  136.5961  156.3044 C   0  0  0  0  0  0  0  0  0  0  0  0
  151.8990  136.2971  155.9673 O   0  0  0  0  0  0  0  0  0  0  0  0
  149.6676  135.8280  156.0894 N   0  0  0  0  0  0  0  0  0  0  0  0
  149.5882  134.5553  155.4589 C   0  0  0  0  0  0  0  0  0  0  0  0
  149.2539  134.4168  154.1514 N   0  3  0  0  0  0  0  0  0  0  0  0
  149.1702  133.2243  153.5234 C   0  0  0  0  0  0  0  0  0  0  0  0
  149.4385  132.0387  154.2338 C   0  0  0  0  0  0  0  0  0  0  0  0
  149.7907  132.1241  155.5952 C   0  0  0  0  0  0  0  0  0  0  0  0
  149.8664  133.3902  156.2145 C   0  0  0  0  0  0  0  0  0  0  0  0
  150.2072  133.4724  157.5357 O   0  5  0  0  0  0  0  0  0  0  0  0
  148.8686  137.2034  158.2733 H   0  0  0  0  0  0  0  0  0  0  0  0
  149.6031  138.6969  158.8428 H   0  0  0  0  0  0  0  0  0  0  0  0
  150.4499  137.1713  159.0553 H   0  0  0  0  0  0  0  0  0  0  0  0
  149.8340  138.5585  156.3913 H   0  0  0  0  0  0  0  0  0  0  0  0
  151.2681  139.8169  158.8890 H   0  0  0  0  0  0  0  0  0  0  0  0
  152.5576  140.4164  157.8458 H   0  0  0  0  0  0  0  0  0  0  0  0
  149.9772  140.1410  156.3939 H   0  0  0  0  0  0  0  0  0  0  0  0
  151.9355  142.5056  156.8666 H   0  0  0  0  0  0  0  0  0  0  0  0
  150.5914  142.4167  155.6144 H   0  0  0  0  0  0  0  0  0  0  0  0
  148.9006  142.1302  157.4532 H   0  0  0  0  0  0  0  0  0  0  0  0
  150.2465  142.2173  158.7032 H   0  0  0  0  0  0  0  0  0  0  0  0
  148.7837  136.1977  156.4094 H   0  0  0  0  0  0  0  0  0  0  0  0
  148.8934  133.2560  152.4798 H   0  0  0  0  0  0  0  0  0  0  0  0
  149.3756  131.0784  153.7436 H   0  0  0  0  0  0  0  0  0  0  0  0
  150.0005  131.2260  156.1580 H   0  0  0  0  0  0  0  0  0  0  0  0
  149.0548  135.2618  153.6149 H   0  0  0  0  0  0  0  0  0  0  0  0
  1  2  1  0  0  0  0
  1 18  1  0  0  0  0
  1 19  1  0  0  0  0
  1 20  1  0  0  0  0
  2  3  1  0  0  0  0
  2  8  1  0  0  0  0
  2 21  1  0  0  0  0
  3  4  1  0  0  0  0
  4  5  1  0  0  0  0
  4 22  1  0  0  0  0
  4 23  1  0  0  0  0
  5  7  1  0  0  0  0
  5  6  1  0  0  0  0
  5 24  1  0  0  0  0
  6  7  1  0  0  0  0
  6 25  1  0  0  0  0
  6 26  1  0  0  0  0
  7 27  1  0  0  0  0
  7 28  1  0  0  0  0
  8  9  2  0  0  0  0
  8 10  1  0  0  0  0
 10 29  1  0  0  0  0
 10 11  1  0  0  0  0
 11 16  2  0  0  0  0
 11 12  1  0  0  0  0
 12 33  1  0  0  0  0
 12 13  2  0  0  0  0
 13 30  1  0  0  0  0
 13 14  1  0  0  0  0
 14 31  1  0  0  0  0
 14 15  2  0  0  0  0
 15 16  1  0  0  0  0
 15 32  1  0  0  0  0
 16 17  1  0  0  0  0
M  CHG  1  12   1
M  CHG  1  17  -1
M  END
> <s_m_source_file>
AV-unprocessed.smi

> <i_m_source_file_index>
3150

> <i_lp_mmshare_version>
43012

> <i_f3d_flags>
0

> <s_epik_input>
W0NIMl0xW0NIMl1bQ0hdMVtDSDJdT1tDQEBIXShbQ0gzXSlDKD1PKVtOSF1jMm5bY0hdW2NIXVtjSF1jMltPSF0=

> <s_epik_cmdline>
J2VwaWtfcHl0aG9uJywgJy1waCcsICc3LjAnLCAnLXRuJywgJzgnLCAnLW1hJywgJzIwMCcsICctbWV0YWxfYmluZGluZycsICctaW1hZScsICc8aW5maWxlLm1hZT4nLCAnLW9tYWUnLCAnPG91dGZpbGUubWFlPic=

> <r_lp_tautomer_probability>
0.56342

> <r_epik_Ionization_Penalty>
0.213151

> <r_epik_Ionization_Penalty_Charging>
0.0249427

> <r_epik_Ionization_Penalty_Neutral>
0.188209

> <r_epik_State_Penalty>
0.538305

> <r_epik_Charging_Adjusted_Penalty>
0.563248

> <i_epik_Tot_Q>
0

> <i_epik_Tot_abs_Q>
2

> <r_epik_Metal_State_Penalty>
2.57454

> <b_epik_Metal_Only>
0

> <s_lp_Force_Field>
OPLS_2005

> <r_lp_Energy>
15.4349

> <b_lp_Chiralities_Consistent>
1

> <s_lp_Variant>
AV-unprocessed.smi:3150-4

> <Gold.Version>
5.8.1

> <Gold.Id.Protein>
6NUR|6NUR_protein|mol2

> <Gold.PLP.Fitness>
38.7530

> <Gold.PLP.PLP>
-25.1145

> <Gold.PLP.part.hbond>
-3.0000

> <Gold.PLP.part.metal>
0.0000

> <Gold.PLP.part.buried>
-4.0699

> <Gold.PLP.part.nonpolar>
-17.6697

> <Gold.PLP.part.repulsive>
0.0862

> <Gold.PLP.ligand.clash>
0.0000

> <Gold.PLP.ligand.torsion>
1.2148

> <Gold.PLP.Chemscore.Hbond>
5.0000

> <Gold.PLP.Chemscore.CHOScore>
0.0000

> <Gold.PLP.Chemscore.Metal>
0.0000

> <Gold.Chemscore.Hbonds>
donor molecule, donor type, donor heavy atom, donor atom, acceptor molecule, acceptor atom, score
      L1  H    12    33       P1  7948  1.95
      P1  H  6896  6908       L1    17  2.00
      P1  H 10752 10764       L1     9  1.00

> <Gold.PLP.Chemscore.Internal.Correction>
1.0681

> <Gold.Rescore>
     Score         DG    S(hbond)    S(metal)    S(lipo)     H(rot)  DE(clash)    DE(int)     intcor
     14.83     -16.04       2.67        0.00      50.82       1.68       0.00       1.20       ----

> <Gold.Chemscore.Fitness>
14.8328

> <Gold.Chemscore.DG>
-16.0377

> <Gold.Chemscore.ZeroCoef>
-5.4800

> <Gold.Chemscore.Hbond>
2.6709

> <Gold.Chemscore.Metal>
0.0000

> <Gold.Chemscore.Lipo>
50.8222

> <Gold.Chemscore.Internal_Hbond>
0.0000

> <Gold.Chemscore.DEClash>
0.0015

> <Gold.Chemscore.DEInternal>
1.2034

> <Gold.Chemscore.Rot>
1.6833

> <Gold.Chemscore.Internal.Correction>
   9.000000E+99

> <Gold.Chemscore.Hbonds>
donor molecule, donor type, donor heavy atom, donor atom, acceptor molecule, acceptor atom, score
      L1  H    12    33       P1  7948  0.46
      P1  H  6896  6908       L1    17  0.95
      P1  H 10752 10764       L1     9  1.00

> <Gold.Chemscore.Hbond.Weighted>
-8.9209

> <Gold.Chemscore.Metal.Weighted>
-0.0000

> <Gold.Chemscore.Lipo.Weighted>
-5.9462

> <Gold.Chemscore.Internal_Hbond.Weighted>
0.0000

> <Gold.Chemscore.DEClash.Weighted>
0.0015

> <Gold.Chemscore.DEInternal.Weighted>
1.2034

> <Gold.Chemscore.Rot.Weighted>
4.3094

> <Gold.Chemscore.Internal.Correction.Weighted>
   9.000000E+99

> <Gold.Protein.RotatedTorsions>
[ 6907 6896 6895 6894 ] final  102.63 input  -60.11 | X-H torsion
[ 7974 7965 7964 7962 ] final  -42.66 input  175.53 | X-H torsion
[ 8008 7997 7996 7995 ] final  138.44 input   59.86 | X-H torsion
[ 10167 10162 10161 10158 ] final  109.53 input  -65.29 | X-H torsion
[ 10718 10713 10712 10709 ] final   48.02 input   66.30 | X-H torsion
[ 10763 10752 10751 10750 ] final  -47.28 input  -60.55 | X-H torsion
[ 11005 11000 10999 10996 ] final   63.14 input  -57.11 | X-H torsion

> <Gold.Protein.ActiveResidues>
 VAL166  LYS551  ARG553  GLY616  TRP617  ASP618  TYR619  PRO620  LYS621  CYS622 
 ASP623  PHE694  ASN695  SER759  ASP760  ASP761  ALA762  ILE779  LEU786  VAL792 
 PHE793  MET794  SER795  GLU796  ALA797  LYS798  CYS799  TRP800  GLU811  SER814 

> <Gold.Protein.RotatedAtoms>
  152.5318  133.9947  159.7866 H   0  0  0  0  0  0  0  0  0  0  0  0  # atno 6907 bound_to 6896
  151.0176  133.5898  159.2682 H   0  0  0  0  0  0  0  0  0  0  0  0  # atno 6908 bound_to 6896
  151.2950  135.0759  159.9271 H   0  0  0  0  0  0  0  0  0  0  0  0  # atno 6909 bound_to 6896
  146.0094  140.6982  142.9231 H   0  0  0  0  0  0  0  0  0  0  0  0  # atno 7974 bound_to 7965
  156.2997  140.2393  156.4074 H   0  0  0  0  0  0  0  0  0  0  0  0  # atno 8008 bound_to 7997
  154.8472  140.0425  157.1600 H   0  0  0  0  0  0  0  0  0  0  0  0  # atno 8009 bound_to 7997
  154.9038  140.2980  155.5307 H   0  0  0  0  0  0  0  0  0  0  0  0  # atno 8010 bound_to 7997
  139.6759  144.7122  151.1602 H   0  0  0  0  0  0  0  0  0  0  0  0  # atno 10167 bound_to 10162
  157.4644  130.8216  149.7921 H   0  0  0  0  0  0  0  0  0  0  0  0  # atno 10718 bound_to 10713
  154.0588  135.6621  153.4809 H   0  0  0  0  0  0  0  0  0  0  0  0  # atno 10763 bound_to 10752
  153.0435  135.5130  154.7679 H   0  0  0  0  0  0  0  0  0  0  0  0  # atno 10764 bound_to 10752
  154.6709  135.3029  154.9710 H   0  0  0  0  0  0  0  0  0  0  0  0  # atno 10765 bound_to 10752
  140.0044  134.6392  155.9878 H   0  0  0  0  0  0  0  0  0  0  0  0  # atno 11005 bound_to 11000
  144.6947  140.3372  143.7205 LP  0  0  0  0  0  0  0  0  0  0  0  0  # atno 17320 bound_to 7965
  145.7365  139.1751  143.2400 LP  0  0  0  0  0  0  0  0  0  0  0  0  # atno 17321 bound_to 7965
  140.7635  143.5772  150.8933 LP  0  0  0  0  0  0  0  0  0  0  0  0  # atno 17342 bound_to 10162
  139.9441  143.6348  152.3046 LP  0  0  0  0  0  0  0  0  0  0  0  0  # atno 17343 bound_to 10162
  156.0043  130.3863  150.2487 LP  0  0  0  0  0  0  0  0  0  0  0  0  # atno 17370 bound_to 10713
  157.0666  131.0105  151.3204 LP  0  0  0  0  0  0  0  0  0  0  0  0  # atno 17371 bound_to 10713
  141.1666  133.6537  156.4502 LP  0  0  0  0  0  0  0  0  0  0  0  0  # atno 17394 bound_to 11000
  140.4668  134.6790  157.5111 LP  0  0  0  0  0  0  0  0  0  0  0  0  # atno 17395 bound_to 11000

$$$$
