AV-unprocessed.smi:2982|AV-procd|sdf|11376|dock9
  -GOLD-   2272016293D 1   1.00000     0.00000
 Structure written by MMmdl.
 36 37  0  0  0  0  0  0  0  0  1 V2000
  145.8985  137.7629  150.8872 C   0  0  0  0  0  0  0  0  0  0  0  0
  146.7411  138.9368  151.4029 C   0  0  0  0  0  0  0  0  0  0  0  0
  146.2603  139.5291  152.7432 C   0  0  0  0  0  0  0  0  0  0  0  0
  147.3245  140.0896  153.5572 N   0  0  0  0  0  0  0  0  0  0  0  0
  148.4012  139.3344  154.0312 C   0  0  0  0  0  0  0  0  0  0  0  0
  148.4462  137.9871  153.7101 N   0  0  0  0  0  0  0  0  0  0  0  0
  149.3898  139.8852  154.7930 C   0  0  0  0  0  0  0  0  0  0  0  0
  150.4750  139.1695  155.2851 N   0  0  0  0  0  0  0  0  0  0  0  0
  151.4307  138.4781  154.4304 C   0  0  0  0  0  0  0  0  0  0  0  0
  152.8441  139.0551  154.6277 C   0  0  0  0  0  0  0  0  0  0  0  0
  153.1948  139.0060  156.0079 O   0  0  0  0  0  0  0  0  0  0  0  0
  152.3015  139.7643  156.8184 C   0  0  0  0  0  0  0  0  0  0  0  0
  150.8774  139.1970  156.6845 C   0  0  0  0  0  0  0  0  0  0  0  0
  149.3527  141.3079  155.1447 C   0  0  0  0  0  0  0  0  0  0  0  0
  150.1929  141.9026  155.8192 O   0  0  0  0  0  0  0  0  0  0  0  0
  148.2520  142.0055  154.6536 N   0  0  0  0  0  0  0  0  0  0  0  0
  147.2306  141.4660  153.8799 C   0  0  0  0  0  0  0  0  0  0  0  0
  146.3032  142.1915  153.5201 O   0  0  0  0  0  0  0  0  0  0  0  0
  148.1885  142.9868  154.8823 H   0  0  0  0  0  0  0  0  0  0  0  0
  146.2464  137.4393  149.9061 H   0  0  0  0  0  0  0  0  0  0  0  0
  144.8491  138.0428  150.7921 H   0  0  0  0  0  0  0  0  0  0  0  0
  145.9605  136.9043  151.5558 H   0  0  0  0  0  0  0  0  0  0  0  0
  147.7805  138.6193  151.4892 H   0  0  0  0  0  0  0  0  0  0  0  0
  146.7312  139.7278  150.6526 H   0  0  0  0  0  0  0  0  0  0  0  0
  145.5544  140.3428  152.5758 H   0  0  0  0  0  0  0  0  0  0  0  0
  145.7050  138.7983  153.3325 H   0  0  0  0  0  0  0  0  0  0  0  0
  147.7265  137.5533  153.1501 H   0  0  0  0  0  0  0  0  0  0  0  0
  149.1968  137.3877  154.0214 H   0  0  0  0  0  0  0  0  0  0  0  0
  151.4186  137.4154  154.6760 H   0  0  0  0  0  0  0  0  0  0  0  0
  151.1322  138.5641  153.3848 H   0  0  0  0  0  0  0  0  0  0  0  0
  153.5687  138.4749  154.0562 H   0  0  0  0  0  0  0  0  0  0  0  0
  152.9039  140.0816  154.2643 H   0  0  0  0  0  0  0  0  0  0  0  0
  152.6313  139.7112  157.8560 H   0  0  0  0  0  0  0  0  0  0  0  0
  152.3337  140.8153  156.5283 H   0  0  0  0  0  0  0  0  0  0  0  0
  150.1770  139.7976  157.2663 H   0  0  0  0  0  0  0  0  0  0  0  0
  150.8338  138.1836  157.0853 H   0  0  0  0  0  0  0  0  0  0  0  0
  1  2  1  0  0  0  0
  1 20  1  0  0  0  0
  1 21  1  0  0  0  0
  1 22  1  0  0  0  0
  2  3  1  0  0  0  0
  2 23  1  0  0  0  0
  2 24  1  0  0  0  0
  3  4  1  0  0  0  0
  3 25  1  0  0  0  0
  3 26  1  0  0  0  0
  4 17  1  0  0  0  0
  4  5  1  0  0  0  0
  5  6  1  0  0  0  0
  5  7  2  0  0  0  0
  6 27  1  0  0  0  0
  6 28  1  0  0  0  0
  7  8  1  0  0  0  0
  7 14  1  0  0  0  0
  8 13  1  0  0  0  0
  8  9  1  0  0  0  0
  9 10  1  0  0  0  0
  9 29  1  0  0  0  0
  9 30  1  0  0  0  0
 10 11  1  0  0  0  0
 10 31  1  0  0  0  0
 10 32  1  0  0  0  0
 11 12  1  0  0  0  0
 12 13  1  0  0  0  0
 12 33  1  0  0  0  0
 12 34  1  0  0  0  0
 13 35  1  0  0  0  0
 13 36  1  0  0  0  0
 14 15  2  0  0  0  0
 14 16  1  0  0  0  0
 16 19  1  0  0  0  0
 16 17  1  0  0  0  0
 17 18  2  0  0  0  0
M  END
> <s_m_source_file>
AV-unprocessed.smi

> <i_m_source_file_index>
2982

> <i_lp_mmshare_version>
43012

> <i_f3d_flags>
0

> <s_epik_input>
W0NIM11bQ0gyXVtDSDJdbjFjKFtOSDJdKWMoYyg9TylbbkhdYzE9TylOMltDSDJdW0NIMl1PW0NIMl1bQ0gyXTI=

> <s_epik_cmdline>
J2VwaWtfcHl0aG9uJywgJy1waCcsICc3LjAnLCAnLXRuJywgJzgnLCAnLW1hJywgJzIwMCcsICctbWV0YWxfYmluZGluZycsICctaW1hZScsICc8aW5maWxlLm1hZT4nLCAnLW9tYWUnLCAnPG91dGZpbGUubWFlPic=

> <r_lp_tautomer_probability>
1

> <r_epik_Ionization_Penalty>
1.08155e-05

> <r_epik_Ionization_Penalty_Charging>
2.81443e-06

> <r_epik_Ionization_Penalty_Neutral>
8.00112e-06

> <r_epik_State_Penalty>
-0

> <r_epik_Charging_Adjusted_Penalty>
2.81443e-06

> <i_epik_Tot_Q>
0

> <i_epik_Tot_abs_Q>
0

> <r_epik_Metal_State_Penalty>
-0

> <b_epik_Metal_Only>
0

> <s_epik_Chemistry_Notes>
This compound has an imine and may undergo hydrolysis.

> <s_lp_Force_Field>
OPLS_2005

> <r_lp_Energy>
28.8877

> <b_lp_Chiralities_Consistent>
1

> <s_lp_Variant>
AV-unprocessed.smi:2982-1

> <Gold.Version>
5.8.1

> <Gold.Id.Protein>
6NUR|6NUR_protein|mol2

> <Gold.PLP.Fitness>
32.9488

> <Gold.PLP.PLP>
-28.4045

> <Gold.PLP.part.hbond>
-3.0000

> <Gold.PLP.part.metal>
0.0000

> <Gold.PLP.part.buried>
6.5171

> <Gold.PLP.part.nonpolar>
-32.8487

> <Gold.PLP.part.repulsive>
0.6785

> <Gold.PLP.ligand.clash>
0.0000

> <Gold.PLP.ligand.torsion>
1.1983

> <Gold.PLP.Chemscore.Hbond>
1.7718

> <Gold.PLP.Chemscore.CHOScore>
0.0000

> <Gold.PLP.Chemscore.Metal>
0.0000

> <Gold.Chemscore.Hbonds>
donor molecule, donor type, donor heavy atom, donor atom, acceptor molecule, acceptor atom, score
      L1  H     6    27       P1  7948  0.01
      L1  H    16    19       P1  8028  1.00
      P1  H  7997  8008       L1    11  0.50

> <Gold.PLP.Chemscore.Internal.Correction>
1.6253

> <Gold.Rescore>
     Score         DG    S(hbond)    S(metal)    S(lipo)     H(rot)  DE(clash)    DE(int)     intcor
      8.29     -11.07       1.00        0.00      46.38       1.24       0.36       2.42       ----

> <Gold.Chemscore.Fitness>
8.2895

> <Gold.Chemscore.DG>
-11.0676

> <Gold.Chemscore.ZeroCoef>
-5.4800

> <Gold.Chemscore.Hbond>
0.9963

> <Gold.Chemscore.Metal>
0.0000

> <Gold.Chemscore.Lipo>
46.3825

> <Gold.Chemscore.Internal_Hbond>
0.0000

> <Gold.Chemscore.DEClash>
0.3572

> <Gold.Chemscore.DEInternal>
2.4209

> <Gold.Chemscore.Rot>
1.2371

> <Gold.Chemscore.Internal.Correction>
   9.000000E+99

> <Gold.Chemscore.Hbonds>
donor molecule, donor type, donor heavy atom, donor atom, acceptor molecule, acceptor atom, score
      L1  H     6    27       P1  7948  0.03
      L1  H    16    19       P1  8028  0.93
      P1  H  7997  8008       L1    11  0.01

> <Gold.Chemscore.Hbond.Weighted>
-3.3277

> <Gold.Chemscore.Metal.Weighted>
-0.0000

> <Gold.Chemscore.Lipo.Weighted>
-5.4267

> <Gold.Chemscore.Internal_Hbond.Weighted>
0.0000

> <Gold.Chemscore.DEClash.Weighted>
0.3572

> <Gold.Chemscore.DEInternal.Weighted>
2.4209

> <Gold.Chemscore.Rot.Weighted>
3.1669

> <Gold.Chemscore.Internal.Correction.Weighted>
   9.000000E+99

> <Gold.Protein.RotatedTorsions>
[ 6907 6896 6895 6894 ] final -123.25 input  -60.11 | X-H torsion
[ 7974 7965 7964 7962 ] final   -4.27 input  175.53 | X-H torsion
[ 8008 7997 7996 7995 ] final  -37.53 input   59.86 | X-H torsion
[ 10167 10162 10161 10158 ] final   26.36 input  -65.29 | X-H torsion
[ 10718 10713 10712 10709 ] final  -68.78 input   66.30 | X-H torsion
[ 10763 10752 10751 10750 ] final   12.19 input  -60.55 | X-H torsion
[ 11005 11000 10999 10996 ] final  179.54 input  -57.11 | X-H torsion

> <Gold.Protein.ActiveResidues>
 VAL166  LYS551  ARG553  GLY616  TRP617  ASP618  TYR619  PRO620  LYS621  CYS622 
 ASP623  PHE694  ASN695  SER759  ASP760  ASP761  ALA762  ILE779  LEU786  VAL792 
 PHE793  MET794  SER795  GLU796  ALA797  LYS798  CYS799  TRP800  GLU811  SER814 

> <Gold.Protein.RotatedAtoms>
  150.8652  133.7584  159.2978 H   0  0  0  0  0  0  0  0  0  0  0  0  # atno 6907 bound_to 6896
  151.5214  135.1065  159.9889 H   0  0  0  0  0  0  0  0  0  0  0  0  # atno 6908 bound_to 6896
  152.4656  133.7871  159.6938 H   0  0  0  0  0  0  0  0  0  0  0  0  # atno 6909 bound_to 6896
  146.2375  140.1846  142.8332 H   0  0  0  0  0  0  0  0  0  0  0  0  # atno 7974 bound_to 7965
  154.4052  140.1602  156.2552 H   0  0  0  0  0  0  0  0  0  0  0  0  # atno 8008 bound_to 7997
  155.9084  140.3429  155.6057 H   0  0  0  0  0  0  0  0  0  0  0  0  # atno 8009 bound_to 7997
  155.7365  140.0787  157.2256 H   0  0  0  0  0  0  0  0  0  0  0  0  # atno 8010 bound_to 7997
  140.5029  144.0285  150.6340 H   0  0  0  0  0  0  0  0  0  0  0  0  # atno 10167 bound_to 10162
  156.0488  130.4301  150.2050 H   0  0  0  0  0  0  0  0  0  0  0  0  # atno 10718 bound_to 10713
  153.1848  135.6833  153.8430 H   0  0  0  0  0  0  0  0  0  0  0  0  # atno 10763 bound_to 10752
  153.7750  135.3190  155.3358 H   0  0  0  0  0  0  0  0  0  0  0  0  # atno 10764 bound_to 10752
  154.8082  135.4735  154.0542 H   0  0  0  0  0  0  0  0  0  0  0  0  # atno 10765 bound_to 10752
  140.4072  134.6724  157.4594 H   0  0  0  0  0  0  0  0  0  0  0  0  # atno 11005 bound_to 11000
  144.9907  140.8544  143.5341 LP  0  0  0  0  0  0  0  0  0  0  0  0  # atno 17320 bound_to 7965
  145.1851  139.2330  143.5272 LP  0  0  0  0  0  0  0  0  0  0  0  0  # atno 17321 bound_to 7965
  140.3586  143.2921  152.0408 LP  0  0  0  0  0  0  0  0  0  0  0  0  # atno 17342 bound_to 10162
  139.4876  144.6320  151.7051 LP  0  0  0  0  0  0  0  0  0  0  0  0  # atno 17343 bound_to 10162
  157.0136  130.9958  151.3359 LP  0  0  0  0  0  0  0  0  0  0  0  0  # atno 17370 bound_to 10713
  157.5393  130.8109  149.8009 LP  0  0  0  0  0  0  0  0  0  0  0  0  # atno 17371 bound_to 10713
  140.0293  134.6430  155.9129 LP  0  0  0  0  0  0  0  0  0  0  0  0  # atno 17394 bound_to 11000
  141.1834  133.6551  156.5117 LP  0  0  0  0  0  0  0  0  0  0  0  0  # atno 17395 bound_to 11000

$$$$
