AV-unprocessed.smi:2412|AV-procd|sdf|9533|dock6
  -GOLD-   2272013163D 1   1.00000     0.00000
 Structure written by MMmdl.
 38 39  0  0  0  0  0  0  0  0  2 V2000
  150.1430  138.6421  154.5126 C   0  0  0  0  0  0  0  0  0  0  0  0
  149.1576  139.7976  154.4904 C   0  0  0  0  0  0  0  0  0  0  0  0
  149.4667  140.9878  155.1845 C   0  0  0  0  0  0  0  0  0  0  0  0
  148.6033  142.0249  155.1707 N   0  3  0  0  0  0  0  0  0  0  0  0
  147.4296  141.9880  154.5066 C   0  0  0  0  0  0  0  0  0  0  0  0
  147.0621  140.8303  153.7928 C   0  0  0  0  0  0  0  0  0  0  0  0
  147.9276  139.7063  153.7891 C   0  0  0  0  0  0  0  0  0  0  0  0
  147.6373  138.5098  153.0738 N   0  0  0  0  0  0  0  0  0  0  0  0
  146.4385  137.9667  152.8014 C   0  0  0  0  0  0  0  0  0  0  0  0
  145.3547  138.4094  153.1814 O   0  0  0  0  0  0  0  0  0  0  0  0
  146.5646  136.8540  152.0629 N   0  0  0  0  0  0  0  0  0  0  0  0
  145.4527  136.0480  151.5611 C   0  0  0  0  0  0  0  0  0  0  0  0
  145.5165  134.5751  152.0078 C   0  0  0  0  0  0  0  0  0  0  0  0
  145.9536  134.2889  153.1243 O   0  0  0  0  0  0  0  0  0  0  0  0
  145.0753  133.6312  151.1507 N   0  0  0  0  0  0  0  0  0  0  0  0
  145.0582  132.1897  151.3993 C   0  0  0  0  0  0  0  0  0  0  0  0
  144.2847  131.5767  150.2311 C   0  0  0  0  0  0  0  0  0  0  0  0
  144.4504  132.5841  149.1021 C   0  0  0  0  0  0  0  0  0  0  0  0
  144.5592  133.9312  149.8165 C   0  0  0  0  0  0  0  0  0  0  0  0
  151.0140  138.8762  155.1256 H   0  0  0  0  0  0  0  0  0  0  0  0
  150.4911  138.4191  153.5035 H   0  0  0  0  0  0  0  0  0  0  0  0
  149.6740  137.7475  154.9231 H   0  0  0  0  0  0  0  0  0  0  0  0
  150.3761  141.1432  155.7467 H   0  0  0  0  0  0  0  0  0  0  0  0
  146.8259  142.8825  154.5589 H   0  0  0  0  0  0  0  0  0  0  0  0
  146.1293  140.8334  153.2497 H   0  0  0  0  0  0  0  0  0  0  0  0
  148.4422  137.9785  152.7750 H   0  0  0  0  0  0  0  0  0  0  0  0
  147.4925  136.5588  151.7971 H   0  0  0  0  0  0  0  0  0  0  0  0
  144.5254  136.4881  151.9285 H   0  0  0  0  0  0  0  0  0  0  0  0
  145.4207  136.1061  150.4719 H   0  0  0  0  0  0  0  0  0  0  0  0
  146.0839  131.8181  151.4145 H   0  0  0  0  0  0  0  0  0  0  0  0
  144.5878  131.9358  152.3499 H   0  0  0  0  0  0  0  0  0  0  0  0
  144.6388  130.5805  149.9648 H   0  0  0  0  0  0  0  0  0  0  0  0
  143.2289  131.4961  150.4943 H   0  0  0  0  0  0  0  0  0  0  0  0
  145.3773  132.3791  148.5647 H   0  0  0  0  0  0  0  0  0  0  0  0
  143.6324  132.5521  148.3818 H   0  0  0  0  0  0  0  0  0  0  0  0
  143.5764  134.3949  149.9136 H   0  0  0  0  0  0  0  0  0  0  0  0
  145.2059  134.6184  149.2685 H   0  0  0  0  0  0  0  0  0  0  0  0
  148.8507  142.8744  155.6790 H   0  0  0  0  0  0  0  0  0  0  0  0
  1  2  1  0  0  0  0
  1 20  1  0  0  0  0
  1 21  1  0  0  0  0
  1 22  1  0  0  0  0
  2  7  1  0  0  0  0
  2  3  2  0  0  0  0
  3  4  1  0  0  0  0
  3 23  1  0  0  0  0
  4  5  2  0  0  0  0
  4 38  1  0  0  0  0
  5  6  1  0  0  0  0
  5 24  1  0  0  0  0
  6  7  2  0  0  0  0
  6 25  1  0  0  0  0
  7  8  1  0  0  0  0
  8  9  1  0  0  0  0
  8 26  1  0  0  0  0
  9 10  2  0  0  0  0
  9 11  1  0  0  0  0
 11 12  1  0  0  0  0
 11 27  1  0  0  0  0
 12 13  1  0  0  0  0
 12 28  1  0  0  0  0
 12 29  1  0  0  0  0
 13 14  2  0  0  0  0
 13 15  1  0  0  0  0
 15 19  1  0  0  0  0
 15 16  1  0  0  0  0
 16 17  1  0  0  0  0
 16 30  1  0  0  0  0
 16 31  1  0  0  0  0
 17 18  1  0  0  0  0
 17 32  1  0  0  0  0
 17 33  1  0  0  0  0
 18 19  1  0  0  0  0
 18 34  1  0  0  0  0
 18 35  1  0  0  0  0
 19 36  1  0  0  0  0
 19 37  1  0  0  0  0
M  CHG  1   4   1
M  END
> <s_m_source_file>
AV-unprocessed.smi

> <i_m_source_file_index>
2412

> <i_lp_mmshare_version>
43012

> <i_f3d_flags>
0

> <s_epik_input>
W0NIM11jMVtjSF1uW2NIXVtjSF1jMVtOSF1DKD1PKVtOSF1bQ0gyXUMoPU8pTjJbQ0gyXVtDSDJdW0NIMl1bQ0gyXTI=

> <s_epik_cmdline>
J2VwaWtfcHl0aG9uJywgJy1waCcsICc3LjAnLCAnLXRuJywgJzgnLCAnLW1hJywgJzIwMCcsICctbWV0YWxfYmluZGluZycsICctaW1hZScsICc8aW5maWxlLm1hZT4nLCAnLW9tYWUnLCAnPG91dGZpbGUubWFlPic=

> <r_epik_Ionization_Penalty>
0.861722

> <r_epik_Ionization_Penalty_Charging>
0.861704

> <r_epik_Ionization_Penalty_Neutral>
1.84974e-05

> <r_epik_State_Penalty>
0.898238

> <r_epik_Charging_Adjusted_Penalty>
1.75994

> <i_epik_Tot_Q>
1

> <i_epik_Tot_abs_Q>
1

> <r_epik_Metal_State_Penalty>
1.0245

> <b_epik_Metal_Only>
0

> <s_lp_Force_Field>
OPLS_2005

> <r_lp_Energy>
33.6381

> <b_lp_Chiralities_Consistent>
1

> <s_lp_Variant>
AV-unprocessed.smi:2412-2

> <Gold.Version>
5.8.1

> <Gold.Id.Protein>
6NUR|6NUR_protein|mol2

> <Gold.PLP.Fitness>
45.4075

> <Gold.PLP.PLP>
-34.8067

> <Gold.PLP.part.hbond>
-3.9123

> <Gold.PLP.part.metal>
0.0000

> <Gold.PLP.part.buried>
-2.6404

> <Gold.PLP.part.nonpolar>
-32.8376

> <Gold.PLP.part.repulsive>
3.5872

> <Gold.PLP.ligand.clash>
0.0000

> <Gold.PLP.ligand.torsion>
0.5442

> <Gold.PLP.Chemscore.Hbond>
3.8960

> <Gold.PLP.Chemscore.CHOScore>
0.0000

> <Gold.PLP.Chemscore.Metal>
0.0000

> <Gold.Chemscore.Hbonds>
donor molecule, donor type, donor heavy atom, donor atom, acceptor molecule, acceptor atom, score
      L1  H     4    38       P1  8028  1.82
      L1  H     8    26       P1  7948  0.85
      L1  H    11    27       P1  7948  0.86

> <Gold.PLP.Chemscore.Internal.Correction>
0.0013

> <Gold.Rescore>
     Score         DG    S(hbond)    S(metal)    S(lipo)     H(rot)  DE(clash)    DE(int)     intcor
     19.20     -21.47       2.86        0.00      83.01       1.28       0.72       1.56       ----

> <Gold.Chemscore.Fitness>
19.1968

> <Gold.Chemscore.DG>
-21.4743

> <Gold.Chemscore.ZeroCoef>
-5.4800

> <Gold.Chemscore.Hbond>
2.8611

> <Gold.Chemscore.Metal>
0.0000

> <Gold.Chemscore.Lipo>
83.0052

> <Gold.Chemscore.Internal_Hbond>
0.0000

> <Gold.Chemscore.DEClash>
0.7195

> <Gold.Chemscore.DEInternal>
1.5580

> <Gold.Chemscore.Rot>
1.2786

> <Gold.Chemscore.Internal.Correction>
   9.000000E+99

> <Gold.Chemscore.Hbonds>
donor molecule, donor type, donor heavy atom, donor atom, acceptor molecule, acceptor atom, score
      L1  H     4    38       P1  8028  0.90
      L1  H     8    26       P1  7948  0.80
      L1  H    11    27       P1  7948  0.84

> <Gold.Chemscore.Hbond.Weighted>
-9.5560

> <Gold.Chemscore.Metal.Weighted>
-0.0000

> <Gold.Chemscore.Lipo.Weighted>
-9.7116

> <Gold.Chemscore.Internal_Hbond.Weighted>
0.0000

> <Gold.Chemscore.DEClash.Weighted>
0.7195

> <Gold.Chemscore.DEInternal.Weighted>
1.5580

> <Gold.Chemscore.Rot.Weighted>
3.2733

> <Gold.Chemscore.Internal.Correction.Weighted>
   9.000000E+99

> <Gold.Protein.RotatedTorsions>
[ 6907 6896 6895 6894 ] final   94.85 input  -60.11 | X-H torsion
[ 7974 7965 7964 7962 ] final  -94.91 input  175.53 | X-H torsion
[ 8008 7997 7996 7995 ] final  120.39 input   59.86 | X-H torsion
[ 10167 10162 10161 10158 ] final -122.56 input  -65.29 | X-H torsion
[ 10718 10713 10712 10709 ] final  128.44 input   66.30 | X-H torsion
[ 10763 10752 10751 10750 ] final   34.65 input  -60.55 | X-H torsion
[ 11005 11000 10999 10996 ] final   56.40 input  -57.11 | X-H torsion

> <Gold.Protein.ActiveResidues>
 VAL166  LYS551  ARG553  GLY616  TRP617  ASP618  TYR619  PRO620  LYS621  CYS622 
 ASP623  PHE694  ASN695  SER759  ASP760  ASP761  ALA762  ILE779  LEU786  VAL792 
 PHE793  MET794  SER795  GLU796  ALA797  LYS798  CYS799  TRP800  GLU811  SER814 

> <Gold.Protein.RotatedAtoms>
  152.5447  134.1130  159.8366 H   0  0  0  0  0  0  0  0  0  0  0  0  # atno 6907 bound_to 6896
  151.1194  133.5108  159.2610 H   0  0  0  0  0  0  0  0  0  0  0  0  # atno 6908 bound_to 6896
  151.1796  135.0364  159.8841 H   0  0  0  0  0  0  0  0  0  0  0  0  # atno 6909 bound_to 6896
  145.3670  140.9500  143.2468 H   0  0  0  0  0  0  0  0  0  0  0  0  # atno 7974 bound_to 7965
  156.2640  140.2832  156.1142 H   0  0  0  0  0  0  0  0  0  0  0  0  # atno 8008 bound_to 7997
  155.1225  140.0392  157.2771 H   0  0  0  0  0  0  0  0  0  0  0  0  # atno 8009 bound_to 7997
  154.6660  140.2577  155.7064 H   0  0  0  0  0  0  0  0  0  0  0  0  # atno 8010 bound_to 7997
  140.0129  143.5423  152.2255 H   0  0  0  0  0  0  0  0  0  0  0  0  # atno 10167 bound_to 10162
  157.5244  131.1098  150.9104 H   0  0  0  0  0  0  0  0  0  0  0  0  # atno 10718 bound_to 10713
  153.0154  135.6355  154.1701 H   0  0  0  0  0  0  0  0  0  0  0  0  # atno 10763 bound_to 10752
  154.1441  135.2833  155.3154 H   0  0  0  0  0  0  0  0  0  0  0  0  # atno 10764 bound_to 10752
  154.6103  135.5559  153.7527 H   0  0  0  0  0  0  0  0  0  0  0  0  # atno 10765 bound_to 10752
  140.0532  134.5707  155.9238 H   0  0  0  0  0  0  0  0  0  0  0  0  # atno 11005 bound_to 11000
  144.8604  139.5186  143.6815 LP  0  0  0  0  0  0  0  0  0  0  0  0  # atno 17320 bound_to 7965
  146.2902  139.7117  142.9166 LP  0  0  0  0  0  0  0  0  0  0  0  0  # atno 17321 bound_to 7965
  139.6192  144.7626  151.2777 LP  0  0  0  0  0  0  0  0  0  0  0  0  # atno 17342 bound_to 10162
  140.7374  143.6679  150.8107 LP  0  0  0  0  0  0  0  0  0  0  0  0  # atno 17343 bound_to 10162
  156.9705  130.5489  149.5290 LP  0  0  0  0  0  0  0  0  0  0  0  0  # atno 17370 bound_to 10713
  156.0376  130.5462  150.8693 LP  0  0  0  0  0  0  0  0  0  0  0  0  # atno 17371 bound_to 10713
  141.1940  133.6581  156.5574 LP  0  0  0  0  0  0  0  0  0  0  0  0  # atno 17394 bound_to 11000
  140.3885  134.7461  157.4706 LP  0  0  0  0  0  0  0  0  0  0  0  0  # atno 17395 bound_to 11000

$$$$
