AV-unprocessed.smi:390|AV-procd|sdf|2478|dock4
  -GOLD-   2262022423D 1   1.00000     0.00000
 Structure written by MMmdl.
 31 32  0  0  0  0  0  0  0  0  1 V2000
  150.5234  140.4521  155.1482 N   0  0  0  0  0  0  0  0  0  0  0  0
  151.0330  140.7169  156.1529 C   0  0  0  0  0  0  0  0  0  0  0  0
  151.6669  141.0129  157.3947 C   0  0  0  0  0  0  0  0  0  0  0  0
  151.7887  142.2799  157.8465 C   0  0  0  0  0  0  0  0  0  0  0  0
  152.3930  142.5917  159.0473 N   0  0  0  0  0  0  0  0  0  0  0  0
  152.6508  143.9531  159.4225 C   0  0  0  0  0  0  0  0  0  0  0  0
  151.5017  144.9173  159.6439 C   0  0  0  0  0  0  0  0  0  0  0  0
  152.3765  145.0541  158.4216 C   0  0  0  0  0  0  0  0  0  0  0  0
  152.9888  141.5771  159.8281 C   0  0  0  0  0  0  0  0  0  0  0  0
  153.6258  141.8454  160.8503 O   0  0  0  0  0  0  0  0  0  0  0  0
  152.8363  140.2452  159.3712 N   0  0  0  0  0  0  0  0  0  0  0  0
  153.4355  139.1810  160.1653 C   0  0  0  0  0  0  0  0  0  0  0  0
  154.3211  138.2113  159.3663 C   0  0  0  0  0  0  0  0  0  0  0  0
  155.2123  138.6430  158.6301 O   0  0  0  0  0  0  0  0  0  0  0  0
  154.0344  136.9063  159.5476 N   0  0  0  0  0  0  0  0  0  0  0  0
  154.6440  135.8473  158.9805 C   0  0  0  0  0  0  0  0  0  0  0  0
  155.8569  136.1637  158.5232 N   0  0  0  0  0  0  0  0  0  0  0  0
  154.1800  134.7119  158.8745 O   0  0  0  0  0  0  0  0  0  0  0  0
  152.1916  139.8843  158.1602 C   0  0  0  0  0  0  0  0  0  0  0  0
  152.1070  138.7110  157.7921 O   0  0  0  0  0  0  0  0  0  0  0  0
  151.3938  143.0865  157.2458 H   0  0  0  0  0  0  0  0  0  0  0  0
  153.5198  144.1000  160.0616 H   0  0  0  0  0  0  0  0  0  0  0  0
  150.4872  144.5542  159.4902 H   0  0  0  0  0  0  0  0  0  0  0  0
  151.6157  145.6604  160.4306 H   0  0  0  0  0  0  0  0  0  0  0  0
  153.0721  145.8902  158.3923 H   0  0  0  0  0  0  0  0  0  0  0  0
  151.9385  144.7794  157.4638 H   0  0  0  0  0  0  0  0  0  0  0  0
  154.0054  139.6444  160.9723 H   0  0  0  0  0  0  0  0  0  0  0  0
  152.6285  138.6436  160.6661 H   0  0  0  0  0  0  0  0  0  0  0  0
  153.2757  136.7024  160.1809 H   0  0  0  0  0  0  0  0  0  0  0  0
  156.4314  135.4667  158.0730 H   0  0  0  0  0  0  0  0  0  0  0  0
  156.1966  137.1086  158.6315 H   0  0  0  0  0  0  0  0  0  0  0  0
  1  2  3  0  0  0  0
  2  3  1  0  0  0  0
  3 19  1  0  0  0  0
  3  4  2  0  0  0  0
  4  5  1  0  0  0  0
  4 21  1  0  0  0  0
  5  6  1  0  0  0  0
  5  9  1  0  0  0  0
  6  8  1  0  0  0  0
  6  7  1  0  0  0  0
  6 22  1  0  0  0  0
  7  8  1  0  0  0  0
  7 23  1  0  0  0  0
  7 24  1  0  0  0  0
  8 25  1  0  0  0  0
  8 26  1  0  0  0  0
  9 10  2  0  0  0  0
  9 11  1  0  0  0  0
 11 12  1  0  0  0  0
 11 19  1  0  0  0  0
 12 13  1  0  0  0  0
 12 27  1  0  0  0  0
 12 28  1  0  0  0  0
 13 14  2  0  0  0  0
 13 15  1  0  0  0  0
 15 16  1  0  0  0  0
 15 29  1  0  0  0  0
 16 17  1  0  0  0  0
 16 18  2  0  0  0  0
 17 30  1  0  0  0  0
 17 31  1  0  0  0  0
 19 20  2  0  0  0  0
M  END
> <s_m_source_file>
AV-unprocessed.smi

> <i_m_source_file_index>
390

> <i_lp_mmshare_version>
43012

> <i_f3d_flags>
0

> <s_epik_input>
TiNDYzFbY0hdbihbQ0hdMltDSDJdW0NIMl0yKWMoPU8pbihjMT1PKVtDSDJdQyg9TylbTkhdQyg9TylbTkgyXQ==

> <s_epik_cmdline>
J2VwaWtfcHl0aG9uJywgJy1waCcsICc3LjAnLCAnLXRuJywgJzgnLCAnLW1hJywgJzIwMCcsICctbWV0YWxfYmluZGluZycsICctaW1hZScsICc8aW5maWxlLm1hZT4nLCAnLW9tYWUnLCAnPG91dGZpbGUubWFlPic=

> <r_lp_tautomer_probability>
1

> <r_epik_Ionization_Penalty>
3.12406e-05

> <r_epik_Ionization_Penalty_Charging>
4.21484e-11

> <r_epik_Ionization_Penalty_Neutral>
3.12406e-05

> <r_epik_State_Penalty>
-0

> <r_epik_Charging_Adjusted_Penalty>
4.21484e-11

> <i_epik_Tot_Q>
0

> <i_epik_Tot_abs_Q>
0

> <r_epik_Metal_State_Penalty>
-0

> <b_epik_Metal_Only>
0

> <s_lp_Force_Field>
OPLS_2005

> <r_lp_Energy>
30.8642

> <b_lp_Chiralities_Consistent>
1

> <s_lp_Variant>
AV-unprocessed.smi:390-1

> <Gold.Version>
5.8.1

> <Gold.Id.Protein>
6NUR|6NUR_protein|mol2

> <Gold.PLP.Fitness>
43.1943

> <Gold.PLP.PLP>
-36.8489

> <Gold.PLP.part.hbond>
-3.0000

> <Gold.PLP.part.metal>
0.0000

> <Gold.PLP.part.buried>
-6.5306

> <Gold.PLP.part.nonpolar>
-27.5697

> <Gold.PLP.part.repulsive>
0.1684

> <Gold.PLP.ligand.clash>
1.9875

> <Gold.PLP.ligand.torsion>
0.4312

> <Gold.PLP.Chemscore.Hbond>
2.9920

> <Gold.PLP.Chemscore.CHOScore>
0.0000

> <Gold.PLP.Chemscore.Metal>
0.0000

> <Gold.Chemscore.Hbonds>
donor molecule, donor type, donor heavy atom, donor atom, acceptor molecule, acceptor atom, score
      P1  H  6896  6907       L1    18  1.00
      P1  H  7989  7998       L1     1  1.00
      P1  H  7997  8009       L1    14  1.00

> <Gold.PLP.Chemscore.Internal.Correction>
0.2194

> <Gold.Rescore>
     Score         DG    S(hbond)    S(metal)    S(lipo)     H(rot)  DE(clash)    DE(int)     intcor
     14.35     -16.97       2.88        0.00      61.84       2.09       0.68       1.93       ----

> <Gold.Chemscore.Fitness>
14.3514

> <Gold.Chemscore.DG>
-16.9663

> <Gold.Chemscore.ZeroCoef>
-5.4800

> <Gold.Chemscore.Hbond>
2.8756

> <Gold.Chemscore.Metal>
0.0000

> <Gold.Chemscore.Lipo>
61.8423

> <Gold.Chemscore.Internal_Hbond>
0.0000

> <Gold.Chemscore.DEClash>
0.6821

> <Gold.Chemscore.DEInternal>
1.9327

> <Gold.Chemscore.Rot>
2.0913

> <Gold.Chemscore.Internal.Correction>
   9.000000E+99

> <Gold.Chemscore.Hbonds>
donor molecule, donor type, donor heavy atom, donor atom, acceptor molecule, acceptor atom, score
      P1  H  6896  6907       L1    18  0.94
      P1  H  7989  7998       L1     1  0.81
      P1  H  7997  8009       L1    14  1.00

> <Gold.Chemscore.Hbond.Weighted>
-9.6044

> <Gold.Chemscore.Metal.Weighted>
-0.0000

> <Gold.Chemscore.Lipo.Weighted>
-7.2355

> <Gold.Chemscore.Internal_Hbond.Weighted>
0.0000

> <Gold.Chemscore.DEClash.Weighted>
0.6821

> <Gold.Chemscore.DEInternal.Weighted>
1.9327

> <Gold.Chemscore.Rot.Weighted>
5.3537

> <Gold.Chemscore.Internal.Correction.Weighted>
   9.000000E+99

> <Gold.Protein.RotatedTorsions>
[ 6907 6896 6895 6894 ] final   97.09 input  -60.11 | X-H torsion
[ 7974 7965 7964 7962 ] final   95.40 input  175.53 | X-H torsion
[ 8008 7997 7996 7995 ] final  105.10 input   59.86 | X-H torsion
[ 10167 10162 10161 10158 ] final -162.43 input  -65.29 | X-H torsion
[ 10718 10713 10712 10709 ] final  139.02 input   66.30 | X-H torsion
[ 10763 10752 10751 10750 ] final  125.19 input  -60.55 | X-H torsion
[ 11005 11000 10999 10996 ] final  105.38 input  -57.11 | X-H torsion

> <Gold.Protein.ActiveResidues>
 VAL166  LYS551  ARG553  GLY616  TRP617  ASP618  TYR619  PRO620  LYS621  CYS622 
 ASP623  PHE694  ASN695  SER759  ASP760  ASP761  ALA762  ILE779  LEU786  VAL792 
 PHE793  MET794  SER795  GLU796  ALA797  LYS798  CYS799  TRP800  GLU811  SER814 

> <Gold.Protein.RotatedAtoms>
  152.5427  134.0786  159.8225 H   0  0  0  0  0  0  0  0  0  0  0  0  # atno 6907 bound_to 6896
  151.0890  133.5323  159.2623 H   0  0  0  0  0  0  0  0  0  0  0  0  # atno 6908 bound_to 6896
  151.2121  135.0494  159.8969 H   0  0  0  0  0  0  0  0  0  0  0  0  # atno 6909 bound_to 6896
  145.4527  139.2292  143.3031 H   0  0  0  0  0  0  0  0  0  0  0  0  # atno 7974 bound_to 7965
  156.1630  140.3136  155.8839 H   0  0  0  0  0  0  0  0  0  0  0  0  # atno 8008 bound_to 7997
  155.3744  140.0484  157.3062 H   0  0  0  0  0  0  0  0  0  0  0  0  # atno 8009 bound_to 7997
  154.5165  140.2183  155.9068 H   0  0  0  0  0  0  0  0  0  0  0  0  # atno 8010 bound_to 7997
  139.6392  144.0291  152.2079 H   0  0  0  0  0  0  0  0  0  0  0  0  # atno 10167 bound_to 10162
  157.4189  131.1036  151.0375 H   0  0  0  0  0  0  0  0  0  0  0  0  # atno 10718 bound_to 10713
  153.6733  135.3326  155.3159 H   0  0  0  0  0  0  0  0  0  0  0  0  # atno 10763 bound_to 10752
  154.8485  135.4391  154.1682 H   0  0  0  0  0  0  0  0  0  0  0  0  # atno 10764 bound_to 10752
  153.2679  135.6997  153.7587 H   0  0  0  0  0  0  0  0  0  0  0  0  # atno 10765 bound_to 10752
  139.8801  134.9334  156.5505 H   0  0  0  0  0  0  0  0  0  0  0  0  # atno 11005 bound_to 11000
  146.2495  140.5288  142.8899 LP  0  0  0  0  0  0  0  0  0  0  0  0  # atno 17320 bound_to 7965
  144.8051  140.6285  143.6452 LP  0  0  0  0  0  0  0  0  0  0  0  0  # atno 17321 bound_to 7965
  139.9976  144.6316  150.7758 LP  0  0  0  0  0  0  0  0  0  0  0  0  # atno 17342 bound_to 10162
  140.7482  143.2918  151.3309 LP  0  0  0  0  0  0  0  0  0  0  0  0  # atno 17343 bound_to 10162
  157.1312  130.6103  149.5530 LP  0  0  0  0  0  0  0  0  0  0  0  0  # atno 17370 bound_to 10713
  155.9874  130.4913  150.7124 LP  0  0  0  0  0  0  0  0  0  0  0  0  # atno 17371 bound_to 10713
  140.8243  133.8329  155.8925 LP  0  0  0  0  0  0  0  0  0  0  0  0  # atno 17394 bound_to 11000
  140.9389  134.1927  157.4812 LP  0  0  0  0  0  0  0  0  0  0  0  0  # atno 17395 bound_to 11000

$$$$
