AV-unprocessed.smi:1762|AV-procd|sdf|7103|dock9
  -GOLD-   22720 8323D 1   1.00000     0.00000
 Structure written by MMmdl.
 52 53  0  0  0  0  0  0  0  0  1 V2000
  152.6088  145.0625  158.4017 C   0  0  0  0  0  0  0  0  0  0  0  0
  151.4887  144.2811  159.1112 C   0  0  1  0  0  0  0  0  0  0  0  0
  150.5210  143.5789  158.1377 C   0  0  0  0  0  0  0  0  0  0  0  0
  151.0999  142.3948  157.4905 N   0  0  0  0  0  0  0  0  0  0  0  0
  150.1666  141.7406  156.5302 C   0  0  2  0  0  0  0  0  0  0  0  0
  148.7085  141.6733  157.0452 C   0  0  0  0  0  0  0  0  0  0  0  0
  148.4125  140.9329  157.9838 O   0  0  0  0  0  0  0  0  0  0  0  0
  147.8165  142.4704  156.4358 N   0  0  0  0  0  0  0  0  0  0  0  0
  146.4056  142.5757  156.7940 C   0  0  0  0  0  0  0  0  0  0  0  0
  145.4624  142.2576  155.6169 C   0  0  0  0  0  0  0  0  0  0  0  0
  145.2982  143.4096  154.6389 C   0  0  0  0  0  0  0  0  0  0  0  0
  145.9521  143.3855  153.3885 C   0  0  0  0  0  0  0  0  0  0  0  0
  145.7856  144.4835  152.5223 C   0  0  0  0  0  0  0  0  0  0  0  0
  144.9765  145.5589  152.9372 C   0  0  0  0  0  0  0  0  0  0  0  0
  144.3676  145.4878  154.2056 C   0  0  0  0  0  0  0  0  0  0  0  0
  144.5214  144.4400  155.0430 N   0  0  0  0  0  0  0  0  0  0  0  0
  150.6325  140.3395  156.0081 C   0  0  0  0  0  0  0  0  0  0  0  0
  150.0293  139.9581  154.6409 C   0  0  0  0  0  0  0  0  0  0  0  0
  150.4275  139.1972  157.0228 C   0  0  0  0  0  0  0  0  0  0  0  0
  151.6158  141.4991  158.5381 C   0  0  0  0  0  0  0  0  0  0  0  0
  152.6124  142.1933  159.4835 C   0  0  2  0  0  0  0  0  0  0  0  0
  153.0549  141.2765  160.6295 C   0  0  0  0  0  0  0  0  0  0  0  0
  152.0075  143.3481  160.0557 O   0  0  0  0  0  0  0  0  0  0  0  0
  152.1944  145.8541  157.7772 H   0  0  0  0  0  0  0  0  0  0  0  0
  153.2107  144.4234  157.7559 H   0  0  0  0  0  0  0  0  0  0  0  0
  153.2757  145.5301  159.1263 H   0  0  0  0  0  0  0  0  0  0  0  0
  150.9141  145.0069  159.6873 H   0  0  0  0  0  0  0  0  0  0  0  0
  149.6189  143.2920  158.6805 H   0  0  0  0  0  0  0  0  0  0  0  0
  150.2153  144.3206  157.4027 H   0  0  0  0  0  0  0  0  0  0  0  0
  150.1320  142.3837  155.6481 H   0  0  0  0  0  0  0  0  0  0  0  0
  148.1420  143.0558  155.6803 H   0  0  0  0  0  0  0  0  0  0  0  0
  146.2162  141.8781  157.6102 H   0  0  0  0  0  0  0  0  0  0  0  0
  146.1925  143.5706  157.1878 H   0  0  0  0  0  0  0  0  0  0  0  0
  145.8371  141.3885  155.0753 H   0  0  0  0  0  0  0  0  0  0  0  0
  144.4806  141.9712  155.9974 H   0  0  0  0  0  0  0  0  0  0  0  0
  146.5702  142.5480  153.1005 H   0  0  0  0  0  0  0  0  0  0  0  0
  146.2714  144.5014  151.5579 H   0  0  0  0  0  0  0  0  0  0  0  0
  144.8265  146.4173  152.2992 H   0  0  0  0  0  0  0  0  0  0  0  0
  143.7421  146.2943  154.5583 H   0  0  0  0  0  0  0  0  0  0  0  0
  151.7013  140.3988  155.8104 H   0  0  0  0  0  0  0  0  0  0  0  0
  148.9597  139.7563  154.7044 H   0  0  0  0  0  0  0  0  0  0  0  0
  150.5032  139.0594  154.2451 H   0  0  0  0  0  0  0  0  0  0  0  0
  150.1784  140.7529  153.9097 H   0  0  0  0  0  0  0  0  0  0  0  0
  149.3716  138.9976  157.2035 H   0  0  0  0  0  0  0  0  0  0  0  0
  150.8929  139.4243  157.9821 H   0  0  0  0  0  0  0  0  0  0  0  0
  150.8747  138.2716  156.6595 H   0  0  0  0  0  0  0  0  0  0  0  0
  150.7831  141.0951  159.1164 H   0  0  0  0  0  0  0  0  0  0  0  0
  152.1426  140.6475  158.1096 H   0  0  0  0  0  0  0  0  0  0  0  0
  153.4994  142.4870  158.9218 H   0  0  0  0  0  0  0  0  0  0  0  0
  153.5215  140.3680  160.2478 H   0  0  0  0  0  0  0  0  0  0  0  0
  152.2076  140.9830  161.2495 H   0  0  0  0  0  0  0  0  0  0  0  0
  153.7790  141.7778  161.2722 H   0  0  0  0  0  0  0  0  0  0  0  0
  1  2  1  0  0  0  0
  1 24  1  0  0  0  0
  1 25  1  0  0  0  0
  1 26  1  0  0  0  0
  2 23  1  0  0  0  0
  2  3  1  0  0  0  0
  2 27  1  0  0  0  0
  3  4  1  0  0  0  0
  3 28  1  0  0  0  0
  3 29  1  0  0  0  0
  4  5  1  0  0  0  0
  4 20  1  0  0  0  0
  5  6  1  0  0  0  0
  5 17  1  0  0  0  0
  5 30  1  0  0  0  0
  6  7  2  0  0  0  0
  6  8  1  0  0  0  0
  8  9  1  0  0  0  0
  8 31  1  0  0  0  0
  9 10  1  0  0  0  0
  9 32  1  0  0  0  0
  9 33  1  0  0  0  0
 10 11  1  0  0  0  0
 10 34  1  0  0  0  0
 10 35  1  0  0  0  0
 11 16  1  0  0  0  0
 11 12  2  0  0  0  0
 12 13  1  0  0  0  0
 12 36  1  0  0  0  0
 13 14  2  0  0  0  0
 13 37  1  0  0  0  0
 14 15  1  0  0  0  0
 14 38  1  0  0  0  0
 15 16  2  0  0  0  0
 15 39  1  0  0  0  0
 17 18  1  0  0  0  0
 17 19  1  0  0  0  0
 17 40  1  0  0  0  0
 18 41  1  0  0  0  0
 18 42  1  0  0  0  0
 18 43  1  0  0  0  0
 19 44  1  0  0  0  0
 19 45  1  0  0  0  0
 19 46  1  0  0  0  0
 20 21  1  0  0  0  0
 20 47  1  0  0  0  0
 20 48  1  0  0  0  0
 21 22  1  0  0  0  0
 21 23  1  0  0  0  0
 21 49  1  0  0  0  0
 22 50  1  0  0  0  0
 22 51  1  0  0  0  0
 22 52  1  0  0  0  0
M  END
> <s_m_source_file>
AV-unprocessed.smi

> <i_m_source_file_index>
1762

> <i_lp_mmshare_version>
43012

> <i_f3d_flags>
0

> <s_epik_input>
W0NIM11bQ0BASF0xW0NIMl1OKFtDSDJdW0NASF0oTzEpW0NIM10pW0NAQEhdKFtDSF0oW0NIM10pW0NIM10pQyg9TylbTkhdW0NIMl1bQ0gyXWMyW2NIXVtjSF1bY0hdW2NIXW4y

> <s_epik_cmdline>
J2VwaWtfcHl0aG9uJywgJy1waCcsICc3LjAnLCAnLXRuJywgJzgnLCAnLW1hJywgJzIwMCcsICctbWV0YWxfYmluZGluZycsICctaW1hZScsICc8aW5maWxlLm1hZT4nLCAnLW9tYWUnLCAnPG91dGZpbGUubWFlPic=

> <r_epik_Ionization_Penalty>
0.0399736

> <r_epik_Ionization_Penalty_Charging>
0

> <r_epik_Ionization_Penalty_Neutral>
0.0399736

> <r_epik_State_Penalty>
0.0317634

> <r_epik_Charging_Adjusted_Penalty>
0.0317634

> <i_epik_Tot_Q>
0

> <i_epik_Tot_abs_Q>
0

> <r_epik_Metal_State_Penalty>
0.0307795

> <b_epik_Metal_Only>
0

> <s_lp_Force_Field>
OPLS_2005

> <r_lp_Energy>
29.7417

> <b_lp_Chiralities_Consistent>
1

> <s_lp_Variant>
AV-unprocessed.smi:1762-5

> <Gold.Version>
5.8.1

> <Gold.Id.Protein>
6NUR|6NUR_protein|mol2

> <Gold.PLP.Fitness>
47.3890

> <Gold.PLP.PLP>
-46.4622

> <Gold.PLP.part.hbond>
-1.3163

> <Gold.PLP.part.metal>
0.0000

> <Gold.PLP.part.buried>
-6.1153

> <Gold.PLP.part.nonpolar>
-40.0564

> <Gold.PLP.part.repulsive>
0.2145

> <Gold.PLP.ligand.clash>
0.0000

> <Gold.PLP.ligand.torsion>
0.9497

> <Gold.PLP.Chemscore.Hbond>
0.8480

> <Gold.PLP.Chemscore.CHOScore>
0.0000

> <Gold.PLP.Chemscore.Metal>
0.0000

> <Gold.Chemscore.Hbonds>
donor molecule, donor type, donor heavy atom, donor atom, acceptor molecule, acceptor atom, score
      L1  H     8    31       P1  8028  0.64

> <Gold.PLP.Chemscore.Internal.Correction>
0.2821

> <Gold.Rescore>
     Score         DG    S(hbond)    S(metal)    S(lipo)     H(rot)  DE(clash)    DE(int)     intcor
     15.72     -18.31       0.57        0.00     128.27       1.60       0.64       1.95       ----

> <Gold.Chemscore.Fitness>
15.7178

> <Gold.Chemscore.DG>
-18.3078

> <Gold.Chemscore.ZeroCoef>
-5.4800

> <Gold.Chemscore.Hbond>
0.5733

> <Gold.Chemscore.Metal>
0.0000

> <Gold.Chemscore.Lipo>
128.2653

> <Gold.Chemscore.Internal_Hbond>
0.0000

> <Gold.Chemscore.DEClash>
0.6445

> <Gold.Chemscore.DEInternal>
1.9454

> <Gold.Chemscore.Rot>
1.5993

> <Gold.Chemscore.Internal.Correction>
   9.000000E+99

> <Gold.Chemscore.Hbonds>
donor molecule, donor type, donor heavy atom, donor atom, acceptor molecule, acceptor atom, score
      L1  H     8    31       P1  8028  0.55

> <Gold.Chemscore.Hbond.Weighted>
-1.9148

> <Gold.Chemscore.Metal.Weighted>
-0.0000

> <Gold.Chemscore.Lipo.Weighted>
-15.0070

> <Gold.Chemscore.Internal_Hbond.Weighted>
0.0000

> <Gold.Chemscore.DEClash.Weighted>
0.6445

> <Gold.Chemscore.DEInternal.Weighted>
1.9454

> <Gold.Chemscore.Rot.Weighted>
4.0941

> <Gold.Chemscore.Internal.Correction.Weighted>
   9.000000E+99

> <Gold.Protein.RotatedTorsions>
[ 6907 6896 6895 6894 ] final  170.06 input  -60.11 | X-H torsion
[ 7974 7965 7964 7962 ] final  -82.11 input  175.53 | X-H torsion
[ 8008 7997 7996 7995 ] final -120.99 input   59.86 | X-H torsion
[ 10167 10162 10161 10158 ] final   49.72 input  -65.29 | X-H torsion
[ 10718 10713 10712 10709 ] final  -84.57 input   66.30 | X-H torsion
[ 10763 10752 10751 10750 ] final   86.26 input  -60.55 | X-H torsion
[ 11005 11000 10999 10996 ] final  -44.82 input  -57.11 | X-H torsion

> <Gold.Protein.ActiveResidues>
 VAL166  LYS551  ARG553  GLY616  TRP617  ASP618  TYR619  PRO620  LYS621  CYS622 
 ASP623  PHE694  ASN695  SER759  ASP760  ASP761  ALA762  ILE779  LEU786  VAL792 
 PHE793  MET794  SER795  GLU796  ALA797  LYS798  CYS799  TRP800  GLU811  SER814 

> <Gold.Protein.RotatedAtoms>
  151.8221  133.3396  159.3587 H   0  0  0  0  0  0  0  0  0  0  0  0  # atno 6907 bound_to 6896
  150.7291  134.5563  159.5829 H   0  0  0  0  0  0  0  0  0  0  0  0  # atno 6908 bound_to 6896
  152.2998  134.7625  160.0411 H   0  0  0  0  0  0  0  0  0  0  0  0  # atno 6909 bound_to 6896
  145.5376  140.9514  143.1569 H   0  0  0  0  0  0  0  0  0  0  0  0  # atno 7974 bound_to 7965
  155.1408  140.0402  157.2798 H   0  0  0  0  0  0  0  0  0  0  0  0  # atno 8008 bound_to 7997
  154.6475  140.2561  155.7225 H   0  0  0  0  0  0  0  0  0  0  0  0  # atno 8009 bound_to 7997
  156.2561  140.2843  156.0894 H   0  0  0  0  0  0  0  0  0  0  0  0  # atno 8010 bound_to 7997
  140.2799  144.3169  150.6267 H   0  0  0  0  0  0  0  0  0  0  0  0  # atno 10167 bound_to 10162
  156.0005  130.4702  150.4431 H   0  0  0  0  0  0  0  0  0  0  0  0  # atno 10718 bound_to 10713
  153.1553  135.4587  154.9696 H   0  0  0  0  0  0  0  0  0  0  0  0  # atno 10763 bound_to 10752
  154.7857  135.3203  154.7894 H   0  0  0  0  0  0  0  0  0  0  0  0  # atno 10764 bound_to 10752
  153.8393  135.6931  153.4859 H   0  0  0  0  0  0  0  0  0  0  0  0  # atno 10765 bound_to 10752
  141.0476  133.6755  156.2927 H   0  0  0  0  0  0  0  0  0  0  0  0  # atno 11005 bound_to 11000
  144.7593  139.6995  143.7241 LP  0  0  0  0  0  0  0  0  0  0  0  0  # atno 17320 bound_to 7965
  146.2002  139.5293  142.9748 LP  0  0  0  0  0  0  0  0  0  0  0  0  # atno 17321 bound_to 7965
  140.5820  143.2172  151.7410 LP  0  0  0  0  0  0  0  0  0  0  0  0  # atno 17342 bound_to 10162
  139.4965  144.4066  152.0125 LP  0  0  0  0  0  0  0  0  0  0  0  0  # atno 17343 bound_to 10162
  157.2470  131.0538  151.2402 LP  0  0  0  0  0  0  0  0  0  0  0  0  # atno 17370 bound_to 10713
  157.3565  130.7109  149.6474 LP  0  0  0  0  0  0  0  0  0  0  0  0  # atno 17371 bound_to 10713
  140.6118  134.5451  157.5534 LP  0  0  0  0  0  0  0  0  0  0  0  0  # atno 17394 bound_to 11000
  139.9324  134.7939  156.0895 LP  0  0  0  0  0  0  0  0  0  0  0  0  # atno 17395 bound_to 11000

$$$$
