AV-unprocessed.smi:2474|AV-procd|sdf|9752|dock2
  -GOLD-   2272013393D 1   1.00000     0.00000
 Structure written by MMmdl.
 40 41  0  0  0  0  0  0  0  0  1 V2000
  144.3160  145.0161  153.8775 C   0  0  0  0  0  0  0  0  0  0  0  0
  145.0220  143.7851  154.3347 C   0  0  0  0  0  0  0  0  0  0  0  0
  144.8667  143.1203  155.5258 C   0  0  0  0  0  0  0  0  0  0  0  0
  145.6758  141.9890  155.6507 N   0  0  0  0  0  0  0  0  0  0  0  0
  146.4471  141.7914  154.5777 C   0  0  0  0  0  0  0  0  0  0  0  0
  147.3966  140.6406  154.4332 C   0  0  1  0  0  0  0  0  0  0  0  0
  146.8703  139.5725  153.4640 C   0  0  0  0  0  0  0  0  0  0  0  0
  148.8443  141.0803  154.1171 C   0  0  0  0  0  0  0  0  0  0  0  0
  149.3614  142.0708  155.0579 N   0  0  0  0  0  0  0  0  0  0  0  0
  150.3838  141.8731  155.9006 C   0  0  0  0  0  0  0  0  0  0  0  0
  151.0404  140.8333  155.9570 O   0  0  0  0  0  0  0  0  0  0  0  0
  150.5883  142.9368  156.6897 N   0  0  0  0  0  0  0  0  0  0  0  0
  151.5874  143.0185  157.7508 C   0  0  2  0  0  0  0  0  0  0  0  0
  151.6767  141.6714  158.4981 C   0  0  0  0  0  0  0  0  0  0  0  0
  152.7507  141.6762  159.5981 C   0  0  0  0  0  0  0  0  0  0  0  0
  152.4799  142.7335  160.6777 C   0  0  0  0  0  0  0  0  0  0  0  0
  152.4931  144.4059  159.9772 S   0  0  0  0  0  0  0  0  0  0  0  0
  151.2262  144.1744  158.6996 C   0  0  0  0  0  0  0  0  0  0  0  0
  146.2091  143.0042  153.3238 S   0  0  0  0  0  0  0  0  0  0  0  0
  143.6184  145.3738  154.6351 H   0  0  0  0  0  0  0  0  0  0  0  0
  143.7516  144.8216  152.9652 H   0  0  0  0  0  0  0  0  0  0  0  0
  145.0280  145.8153  153.6716 H   0  0  0  0  0  0  0  0  0  0  0  0
  144.2032  143.3800  156.3374 H   0  0  0  0  0  0  0  0  0  0  0  0
  147.4275  140.1580  155.4108 H   0  0  0  0  0  0  0  0  0  0  0  0
  145.8940  139.2034  153.7795 H   0  0  0  0  0  0  0  0  0  0  0  0
  147.5466  138.7185  153.4161 H   0  0  0  0  0  0  0  0  0  0  0  0
  146.7659  139.9702  152.4541 H   0  0  0  0  0  0  0  0  0  0  0  0
  149.5094  140.2161  154.0815 H   0  0  0  0  0  0  0  0  0  0  0  0
  148.8773  141.5346  153.1264 H   0  0  0  0  0  0  0  0  0  0  0  0
  148.8833  142.9595  155.0891 H   0  0  0  0  0  0  0  0  0  0  0  0
  149.9935  143.7425  156.5637 H   0  0  0  0  0  0  0  0  0  0  0  0
  152.5582  143.2404  157.3029 H   0  0  0  0  0  0  0  0  0  0  0  0
  150.7079  141.4232  158.9336 H   0  0  0  0  0  0  0  0  0  0  0  0
  151.9046  140.8730  157.7906 H   0  0  0  0  0  0  0  0  0  0  0  0
  152.7915  140.6911  160.0636 H   0  0  0  0  0  0  0  0  0  0  0  0
  153.7327  141.8454  159.1544 H   0  0  0  0  0  0  0  0  0  0  0  0
  151.5148  142.5544  161.1531 H   0  0  0  0  0  0  0  0  0  0  0  0
  153.2372  142.6765  161.4598 H   0  0  0  0  0  0  0  0  0  0  0  0
  151.1294  145.1071  158.1432 H   0  0  0  0  0  0  0  0  0  0  0  0
  150.2666  143.9891  159.1838 H   0  0  0  0  0  0  0  0  0  0  0  0
  1  2  1  0  0  0  0
  1 20  1  0  0  0  0
  1 21  1  0  0  0  0
  1 22  1  0  0  0  0
  2 19  1  0  0  0  0
  2  3  2  0  0  0  0
  3  4  1  0  0  0  0
  3 23  1  0  0  0  0
  4  5  2  0  0  0  0
  5  6  1  0  0  0  0
  5 19  1  0  0  0  0
  6  7  1  0  0  0  0
  6  8  1  0  0  0  0
  6 24  1  0  0  0  0
  7 25  1  0  0  0  0
  7 26  1  0  0  0  0
  7 27  1  0  0  0  0
  8  9  1  0  0  0  0
  8 28  1  0  0  0  0
  8 29  1  0  0  0  0
  9 10  1  0  0  0  0
  9 30  1  0  0  0  0
 10 11  2  0  0  0  0
 10 12  1  0  0  0  0
 12 13  1  0  0  0  0
 12 31  1  0  0  0  0
 13 18  1  0  0  0  0
 13 14  1  0  0  0  0
 13 32  1  0  0  0  0
 14 15  1  0  0  0  0
 14 33  1  0  0  0  0
 14 34  1  0  0  0  0
 15 16  1  0  0  0  0
 15 35  1  0  0  0  0
 15 36  1  0  0  0  0
 16 17  1  0  0  0  0
 16 37  1  0  0  0  0
 16 38  1  0  0  0  0
 17 18  1  0  0  0  0
 18 39  1  0  0  0  0
 18 40  1  0  0  0  0
M  END
> <s_m_source_file>
AV-unprocessed.smi

> <i_m_source_file_index>
2474

> <i_lp_mmshare_version>
43012

> <i_f3d_flags>
0

> <s_epik_input>
W0NIM11jMVtjSF1uYyhzMSlbQ0BIXShbQ0gzXSlbQ0gyXVtOSF1DKD1PKVtOSF1bQ0BASF0yW0NIMl1bQ0gyXVtDSDJdU1tDSDJdMg==

> <s_epik_cmdline>
J2VwaWtfcHl0aG9uJywgJy1waCcsICc3LjAnLCAnLXRuJywgJzgnLCAnLW1hJywgJzIwMCcsICctbWV0YWxfYmluZGluZycsICctaW1hZScsICc8aW5maWxlLm1hZT4nLCAnLW9tYWUnLCAnPG91dGZpbGUubWFlPic=

> <r_epik_Ionization_Penalty>
0.000644338

> <r_epik_Ionization_Penalty_Charging>
0

> <r_epik_Ionization_Penalty_Neutral>
0.000644338

> <r_epik_State_Penalty>
0.000374131

> <r_epik_Charging_Adjusted_Penalty>
0.000374131

> <i_epik_Tot_Q>
0

> <i_epik_Tot_abs_Q>
0

> <r_epik_Metal_State_Penalty>
-0

> <b_epik_Metal_Only>
0

> <s_lp_Force_Field>
OPLS_2005

> <r_lp_Energy>
-6.48006

> <b_lp_Chiralities_Consistent>
1

> <s_lp_Variant>
AV-unprocessed.smi:2474-2

> <Gold.Version>
5.8.1

> <Gold.Id.Protein>
6NUR|6NUR_protein|mol2

> <Gold.PLP.Fitness>
47.0794

> <Gold.PLP.PLP>
-41.9494

> <Gold.PLP.part.hbond>
-2.0751

> <Gold.PLP.part.metal>
0.0000

> <Gold.PLP.part.buried>
-7.5485

> <Gold.PLP.part.nonpolar>
-32.0653

> <Gold.PLP.part.repulsive>
0.4117

> <Gold.PLP.ligand.clash>
0.0000

> <Gold.PLP.ligand.torsion>
0.4874

> <Gold.PLP.Chemscore.Hbond>
1.9920

> <Gold.PLP.Chemscore.CHOScore>
0.0000

> <Gold.PLP.Chemscore.Metal>
0.0000

> <Gold.Chemscore.Hbonds>
donor molecule, donor type, donor heavy atom, donor atom, acceptor molecule, acceptor atom, score
      L1  H     9    30       P1  8028  0.98
      L1  H    12    31       P1  8028  1.00

> <Gold.PLP.Chemscore.Internal.Correction>
0.1289

> <Gold.Rescore>
     Score         DG    S(hbond)    S(metal)    S(lipo)     H(rot)  DE(clash)    DE(int)     intcor
     18.43     -21.01       1.94        0.00     109.38       1.46       0.31       2.26       ----

> <Gold.Chemscore.Fitness>
18.4295

> <Gold.Chemscore.DG>
-21.0062

> <Gold.Chemscore.ZeroCoef>
-5.4800

> <Gold.Chemscore.Hbond>
1.9374

> <Gold.Chemscore.Metal>
0.0000

> <Gold.Chemscore.Lipo>
109.3753

> <Gold.Chemscore.Internal_Hbond>
0.0000

> <Gold.Chemscore.DEClash>
0.3148

> <Gold.Chemscore.DEInternal>
2.2619

> <Gold.Chemscore.Rot>
1.4616

> <Gold.Chemscore.Internal.Correction>
   9.000000E+99

> <Gold.Chemscore.Hbonds>
donor molecule, donor type, donor heavy atom, donor atom, acceptor molecule, acceptor atom, score
      L1  H     9    30       P1  8028  0.93
      L1  H    12    31       P1  8028  0.98

> <Gold.Chemscore.Hbond.Weighted>
-6.4709

> <Gold.Chemscore.Metal.Weighted>
-0.0000

> <Gold.Chemscore.Lipo.Weighted>
-12.7969

> <Gold.Chemscore.Internal_Hbond.Weighted>
0.0000

> <Gold.Chemscore.DEClash.Weighted>
0.3148

> <Gold.Chemscore.DEInternal.Weighted>
2.2619

> <Gold.Chemscore.Rot.Weighted>
3.7416

> <Gold.Chemscore.Internal.Correction.Weighted>
   9.000000E+99

> <Gold.Protein.RotatedTorsions>
[ 6907 6896 6895 6894 ] final  -25.38 input  -60.11 | X-H torsion
[ 7974 7965 7964 7962 ] final -104.37 input  175.53 | X-H torsion
[ 8008 7997 7996 7995 ] final  -53.58 input   59.86 | X-H torsion
[ 10167 10162 10161 10158 ] final   17.13 input  -65.29 | X-H torsion
[ 10718 10713 10712 10709 ] final   15.53 input   66.30 | X-H torsion
[ 10763 10752 10751 10750 ] final  -55.57 input  -60.55 | X-H torsion
[ 11005 11000 10999 10996 ] final  -88.99 input  -57.11 | X-H torsion

> <Gold.Protein.ActiveResidues>
 VAL166  LYS551  ARG553  GLY616  TRP617  ASP618  TYR619  PRO620  LYS621  CYS622 
 ASP623  PHE694  ASN695  SER759  ASP760  ASP761  ALA762  ILE779  LEU786  VAL792 
 PHE793  MET794  SER795  GLU796  ALA797  LYS798  CYS799  TRP800  GLU811  SER814 

> <Gold.Protein.RotatedAtoms>
  151.1760  135.0340  159.8771 H   0  0  0  0  0  0  0  0  0  0  0  0  # atno 6907 bound_to 6896
  152.5447  134.1116  159.8371 H   0  0  0  0  0  0  0  0  0  0  0  0  # atno 6908 bound_to 6896
  151.1228  133.5045  159.2634 H   0  0  0  0  0  0  0  0  0  0  0  0  # atno 6909 bound_to 6896
  145.2440  140.9215  143.3134 H   0  0  0  0  0  0  0  0  0  0  0  0  # atno 7974 bound_to 7965
  154.4137  140.1196  156.5176 H   0  0  0  0  0  0  0  0  0  0  0  0  # atno 8008 bound_to 7997
  155.6735  140.3496  155.4808 H   0  0  0  0  0  0  0  0  0  0  0  0  # atno 8009 bound_to 7997
  155.9612  140.1123  157.0883 H   0  0  0  0  0  0  0  0  0  0  0  0  # atno 8010 bound_to 7997
  140.5748  143.9094  150.6741 H   0  0  0  0  0  0  0  0  0  0  0  0  # atno 10167 bound_to 10162
  157.0549  130.6285  149.5775 H   0  0  0  0  0  0  0  0  0  0  0  0  # atno 10718 bound_to 10713
  154.1929  135.6424  153.5065 H   0  0  0  0  0  0  0  0  0  0  0  0  # atno 10763 bound_to 10752
  153.0030  135.5433  154.6396 H   0  0  0  0  0  0  0  0  0  0  0  0  # atno 10764 bound_to 10752
  154.5790  135.2923  155.0725 H   0  0  0  0  0  0  0  0  0  0  0  0  # atno 10765 bound_to 10752
  141.1592  133.7603  156.9530 H   0  0  0  0  0  0  0  0  0  0  0  0  # atno 11005 bound_to 11000
  144.9563  139.4028  143.6377 LP  0  0  0  0  0  0  0  0  0  0  0  0  # atno 17320 bound_to 7965
  146.3321  139.8595  142.8859 LP  0  0  0  0  0  0  0  0  0  0  0  0  # atno 17321 bound_to 7965
  140.2578  143.3546  152.1349 LP  0  0  0  0  0  0  0  0  0  0  0  0  # atno 17342 bound_to 10162
  139.5136  144.6936  151.5693 LP  0  0  0  0  0  0  0  0  0  0  0  0  # atno 17343 bound_to 10162
  155.9996  130.5072  150.7613 LP  0  0  0  0  0  0  0  0  0  0  0  0  # atno 17370 bound_to 10713
  157.5001  131.0918  151.0324 LP  0  0  0  0  0  0  0  0  0  0  0  0  # atno 17371 bound_to 10713
  140.1244  134.9396  157.2249 LP  0  0  0  0  0  0  0  0  0  0  0  0  # atno 17394 bound_to 11000
  140.3031  134.3109  155.7285 LP  0  0  0  0  0  0  0  0  0  0  0  0  # atno 17395 bound_to 11000

$$$$
