#       Name:                AV-unprocessed.smi:2535
#       Creating user name   scv26
#       Creation time:       Fri Mar 27 14:02:30 2020


#       File generated by GOLD software.
#

@<TRIPOS>MOLECULE
AV-unprocessed.smi:2535
    29    30     1
SMALL
NO_CHARGES


@<TRIPOS>ATOM
      1 ****        -1.6014   2.5704   0.6269 C.3            1 S1                 0.0000
      2 ****        -2.0625   1.6686  -0.4105 N.pl3          1 S1                 0.0000
      3 ****        -3.3795   1.5775  -0.7165 N.2            1 S1                 0.0000
      4 ****        -3.4822   0.7017  -1.6742 N.2            1 S1                 0.0000
      5 ****        -2.2459   0.1934  -2.0246 N.2            1 S1                 0.0000
      6 ****        -1.4043   0.8204  -1.2131 C.2            1 S1                 0.0000
      7 ****         0.0777   0.6082  -1.1879 C.3            1 S1                 0.0000
      8 ****         0.4806  -0.7277  -0.5397 C.3            1 S1                 0.0000
      9 ****         0.0771  -0.8784   0.9300 C.3            1 S1                 0.0000
     10 ****         1.0457  -1.9399   1.4363 C.3            1 S1                 0.0000
     11 ****         2.3394  -1.6292   0.6793 C.3            1 S1                 0.0000
     12 ****         1.9421  -0.9370  -0.5639 N.4            1 S1                 1.0000
     13 ****        -0.8341   3.2328   0.2255 H              1 S1                 0.0000
     14 ****        -1.1847   1.9977   1.4550 H              1 S1                 0.0000
     15 ****        -2.4272   3.1778   0.9998 H              1 S1                 0.0000
     16 ****         0.4404   0.6425  -2.2158 H              1 S1                 0.0000
     17 ****         0.5577   1.4383  -0.6692 H              1 S1                 0.0000
     18 ****         0.0372  -1.5507  -1.1031 H              1 S1                 0.0000
     19 ****         0.2435   0.0544   1.4701 H              1 S1                 0.0000
     20 ****        -0.9683  -1.1622   1.0569 H              1 S1                 0.0000
     21 ****         1.1728  -1.9184   2.5191 H              1 S1                 0.0000
     22 ****         0.6823  -2.9309   1.1605 H              1 S1                 0.0000
     23 ****         2.9685  -0.9555   1.2619 H              1 S1                 0.0000
     24 ****         2.9171  -2.5290   0.4661 H              1 S1                 0.0000
     25 ****         2.1991  -1.4816  -1.3749 H              1 S1                 0.0000
     26 ****         2.4094  -0.0422  -0.5952 H              1 S1                 0.0000
     27 ****        -4.1278   2.0849  -0.2892 LP             1 S1                 0.0000
     28 ****        -4.3450   0.4314  -2.1014 LP             1 S1                 0.0000
     29 ****        -2.0350  -0.4877  -2.7257 LP             1 S1                 0.0000
@<TRIPOS>BOND
    1    1    2 1     
    2    1   13 1     
    3    1   14 1     
    4    1   15 1     
    5    2    6 1     
    6    2    3 1     
    7    3    4 2     
    8    4    5 1     
    9    5    6 2     
   10    6    7 1     
   11    7    8 1     
   12    7   16 1     
   13    7   17 1     
   14    8   12 1     
   15    8    9 1     
   16    8   18 1     
   17    9   10 1     
   18    9   19 1     
   19    9   20 1     
   20   10   11 1     
   21   10   21 1     
   22   10   22 1     
   23   11   12 1     
   24   11   23 1     
   25   11   24 1     
   26   12   25 1     
   27   12   26 1     
   28    3   27 1     
   29    4   28 1     
   30    5   29 1     
@<TRIPOS>SUBSTRUCTURE
      1 S1             1
@<TRIPOS>SET
LONE_PAIRS      STATIC     ATOMS    <user>   **** ""
3 27 28 29
DONOR_HYDROGENS      STATIC     ATOMS    <user>   **** ""
2 25 26
ATOM$BLUE        STATIC     ATOMS    COLORGROUP SYSTEM
3 27 28 29
ATOM$RED        STATIC     ATOMS    COLORGROUP SYSTEM
2 25 26
