AV-unprocessed.smi:2802|AV-procd|sdf|10804|dock8
  -GOLD-   2272015243D 1   1.00000     0.00000
 Structure written by MMmdl.
 47 48  0  0  0  0  0  0  0  0  1 V2000
  146.2718  139.5739  157.8663 C   0  0  0  0  0  0  0  0  0  0  0  0
  147.1113  139.9415  156.6337 C   0  0  1  0  0  0  0  0  0  0  0  0
  146.3728  140.9572  155.7461 C   0  0  0  0  0  0  0  0  0  0  0  0
  147.1582  141.3451  154.4740 C   0  0  0  0  0  0  0  0  0  0  0  0
  147.1193  140.2057  153.4312 C   0  0  0  0  0  0  0  0  0  0  0  0
  146.4605  142.5591  153.8248 C   0  0  0  0  0  0  0  0  0  0  0  0
  148.6122  141.7621  154.8392 C   0  0  0  0  0  0  0  0  0  0  0  0
  149.4043  140.8759  155.8547 C   0  0  1  0  0  0  0  0  0  0  0  0
  150.0111  139.6055  155.1906 C   0  0  0  0  0  0  0  0  0  0  0  0
  150.5229  139.8686  153.8976 O   0  0  0  0  0  0  0  0  0  0  0  0
  150.4884  141.6888  156.4325 N   0  0  0  0  0  0  0  0  0  0  0  0
  150.4149  142.6285  157.3922 C   0  0  0  0  0  0  0  0  0  0  0  0
  149.3703  142.9396  157.9658 O   0  0  0  0  0  0  0  0  0  0  0  0
  151.7428  143.3101  157.7440 C   0  0  0  0  0  0  0  0  0  0  0  0
  152.1012  143.1568  159.2133 C   0  0  0  0  0  0  0  0  0  0  0  0
  151.7978  144.1729  160.1433 C   0  0  0  0  0  0  0  0  0  0  0  0
  152.1512  143.9845  161.4932 C   0  0  0  0  0  0  0  0  0  0  0  0
  152.7956  142.7848  161.8565 C   0  0  0  0  0  0  0  0  0  0  0  0
  153.0913  141.8051  160.9751 N   0  0  0  0  0  0  0  0  0  0  0  0
  152.7489  141.9938  159.6825 C   0  0  0  0  0  0  0  0  0  0  0  0
  148.4833  140.5035  157.0457 C   0  0  0  0  0  0  0  0  0  0  0  0
  146.0757  140.4474  158.4889 H   0  0  0  0  0  0  0  0  0  0  0  0
  146.7821  138.8335  158.4829 H   0  0  0  0  0  0  0  0  0  0  0  0
  145.3100  139.1508  157.5747 H   0  0  0  0  0  0  0  0  0  0  0  0
  147.2622  139.0203  156.0725 H   0  0  0  0  0  0  0  0  0  0  0  0
  145.3931  140.5650  155.4696 H   0  0  0  0  0  0  0  0  0  0  0  0
  146.1776  141.8532  156.3376 H   0  0  0  0  0  0  0  0  0  0  0  0
  147.7450  140.4363  152.5684 H   0  0  0  0  0  0  0  0  0  0  0  0
  146.1053  140.0508  153.0611 H   0  0  0  0  0  0  0  0  0  0  0  0
  147.4433  139.2476  153.8255 H   0  0  0  0  0  0  0  0  0  0  0  0
  146.9768  142.8751  152.9176 H   0  0  0  0  0  0  0  0  0  0  0  0
  146.4304  143.4165  154.4980 H   0  0  0  0  0  0  0  0  0  0  0  0
  145.4300  142.3282  153.5516 H   0  0  0  0  0  0  0  0  0  0  0  0
  149.1874  141.8911  153.9218 H   0  0  0  0  0  0  0  0  0  0  0  0
  148.5515  142.7620  155.2733 H   0  0  0  0  0  0  0  0  0  0  0  0
  150.8333  139.1992  155.7709 H   0  0  0  0  0  0  0  0  0  0  0  0
  149.2693  138.8109  155.1113 H   0  0  0  0  0  0  0  0  0  0  0  0
  149.8116  139.8175  153.2774 H   0  0  0  0  0  0  0  0  0  0  0  0
  151.4028  141.5261  156.0367 H   0  0  0  0  0  0  0  0  0  0  0  0
  152.5360  142.8878  157.1258 H   0  0  0  0  0  0  0  0  0  0  0  0
  151.6815  144.3715  157.4991 H   0  0  0  0  0  0  0  0  0  0  0  0
  151.3055  145.0817  159.8292 H   0  0  0  0  0  0  0  0  0  0  0  0
  151.9352  144.7415  162.2323 H   0  0  0  0  0  0  0  0  0  0  0  0
  153.0807  142.6077  162.8830 H   0  0  0  0  0  0  0  0  0  0  0  0
  153.0012  141.1936  159.0021 H   0  0  0  0  0  0  0  0  0  0  0  0
  148.3091  141.3931  157.6544 H   0  0  0  0  0  0  0  0  0  0  0  0
  148.9875  139.7967  157.7058 H   0  0  0  0  0  0  0  0  0  0  0  0
  1  2  1  0  0  0  0
  1 22  1  0  0  0  0
  1 23  1  0  0  0  0
  1 24  1  0  0  0  0
  2 21  1  0  0  0  0
  2  3  1  0  0  0  0
  2 25  1  0  0  0  0
  3  4  1  0  0  0  0
  3 26  1  0  0  0  0
  3 27  1  0  0  0  0
  4  5  1  0  0  0  0
  4  6  1  0  0  0  0
  4  7  1  0  0  0  0
  5 28  1  0  0  0  0
  5 29  1  0  0  0  0
  5 30  1  0  0  0  0
  6 31  1  0  0  0  0
  6 32  1  0  0  0  0
  6 33  1  0  0  0  0
  7  8  1  0  0  0  0
  7 34  1  0  0  0  0
  7 35  1  0  0  0  0
  8  9  1  0  0  0  0
  8 11  1  0  0  0  0
  8 21  1  0  0  0  0
  9 10  1  0  0  0  0
  9 36  1  0  0  0  0
  9 37  1  0  0  0  0
 10 38  1  0  0  0  0
 11 12  1  0  0  0  0
 11 39  1  0  0  0  0
 12 13  2  0  0  0  0
 12 14  1  0  0  0  0
 14 15  1  0  0  0  0
 14 40  1  0  0  0  0
 14 41  1  0  0  0  0
 15 20  1  0  0  0  0
 15 16  2  0  0  0  0
 16 17  1  0  0  0  0
 16 42  1  0  0  0  0
 17 18  2  0  0  0  0
 17 43  1  0  0  0  0
 18 19  1  0  0  0  0
 18 44  1  0  0  0  0
 19 20  2  0  0  0  0
 20 45  1  0  0  0  0
 21 46  1  0  0  0  0
 21 47  1  0  0  0  0
M  END
> <s_m_source_file>
AV-unprocessed.smi

> <i_m_source_file_index>
2802

> <i_lp_mmshare_version>
43012

> <i_f3d_flags>
0

> <s_epik_input>
W0NIM11DMShbQ0gzXSlbQ0gyXVtDQEBIXShbQ0gzXSlbQ0gyXVtDQF0oW0NIMl0xKShbQ0gyXVtPSF0pW05IXUMoPU8pW0NIMl1jMltjSF1bY0hdW2NIXW5bY0hdMg==

> <s_epik_cmdline>
J2VwaWtfcHl0aG9uJywgJy1waCcsICc3LjAnLCAnLXRuJywgJzgnLCAnLW1hJywgJzIwMCcsICctbWV0YWxfYmluZGluZycsICctaW1hZScsICc8aW5maWxlLm1hZT4nLCAnLW9tYWUnLCAnPG91dGZpbGUubWFlPic=

> <r_epik_Ionization_Penalty>
0.004793

> <r_epik_Ionization_Penalty_Charging>
0

> <r_epik_Ionization_Penalty_Neutral>
0.004793

> <r_epik_State_Penalty>
0.00347421

> <r_epik_Charging_Adjusted_Penalty>
0.00347421

> <i_epik_Tot_Q>
0

> <i_epik_Tot_abs_Q>
0

> <r_epik_Metal_State_Penalty>
-0

> <b_epik_Metal_Only>
0

> <s_lp_Force_Field>
OPLS_2005

> <r_lp_Energy>
22.6817

> <b_lp_Chiralities_Consistent>
1

> <s_lp_Variant>
AV-unprocessed.smi:2802-2

> <Gold.Version>
5.8.1

> <Gold.Id.Protein>
6NUR|6NUR_protein|mol2

> <Gold.PLP.Fitness>
42.6180

> <Gold.PLP.PLP>
-39.9313

> <Gold.PLP.part.hbond>
-1.8081

> <Gold.PLP.part.metal>
0.0000

> <Gold.PLP.part.buried>
-3.4159

> <Gold.PLP.part.nonpolar>
-34.8226

> <Gold.PLP.part.repulsive>
1.0338

> <Gold.PLP.ligand.clash>
0.0000

> <Gold.PLP.ligand.torsion>
1.0229

> <Gold.PLP.Chemscore.Hbond>
1.5733

> <Gold.PLP.Chemscore.CHOScore>
0.0000

> <Gold.PLP.Chemscore.Metal>
0.0000

> <Gold.Chemscore.Hbonds>
donor molecule, donor type, donor heavy atom, donor atom, acceptor molecule, acceptor atom, score
      L1  H    10    38       P1  7957  0.51
      P1  H  7989  7998       L1    10  1.00

> <Gold.PLP.Chemscore.Internal.Correction>
0.0127

> <Gold.Rescore>
     Score         DG    S(hbond)    S(metal)    S(lipo)     H(rot)  DE(clash)    DE(int)     intcor
     14.91     -18.07       1.40        0.00     111.57       2.00       0.60       2.56       ----

> <Gold.Chemscore.Fitness>
14.9051

> <Gold.Chemscore.DG>
-18.0682

> <Gold.Chemscore.ZeroCoef>
-5.4800

> <Gold.Chemscore.Hbond>
1.3957

> <Gold.Chemscore.Metal>
0.0000

> <Gold.Chemscore.Lipo>
111.5654

> <Gold.Chemscore.Internal_Hbond>
0.0000

> <Gold.Chemscore.DEClash>
0.5999

> <Gold.Chemscore.DEInternal>
2.5633

> <Gold.Chemscore.Rot>
2.0026

> <Gold.Chemscore.Internal.Correction>
   9.000000E+99

> <Gold.Chemscore.Hbonds>
donor molecule, donor type, donor heavy atom, donor atom, acceptor molecule, acceptor atom, score
      L1  H    10    38       P1  7957  0.51
      P1  H  7989  7998       L1    10  0.77

> <Gold.Chemscore.Hbond.Weighted>
-4.6617

> <Gold.Chemscore.Metal.Weighted>
-0.0000

> <Gold.Chemscore.Lipo.Weighted>
-13.0531

> <Gold.Chemscore.Internal_Hbond.Weighted>
0.0000

> <Gold.Chemscore.DEClash.Weighted>
0.5999

> <Gold.Chemscore.DEInternal.Weighted>
2.5633

> <Gold.Chemscore.Rot.Weighted>
5.1267

> <Gold.Chemscore.Internal.Correction.Weighted>
   9.000000E+99

> <Gold.Protein.RotatedTorsions>
[ 6907 6896 6895 6894 ] final   60.35 input  -60.11 | X-H torsion
[ 7974 7965 7964 7962 ] final  -36.59 input  175.53 | X-H torsion
[ 8008 7997 7996 7995 ] final  -63.74 input   59.86 | X-H torsion
[ 10167 10162 10161 10158 ] final   77.28 input  -65.29 | X-H torsion
[ 10718 10713 10712 10709 ] final  156.03 input   66.30 | X-H torsion
[ 10763 10752 10751 10750 ] final  -86.28 input  -60.55 | X-H torsion
[ 11005 11000 10999 10996 ] final    2.22 input  -57.11 | X-H torsion

> <Gold.Protein.ActiveResidues>
 VAL166  LYS551  ARG553  GLY616  TRP617  ASP618  TYR619  PRO620  LYS621  CYS622 
 ASP623  PHE694  ASN695  SER759  ASP760  ASP761  ALA762  ILE779  LEU786  VAL792 
 PHE793  MET794  SER795  GLU796  ALA797  LYS798  CYS799  TRP800  GLU811  SER814 

> <Gold.Protein.RotatedAtoms>
  152.3995  134.6310  160.0075 H   0  0  0  0  0  0  0  0  0  0  0  0  # atno 6907 bound_to 6896
  151.6520  133.3315  159.3162 H   0  0  0  0  0  0  0  0  0  0  0  0  # atno 6908 bound_to 6896
  150.7897  134.6954  159.6565 H   0  0  0  0  0  0  0  0  0  0  0  0  # atno 6909 bound_to 6896
  146.0648  140.6296  142.8980 H   0  0  0  0  0  0  0  0  0  0  0  0  # atno 7974 bound_to 7965
  154.4571  140.0968  156.6789 H   0  0  0  0  0  0  0  0  0  0  0  0  # atno 8008 bound_to 7997
  155.5104  140.3476  155.4369 H   0  0  0  0  0  0  0  0  0  0  0  0  # atno 8009 bound_to 7997
  156.0799  140.1370  156.9714 H   0  0  0  0  0  0  0  0  0  0  0  0  # atno 8010 bound_to 7997
  139.9832  144.5811  150.7882 H   0  0  0  0  0  0  0  0  0  0  0  0  # atno 10167 bound_to 10162
  157.2104  131.0696  151.1973 H   0  0  0  0  0  0  0  0  0  0  0  0  # atno 10718 bound_to 10713
  154.6207  135.5455  153.7572 H   0  0  0  0  0  0  0  0  0  0  0  0  # atno 10763 bound_to 10752
  153.0237  135.6412  154.1445 H   0  0  0  0  0  0  0  0  0  0  0  0  # atno 10764 bound_to 10752
  154.1379  135.2910  155.3148 H   0  0  0  0  0  0  0  0  0  0  0  0  # atno 10765 bound_to 10752
  140.6068  133.9785  155.8158 H   0  0  0  0  0  0  0  0  0  0  0  0  # atno 11005 bound_to 11000
  144.7196  140.4329  143.7018 LP  0  0  0  0  0  0  0  0  0  0  0  0  # atno 17320 bound_to 7965
  145.6496  139.1563  143.2870 LP  0  0  0  0  0  0  0  0  0  0  0  0  # atno 17321 bound_to 7965
  140.7481  143.2917  151.3312 LP  0  0  0  0  0  0  0  0  0  0  0  0  # atno 17342 bound_to 10162
  139.6394  144.0568  152.2542 LP  0  0  0  0  0  0  0  0  0  0  0  0  # atno 17343 bound_to 10162
  157.3678  130.7165  149.6544 LP  0  0  0  0  0  0  0  0  0  0  0  0  # atno 17370 bound_to 10713
  155.9691  130.4207  150.4436 LP  0  0  0  0  0  0  0  0  0  0  0  0  # atno 17371 bound_to 10713
  141.0835  134.0026  157.3349 LP  0  0  0  0  0  0  0  0  0  0  0  0  # atno 17394 bound_to 11000
  139.9209  135.0200  156.8060 LP  0  0  0  0  0  0  0  0  0  0  0  0  # atno 17395 bound_to 11000

$$$$
