#       Name:                AV-unprocessed.smi:490
#       Creating user name   scv26
#       Creation time:       Thu Mar 26 23:14:29 2020


#       File generated by GOLD software.
#

@<TRIPOS>MOLECULE
AV-unprocessed.smi:490
    56    58     1
SMALL
NO_CHARGES


@<TRIPOS>ATOM
      1 ****        -5.6281   2.0309  -2.1027 C.3            1 S1                 0.0000
      2 ****        -4.8412   1.7504  -0.8339 C.ar           1 S1                 0.0000
      3 ****        -5.5426   1.5280   0.3687 C.ar           1 S1                 0.0000
      4 ****        -4.8459   1.2686   1.5618 C.ar           1 S1                 0.0000
      5 ****        -3.4388   1.2177   1.5633 C.ar           1 S1                 0.0000
      6 ****        -2.6999   0.9388   2.8589 C.3            1 S1                 0.0000
      7 ****        -2.7263   1.4211   0.3593 C.ar           1 S1                 0.0000
      8 ****        -1.3565   1.3514   0.3738 O.3            1 S1                 0.0000
      9 ****        -0.8512   0.0762   0.0047 C.3            1 S1                 0.0000
     10 ****         0.6819   0.0931   0.1006 C.3            1 S1                 0.0000
     11 ****         1.2009   0.6932  -1.0699 O.3            1 S1                 0.0000
     12 ****         1.2606  -1.3289   0.2434 C.3            1 S1                 0.0000
     13 ****         2.7245  -1.3414   0.3994 N.pl3          1 S1                 0.0000
     14 ****         3.4851  -1.1810   1.5208 C.2            1 S1                 0.0000
     15 ****         2.9948  -0.9427   2.9110 C.3            1 S1                 0.0000
     16 ****         2.5382  -2.1248   3.5296 O.3            1 S1                 0.0000
     17 ****         4.7899  -1.2891   1.1434 N.pl3          1 S1                 1.0000
     18 ****         4.8671  -1.5161  -0.2309 C.ar           1 S1                 0.0000
     19 ****         5.9684  -1.6902  -1.0633 C.ar           1 S1                 0.0000
     20 ****         5.7004  -1.9019  -2.4314 C.ar           1 S1                 0.0000
     21 ****         4.3798  -1.9345  -2.9240 C.ar           1 S1                 0.0000
     22 ****         3.2710  -1.7588  -2.0698 C.ar           1 S1                 0.0000
     23 ****         3.5437  -1.5501  -0.7175 C.ar           1 S1                 0.0000
     24 ****        -3.4242   1.7093  -0.8411 C.ar           1 S1                 0.0000
     25 ****        -2.6569   1.9729  -2.1299 C.3            1 S1                 0.0000
     26 ****        -6.6979   1.8903  -1.9455 H              1 S1                 0.0000
     27 ****        -5.3196   1.3595  -2.9043 H              1 S1                 0.0000
     28 ****        -5.4699   3.0588  -2.4295 H              1 S1                 0.0000
     29 ****        -6.6223   1.5599   0.3835 H              1 S1                 0.0000
     30 ****        -5.3977   1.1065   2.4761 H              1 S1                 0.0000
     31 ****        -1.8581   1.6218   2.9771 H              1 S1                 0.0000
     32 ****        -2.3189  -0.0824   2.8650 H              1 S1                 0.0000
     33 ****        -3.3544   1.0633   3.7221 H              1 S1                 0.0000
     34 ****        -1.2509  -0.6635   0.7004 H              1 S1                 0.0000
     35 ****        -1.1814  -0.2188  -0.9927 H              1 S1                 0.0000
     36 ****         0.9854   0.6872   0.9633 H              1 S1                 0.0000
     37 ****         0.8841   0.2126  -1.8191 H              1 S1                 0.0000
     38 ****         0.8434  -1.8102   1.1287 H              1 S1                 0.0000
     39 ****         0.9788  -1.9592  -0.6002 H              1 S1                 0.0000
     40 ****         3.7986  -0.5166   3.5120 H              1 S1                 0.0000
     41 ****         2.1861  -0.2122   2.8928 H              1 S1                 0.0000
     42 ****         2.2355  -1.9120   4.3994 H              1 S1                 0.0000
     43 ****         6.9809  -1.6654  -0.6878 H              1 S1                 0.0000
     44 ****         6.5244  -2.0417  -3.1164 H              1 S1                 0.0000
     45 ****         4.2133  -2.0975  -3.9791 H              1 S1                 0.0000
     46 ****         2.2651  -1.7831  -2.4609 H              1 S1                 0.0000
     47 ****        -1.6037   2.1837  -1.9459 H              1 S1                 0.0000
     48 ****        -3.0646   2.8349  -2.6577 H              1 S1                 0.0000
     49 ****        -2.7186   1.1058  -2.7875 H              1 S1                 0.0000
     50 ****         5.5698  -1.2153   1.7839 H              1 S1                 0.0000
     51 ****        -1.0384   1.5628   1.2979 LP             1 S1                 0.0000
     52 ****        -0.9980   2.0314  -0.2658 LP             1 S1                 0.0000
     53 ****         2.2002   0.6647  -1.0489 LP             1 S1                 0.0000
     54 ****         0.8956   1.6439  -1.1254 LP             1 S1                 0.0000
     55 ****         3.2859  -2.7864   3.5854 LP             1 S1                 0.0000
     56 ****         1.7869  -2.5151   2.9974 LP             1 S1                 0.0000
@<TRIPOS>BOND
    1    1    2 1     
    2    1   26 1     
    3    1   27 1     
    4    1   28 1     
    5    2   24 ar    
    6    2    3 ar    
    7    3    4 ar    
    8    3   29 1     
    9    4    5 ar    
   10    4   30 1     
   11    5    6 1     
   12    5    7 ar    
   13    6   31 1     
   14    6   32 1     
   15    6   33 1     
   16    7    8 1     
   17    7   24 ar    
   18    8    9 1     
   19    9   10 1     
   20    9   34 1     
   21    9   35 1     
   22   10   11 1     
   23   10   12 1     
   24   10   36 1     
   25   11   37 1     
   26   12   13 1     
   27   12   38 1     
   28   12   39 1     
   29   13   23 1     
   30   13   14 1     
   31   14   15 1     
   32   14   17 2     
   33   15   16 1     
   34   15   40 1     
   35   15   41 1     
   36   16   42 1     
   37   17   18 1     
   38   17   50 1     
   39   18   23 ar    
   40   18   19 ar    
   41   19   20 ar    
   42   19   43 1     
   43   20   21 ar    
   44   20   44 1     
   45   21   22 ar    
   46   21   45 1     
   47   22   23 ar    
   48   22   46 1     
   49   24   25 1     
   50   25   47 1     
   51   25   48 1     
   52   25   49 1     
   53    8   51 1     
   54    8   52 1     
   55   11   53 1     
   56   11   54 1     
   57   16   55 1     
   58   16   56 1     
@<TRIPOS>SUBSTRUCTURE
      1 S1             1
@<TRIPOS>SET
LONE_PAIRS      STATIC     ATOMS    <user>   **** ""
6 51 52 53 54 55 56
DONOR_HYDROGENS      STATIC     ATOMS    <user>   **** ""
3 37 42 50
ATOM$BLUE        STATIC     ATOMS    COLORGROUP SYSTEM
6 51 52 53 54 55 56
ATOM$RED        STATIC     ATOMS    COLORGROUP SYSTEM
3 37 42 50
