#       Name:                AV-unprocessed.smi:1612
#       Creating user name   scv26
#       Creation time:       Fri Mar 27 07:13:48 2020


#       File generated by GOLD software.
#

@<TRIPOS>MOLECULE
AV-unprocessed.smi:1612
    42    43     1
SMALL
NO_CHARGES


@<TRIPOS>ATOM
      1 ****        -1.3854  -0.7647   2.7214 C.3            1 S1                 0.0000
      2 ****        -0.9503  -0.4610   1.2777 C.3            1 S1                 0.0000
      3 ****         0.5016  -0.6248   1.2034 N.am           1 S1                 0.0000
      4 ****         1.1995  -0.8170   0.0736 C.2            1 S1                 0.0000
      5 ****         0.6776  -0.9011  -1.0388 O.2            1 S1                 0.0000
      6 ****         2.5181  -0.8979   0.3241 N.am           1 S1                 0.0000
      7 ****         3.5766  -1.1005  -0.6012 C.ar           1 S1                 0.0000
      8 ****         4.8707  -1.1263  -0.0335 C.ar           1 S1                 0.0000
      9 ****         5.9890  -1.3231  -0.8665 C.ar           1 S1                 0.0000
     10 ****         5.7846  -1.4890  -2.2479 C.ar           1 S1                 0.0000
     11 ****         4.4640  -1.4500  -2.7319 C.ar           1 S1                 0.0000
     12 ****         3.3906  -1.2624  -1.9352 N.ar           1 S1                 0.0000
     13 ****        -1.3493   0.9963   0.9550 C.2            1 S1                 0.0000
     14 ****        -0.6081   1.9154   1.3098 O.2            1 S1                 0.0000
     15 ****        -2.5107   1.2310   0.3072 N.am           1 S1                 0.0000
     16 ****        -2.9691   2.5714  -0.0545 C.3            1 S1                 0.0000
     17 ****        -4.1636   2.3653  -0.9855 C.3            1 S1                 0.0000
     18 ****        -4.7105   1.0014  -0.5893 C.3            1 S1                 0.0000
     19 ****        -3.4766   0.2236  -0.1308 C.3            1 S1                 0.0000
     20 ****        -2.4654  -0.6699   2.8397 H              1 S1                 0.0000
     21 ****        -0.9124  -0.0924   3.4392 H              1 S1                 0.0000
     22 ****        -1.1189  -1.7844   3.0011 H              1 S1                 0.0000
     23 ****        -1.4185  -1.1718   0.5963 H              1 S1                 0.0000
     24 ****         1.0097  -0.5612   2.0732 H              1 S1                 0.0000
     25 ****         2.7979  -0.8020   1.2891 H              1 S1                 0.0000
     26 ****         5.0101  -0.9966   1.0301 H              1 S1                 0.0000
     27 ****         6.9861  -1.3459  -0.4521 H              1 S1                 0.0000
     28 ****         6.6168  -1.6424  -2.9189 H              1 S1                 0.0000
     29 ****         4.2639  -1.5735  -3.7860 H              1 S1                 0.0000
     30 ****        -3.2749   3.0977   0.8509 H              1 S1                 0.0000
     31 ****        -2.1865   3.1571  -0.5396 H              1 S1                 0.0000
     32 ****        -4.9054   3.1604  -0.9047 H              1 S1                 0.0000
     33 ****        -3.8191   2.3331  -2.0200 H              1 S1                 0.0000
     34 ****        -5.4028   1.1154   0.2460 H              1 S1                 0.0000
     35 ****        -5.2450   0.5068  -1.4008 H              1 S1                 0.0000
     36 ****        -3.0515  -0.3380  -0.9642 H              1 S1                 0.0000
     37 ****        -3.7315  -0.4798   0.6630 H              1 S1                 0.0000
     38 ****        -0.3152  -0.8256  -1.1323 LP             1 S1                 0.0000
     39 ****         1.2466  -1.0448  -1.8485 LP             1 S1                 0.0000
     40 ****         2.4693  -1.2430  -2.3237 LP             1 S1                 0.0000
     41 ****         0.2396   1.7132   1.8002 LP             1 S1                 0.0000
     42 ****        -0.8547   2.8631   1.1072 LP             1 S1                 0.0000
@<TRIPOS>BOND
    1    1    2 1     
    2    1   20 1     
    3    1   21 1     
    4    1   22 1     
    5    2    3 1     
    6    2   13 1     
    7    2   23 1     
    8    3    4 am    
    9    3   24 1     
   10    4    5 2     
   11    4    6 am    
   12    6    7 1     
   13    6   25 1     
   14    7   12 ar    
   15    7    8 ar    
   16    8    9 ar    
   17    8   26 1     
   18    9   10 ar    
   19    9   27 1     
   20   10   11 ar    
   21   10   28 1     
   22   11   12 ar    
   23   11   29 1     
   24   13   14 2     
   25   13   15 am    
   26   15   19 1     
   27   15   16 1     
   28   16   17 1     
   29   16   30 1     
   30   16   31 1     
   31   17   18 1     
   32   17   32 1     
   33   17   33 1     
   34   18   19 1     
   35   18   34 1     
   36   18   35 1     
   37   19   36 1     
   38   19   37 1     
   39    5   38 1     
   40    5   39 1     
   41   12   40 1     
   42   14   41 1     
   43   14   42 1     
@<TRIPOS>SUBSTRUCTURE
      1 S1             1
@<TRIPOS>SET
LONE_PAIRS      STATIC     ATOMS    <user>   **** ""
5 38 39 40 41 42
DONOR_HYDROGENS      STATIC     ATOMS    <user>   **** ""
2 24 25
ATOM$BLUE        STATIC     ATOMS    COLORGROUP SYSTEM
5 38 39 40 41 42
ATOM$RED        STATIC     ATOMS    COLORGROUP SYSTEM
2 24 25
