AV-unprocessed.smi:1824|AV-procd|sdf|7411|dock3
  -GOLD-   22720 9 83D 1   1.00000     0.00000
 Structure written by MMmdl.
 45 47  0  0  0  0  0  0  0  0  2 V2000
  148.5874  136.0073  159.3243 C   0  0  0  0  0  0  0  0  0  0  0  0
  148.9688  135.6567  157.8822 C   0  0  1  0  0  0  0  0  0  0  0  0
  149.9639  136.6688  157.2851 C   0  0  0  0  0  0  0  0  0  0  0  0
  150.4004  136.2836  155.9455 N   0  0  0  0  0  0  0  0  0  0  0  0
  151.3421  137.2393  155.3596 C   0  0  0  0  0  0  0  0  0  0  0  0
  150.9315  138.7217  155.4623 C   0  0  2  0  0  0  0  0  0  0  0  0
  151.4607  139.4059  154.3436 O   0  0  0  0  0  0  0  0  0  0  0  0
  151.4602  139.3646  156.7594 C   0  0  0  0  0  0  0  0  0  0  0  0
  151.0462  140.7671  156.9127 N   0  0  0  0  0  0  0  0  0  0  0  0
  150.2859  141.5423  156.0925 C   0  0  0  0  0  0  0  0  0  0  0  0
  150.1841  142.7728  156.6674 N   0  3  0  0  0  0  0  0  0  0  0  0
  150.8915  142.7853  157.8718 C   0  0  0  0  0  0  0  0  0  0  0  0
  151.0831  143.7984  158.8058 C   0  0  0  0  0  0  0  0  0  0  0  0
  151.8688  143.4824  159.9339 C   0  0  0  0  0  0  0  0  0  0  0  0
  152.0886  144.4325  160.8734 F   0  0  0  0  0  0  0  0  0  0  0  0
  152.4298  142.1986  160.1012 C   0  0  0  0  0  0  0  0  0  0  0  0
  153.1795  141.9375  161.1982 F   0  0  0  0  0  0  0  0  0  0  0  0
  152.2270  141.1792  159.1477 C   0  0  0  0  0  0  0  0  0  0  0  0
  151.4488  141.4998  158.0359 C   0  0  0  0  0  0  0  0  0  0  0  0
  150.9881  134.9494  156.0077 C   0  0  0  0  0  0  0  0  0  0  0  0
  150.0338  133.9031  156.6166 C   0  0  2  0  0  0  0  0  0  0  0  0
  148.8826  133.5066  155.6761 C   0  0  0  0  0  0  0  0  0  0  0  0
  149.5532  134.3556  157.8832 O   0  0  0  0  0  0  0  0  0  0  0  0
  148.1188  136.9902  159.3783 H   0  0  0  0  0  0  0  0  0  0  0  0
  149.4638  136.0175  159.9729 H   0  0  0  0  0  0  0  0  0  0  0  0
  147.8823  135.2805  159.7285 H   0  0  0  0  0  0  0  0  0  0  0  0
  148.0591  135.6436  157.2811 H   0  0  0  0  0  0  0  0  0  0  0  0
  149.4848  137.6464  157.2632 H   0  0  0  0  0  0  0  0  0  0  0  0
  150.8300  136.7602  157.9426 H   0  0  0  0  0  0  0  0  0  0  0  0
  152.3201  137.1037  155.8245 H   0  0  0  0  0  0  0  0  0  0  0  0
  151.4844  137.0038  154.3036 H   0  0  0  0  0  0  0  0  0  0  0  0
  149.8477  138.8283  155.4473 H   0  0  0  0  0  0  0  0  0  0  0  0
  151.6541  138.7691  153.6720 H   0  0  0  0  0  0  0  0  0  0  0  0
  151.0747  138.8223  157.6238 H   0  0  0  0  0  0  0  0  0  0  0  0
  152.5466  139.3005  156.8210 H   0  0  0  0  0  0  0  0  0  0  0  0
  149.8439  141.2366  155.1549 H   0  0  0  0  0  0  0  0  0  0  0  0
  150.6567  144.7828  158.6818 H   0  0  0  0  0  0  0  0  0  0  0  0
  152.6680  140.2031  159.2836 H   0  0  0  0  0  0  0  0  0  0  0  0
  151.2908  134.6270  155.0105 H   0  0  0  0  0  0  0  0  0  0  0  0
  151.8992  134.9838  156.6074 H   0  0  0  0  0  0  0  0  0  0  0  0
  150.6096  132.9983  156.8132 H   0  0  0  0  0  0  0  0  0  0  0  0
  149.2675  133.0545  154.7619 H   0  0  0  0  0  0  0  0  0  0  0  0
  148.2767  134.3644  155.3843 H   0  0  0  0  0  0  0  0  0  0  0  0
  148.2247  132.7794  156.1524 H   0  0  0  0  0  0  0  0  0  0  0  0
  149.6702  143.5456  156.2636 H   0  0  0  0  0  0  0  0  0  0  0  0
  1  2  1  0  0  0  0
  1 24  1  0  0  0  0
  1 25  1  0  0  0  0
  1 26  1  0  0  0  0
  2 23  1  0  0  0  0
  2  3  1  0  0  0  0
  2 27  1  0  0  0  0
  3  4  1  0  0  0  0
  3 28  1  0  0  0  0
  3 29  1  0  0  0  0
  4  5  1  0  0  0  0
  4 20  1  0  0  0  0
  5  6  1  0  0  0  0
  5 30  1  0  0  0  0
  5 31  1  0  0  0  0
  6  7  1  0  0  0  0
  6  8  1  0  0  0  0
  6 32  1  0  0  0  0
  7 33  1  0  0  0  0
  8  9  1  0  0  0  0
  8 34  1  0  0  0  0
  8 35  1  0  0  0  0
  9 19  1  0  0  0  0
  9 10  1  0  0  0  0
 10 11  2  0  0  0  0
 10 36  1  0  0  0  0
 11 12  1  0  0  0  0
 11 45  1  0  0  0  0
 12 19  2  0  0  0  0
 12 13  1  0  0  0  0
 13 14  2  0  0  0  0
 13 37  1  0  0  0  0
 14 15  1  0  0  0  0
 14 16  1  0  0  0  0
 16 17  1  0  0  0  0
 16 18  2  0  0  0  0
 18 19  1  0  0  0  0
 18 38  1  0  0  0  0
 20 21  1  0  0  0  0
 20 39  1  0  0  0  0
 20 40  1  0  0  0  0
 21 22  1  0  0  0  0
 21 23  1  0  0  0  0
 21 41  1  0  0  0  0
 22 42  1  0  0  0  0
 22 43  1  0  0  0  0
 22 44  1  0  0  0  0
M  CHG  1  11   1
M  END
> <s_m_source_file>
AV-unprocessed.smi

> <i_m_source_file_index>
1824

> <i_lp_mmshare_version>
43012

> <i_f3d_flags>
0

> <s_epik_input>
W0NIM11bQ0BASF0xW0NIMl1OKFtDSDJdW0NASF0oTzEpW0NIM10pW0NIMl1bQ0BIXShbT0hdKVtDSDJdbihbY0hdbjIpYyhjMjMpW2NIXWMoRiljKEYpW2NIXTM=

> <s_epik_cmdline>
J2VwaWtfcHl0aG9uJywgJy1waCcsICc3LjAnLCAnLXRuJywgJzgnLCAnLW1hJywgJzIwMCcsICctbWV0YWxfYmluZGluZycsICctaW1hZScsICc8aW5maWxlLm1hZT4nLCAnLW9tYWUnLCAnPG91dGZpbGUubWFlPic=

> <r_epik_Ionization_Penalty>
2.58709

> <r_epik_Ionization_Penalty_Charging>
2.37273

> <r_epik_Ionization_Penalty_Neutral>
0.214359

> <r_epik_State_Penalty>
2.71799

> <r_epik_Charging_Adjusted_Penalty>
5.09071

> <i_epik_Tot_Q>
1

> <i_epik_Tot_abs_Q>
1

> <r_epik_Metal_State_Penalty>
6.80217

> <b_epik_Metal_Only>
0

> <s_lp_Force_Field>
OPLS_2005

> <r_lp_Energy>
35.2196

> <b_lp_Chiralities_Consistent>
1

> <s_lp_Variant>
AV-unprocessed.smi:1824-19

> <Gold.Version>
5.8.1

> <Gold.Id.Protein>
6NUR|6NUR_protein|mol2

> <Gold.PLP.Fitness>
52.6552

> <Gold.PLP.PLP>
-41.4515

> <Gold.PLP.part.hbond>
-3.0000

> <Gold.PLP.part.metal>
0.0000

> <Gold.PLP.part.buried>
-5.1993

> <Gold.PLP.part.nonpolar>
-34.6123

> <Gold.PLP.part.repulsive>
0.1067

> <Gold.PLP.ligand.clash>
0.0000

> <Gold.PLP.ligand.torsion>
0.4460

> <Gold.PLP.Chemscore.Hbond>
4.0000

> <Gold.PLP.Chemscore.CHOScore>
0.0000

> <Gold.PLP.Chemscore.Metal>
0.0000

> <Gold.Chemscore.Hbonds>
donor molecule, donor type, donor heavy atom, donor atom, acceptor molecule, acceptor atom, score
      L1  H    11    45       P1  8028  2.00
      P1  H  6896  6909       L1    23  1.00
      P1  H  7989  7998       L1     7  1.00

> <Gold.PLP.Chemscore.Internal.Correction>
0.0957

> <Gold.Rescore>
     Score         DG    S(hbond)    S(metal)    S(lipo)     H(rot)  DE(clash)    DE(int)     intcor
     18.56     -19.40       2.67        0.00      93.47       2.32       0.27       0.57       ----

> <Gold.Chemscore.Fitness>
18.5644

> <Gold.Chemscore.DG>
-19.4011

> <Gold.Chemscore.ZeroCoef>
-5.4800

> <Gold.Chemscore.Hbond>
2.6727

> <Gold.Chemscore.Metal>
0.0000

> <Gold.Chemscore.Lipo>
93.4709

> <Gold.Chemscore.Internal_Hbond>
0.0000

> <Gold.Chemscore.DEClash>
0.2712

> <Gold.Chemscore.DEInternal>
0.5655

> <Gold.Chemscore.Rot>
2.3210

> <Gold.Chemscore.Internal.Correction>
   9.000000E+99

> <Gold.Chemscore.Hbonds>
donor molecule, donor type, donor heavy atom, donor atom, acceptor molecule, acceptor atom, score
      L1  H    11    45       P1  8028  0.93
      P1  H  6896  6909       L1    23  0.79
      P1  H  7989  7998       L1     7  0.30

> <Gold.Chemscore.Hbond.Weighted>
-8.9267

> <Gold.Chemscore.Metal.Weighted>
-0.0000

> <Gold.Chemscore.Lipo.Weighted>
-10.9361

> <Gold.Chemscore.Internal_Hbond.Weighted>
0.0000

> <Gold.Chemscore.DEClash.Weighted>
0.2712

> <Gold.Chemscore.DEInternal.Weighted>
0.5655

> <Gold.Chemscore.Rot.Weighted>
5.9416

> <Gold.Chemscore.Internal.Correction.Weighted>
   9.000000E+99

> <Gold.Protein.RotatedTorsions>
[ 6907 6896 6895 6894 ] final    9.04 input  -60.11 | X-H torsion
[ 7974 7965 7964 7962 ] final  -40.19 input  175.53 | X-H torsion
[ 8008 7997 7996 7995 ] final  167.37 input   59.86 | X-H torsion
[ 10167 10162 10161 10158 ] final -144.68 input  -65.29 | X-H torsion
[ 10718 10713 10712 10709 ] final -162.63 input   66.30 | X-H torsion
[ 10763 10752 10751 10750 ] final -126.12 input  -60.55 | X-H torsion
[ 11005 11000 10999 10996 ] final  -81.55 input  -57.11 | X-H torsion

> <Gold.Protein.ActiveResidues>
 VAL166  LYS551  ARG553  GLY616  TRP617  ASP618  TYR619  PRO620  LYS621  CYS622 
 ASP623  PHE694  ASN695  SER759  ASP760  ASP761  ALA762  ILE779  LEU786  VAL792 
 PHE793  MET794  SER795  GLU796  ALA797  LYS798  CYS799  TRP800  GLU811  SER814 

> <Gold.Protein.RotatedAtoms>
  151.7157  135.0904  160.0275 H   0  0  0  0  0  0  0  0  0  0  0  0  # atno 6907 bound_to 6896
  152.3634  133.6321  159.6040 H   0  0  0  0  0  0  0  0  0  0  0  0  # atno 6908 bound_to 6896
  150.7620  133.9304  159.3466 H   0  0  0  0  0  0  0  0  0  0  0  0  # atno 6909 bound_to 6896
  146.0327  140.6710  142.9125 H   0  0  0  0  0  0  0  0  0  0  0  0  # atno 7974 bound_to 7965
  156.1639  140.1618  156.8565 H   0  0  0  0  0  0  0  0  0  0  0  0  # atno 8008 bound_to 7997
  154.5188  140.0783  156.8168 H   0  0  0  0  0  0  0  0  0  0  0  0  # atno 8009 bound_to 7997
  155.3651  140.3397  155.4244 H   0  0  0  0  0  0  0  0  0  0  0  0  # atno 8010 bound_to 7997
  139.7876  143.8011  152.2646 H   0  0  0  0  0  0  0  0  0  0  0  0  # atno 10167 bound_to 10162
  156.6132  130.8859  151.2941 H   0  0  0  0  0  0  0  0  0  0  0  0  # atno 10718 bound_to 10713
  154.8742  135.4006  154.3379 H   0  0  0  0  0  0  0  0  0  0  0  0  # atno 10763 bound_to 10752
  153.4182  135.7022  153.6317 H   0  0  0  0  0  0  0  0  0  0  0  0  # atno 10764 bound_to 10752
  153.4991  135.3731  155.2501 H   0  0  0  0  0  0  0  0  0  0  0  0  # atno 10765 bound_to 10752
  141.1666  133.7202  156.8439 H   0  0  0  0  0  0  0  0  0  0  0  0  # atno 11005 bound_to 11000
  144.7038  140.3765  143.7135 LP  0  0  0  0  0  0  0  0  0  0  0  0  # atno 17320 bound_to 7965
  145.7014  139.1662  143.2591 LP  0  0  0  0  0  0  0  0  0  0  0  0  # atno 17321 bound_to 7965
  139.8093  144.7342  150.9719 LP  0  0  0  0  0  0  0  0  0  0  0  0  # atno 17342 bound_to 10162
  140.7820  143.4267  151.0758 LP  0  0  0  0  0  0  0  0  0  0  0  0  # atno 17343 bound_to 10162
  157.7248  130.9608  150.1590 LP  0  0  0  0  0  0  0  0  0  0  0  0  # atno 17370 bound_to 10713
  156.2373  130.3687  149.8377 LP  0  0  0  0  0  0  0  0  0  0  0  0  # atno 17371 bound_to 10713
  140.1964  134.8929  157.3119 LP  0  0  0  0  0  0  0  0  0  0  0  0  # atno 17394 bound_to 11000
  140.2235  134.3995  155.7555 LP  0  0  0  0  0  0  0  0  0  0  0  0  # atno 17395 bound_to 11000

$$$$
