AV-unprocessed.smi:1583|AV-procd|sdf|6364|dock2
  -GOLD-   22720 6593D 1   1.00000     0.00000
 Structure written by MMmdl.
 37 38  0  0  0  0  0  0  0  0  2 V2000
  145.5217  142.7027  155.1248 C   0  0  0  0  0  0  0  0  0  0  0  0
  146.9632  142.5608  154.9877 N   0  0  0  0  0  0  0  0  0  0  0  0
  147.5724  141.4542  154.5376 C   0  0  0  0  0  0  0  0  0  0  0  0
  146.9669  140.4393  154.1941 O   0  0  0  0  0  0  0  0  0  0  0  0
  149.0968  141.4922  154.4731 C   0  0  0  0  0  0  0  0  0  0  0  0
  149.8731  140.3656  155.6641 S   0  0  0  0  0  0  0  0  0  0  0  0
  150.5857  141.4015  156.9017 C   0  0  0  0  0  0  0  0  0  0  0  0
  150.5591  142.7630  156.9197 N   0  3  0  0  0  0  0  0  0  0  0  0
  151.2344  143.2277  158.0493 C   0  0  0  0  0  0  0  0  0  0  0  0
  151.4756  144.5224  158.4983 C   0  0  0  0  0  0  0  0  0  0  0  0
  152.2069  144.6501  159.6976 C   0  0  0  0  0  0  0  0  0  0  0  0
  152.6675  143.5182  160.4016 C   0  0  0  0  0  0  0  0  0  0  0  0
  152.4163  142.2102  159.9374 C   0  0  0  0  0  0  0  0  0  0  0  0
  151.6920  142.0927  158.7515 C   0  0  0  0  0  0  0  0  0  0  0  0
  151.2654  140.9874  158.0077 N   0  0  0  0  0  0  0  0  0  0  0  0
  151.5939  139.6338  158.4765 C   0  0  0  0  0  0  0  0  0  0  0  0
  152.5283  138.8934  157.5088 C   0  0  0  0  0  0  0  0  0  0  0  0
  152.6006  139.6016  156.2820 O   0  0  0  0  0  0  0  0  0  0  0  0
  152.6439  138.7390  155.1593 C   0  0  0  0  0  0  0  0  0  0  0  0
  145.2794  143.6995  155.4936 H   0  0  0  0  0  0  0  0  0  0  0  0
  145.1255  141.9718  155.8311 H   0  0  0  0  0  0  0  0  0  0  0  0
  145.0242  142.5644  154.1640 H   0  0  0  0  0  0  0  0  0  0  0  0
  147.5329  143.3534  155.2473 H   0  0  0  0  0  0  0  0  0  0  0  0
  149.4227  141.2300  153.4660 H   0  0  0  0  0  0  0  0  0  0  0  0
  149.4436  142.5076  154.6687 H   0  0  0  0  0  0  0  0  0  0  0  0
  151.1248  145.3912  157.9606 H   0  0  0  0  0  0  0  0  0  0  0  0
  152.4194  145.6360  160.0851 H   0  0  0  0  0  0  0  0  0  0  0  0
  153.2255  143.6558  161.3165 H   0  0  0  0  0  0  0  0  0  0  0  0
  152.7746  141.3496  160.4830 H   0  0  0  0  0  0  0  0  0  0  0  0
  152.0324  139.7008  159.4725 H   0  0  0  0  0  0  0  0  0  0  0  0
  150.6596  139.0829  158.5872 H   0  0  0  0  0  0  0  0  0  0  0  0
  153.5245  138.8040  157.9446 H   0  0  0  0  0  0  0  0  0  0  0  0
  152.1560  137.8824  157.3379 H   0  0  0  0  0  0  0  0  0  0  0  0
  152.7009  139.3301  154.2453 H   0  0  0  0  0  0  0  0  0  0  0  0
  151.7485  138.1187  155.1037 H   0  0  0  0  0  0  0  0  0  0  0  0
  153.5190  138.0889  155.1948 H   0  0  0  0  0  0  0  0  0  0  0  0
  150.1134  143.3296  156.2100 H   0  0  0  0  0  0  0  0  0  0  0  0
  1  2  1  0  0  0  0
  1 20  1  0  0  0  0
  1 21  1  0  0  0  0
  1 22  1  0  0  0  0
  2  3  1  0  0  0  0
  2 23  1  0  0  0  0
  3  4  2  0  0  0  0
  3  5  1  0  0  0  0
  5  6  1  0  0  0  0
  5 24  1  0  0  0  0
  5 25  1  0  0  0  0
  6  7  1  0  0  0  0
  7 15  1  0  0  0  0
  7  8  2  0  0  0  0
  8  9  1  0  0  0  0
  8 37  1  0  0  0  0
  9 14  2  0  0  0  0
  9 10  1  0  0  0  0
 10 11  2  0  0  0  0
 10 26  1  0  0  0  0
 11 12  1  0  0  0  0
 11 27  1  0  0  0  0
 12 13  2  0  0  0  0
 12 28  1  0  0  0  0
 13 14  1  0  0  0  0
 13 29  1  0  0  0  0
 14 15  1  0  0  0  0
 15 16  1  0  0  0  0
 16 17  1  0  0  0  0
 16 30  1  0  0  0  0
 16 31  1  0  0  0  0
 17 18  1  0  0  0  0
 17 32  1  0  0  0  0
 17 33  1  0  0  0  0
 18 19  1  0  0  0  0
 19 34  1  0  0  0  0
 19 35  1  0  0  0  0
 19 36  1  0  0  0  0
M  CHG  1   8   1
M  END
> <s_m_source_file>
AV-unprocessed.smi

> <i_m_source_file_index>
1583

> <i_lp_mmshare_version>
43012

> <i_f3d_flags>
0

> <s_epik_input>
W0NIM11bTkhdQyg9TylbQ0gyXVNjKG4xKW4oW0NIMl1bQ0gyXU9bQ0gzXSljKGMxMilbY0hdW2NIXVtjSF1bY0hdMg==

> <s_epik_cmdline>
J2VwaWtfcHl0aG9uJywgJy1waCcsICc3LjAnLCAnLXRuJywgJzgnLCAnLW1hJywgJzIwMCcsICctbWV0YWxfYmluZGluZycsICctaW1hZScsICc8aW5maWxlLm1hZT4nLCAnLW9tYWUnLCAnPG91dGZpbGUubWFlPic=

> <r_epik_Ionization_Penalty>
1.68337

> <r_epik_Ionization_Penalty_Charging>
1.68337

> <r_epik_Ionization_Penalty_Neutral>
1.65978e-07

> <r_epik_State_Penalty>
1.78799

> <r_epik_Charging_Adjusted_Penalty>
3.47136

> <i_epik_Tot_Q>
1

> <i_epik_Tot_abs_Q>
1

> <r_epik_Metal_State_Penalty>
1.82204

> <b_epik_Metal_Only>
0

> <s_lp_Force_Field>
OPLS_2005

> <r_lp_Energy>
8.62321

> <b_lp_Chiralities_Consistent>
1

> <s_lp_Variant>
AV-unprocessed.smi:1583-2

> <Gold.Version>
5.8.1

> <Gold.Id.Protein>
6NUR|6NUR_protein|mol2

> <Gold.PLP.Fitness>
54.2024

> <Gold.PLP.PLP>
-44.3393

> <Gold.PLP.part.hbond>
-3.0000

> <Gold.PLP.part.metal>
0.0000

> <Gold.PLP.part.buried>
-5.5535

> <Gold.PLP.part.nonpolar>
-37.0342

> <Gold.PLP.part.repulsive>
0.2765

> <Gold.PLP.ligand.clash>
0.0000

> <Gold.PLP.ligand.torsion>
1.0171

> <Gold.PLP.Chemscore.Hbond>
3.9520

> <Gold.PLP.Chemscore.CHOScore>
0.0000

> <Gold.PLP.Chemscore.Metal>
0.0000

> <Gold.Chemscore.Hbonds>
donor molecule, donor type, donor heavy atom, donor atom, acceptor molecule, acceptor atom, score
      L1  H     2    23       P1  8028  0.90
      L1  H     8    37       P1  8028  2.00
      P1  H  7997  8009       L1    18  0.85

> <Gold.PLP.Chemscore.Internal.Correction>
0.0412

> <Gold.Rescore>
     Score         DG    S(hbond)    S(metal)    S(lipo)     H(rot)  DE(clash)    DE(int)     intcor
     16.14     -18.80       2.02        0.00     105.60       2.25       0.04       2.62       ----

> <Gold.Chemscore.Fitness>
16.1370

> <Gold.Chemscore.DG>
-18.7987

> <Gold.Chemscore.ZeroCoef>
-5.4800

> <Gold.Chemscore.Hbond>
2.0166

> <Gold.Chemscore.Metal>
0.0000

> <Gold.Chemscore.Lipo>
105.5993

> <Gold.Chemscore.Internal_Hbond>
0.0000

> <Gold.Chemscore.DEClash>
0.0370

> <Gold.Chemscore.DEInternal>
2.6247

> <Gold.Chemscore.Rot>
2.2546

> <Gold.Chemscore.Internal.Correction>
   9.000000E+99

> <Gold.Chemscore.Hbonds>
donor molecule, donor type, donor heavy atom, donor atom, acceptor molecule, acceptor atom, score
      L1  H     2    23       P1  8028  0.18
      L1  H     8    37       P1  8028  0.96
      P1  H  7997  8009       L1    18  0.04

> <Gold.Chemscore.Hbond.Weighted>
-6.7355

> <Gold.Chemscore.Metal.Weighted>
-0.0000

> <Gold.Chemscore.Lipo.Weighted>
-12.3551

> <Gold.Chemscore.Internal_Hbond.Weighted>
0.0000

> <Gold.Chemscore.DEClash.Weighted>
0.0370

> <Gold.Chemscore.DEInternal.Weighted>
2.6247

> <Gold.Chemscore.Rot.Weighted>
5.7719

> <Gold.Chemscore.Internal.Correction.Weighted>
   9.000000E+99

> <Gold.Protein.RotatedTorsions>
[ 6907 6896 6895 6894 ] final   38.14 input  -60.11 | X-H torsion
[ 7974 7965 7964 7962 ] final  156.00 input  175.53 | X-H torsion
[ 8008 7997 7996 7995 ] final -166.90 input   59.86 | X-H torsion
[ 10167 10162 10161 10158 ] final  135.65 input  -65.29 | X-H torsion
[ 10718 10713 10712 10709 ] final -114.85 input   66.30 | X-H torsion
[ 10763 10752 10751 10750 ] final  -16.91 input  -60.55 | X-H torsion
[ 11005 11000 10999 10996 ] final -104.55 input  -57.11 | X-H torsion

> <Gold.Protein.ActiveResidues>
 VAL166  LYS551  ARG553  GLY616  TRP617  ASP618  TYR619  PRO620  LYS621  CYS622 
 ASP623  PHE694  ASN695  SER759  ASP760  ASP761  ALA762  ILE779  LEU786  VAL792 
 PHE793  MET794  SER795  GLU796  ALA797  LYS798  CYS799  TRP800  GLU811  SER814 

> <Gold.Protein.RotatedAtoms>
  152.1525  134.8977  160.0546 H   0  0  0  0  0  0  0  0  0  0  0  0  # atno 6907 bound_to 6896
  152.0004  133.3818  159.4187 H   0  0  0  0  0  0  0  0  0  0  0  0  # atno 6908 bound_to 6896
  150.6877  134.3763  159.5058 H   0  0  0  0  0  0  0  0  0  0  0  0  # atno 6909 bound_to 6896
  144.7990  139.7144  143.6190 H   0  0  0  0  0  0  0  0  0  0  0  0  # atno 7974 bound_to 7965
  155.8703  140.0992  157.1555 H   0  0  0  0  0  0  0  0  0  0  0  0  # atno 8008 bound_to 7997
  154.3996  140.1348  156.4132 H   0  0  0  0  0  0  0  0  0  0  0  0  # atno 8009 bound_to 7997
  155.7758  140.3459  155.5273 H   0  0  0  0  0  0  0  0  0  0  0  0  # atno 8010 bound_to 7997
  139.5209  144.6506  151.5314 H   0  0  0  0  0  0  0  0  0  0  0  0  # atno 10167 bound_to 10162
  156.0857  130.6049  150.8829 H   0  0  0  0  0  0  0  0  0  0  0  0  # atno 10718 bound_to 10713
  153.5658  135.7008  153.5526 H   0  0  0  0  0  0  0  0  0  0  0  0  # atno 10763 bound_to 10752
  153.3388  135.4027  155.1555 H   0  0  0  0  0  0  0  0  0  0  0  0  # atno 10764 bound_to 10752
  154.8641  135.3737  154.5178 H   0  0  0  0  0  0  0  0  0  0  0  0  # atno 10765 bound_to 10752
  141.1095  133.8733  157.1625 H   0  0  0  0  0  0  0  0  0  0  0  0  # atno 11005 bound_to 11000
  146.2266  139.5734  142.9583 LP  0  0  0  0  0  0  0  0  0  0  0  0  # atno 17320 bound_to 7965
  145.5601  141.0405  143.2231 LP  0  0  0  0  0  0  0  0  0  0  0  0  # atno 17321 bound_to 7965
  140.6309  143.9078  150.6604 LP  0  0  0  0  0  0  0  0  0  0  0  0  # atno 17342 bound_to 10162
  140.2382  143.3684  152.1509 LP  0  0  0  0  0  0  0  0  0  0  0  0  # atno 17343 bound_to 10162
  157.5990  131.0942  150.8992 LP  0  0  0  0  0  0  0  0  0  0  0  0  # atno 17370 bound_to 10713
  156.9153  130.5295  149.5279 LP  0  0  0  0  0  0  0  0  0  0  0  0  # atno 17371 bound_to 10713
  139.9981  135.0038  157.0129 LP  0  0  0  0  0  0  0  0  0  0  0  0  # atno 17394 bound_to 11000
  140.4814  134.1286  155.7217 LP  0  0  0  0  0  0  0  0  0  0  0  0  # atno 17395 bound_to 11000

$$$$
