AV-unprocessed.smi:3187|AV-procd|sdf|12180|dock1
  -GOLD-   2272018 23D 1   1.00000     0.00000
 Structure written by MMmdl.
 42 43  0  0  0  0  0  0  0  0  3 V2000
  151.1924  139.9123  158.2138 C   0  0  0  0  0  0  0  0  0  0  0  0
  151.9516  140.9998  158.9559 C   0  0  0  0  0  0  0  0  0  0  0  0
  152.9858  140.6677  159.7521 C   0  0  0  0  0  0  0  0  0  0  0  0
  153.7636  141.6527  160.5937 C   0  0  0  0  0  0  0  0  0  0  0  0
  152.9518  142.9271  160.8354 C   0  0  0  0  0  0  0  0  0  0  0  0
  152.3822  143.4877  159.5219 C   0  0  2  0  0  0  0  0  0  0  0  0
  151.6524  144.8149  159.8068 C   0  0  0  0  0  0  0  0  0  0  0  0
  151.4777  142.4571  158.7771 C   0  0  1  0  0  0  0  0  0  0  0  0
  151.3293  142.8603  157.2858 C   0  0  0  0  0  0  0  0  0  0  0  0
  150.0887  142.3406  156.6696 N   0  3  0  0  0  0  0  0  0  0  0  0
  150.2893  141.3376  155.6016 C   0  0  0  0  0  0  0  0  0  0  0  0
  149.3383  140.1348  155.7309 C   0  0  0  0  0  0  0  0  0  0  0  0
  149.9830  138.8865  155.3153 N   0  0  0  0  0  0  0  0  0  0  0  0
  150.2282  137.7815  156.0905 C   0  0  0  0  0  0  0  0  0  0  0  0
  150.8450  136.8638  155.2792 C   0  0  0  0  0  0  0  0  0  0  0  0
  150.9504  137.4468  154.0445 N   0  3  0  0  0  0  0  0  0  0  0  0
  150.4250  138.6762  154.0681 C   0  0  0  0  0  0  0  0  0  0  0  0
  150.1205  140.0067  158.3885 H   0  0  0  0  0  0  0  0  0  0  0  0
  151.4941  138.9195  158.5501 H   0  0  0  0  0  0  0  0  0  0  0  0
  151.3852  139.9632  157.1426 H   0  0  0  0  0  0  0  0  0  0  0  0
  153.2977  139.6362  159.8299 H   0  0  0  0  0  0  0  0  0  0  0  0
  154.0139  141.1889  161.5482 H   0  0  0  0  0  0  0  0  0  0  0  0
  154.7038  141.8787  160.0897 H   0  0  0  0  0  0  0  0  0  0  0  0
  152.1344  142.7121  161.5254 H   0  0  0  0  0  0  0  0  0  0  0  0
  153.5823  143.6692  161.3267 H   0  0  0  0  0  0  0  0  0  0  0  0
  153.2366  143.7115  158.8808 H   0  0  0  0  0  0  0  0  0  0  0  0
  150.7801  144.6572  160.4417 H   0  0  0  0  0  0  0  0  0  0  0  0
  151.3142  145.3098  158.8977 H   0  0  0  0  0  0  0  0  0  0  0  0
  152.3087  145.5169  160.3221 H   0  0  0  0  0  0  0  0  0  0  0  0
  150.4919  142.4999  159.2432 H   0  0  0  0  0  0  0  0  0  0  0  0
  151.3167  143.9427  157.1781 H   0  0  0  0  0  0  0  0  0  0  0  0
  152.1960  142.5075  156.7249 H   0  0  0  0  0  0  0  0  0  0  0  0
  149.5534  141.9002  157.4048 H   0  0  0  0  0  0  0  0  0  0  0  0
  150.1850  141.8140  154.6257 H   0  0  0  0  0  0  0  0  0  0  0  0
  151.3206  140.9896  155.6688 H   0  0  0  0  0  0  0  0  0  0  0  0
  148.9968  140.0185  156.7609 H   0  0  0  0  0  0  0  0  0  0  0  0
  148.4508  140.2633  155.1107 H   0  0  0  0  0  0  0  0  0  0  0  0
  149.9541  137.7296  157.1346 H   0  0  0  0  0  0  0  0  0  0  0  0
  151.2077  135.8666  155.4824 H   0  0  0  0  0  0  0  0  0  0  0  0
  150.3708  139.3617  153.2411 H   0  0  0  0  0  0  0  0  0  0  0  0
  149.5509  143.1140  156.3049 H   0  0  0  0  0  0  0  0  0  0  0  0
  151.3671  137.0121  153.2304 H   0  0  0  0  0  0  0  0  0  0  0  0
  1  2  1  0  0  0  0
  1 18  1  0  0  0  0
  1 19  1  0  0  0  0
  1 20  1  0  0  0  0
  2  8  1  0  0  0  0
  2  3  2  0  0  0  0
  3  4  1  0  0  0  0
  3 21  1  0  0  0  0
  4  5  1  0  0  0  0
  4 22  1  0  0  0  0
  4 23  1  0  0  0  0
  5  6  1  0  0  0  0
  5 24  1  0  0  0  0
  5 25  1  0  0  0  0
  6  7  1  0  0  0  0
  6  8  1  0  0  0  0
  6 26  1  0  0  0  0
  7 27  1  0  0  0  0
  7 28  1  0  0  0  0
  7 29  1  0  0  0  0
  8  9  1  0  0  0  0
  8 30  1  0  0  0  0
  9 10  1  0  0  0  0
  9 31  1  0  0  0  0
  9 32  1  0  0  0  0
 10 11  1  0  0  0  0
 10 33  1  0  0  0  0
 10 41  1  0  0  0  0
 11 12  1  0  0  0  0
 11 34  1  0  0  0  0
 11 35  1  0  0  0  0
 12 13  1  0  0  0  0
 12 36  1  0  0  0  0
 12 37  1  0  0  0  0
 13 17  1  0  0  0  0
 13 14  1  0  0  0  0
 14 15  2  0  0  0  0
 14 38  1  0  0  0  0
 15 16  1  0  0  0  0
 15 39  1  0  0  0  0
 16 17  2  0  0  0  0
 16 42  1  0  0  0  0
 17 40  1  0  0  0  0
M  CHG  1  10   1
M  CHG  1  16   1
M  END
> <s_m_source_file>
AV-unprocessed.smi

> <i_m_source_file_index>
3187

> <i_lp_mmshare_version>
43012

> <i_f3d_flags>
0

> <s_epik_input>
W0NIM11DMT1bQ0hdW0NIMl1bQ0gyXVtDQEBIXShbQ0gzXSlbQ0BIXTFbQ0gyXVtOSF1bQ0gyXVtDSDJdbjJbY0hdW2NIXW5bY0hdMg==

> <s_epik_cmdline>
J2VwaWtfcHl0aG9uJywgJy1waCcsICc3LjAnLCAnLXRuJywgJzgnLCAnLW1hJywgJzIwMCcsICctbWV0YWxfYmluZGluZycsICctaW1hZScsICc8aW5maWxlLm1hZT4nLCAnLW9tYWUnLCAnPG91dGZpbGUubWFlPic=

> <r_lp_tautomer_probability>
1

> <r_epik_Ionization_Penalty>
1.51066

> <r_epik_Ionization_Penalty_Charging>
0.0026721

> <r_epik_Ionization_Penalty_Neutral>
1.50798

> <r_epik_State_Penalty>
1.12593

> <r_epik_Charging_Adjusted_Penalty>
1.12861

> <i_epik_Tot_Q>
2

> <i_epik_Tot_abs_Q>
2

> <r_epik_Metal_State_Penalty>
5.12155

> <b_epik_Metal_Only>
0

> <s_lp_Force_Field>
OPLS_2005

> <r_lp_Energy>
26.137

> <b_lp_Chiralities_Consistent>
1

> <s_lp_Variant>
AV-unprocessed.smi:3187-6

> <Gold.Version>
5.8.1

> <Gold.Id.Protein>
6NUR|6NUR_protein|mol2

> <Gold.PLP.Fitness>
52.0866

> <Gold.PLP.PLP>
-39.1367

> <Gold.PLP.part.hbond>
-2.6188

> <Gold.PLP.part.metal>
0.0000

> <Gold.PLP.part.buried>
-6.0239

> <Gold.PLP.part.nonpolar>
-30.9540

> <Gold.PLP.part.repulsive>
0.1479

> <Gold.PLP.ligand.clash>
0.0000

> <Gold.PLP.ligand.torsion>
1.1454

> <Gold.PLP.Chemscore.Hbond>
4.0000

> <Gold.PLP.Chemscore.CHOScore>
1.0000

> <Gold.PLP.Chemscore.Metal>
0.0000

> <Gold.Chemscore.Hbonds>
donor molecule, donor type, donor heavy atom, donor atom, acceptor molecule, acceptor atom, score
      L1  H    10    41       P1  8028  2.00
      L1  H    16    42       P1  7949  2.00
      L1  C    17    40       P1  7957  1.00

> <Gold.PLP.Chemscore.Internal.Correction>
0.2408

> <Gold.Rescore>
     Score         DG    S(hbond)    S(metal)    S(lipo)     H(rot)  DE(clash)    DE(int)     intcor
     17.13     -18.53       1.80        0.00     103.36       1.97       0.04       1.36       ----

> <Gold.Chemscore.Fitness>
17.1307

> <Gold.Chemscore.DG>
-18.5284

> <Gold.Chemscore.ZeroCoef>
-5.4800

> <Gold.Chemscore.Hbond>
1.7984

> <Gold.Chemscore.Metal>
0.0000

> <Gold.Chemscore.Lipo>
103.3600

> <Gold.Chemscore.Internal_Hbond>
0.0000

> <Gold.Chemscore.DEClash>
0.0402

> <Gold.Chemscore.DEInternal>
1.3574

> <Gold.Chemscore.Rot>
1.9732

> <Gold.Chemscore.Internal.Correction>
   9.000000E+99

> <Gold.Chemscore.Hbonds>
donor molecule, donor type, donor heavy atom, donor atom, acceptor molecule, acceptor atom, score
      L1  H    10    41       P1  8028  1.00
      L1  H    16    42       P1  7949  0.69

> <Gold.Chemscore.Hbond.Weighted>
-6.0066

> <Gold.Chemscore.Metal.Weighted>
-0.0000

> <Gold.Chemscore.Lipo.Weighted>
-12.0931

> <Gold.Chemscore.Internal_Hbond.Weighted>
0.0000

> <Gold.Chemscore.DEClash.Weighted>
0.0402

> <Gold.Chemscore.DEInternal.Weighted>
1.3574

> <Gold.Chemscore.Rot.Weighted>
5.0514

> <Gold.Chemscore.Internal.Correction.Weighted>
   9.000000E+99

> <Gold.Protein.RotatedTorsions>
[ 6907 6896 6895 6894 ] final  114.40 input  -60.11 | X-H torsion
[ 7974 7965 7964 7962 ] final -156.89 input  175.53 | X-H torsion
[ 8008 7997 7996 7995 ] final   31.76 input   59.86 | X-H torsion
[ 10167 10162 10161 10158 ] final  132.70 input  -65.29 | X-H torsion
[ 10718 10713 10712 10709 ] final  -34.16 input   66.30 | X-H torsion
[ 10763 10752 10751 10750 ] final  122.36 input  -60.55 | X-H torsion
[ 11005 11000 10999 10996 ] final  -62.95 input  -57.11 | X-H torsion

> <Gold.Protein.ActiveResidues>
 VAL166  LYS551  ARG553  GLY616  TRP617  ASP618  TYR619  PRO620  LYS621  CYS622 
 ASP623  PHE694  ASN695  SER759  ASP760  ASP761  ALA762  ILE779  LEU786  VAL792 
 PHE793  MET794  SER795  GLU796  ALA797  LYS798  CYS799  TRP800  GLU811  SER814 

> <Gold.Protein.RotatedAtoms>
  152.4804  133.8241  159.7068 H   0  0  0  0  0  0  0  0  0  0  0  0  # atno 6907 bound_to 6896
  150.8850  133.7310  159.2927 H   0  0  0  0  0  0  0  0  0  0  0  0  # atno 6908 bound_to 6896
  151.4802  135.1055  159.9827 H   0  0  0  0  0  0  0  0  0  0  0  0  # atno 6909 bound_to 6896
  144.7573  140.4046  143.6003 H   0  0  0  0  0  0  0  0  0  0  0  0  # atno 7974 bound_to 7965
  155.1116  140.3239  155.4520 H   0  0  0  0  0  0  0  0  0  0  0  0  # atno 8008 bound_to 7997
  156.2689  140.2043  156.6187 H   0  0  0  0  0  0  0  0  0  0  0  0  # atno 8009 bound_to 7997
  154.6752  140.0532  157.0195 H   0  0  0  0  0  0  0  0  0  0  0  0  # atno 8010 bound_to 7997
  139.5328  144.6650  151.4889 H   0  0  0  0  0  0  0  0  0  0  0  0  # atno 10167 bound_to 10162
  156.3540  130.4313  149.7680 H   0  0  0  0  0  0  0  0  0  0  0  0  # atno 10718 bound_to 10713
  153.6285  135.3400  155.3034 H   0  0  0  0  0  0  0  0  0  0  0  0  # atno 10763 bound_to 10752
  154.8585  135.4290  154.2131 H   0  0  0  0  0  0  0  0  0  0  0  0  # atno 10764 bound_to 10752
  153.3021  135.7025  153.7266 H   0  0  0  0  0  0  0  0  0  0  0  0  # atno 10765 bound_to 10752
  141.1377  133.6646  156.5606 H   0  0  0  0  0  0  0  0  0  0  0  0  # atno 11005 bound_to 11000
  145.6738  139.1604  143.2740 LP  0  0  0  0  0  0  0  0  0  0  0  0  # atno 17320 bound_to 7965
  146.1597  140.6806  142.9283 LP  0  0  0  0  0  0  0  0  0  0  0  0  # atno 17321 bound_to 7965
  140.6517  143.8682  150.6793 LP  0  0  0  0  0  0  0  0  0  0  0  0  # atno 17342 bound_to 10162
  140.2049  143.3929  152.1763 LP  0  0  0  0  0  0  0  0  0  0  0  0  # atno 17343 bound_to 10162
  156.4870  130.8067  151.3079 LP  0  0  0  0  0  0  0  0  0  0  0  0  # atno 17370 bound_to 10713
  157.7465  130.9987  150.2864 LP  0  0  0  0  0  0  0  0  0  0  0  0  # atno 17371 bound_to 10713
  140.3991  134.7372  157.4769 LP  0  0  0  0  0  0  0  0  0  0  0  0  # atno 17394 bound_to 11000
  140.0509  134.6132  155.8863 LP  0  0  0  0  0  0  0  0  0  0  0  0  # atno 17395 bound_to 11000

$$$$
