AV-unprocessed.smi:1680|AV-procd|sdf|6737|dock8
  -GOLD-   22720 7483D 1   1.00000     0.00000
 Structure written by MMmdl.
 38 39  0  0  0  0  0  0  0  0  1 V2000
  151.5956  140.7452  159.2070 C   0  0  0  0  0  0  0  0  0  0  0  0
  151.9900  139.7700  158.0959 C   0  0  0  0  0  0  0  0  0  0  0  0
  152.3999  138.6560  158.4227 O   0  0  0  0  0  0  0  0  0  0  0  0
  151.8786  140.1596  156.8037 N   0  0  0  0  0  0  0  0  0  0  0  0
  151.3391  141.4397  156.3341 C   0  0  0  0  0  0  0  0  0  0  0  0
  150.0527  141.1727  155.5288 C   0  0  0  0  0  0  0  0  0  0  0  0
  150.3424  140.2969  154.3901 N   0  0  0  0  0  0  0  0  0  0  0  0
  149.1211  140.0860  153.6126 C   0  0  0  0  0  0  0  0  0  0  0  0
  148.0791  139.2149  154.3452 C   0  0  0  0  0  0  0  0  0  0  0  0
  147.6581  138.0773  153.5328 N   0  0  0  0  0  0  0  0  0  0  0  0
  146.4155  137.5742  153.4880 C   0  0  0  0  0  0  0  0  0  0  0  0
  145.4657  138.0495  154.1111 O   0  0  0  0  0  0  0  0  0  0  0  0
  146.3572  136.4962  152.6862 N   0  0  0  0  0  0  0  0  0  0  0  0
  145.2408  135.6627  152.4125 C   0  0  0  0  0  0  0  0  0  0  0  0
  144.2988  135.3575  153.3187 N   0  0  0  0  0  0  0  0  0  0  0  0
  143.3224  134.5219  152.7922 N   0  0  0  0  0  0  0  0  0  0  0  0
  143.5666  134.2291  151.5118 C   0  0  0  0  0  0  0  0  0  0  0  0
  145.0110  134.9492  150.8225 S   0  0  0  0  0  0  0  0  0  0  0  0
  150.9044  139.0266  154.8655 C   0  0  0  0  0  0  0  0  0  0  0  0
  152.1928  139.2862  155.6695 C   0  0  0  0  0  0  0  0  0  0  0  0
  150.5428  141.0172  159.1265 H   0  0  0  0  0  0  0  0  0  0  0  0
  152.2022  141.6501  159.1604 H   0  0  0  0  0  0  0  0  0  0  0  0
  151.7481  140.2928  160.1875 H   0  0  0  0  0  0  0  0  0  0  0  0
  151.1218  142.1425  157.1368 H   0  0  0  0  0  0  0  0  0  0  0  0
  152.0818  141.9325  155.7042 H   0  0  0  0  0  0  0  0  0  0  0  0
  149.2915  140.7216  156.1678 H   0  0  0  0  0  0  0  0  0  0  0  0
  149.6501  142.1199  155.1677 H   0  0  0  0  0  0  0  0  0  0  0  0
  148.6862  141.0493  153.3423 H   0  0  0  0  0  0  0  0  0  0  0  0
  149.3748  139.5896  152.6747 H   0  0  0  0  0  0  0  0  0  0  0  0
  148.4274  138.8968  155.3282 H   0  0  0  0  0  0  0  0  0  0  0  0
  147.1916  139.8188  154.5342 H   0  0  0  0  0  0  0  0  0  0  0  0
  148.3744  137.6232  152.9854 H   0  0  0  0  0  0  0  0  0  0  0  0
  147.2188  136.2263  152.2353 H   0  0  0  0  0  0  0  0  0  0  0  0
  142.8905  133.5851  150.9691 H   0  0  0  0  0  0  0  0  0  0  0  0
  150.1746  138.4996  155.4822 H   0  0  0  0  0  0  0  0  0  0  0  0
  151.1419  138.3764  154.0247 H   0  0  0  0  0  0  0  0  0  0  0  0
  152.9425  139.7655  155.0379 H   0  0  0  0  0  0  0  0  0  0  0  0
  152.6260  138.3340  155.9785 H   0  0  0  0  0  0  0  0  0  0  0  0
  1  2  1  0  0  0  0
  1 21  1  0  0  0  0
  1 22  1  0  0  0  0
  1 23  1  0  0  0  0
  2  3  2  0  0  0  0
  2  4  1  0  0  0  0
  4 20  1  0  0  0  0
  4  5  1  0  0  0  0
  5  6  1  0  0  0  0
  5 24  1  0  0  0  0
  5 25  1  0  0  0  0
  6  7  1  0  0  0  0
  6 26  1  0  0  0  0
  6 27  1  0  0  0  0
  7  8  1  0  0  0  0
  7 19  1  0  0  0  0
  8  9  1  0  0  0  0
  8 28  1  0  0  0  0
  8 29  1  0  0  0  0
  9 10  1  0  0  0  0
  9 30  1  0  0  0  0
  9 31  1  0  0  0  0
 10 11  1  0  0  0  0
 10 32  1  0  0  0  0
 11 12  2  0  0  0  0
 11 13  1  0  0  0  0
 13 14  1  0  0  0  0
 13 33  1  0  0  0  0
 14 18  1  0  0  0  0
 14 15  2  0  0  0  0
 15 16  1  0  0  0  0
 16 17  2  0  0  0  0
 17 18  1  0  0  0  0
 17 34  1  0  0  0  0
 19 20  1  0  0  0  0
 19 35  1  0  0  0  0
 19 36  1  0  0  0  0
 20 37  1  0  0  0  0
 20 38  1  0  0  0  0
M  END
> <s_m_source_file>
AV-unprocessed.smi

> <i_m_source_file_index>
1680

> <i_lp_mmshare_version>
43012

> <i_f3d_flags>
0

> <s_epik_input>
W0NIM11DKD1PKU4xW0NIMl1bQ0gyXU4oW0NIMl1bQ0gyXTEpW0NIMl1bQ0gyXVtOSF1DKD1PKVtOSF1jMm5uW2NIXXMy

> <s_epik_cmdline>
J2VwaWtfcHl0aG9uJywgJy1waCcsICc3LjAnLCAnLXRuJywgJzgnLCAnLW1hJywgJzIwMCcsICctbWV0YWxfYmluZGluZycsICctaW1hZScsICc8aW5maWxlLm1hZT4nLCAnLW9tYWUnLCAnPG91dGZpbGUubWFlPic=

> <r_lp_tautomer_probability>
1

> <r_epik_Ionization_Penalty>
0.229992

> <r_epik_Ionization_Penalty_Charging>
0

> <r_epik_Ionization_Penalty_Neutral>
0.229992

> <r_epik_State_Penalty>
0.219013

> <r_epik_Charging_Adjusted_Penalty>
0.219013

> <i_epik_Tot_Q>
0

> <i_epik_Tot_abs_Q>
0

> <r_epik_Metal_State_Penalty>
0.556868

> <b_epik_Metal_Only>
0

> <s_lp_Force_Field>
OPLS_2005

> <r_lp_Energy>
36.5244

> <b_lp_Chiralities_Consistent>
1

> <s_lp_Variant>
AV-unprocessed.smi:1680-1

> <Gold.Version>
5.8.1

> <Gold.Id.Protein>
6NUR|6NUR_protein|mol2

> <Gold.PLP.Fitness>
37.4683

> <Gold.PLP.PLP>
-27.4818

> <Gold.PLP.part.hbond>
-3.0000

> <Gold.PLP.part.metal>
0.0000

> <Gold.PLP.part.buried>
-1.1058

> <Gold.PLP.part.nonpolar>
-24.0662

> <Gold.PLP.part.repulsive>
0.4736

> <Gold.PLP.ligand.clash>
0.0000

> <Gold.PLP.ligand.torsion>
0.8255

> <Gold.PLP.Chemscore.Hbond>
3.0000

> <Gold.PLP.Chemscore.CHOScore>
0.8732

> <Gold.PLP.Chemscore.Metal>
0.0000

> <Gold.Chemscore.Hbonds>
donor molecule, donor type, donor heavy atom, donor atom, acceptor molecule, acceptor atom, score
      L1  H    10    32       P1  7948  1.00
      L1  H    13    33       P1  7948  1.00
      P1  H  7989  7998       L1     7  1.00
      L1  C    17    34       P1 10186  0.87

> <Gold.PLP.Chemscore.Internal.Correction>
0.0179

> <Gold.Rescore>
     Score         DG    S(hbond)    S(metal)    S(lipo)     H(rot)  DE(clash)    DE(int)     intcor
     11.84     -15.35       2.26        0.00      59.06       1.79       1.73       1.77       ----

> <Gold.Chemscore.Fitness>
11.8433

> <Gold.Chemscore.DG>
-15.3455

> <Gold.Chemscore.ZeroCoef>
-5.4800

> <Gold.Chemscore.Hbond>
2.2587

> <Gold.Chemscore.Metal>
0.0000

> <Gold.Chemscore.Lipo>
59.0637

> <Gold.Chemscore.Internal_Hbond>
0.0000

> <Gold.Chemscore.DEClash>
1.7308

> <Gold.Chemscore.DEInternal>
1.7715

> <Gold.Chemscore.Rot>
1.7926

> <Gold.Chemscore.Internal.Correction>
   9.000000E+99

> <Gold.Chemscore.Hbonds>
donor molecule, donor type, donor heavy atom, donor atom, acceptor molecule, acceptor atom, score
      L1  H    10    32       P1  7948  0.96
      L1  H    13    33       P1  7948  0.99
      P1  H  7989  7998       L1     7  0.19

> <Gold.Chemscore.Hbond.Weighted>
-7.5441

> <Gold.Chemscore.Metal.Weighted>
-0.0000

> <Gold.Chemscore.Lipo.Weighted>
-6.9105

> <Gold.Chemscore.Internal_Hbond.Weighted>
0.0000

> <Gold.Chemscore.DEClash.Weighted>
1.7308

> <Gold.Chemscore.DEInternal.Weighted>
1.7715

> <Gold.Chemscore.Rot.Weighted>
4.5890

> <Gold.Chemscore.Internal.Correction.Weighted>
   9.000000E+99

> <Gold.Protein.RotatedTorsions>
[ 6907 6896 6895 6894 ] final   14.39 input  -60.11 | X-H torsion
[ 7974 7965 7964 7962 ] final  -48.73 input  175.53 | X-H torsion
[ 8008 7997 7996 7995 ] final  -82.23 input   59.86 | X-H torsion
[ 10167 10162 10161 10158 ] final -104.04 input  -65.29 | X-H torsion
[ 10718 10713 10712 10709 ] final   89.65 input   66.30 | X-H torsion
[ 10763 10752 10751 10750 ] final   61.21 input  -60.55 | X-H torsion
[ 11005 11000 10999 10996 ] final  172.41 input  -57.11 | X-H torsion

> <Gold.Protein.ActiveResidues>
 VAL166  LYS551  ARG553  GLY616  TRP617  ASP618  TYR619  PRO620  LYS621  CYS622 
 ASP623  PHE694  ASN695  SER759  ASP760  ASP761  ALA762  ILE779  LEU786  VAL792 
 PHE793  MET794  SER795  GLU796  ALA797  LYS798  CYS799  TRP800  GLU811  SER814 

> <Gold.Protein.RotatedAtoms>
  151.8015  135.0707  160.0400 H   0  0  0  0  0  0  0  0  0  0  0  0  # atno 6907 bound_to 6896
  152.3085  133.5724  159.5673 H   0  0  0  0  0  0  0  0  0  0  0  0  # atno 6908 bound_to 6896
  150.7308  134.0103  159.3709 H   0  0  0  0  0  0  0  0  0  0  0  0  # atno 6909 bound_to 6896
  145.9480  140.7599  142.9519 H   0  0  0  0  0  0  0  0  0  0  0  0  # atno 7974 bound_to 7965
  154.6065  140.0636  156.9438 H   0  0  0  0  0  0  0  0  0  0  0  0  # atno 8008 bound_to 7997
  155.2044  140.3317  155.4320 H   0  0  0  0  0  0  0  0  0  0  0  0  # atno 8009 bound_to 7997
  156.2351  140.1859  156.7125 H   0  0  0  0  0  0  0  0  0  0  0  0  # atno 8010 bound_to 7997
  140.2135  143.3729  152.1030 H   0  0  0  0  0  0  0  0  0  0  0  0  # atno 10167 bound_to 10162
  157.6956  131.0341  150.3458 H   0  0  0  0  0  0  0  0  0  0  0  0  # atno 10718 bound_to 10713
  152.9944  135.5509  154.5998 H   0  0  0  0  0  0  0  0  0  0  0  0  # atno 10763 bound_to 10752
  154.5341  135.2815  155.1156 H   0  0  0  0  0  0  0  0  0  0  0  0  # atno 10764 bound_to 10752
  154.2459  135.6408  153.5276 H   0  0  0  0  0  0  0  0  0  0  0  0  # atno 10765 bound_to 10752
  140.3294  134.7370  157.4123 H   0  0  0  0  0  0  0  0  0  0  0  0  # atno 11005 bound_to 11000
  144.6790  140.2388  143.7346 LP  0  0  0  0  0  0  0  0  0  0  0  0  # atno 17320 bound_to 7965
  145.8210  139.2043  143.1938 LP  0  0  0  0  0  0  0  0  0  0  0  0  # atno 17321 bound_to 7965
  139.5171  144.6987  151.5557 LP  0  0  0  0  0  0  0  0  0  0  0  0  # atno 17342 bound_to 10162
  140.6306  143.9083  150.6602 LP  0  0  0  0  0  0  0  0  0  0  0  0  # atno 17343 bound_to 10162
  156.3913  130.3898  149.7028 LP  0  0  0  0  0  0  0  0  0  0  0  0  # atno 17370 bound_to 10713
  156.4377  130.7846  151.2866 LP  0  0  0  0  0  0  0  0  0  0  0  0  # atno 17371 bound_to 10713
  140.0873  134.5648  155.8479 LP  0  0  0  0  0  0  0  0  0  0  0  0  # atno 17394 bound_to 11000
  141.2067  133.6657  156.6259 LP  0  0  0  0  0  0  0  0  0  0  0  0  # atno 17395 bound_to 11000

$$$$
