AV-unprocessed.smi:697|AV-procd|sdf|3391|dock6
  -GOLD-   22720 0373D 1   1.00000     0.00000
 Structure written by MMmdl.
 44 45  0  0  0  0  0  0  0  0  1 V2000
  142.8536  132.7034  150.7866 C   0  0  0  0  0  0  0  0  0  0  0  0
  143.9257  132.8168  151.7144 O   0  0  0  0  0  0  0  0  0  0  0  0
  145.2168  133.1559  151.1899 C   0  0  1  0  0  0  0  0  0  0  0  0
  145.6496  132.1401  150.1248 C   0  0  0  0  0  0  0  0  0  0  0  0
  145.2811  134.6616  150.8691 C   0  0  0  0  0  0  0  0  0  0  0  0
  145.6001  134.8873  152.3457 C   0  0  2  0  0  0  0  0  0  0  0  0
  146.5776  135.9504  152.5534 N   0  0  0  0  0  0  0  0  0  0  0  0
  146.3406  137.0723  153.2461 C   0  0  0  0  0  0  0  0  0  0  0  0
  145.2536  137.3253  153.7649 O   0  0  0  0  0  0  0  0  0  0  0  0
  147.4354  137.8543  153.2800 N   0  0  0  0  0  0  0  0  0  0  0  0
  147.6354  139.0867  153.9252 C   0  0  0  0  0  0  0  0  0  0  0  0
  146.6466  139.9338  154.3147 C   0  0  0  0  0  0  0  0  0  0  0  0
  146.9279  141.1906  154.9885 C   0  0  0  0  0  0  0  0  0  0  0  0
  145.8182  142.1680  155.3437 C   0  0  0  0  0  0  0  0  0  0  0  0
  144.6224  141.5792  155.3042 F   0  0  0  0  0  0  0  0  0  0  0  0
  145.9971  142.6704  156.5657 F   0  0  0  0  0  0  0  0  0  0  0  0
  145.8117  143.1796  154.4769 F   0  0  0  0  0  0  0  0  0  0  0  0
  148.2245  141.4798  155.2032 C   0  0  0  0  0  0  0  0  0  0  0  0
  149.2454  140.6044  154.8272 N   0  0  0  0  0  0  0  0  0  0  0  0
  149.0420  139.4230  154.2023 C   0  0  0  0  0  0  0  0  0  0  0  0
  149.9971  138.7067  153.9037 O   0  0  0  0  0  0  0  0  0  0  0  0
  146.1765  133.4482  152.3898 C   0  0  0  0  0  0  0  0  0  0  0  0
  145.9195  132.6619  153.6801 C   0  0  0  0  0  0  0  0  0  0  0  0
  147.6823  133.2955  152.1012 C   0  0  0  0  0  0  0  0  0  0  0  0
  150.1921  140.8846  155.0398 H   0  0  0  0  0  0  0  0  0  0  0  0
  141.9177  132.6053  151.3359 H   0  0  0  0  0  0  0  0  0  0  0  0
  142.9548  131.8150  150.1637 H   0  0  0  0  0  0  0  0  0  0  0  0
  142.7679  133.5763  150.1405 H   0  0  0  0  0  0  0  0  0  0  0  0
  146.6691  132.3184  149.7848 H   0  0  0  0  0  0  0  0  0  0  0  0
  145.0227  132.1890  149.2348 H   0  0  0  0  0  0  0  0  0  0  0  0
  145.6072  131.1213  150.5102 H   0  0  0  0  0  0  0  0  0  0  0  0
  146.1046  134.9174  150.2000 H   0  0  0  0  0  0  0  0  0  0  0  0
  144.3516  135.1229  150.5371 H   0  0  0  0  0  0  0  0  0  0  0  0
  144.6908  135.0005  152.9409 H   0  0  0  0  0  0  0  0  0  0  0  0
  147.4938  135.8176  152.1511 H   0  0  0  0  0  0  0  0  0  0  0  0
  148.2314  137.5278  152.7516 H   0  0  0  0  0  0  0  0  0  0  0  0
  145.6091  139.6929  154.1532 H   0  0  0  0  0  0  0  0  0  0  0  0
  148.5766  142.3902  155.6654 H   0  0  0  0  0  0  0  0  0  0  0  0
  146.5867  132.9775  154.4828 H   0  0  0  0  0  0  0  0  0  0  0  0
  146.0659  131.5919  153.5303 H   0  0  0  0  0  0  0  0  0  0  0  0
  144.9031  132.8022  154.0484 H   0  0  0  0  0  0  0  0  0  0  0  0
  148.2911  133.6797  152.9204 H   0  0  0  0  0  0  0  0  0  0  0  0
  147.9861  133.8309  151.2018 H   0  0  0  0  0  0  0  0  0  0  0  0
  147.9576  132.2497  151.9608 H   0  0  0  0  0  0  0  0  0  0  0  0
  1  2  1  0  0  0  0
  1 26  1  0  0  0  0
  1 27  1  0  0  0  0
  1 28  1  0  0  0  0
  2  3  1  0  0  0  0
  3 22  1  0  0  0  0
  3  4  1  0  0  0  0
  3  5  1  0  0  0  0
  4 29  1  0  0  0  0
  4 30  1  0  0  0  0
  4 31  1  0  0  0  0
  5  6  1  0  0  0  0
  5 32  1  0  0  0  0
  5 33  1  0  0  0  0
  6  7  1  0  0  0  0
  6 22  1  0  0  0  0
  6 34  1  0  0  0  0
  7  8  1  0  0  0  0
  7 35  1  0  0  0  0
  8  9  2  0  0  0  0
  8 10  1  0  0  0  0
 10 11  1  0  0  0  0
 10 36  1  0  0  0  0
 11 20  1  0  0  0  0
 11 12  2  0  0  0  0
 12 13  1  0  0  0  0
 12 37  1  0  0  0  0
 13 14  1  0  0  0  0
 13 18  2  0  0  0  0
 14 15  1  0  0  0  0
 14 16  1  0  0  0  0
 14 17  1  0  0  0  0
 18 19  1  0  0  0  0
 18 38  1  0  0  0  0
 19 25  1  0  0  0  0
 19 20  1  0  0  0  0
 20 21  2  0  0  0  0
 22 23  1  0  0  0  0
 22 24  1  0  0  0  0
 23 39  1  0  0  0  0
 23 40  1  0  0  0  0
 23 41  1  0  0  0  0
 24 42  1  0  0  0  0
 24 43  1  0  0  0  0
 24 44  1  0  0  0  0
M  END
> <s_m_source_file>
AV-unprocessed.smi

> <i_m_source_file_index>
697

> <i_lp_mmshare_version>
43012

> <i_f3d_flags>
0

> <s_epik_input>
W0NIM11PW0NAQF0xKFtDSDNdKVtDSDJdW0NASF0oQzEoW0NIM10pW0NIM10pW05IXUMoPU8pW05IXWMyW2NIXWMoQyhGKShGKUYpW2NIXVtuSF1jMj1P

> <s_epik_cmdline>
J2VwaWtfcHl0aG9uJywgJy1waCcsICc3LjAnLCAnLXRuJywgJzgnLCAnLW1hJywgJzIwMCcsICctbWV0YWxfYmluZGluZycsICctaW1hZScsICc8aW5maWxlLm1hZT4nLCAnLW9tYWUnLCAnPG91dGZpbGUubWFlPic=

> <r_lp_tautomer_probability>
1

> <r_epik_Ionization_Penalty>
0.0036482

> <r_epik_Ionization_Penalty_Charging>
0.00362828

> <r_epik_Ionization_Penalty_Neutral>
1.99208e-05

> <r_epik_State_Penalty>
-0

> <r_epik_Charging_Adjusted_Penalty>
0.00362828

> <i_epik_Tot_Q>
0

> <i_epik_Tot_abs_Q>
0

> <r_epik_Metal_State_Penalty>
0.369362

> <b_epik_Metal_Only>
0

> <s_lp_Force_Field>
OPLS_2005

> <r_lp_Energy>
34.6264

> <b_lp_Chiralities_Consistent>
1

> <s_lp_Variant>
AV-unprocessed.smi:697-3

> <Gold.Version>
5.8.1

> <Gold.Id.Protein>
6NUR|6NUR_protein|mol2

> <Gold.PLP.Fitness>
37.6534

> <Gold.PLP.PLP>
-30.1837

> <Gold.PLP.part.hbond>
-1.8232

> <Gold.PLP.part.metal>
0.0000

> <Gold.PLP.part.buried>
-1.1231

> <Gold.PLP.part.nonpolar>
-28.9220

> <Gold.PLP.part.repulsive>
1.1421

> <Gold.PLP.ligand.clash>
0.0000

> <Gold.PLP.ligand.torsion>
0.9247

> <Gold.PLP.Chemscore.Hbond>
1.9673

> <Gold.PLP.Chemscore.CHOScore>
1.0000

> <Gold.PLP.Chemscore.Metal>
0.0000

> <Gold.Chemscore.Hbonds>
donor molecule, donor type, donor heavy atom, donor atom, acceptor molecule, acceptor atom, score
      L1  H     7    35       P1  7948  0.98
      L1  H    10    36       P1  7948  0.96
      L1  C    18    38       P1  8028  1.00

> <Gold.PLP.Chemscore.Internal.Correction>
0.4174

> <Gold.Rescore>
     Score         DG    S(hbond)    S(metal)    S(lipo)     H(rot)  DE(clash)    DE(int)     intcor
     14.04     -16.47       1.91        0.00      67.89       1.31       0.31       2.12       ----

> <Gold.Chemscore.Fitness>
14.0387

> <Gold.Chemscore.DG>
-16.4686

> <Gold.Chemscore.ZeroCoef>
-5.4800

> <Gold.Chemscore.Hbond>
1.9131

> <Gold.Chemscore.Metal>
0.0000

> <Gold.Chemscore.Lipo>
67.8867

> <Gold.Chemscore.Internal_Hbond>
0.0000

> <Gold.Chemscore.DEClash>
0.3060

> <Gold.Chemscore.DEInternal>
2.1238

> <Gold.Chemscore.Rot>
1.3062

> <Gold.Chemscore.Internal.Correction>
   9.000000E+99

> <Gold.Chemscore.Hbonds>
donor molecule, donor type, donor heavy atom, donor atom, acceptor molecule, acceptor atom, score
      L1  H     7    35       P1  7948  0.91
      L1  H    10    36       P1  7948  0.92

> <Gold.Chemscore.Hbond.Weighted>
-6.3898

> <Gold.Chemscore.Metal.Weighted>
-0.0000

> <Gold.Chemscore.Lipo.Weighted>
-7.9427

> <Gold.Chemscore.Internal_Hbond.Weighted>
0.0000

> <Gold.Chemscore.DEClash.Weighted>
0.3060

> <Gold.Chemscore.DEInternal.Weighted>
2.1238

> <Gold.Chemscore.Rot.Weighted>
3.3440

> <Gold.Chemscore.Internal.Correction.Weighted>
   9.000000E+99

> <Gold.Protein.RotatedTorsions>
[ 6907 6896 6895 6894 ] final -138.61 input  -60.11 | X-H torsion
[ 7974 7965 7964 7962 ] final  -19.83 input  175.53 | X-H torsion
[ 8008 7997 7996 7995 ] final   24.38 input   59.86 | X-H torsion
[ 10167 10162 10161 10158 ] final  -92.75 input  -65.29 | X-H torsion
[ 10718 10713 10712 10709 ] final   79.76 input   66.30 | X-H torsion
[ 10763 10752 10751 10750 ] final   16.00 input  -60.55 | X-H torsion
[ 11005 11000 10999 10996 ] final   31.71 input  -57.11 | X-H torsion

> <Gold.Protein.ActiveResidues>
 VAL166  LYS551  ARG553  GLY616  TRP617  ASP618  TYR619  PRO620  LYS621  CYS622 
 ASP623  PHE694  ASN695  SER759  ASP760  ASP761  ALA762  ILE779  LEU786  VAL792 
 PHE793  MET794  SER795  GLU796  ALA797  LYS798  CYS799  TRP800  GLU811  SER814 

> <Gold.Protein.RotatedAtoms>
  151.0372  133.5738  159.2654 H   0  0  0  0  0  0  0  0  0  0  0  0  # atno 6907 bound_to 6896
  151.2797  135.0709  159.9175 H   0  0  0  0  0  0  0  0  0  0  0  0  # atno 6908 bound_to 6896
  152.5357  134.0089  159.7983 H   0  0  0  0  0  0  0  0  0  0  0  0  # atno 6909 bound_to 6896
  146.1821  140.4117  142.8490 H   0  0  0  0  0  0  0  0  0  0  0  0  # atno 7974 bound_to 7965
  154.9955  140.3119  155.4889 H   0  0  0  0  0  0  0  0  0  0  0  0  # atno 8008 bound_to 7997
  156.2933  140.2241  156.5002 H   0  0  0  0  0  0  0  0  0  0  0  0  # atno 8009 bound_to 7997
  154.7665  140.0455  157.1005 H   0  0  0  0  0  0  0  0  0  0  0  0  # atno 8010 bound_to 7997
  140.3316  143.2991  151.9935 H   0  0  0  0  0  0  0  0  0  0  0  0  # atno 10167 bound_to 10162
  157.6786  130.9929  150.1979 H   0  0  0  0  0  0  0  0  0  0  0  0  # atno 10718 bound_to 10713
  153.1472  135.6771  153.8937 H   0  0  0  0  0  0  0  0  0  0  0  0  # atno 10763 bound_to 10752
  153.8375  135.3109  155.3425 H   0  0  0  0  0  0  0  0  0  0  0  0  # atno 10764 bound_to 10752
  154.7834  135.4875  153.9979 H   0  0  0  0  0  0  0  0  0  0  0  0  # atno 10765 bound_to 10752
  140.2811  134.2972  155.7800 H   0  0  0  0  0  0  0  0  0  0  0  0  # atno 11005 bound_to 11000
  144.8332  140.6741  143.6277 LP  0  0  0  0  0  0  0  0  0  0  0  0  # atno 17320 bound_to 7965
  145.4047  139.1591  143.4158 LP  0  0  0  0  0  0  0  0  0  0  0  0  # atno 17321 bound_to 7965
  139.4855  144.6230  151.7219 LP  0  0  0  0  0  0  0  0  0  0  0  0  # atno 17342 bound_to 10162
  140.5391  144.0607  150.6081 LP  0  0  0  0  0  0  0  0  0  0  0  0  # atno 17343 bound_to 10162
  156.2676  130.3718  149.8064 LP  0  0  0  0  0  0  0  0  0  0  0  0  # atno 17370 bound_to 10713
  156.5791  130.8458  151.3378 LP  0  0  0  0  0  0  0  0  0  0  0  0  # atno 17371 bound_to 10713
  141.2162  133.7526  156.9481 LP  0  0  0  0  0  0  0  0  0  0  0  0  # atno 17394 bound_to 11000
  140.1283  134.9373  157.2301 LP  0  0  0  0  0  0  0  0  0  0  0  0  # atno 17395 bound_to 11000

$$$$
