AV-unprocessed.smi:344|AV-procd|sdf|2389|dock5
  -GOLD-   2262022313D 1   1.00000     0.00000
 Structure written by MMmdl.
 38 39  0  0  0  0  0  0  0  0  1 V2000
  143.6521  141.3809  155.4385 N   0  0  0  0  0  0  0  0  0  0  0  0
  144.3879  142.4168  155.8502 C   0  0  0  0  0  0  0  0  0  0  0  0
  144.1557  143.0060  156.9040 O   0  0  0  0  0  0  0  0  0  0  0  0
  145.5468  142.8536  154.9496 C   0  0  0  0  0  0  0  0  0  0  0  0
  146.6111  141.7947  154.9065 C   0  0  0  0  0  0  0  0  0  0  0  0
  146.7711  140.8224  153.9481 C   0  0  0  0  0  0  0  0  0  0  0  0
  148.1395  139.7946  154.2790 S   0  0  0  0  0  0  0  0  0  0  0  0
  148.4531  140.7430  155.7238 C   0  0  0  0  0  0  0  0  0  0  0  0
  149.5418  140.4562  156.5883 N   0  0  0  0  0  0  0  0  0  0  0  0
  150.8173  140.1760  156.2617 C   0  0  0  0  0  0  0  0  0  0  0  0
  151.2493  140.1362  155.1087 O   0  0  0  0  0  0  0  0  0  0  0  0
  151.7444  139.8959  157.4501 C   0  0  0  0  0  0  0  0  0  0  0  0
  151.5798  140.8876  158.6189 C   0  0  0  0  0  0  0  0  0  0  0  0
  151.8724  142.3449  158.2197 C   0  0  0  0  0  0  0  0  0  0  0  0
  152.6513  143.1492  159.2665 C   0  0  0  0  0  0  0  0  0  0  0  0
  152.3495  144.6220  158.9617 C   0  0  0  0  0  0  0  0  0  0  0  0
  151.0923  144.6348  158.0797 C   0  0  0  0  0  0  0  0  0  0  0  0
  150.6103  143.1836  158.0087 C   0  0  0  0  0  0  0  0  0  0  0  0
  147.5823  141.7408  155.9119 N   0  0  0  0  0  0  0  0  0  0  0  0
  142.8762  141.0639  156.0019 H   0  0  0  0  0  0  0  0  0  0  0  0
  143.8694  140.9207  154.5667 H   0  0  0  0  0  0  0  0  0  0  0  0
  145.1822  143.0646  153.9432 H   0  0  0  0  0  0  0  0  0  0  0  0
  145.9481  143.7925  155.3330 H   0  0  0  0  0  0  0  0  0  0  0  0
  146.1651  140.6475  153.0718 H   0  0  0  0  0  0  0  0  0  0  0  0
  149.3252  140.4618  157.5742 H   0  0  0  0  0  0  0  0  0  0  0  0
  151.5557  138.8800  157.7991 H   0  0  0  0  0  0  0  0  0  0  0  0
  152.7742  139.9185  157.0917 H   0  0  0  0  0  0  0  0  0  0  0  0
  150.5581  140.8319  158.9976 H   0  0  0  0  0  0  0  0  0  0  0  0
  152.2285  140.5966  159.4466 H   0  0  0  0  0  0  0  0  0  0  0  0
  152.4399  142.3515  157.2876 H   0  0  0  0  0  0  0  0  0  0  0  0
  152.2890  142.9062  160.2663 H   0  0  0  0  0  0  0  0  0  0  0  0
  153.7204  142.9357  159.2447 H   0  0  0  0  0  0  0  0  0  0  0  0
  152.1995  145.1870  159.8821 H   0  0  0  0  0  0  0  0  0  0  0  0
  153.1824  145.0826  158.4294 H   0  0  0  0  0  0  0  0  0  0  0  0
  150.3211  145.2993  158.4704 H   0  0  0  0  0  0  0  0  0  0  0  0
  151.3508  144.9868  157.0801 H   0  0  0  0  0  0  0  0  0  0  0  0
  150.1091  142.9571  157.0670 H   0  0  0  0  0  0  0  0  0  0  0  0
  149.8995  142.9968  158.8152 H   0  0  0  0  0  0  0  0  0  0  0  0
  1  2  1  0  0  0  0
  1 20  1  0  0  0  0
  1 21  1  0  0  0  0
  2  3  2  0  0  0  0
  2  4  1  0  0  0  0
  4  5  1  0  0  0  0
  4 22  1  0  0  0  0
  4 23  1  0  0  0  0
  5 19  1  0  0  0  0
  5  6  2  0  0  0  0
  6  7  1  0  0  0  0
  6 24  1  0  0  0  0
  7  8  1  0  0  0  0
  8  9  1  0  0  0  0
  8 19  2  0  0  0  0
  9 10  1  0  0  0  0
  9 25  1  0  0  0  0
 10 11  2  0  0  0  0
 10 12  1  0  0  0  0
 12 13  1  0  0  0  0
 12 26  1  0  0  0  0
 12 27  1  0  0  0  0
 13 14  1  0  0  0  0
 13 28  1  0  0  0  0
 13 29  1  0  0  0  0
 14 18  1  0  0  0  0
 14 15  1  0  0  0  0
 14 30  1  0  0  0  0
 15 16  1  0  0  0  0
 15 31  1  0  0  0  0
 15 32  1  0  0  0  0
 16 17  1  0  0  0  0
 16 33  1  0  0  0  0
 16 34  1  0  0  0  0
 17 18  1  0  0  0  0
 17 35  1  0  0  0  0
 17 36  1  0  0  0  0
 18 37  1  0  0  0  0
 18 38  1  0  0  0  0
M  END
> <s_m_source_file>
AV-unprocessed.smi

> <i_m_source_file_index>
344

> <i_lp_mmshare_version>
43012

> <i_f3d_flags>
0

> <s_epik_input>
W05IMl1DKD1PKVtDSDJdYzFbY0hdc2MobjEpW05IXUMoPU8pW0NIMl1bQ0gyXVtDSF0yW0NIMl1bQ0gyXVtDSDJdW0NIMl0y

> <s_epik_cmdline>
J2VwaWtfcHl0aG9uJywgJy1waCcsICc3LjAnLCAnLXRuJywgJzgnLCAnLW1hJywgJzIwMCcsICctbWV0YWxfYmluZGluZycsICctaW1hZScsICc8aW5maWxlLm1hZT4nLCAnLW9tYWUnLCAnPG91dGZpbGUubWFlPic=

> <r_lp_tautomer_probability>
1

> <r_epik_Ionization_Penalty>
0.000156249

> <r_epik_Ionization_Penalty_Charging>
0

> <r_epik_Ionization_Penalty_Neutral>
0.000156249

> <r_epik_State_Penalty>
-0

> <r_epik_Charging_Adjusted_Penalty>
0

> <i_epik_Tot_Q>
0

> <i_epik_Tot_abs_Q>
0

> <r_epik_Metal_State_Penalty>
0.0972404

> <b_epik_Metal_Only>
0

> <s_lp_Force_Field>
OPLS_2005

> <r_lp_Energy>
21.4861

> <b_lp_Chiralities_Consistent>
1

> <s_lp_Variant>
AV-unprocessed.smi:344-1

> <Gold.Version>
5.8.1

> <Gold.Id.Protein>
6NUR|6NUR_protein|mol2

> <Gold.PLP.Fitness>
41.4873

> <Gold.PLP.PLP>
-37.1122

> <Gold.PLP.part.hbond>
-2.6946

> <Gold.PLP.part.metal>
0.0000

> <Gold.PLP.part.buried>
-5.5402

> <Gold.PLP.part.nonpolar>
-30.7770

> <Gold.PLP.part.repulsive>
1.4236

> <Gold.PLP.ligand.clash>
0.0000

> <Gold.PLP.ligand.torsion>
1.5368

> <Gold.PLP.Chemscore.Hbond>
2.0000

> <Gold.PLP.Chemscore.CHOScore>
0.4694

> <Gold.PLP.Chemscore.Metal>
0.0000

> <Gold.Chemscore.Hbonds>
donor molecule, donor type, donor heavy atom, donor atom, acceptor molecule, acceptor atom, score
      L1  H     1    21       P1 10175  0.80
      P1  H  7989  7998       L1    11  1.00
      L1  C     6    24       P1 10175  0.95

> <Gold.PLP.Chemscore.Internal.Correction>
0.0404

> <Gold.Rescore>
     Score         DG    S(hbond)    S(metal)    S(lipo)     H(rot)  DE(clash)    DE(int)     intcor
     15.02     -16.59       1.92        0.00      93.56       2.44       0.05       1.53       ----

> <Gold.Chemscore.Fitness>
15.0165

> <Gold.Chemscore.DG>
-16.5941

> <Gold.Chemscore.ZeroCoef>
-5.4800

> <Gold.Chemscore.Hbond>
1.9204

> <Gold.Chemscore.Metal>
0.0000

> <Gold.Chemscore.Lipo>
93.5596

> <Gold.Chemscore.Internal_Hbond>
0.0000

> <Gold.Chemscore.DEClash>
0.0495

> <Gold.Chemscore.DEInternal>
1.5280

> <Gold.Chemscore.Rot>
2.4400

> <Gold.Chemscore.Internal.Correction>
   9.000000E+99

> <Gold.Chemscore.Hbonds>
donor molecule, donor type, donor heavy atom, donor atom, acceptor molecule, acceptor atom, score
      L1  H     1    21       P1 10175  0.71
      P1  H  7989  7998       L1    11  0.99

> <Gold.Chemscore.Hbond.Weighted>
-6.4141

> <Gold.Chemscore.Metal.Weighted>
-0.0000

> <Gold.Chemscore.Lipo.Weighted>
-10.9465

> <Gold.Chemscore.Internal_Hbond.Weighted>
0.0000

> <Gold.Chemscore.DEClash.Weighted>
0.0495

> <Gold.Chemscore.DEInternal.Weighted>
1.5280

> <Gold.Chemscore.Rot.Weighted>
6.2465

> <Gold.Chemscore.Internal.Correction.Weighted>
   9.000000E+99

> <Gold.Protein.RotatedTorsions>
[ 6907 6896 6895 6894 ] final   91.83 input  -60.11 | X-H torsion
[ 7974 7965 7964 7962 ] final  145.50 input  175.53 | X-H torsion
[ 8008 7997 7996 7995 ] final  154.47 input   59.86 | X-H torsion
[ 10167 10162 10161 10158 ] final  171.93 input  -65.29 | X-H torsion
[ 10718 10713 10712 10709 ] final   45.40 input   66.30 | X-H torsion
[ 10763 10752 10751 10750 ] final  106.66 input  -60.55 | X-H torsion
[ 11005 11000 10999 10996 ] final  -76.41 input  -57.11 | X-H torsion

> <Gold.Protein.ActiveResidues>
 VAL166  LYS551  ARG553  GLY616  TRP617  ASP618  TYR619  PRO620  LYS621  CYS622 
 ASP623  PHE694  ASN695  SER759  ASP760  ASP761  ALA762  ILE779  LEU786  VAL792 
 PHE793  MET794  SER795  GLU796  ALA797  LYS798  CYS799  TRP800  GLU811  SER814 

> <Gold.Protein.RotatedAtoms>
  152.5451  134.1595  159.8551 H   0  0  0  0  0  0  0  0  0  0  0  0  # atno 6907 bound_to 6896
  151.1615  133.4835  159.2601 H   0  0  0  0  0  0  0  0  0  0  0  0  # atno 6908 bound_to 6896
  151.1368  135.0170  159.8662 H   0  0  0  0  0  0  0  0  0  0  0  0  # atno 6909 bound_to 6896
  144.8747  139.5791  143.5870 H   0  0  0  0  0  0  0  0  0  0  0  0  # atno 7974 bound_to 7965
  156.2529  140.1965  156.6651 H   0  0  0  0  0  0  0  0  0  0  0  0  # atno 8008 bound_to 7997
  154.6435  140.0580  156.9898 H   0  0  0  0  0  0  0  0  0  0  0  0  # atno 8009 bound_to 7997
  155.1527  140.3253  155.4430 H   0  0  0  0  0  0  0  0  0  0  0  0  # atno 8010 bound_to 7997
  139.5061  144.3431  151.9998 H   0  0  0  0  0  0  0  0  0  0  0  0  # atno 10167 bound_to 10162
  157.4371  130.8059  149.7659 H   0  0  0  0  0  0  0  0  0  0  0  0  # atno 10718 bound_to 10713
  153.3960  135.3869  155.1956 H   0  0  0  0  0  0  0  0  0  0  0  0  # atno 10763 bound_to 10752
  154.8724  135.3760  154.4678 H   0  0  0  0  0  0  0  0  0  0  0  0  # atno 10764 bound_to 10752
  153.5169  135.7087  153.5813 H   0  0  0  0  0  0  0  0  0  0  0  0  # atno 10765 bound_to 10752
  141.1653  133.6982  156.7665 H   0  0  0  0  0  0  0  0  0  0  0  0  # atno 11005 bound_to 11000
  146.2954  139.7263  142.9130 LP  0  0  0  0  0  0  0  0  0  0  0  0  # atno 17320 bound_to 7965
  145.4065  141.0391  143.3041 LP  0  0  0  0  0  0  0  0  0  0  0  0  # atno 17321 bound_to 7965
  140.2869  144.3798  150.6101 LP  0  0  0  0  0  0  0  0  0  0  0  0  # atno 17342 bound_to 10162
  140.5976  143.2167  151.7134 LP  0  0  0  0  0  0  0  0  0  0  0  0  # atno 17343 bound_to 10162
  155.9935  130.3924  150.2899 LP  0  0  0  0  0  0  0  0  0  0  0  0  # atno 17370 bound_to 10713
  157.1061  131.0208  151.3066 LP  0  0  0  0  0  0  0  0  0  0  0  0  # atno 17371 bound_to 10713
  140.2496  134.8551  157.3654 LP  0  0  0  0  0  0  0  0  0  0  0  0  # atno 17394 bound_to 11000
  140.1716  134.4602  155.7828 LP  0  0  0  0  0  0  0  0  0  0  0  0  # atno 17395 bound_to 11000

$$$$
