AV-unprocessed.smi:2799|AV-procd|sdf|10789|dock8
  -GOLD-   2272015223D 1   1.00000     0.00000
 Structure written by MMmdl.
 52 53  0  0  0  0  0  0  0  0  2 V2000
  146.5919  131.6522  154.2684 C   0  0  0  0  0  0  0  0  0  0  0  0
  147.5747  132.0486  153.1542 C   0  0  0  0  0  0  0  0  0  0  0  0
  149.0027  132.1518  153.7106 C   0  0  0  0  0  0  0  0  0  0  0  0
  147.1615  133.3635  152.4636 C   0  0  0  0  0  0  0  0  0  0  0  0
  145.8504  133.2311  151.7643 N   0  3  2  0  0  0  0  0  0  0  0  0
  145.8826  132.0612  150.8416 C   0  0  0  0  0  0  0  0  0  0  0  0
  144.5280  131.8001  150.1785 C   0  0  0  0  0  0  0  0  0  0  0  0
  144.0954  133.0372  149.3976 C   0  0  0  0  0  0  0  0  0  0  0  0
  144.0218  134.2294  150.3523 C   0  0  0  0  0  0  0  0  0  0  0  0
  145.3464  134.4908  151.1204 C   0  0  1  0  0  0  0  0  0  0  0  0
  145.1188  135.6210  152.1658 C   0  0  0  0  0  0  0  0  0  0  0  0
  146.3060  136.4461  152.3789 N   0  0  0  0  0  0  0  0  0  0  0  0
  146.3432  137.5989  153.0634 C   0  0  0  0  0  0  0  0  0  0  0  0
  145.3483  138.1109  153.5756 O   0  0  0  0  0  0  0  0  0  0  0  0
  147.5964  138.0871  153.1111 N   0  0  0  0  0  0  0  0  0  0  0  0
  148.0728  139.2701  153.7033 C   0  0  0  0  0  0  0  0  0  0  0  0
  147.4458  140.4719  153.6417 C   0  0  0  0  0  0  0  0  0  0  0  0
  148.0135  141.6380  154.2748 C   0  0  0  0  0  0  0  0  0  0  0  0
  149.1842  141.5100  154.9143 C   0  0  0  0  0  0  0  0  0  0  0  0
  149.8583  140.2790  154.9787 N   0  0  0  0  0  0  0  0  0  0  0  0
  151.1318  140.2414  155.7023 C   0  0  0  0  0  0  0  0  0  0  0  0
  149.3643  139.1406  154.4069 C   0  0  0  0  0  0  0  0  0  0  0  0
  149.9745  138.0713  154.4834 O   0  0  0  0  0  0  0  0  0  0  0  0
  146.5339  132.4224  155.0382 H   0  0  0  0  0  0  0  0  0  0  0  0
  146.8994  130.7238  154.7505 H   0  0  0  0  0  0  0  0  0  0  0  0
  145.5864  131.4951  153.8779 H   0  0  0  0  0  0  0  0  0  0  0  0
  147.5766  131.2514  152.4097 H   0  0  0  0  0  0  0  0  0  0  0  0
  149.0777  132.9317  154.4694 H   0  0  0  0  0  0  0  0  0  0  0  0
  149.7179  132.3850  152.9214 H   0  0  0  0  0  0  0  0  0  0  0  0
  149.3161  131.2126  154.1676 H   0  0  0  0  0  0  0  0  0  0  0  0
  147.1746  134.1686  153.1933 H   0  0  0  0  0  0  0  0  0  0  0  0
  147.9284  133.6556  151.7441 H   0  0  0  0  0  0  0  0  0  0  0  0
  146.6377  132.2257  150.0708 H   0  0  0  0  0  0  0  0  0  0  0  0
  146.1859  131.1709  151.3936 H   0  0  0  0  0  0  0  0  0  0  0  0
  144.5985  130.9420  149.5094 H   0  0  0  0  0  0  0  0  0  0  0  0
  143.7817  131.5488  150.9335 H   0  0  0  0  0  0  0  0  0  0  0  0
  144.8032  133.2430  148.5936 H   0  0  0  0  0  0  0  0  0  0  0  0
  143.1255  132.8684  148.9289 H   0  0  0  0  0  0  0  0  0  0  0  0
  143.7359  135.1090  149.7753 H   0  0  0  0  0  0  0  0  0  0  0  0
  143.2148  134.0588  151.0667 H   0  0  0  0  0  0  0  0  0  0  0  0
  146.1014  134.8170  150.4030 H   0  0  0  0  0  0  0  0  0  0  0  0
  144.2662  136.2344  151.8698 H   0  0  0  0  0  0  0  0  0  0  0  0
  144.8687  135.2326  153.1497 H   0  0  0  0  0  0  0  0  0  0  0  0
  147.1730  136.1002  151.9936 H   0  0  0  0  0  0  0  0  0  0  0  0
  148.3154  137.5134  152.6943 H   0  0  0  0  0  0  0  0  0  0  0  0
  146.5174  140.6048  153.1109 H   0  0  0  0  0  0  0  0  0  0  0  0
  147.5056  142.5902  154.2361 H   0  0  0  0  0  0  0  0  0  0  0  0
  149.6720  142.3342  155.4143 H   0  0  0  0  0  0  0  0  0  0  0  0
  151.9217  139.8212  155.0777 H   0  0  0  0  0  0  0  0  0  0  0  0
  151.0413  139.6244  156.5974 H   0  0  0  0  0  0  0  0  0  0  0  0
  151.4656  141.2305  156.0180 H   0  0  0  0  0  0  0  0  0  0  0  0
  145.1721  133.0099  152.4793 H   0  0  0  0  0  0  0  0  0  0  0  0
  1  2  1  0  0  0  0
  1 24  1  0  0  0  0
  1 25  1  0  0  0  0
  1 26  1  0  0  0  0
  2  3  1  0  0  0  0
  2  4  1  0  0  0  0
  2 27  1  0  0  0  0
  3 28  1  0  0  0  0
  3 29  1  0  0  0  0
  3 30  1  0  0  0  0
  4  5  1  0  0  0  0
  4 31  1  0  0  0  0
  4 32  1  0  0  0  0
  5 10  1  0  0  0  0
  5  6  1  0  0  0  0
  5 52  1  0  0  0  0
  6  7  1  0  0  0  0
  6 33  1  0  0  0  0
  6 34  1  0  0  0  0
  7  8  1  0  0  0  0
  7 35  1  0  0  0  0
  7 36  1  0  0  0  0
  8  9  1  0  0  0  0
  8 37  1  0  0  0  0
  8 38  1  0  0  0  0
  9 10  1  0  0  0  0
  9 39  1  0  0  0  0
  9 40  1  0  0  0  0
 10 11  1  0  0  0  0
 10 41  1  0  0  0  0
 11 12  1  0  0  0  0
 11 42  1  0  0  0  0
 11 43  1  0  0  0  0
 12 13  1  0  0  0  0
 12 44  1  0  0  0  0
 13 14  2  0  0  0  0
 13 15  1  0  0  0  0
 15 16  1  0  0  0  0
 15 45  1  0  0  0  0
 16 22  1  0  0  0  0
 16 17  2  0  0  0  0
 17 18  1  0  0  0  0
 17 46  1  0  0  0  0
 18 19  2  0  0  0  0
 18 47  1  0  0  0  0
 19 20  1  0  0  0  0
 19 48  1  0  0  0  0
 20 21  1  0  0  0  0
 20 22  1  0  0  0  0
 21 49  1  0  0  0  0
 21 50  1  0  0  0  0
 21 51  1  0  0  0  0
 22 23  2  0  0  0  0
M  CHG  1   5   1
M  END
> <s_m_source_file>
AV-unprocessed.smi

> <i_m_source_file_index>
2799

> <i_lp_mmshare_version>
43012

> <i_f3d_flags>
0

> <s_epik_input>
W0NIM11bQ0hdKFtDSDNdKVtDSDJdTjFbQ0gyXVtDSDJdW0NIMl1bQ0gyXVtDQEhdMVtDSDJdW05IXUMoPU8pW05IXWMyW2NIXVtjSF1bY0hdbihbQ0gzXSljMj1P

> <s_epik_cmdline>
J2VwaWtfcHl0aG9uJywgJy1waCcsICc3LjAnLCAnLXRuJywgJzgnLCAnLW1hJywgJzIwMCcsICctbWV0YWxfYmluZGluZycsICctaW1hZScsICc8aW5maWxlLm1hZT4nLCAnLW9tYWUnLCAnPG91dGZpbGUubWFlPic=

> <r_lp_tautomer_probability>
1

> <r_epik_Ionization_Penalty>
0.0010885

> <r_epik_Ionization_Penalty_Charging>
0.00106921

> <r_epik_Ionization_Penalty_Neutral>
1.92865e-05

> <r_epik_State_Penalty>
0.000697184

> <r_epik_Charging_Adjusted_Penalty>
0.0017664

> <i_epik_Tot_Q>
1

> <i_epik_Tot_abs_Q>
1

> <r_epik_Metal_State_Penalty>
-0

> <b_epik_Metal_Only>
0

> <s_lp_Force_Field>
OPLS_2005

> <r_lp_Energy>
37.4199

> <b_lp_Chiralities_Consistent>
1

> <s_lp_Variant>
AV-unprocessed.smi:2799-1

> <Gold.Version>
5.8.1

> <Gold.Id.Protein>
6NUR|6NUR_protein|mol2

> <Gold.PLP.Fitness>
50.1298

> <Gold.PLP.PLP>
-42.6034

> <Gold.PLP.part.hbond>
-2.0000

> <Gold.PLP.part.metal>
0.0000

> <Gold.PLP.part.buried>
-0.8423

> <Gold.PLP.part.nonpolar>
-41.0669

> <Gold.PLP.part.repulsive>
1.3574

> <Gold.PLP.ligand.clash>
0.0000

> <Gold.PLP.ligand.torsion>
0.8046

> <Gold.PLP.Chemscore.Hbond>
2.0000

> <Gold.PLP.Chemscore.CHOScore>
1.0000

> <Gold.PLP.Chemscore.Metal>
0.0000

> <Gold.Chemscore.Hbonds>
donor molecule, donor type, donor heavy atom, donor atom, acceptor molecule, acceptor atom, score
      L1  H    12    44       P1  7948  1.00
      L1  H    15    45       P1  7948  1.00
      L1  C    19    48       P1  8028  0.97

> <Gold.PLP.Chemscore.Internal.Correction>
0.1356

> <Gold.Rescore>
     Score         DG    S(hbond)    S(metal)    S(lipo)     H(rot)  DE(clash)    DE(int)     intcor
     18.53     -19.72       1.96        0.00     100.00       1.57       0.41       0.78       ----

> <Gold.Chemscore.Fitness>
18.5287

> <Gold.Chemscore.DG>
-19.7234

> <Gold.Chemscore.ZeroCoef>
-5.4800

> <Gold.Chemscore.Hbond>
1.9641

> <Gold.Chemscore.Metal>
0.0000

> <Gold.Chemscore.Lipo>
99.9952

> <Gold.Chemscore.Internal_Hbond>
0.0000

> <Gold.Chemscore.DEClash>
0.4121

> <Gold.Chemscore.DEInternal>
0.7825

> <Gold.Chemscore.Rot>
1.5688

> <Gold.Chemscore.Internal.Correction>
   9.000000E+99

> <Gold.Chemscore.Hbonds>
donor molecule, donor type, donor heavy atom, donor atom, acceptor molecule, acceptor atom, score
      L1  H    12    44       P1  7948  0.94
      L1  H    15    45       P1  7948  0.99

> <Gold.Chemscore.Hbond.Weighted>
-6.5600

> <Gold.Chemscore.Metal.Weighted>
-0.0000

> <Gold.Chemscore.Lipo.Weighted>
-11.6994

> <Gold.Chemscore.Internal_Hbond.Weighted>
0.0000

> <Gold.Chemscore.DEClash.Weighted>
0.4121

> <Gold.Chemscore.DEInternal.Weighted>
0.7825

> <Gold.Chemscore.Rot.Weighted>
4.0161

> <Gold.Chemscore.Internal.Correction.Weighted>
   9.000000E+99

> <Gold.Protein.RotatedTorsions>
[ 6907 6896 6895 6894 ] final -130.68 input  -60.11 | X-H torsion
[ 7974 7965 7964 7962 ] final -120.43 input  175.53 | X-H torsion
[ 8008 7997 7996 7995 ] final   75.82 input   59.86 | X-H torsion
[ 10167 10162 10161 10158 ] final -125.15 input  -65.29 | X-H torsion
[ 10718 10713 10712 10709 ] final -152.17 input   66.30 | X-H torsion
[ 10763 10752 10751 10750 ] final  -83.78 input  -60.55 | X-H torsion
[ 11005 11000 10999 10996 ] final  111.48 input  -57.11 | X-H torsion

> <Gold.Protein.ActiveResidues>
 VAL166  LYS551  ARG553  GLY616  TRP617  ASP618  TYR619  PRO620  LYS621  CYS622 
 ASP623  PHE694  ASN695  SER759  ASP760  ASP761  ALA762  ILE779  LEU786  VAL792 
 PHE793  MET794  SER795  GLU796  ALA797  LYS798  CYS799  TRP800  GLU811  SER814 

> <Gold.Protein.RotatedAtoms>
  150.9425  133.6641  159.2787 H   0  0  0  0  0  0  0  0  0  0  0  0  # atno 6907 bound_to 6896
  151.4025  135.0972  159.9570 H   0  0  0  0  0  0  0  0  0  0  0  0  # atno 6908 bound_to 6896
  152.5075  133.8915  159.7451 H   0  0  0  0  0  0  0  0  0  0  0  0  # atno 6909 bound_to 6896
  145.0514  140.8221  143.4207 H   0  0  0  0  0  0  0  0  0  0  0  0  # atno 7974 bound_to 7965
  155.8185  140.3470  155.5500 H   0  0  0  0  0  0  0  0  0  0  0  0  # atno 8008 bound_to 7997
  155.8367  140.0935  157.1780 H   0  0  0  0  0  0  0  0  0  0  0  0  # atno 8009 bound_to 7997
  154.4004  140.1402  156.3666 H   0  0  0  0  0  0  0  0  0  0  0  0  # atno 8010 bound_to 7997
  139.9852  143.5700  152.2363 H   0  0  0  0  0  0  0  0  0  0  0  0  # atno 10167 bound_to 10162
  156.4689  130.8249  151.2479 H   0  0  0  0  0  0  0  0  0  0  0  0  # atno 10718 bound_to 10713
  154.5918  135.5544  153.7286 H   0  0  0  0  0  0  0  0  0  0  0  0  # atno 10763 bound_to 10752
  153.0120  135.6345  154.1838 H   0  0  0  0  0  0  0  0  0  0  0  0  # atno 10764 bound_to 10752
  154.1779  135.2888  155.3041 H   0  0  0  0  0  0  0  0  0  0  0  0  # atno 10765 bound_to 10752
  139.8904  134.9509  156.6438 H   0  0  0  0  0  0  0  0  0  0  0  0  # atno 11005 bound_to 11000
  145.1522  139.2508  143.5435 LP  0  0  0  0  0  0  0  0  0  0  0  0  # atno 17320 bound_to 7965
  146.3518  140.1227  142.8599 LP  0  0  0  0  0  0  0  0  0  0  0  0  # atno 17321 bound_to 7965
  139.6380  144.7652  151.2397 LP  0  0  0  0  0  0  0  0  0  0  0  0  # atno 17342 bound_to 10162
  140.7475  143.6365  150.8375 LP  0  0  0  0  0  0  0  0  0  0  0  0  # atno 17343 bound_to 10162
  157.7493  131.0083  150.3222 LP  0  0  0  0  0  0  0  0  0  0  0  0  # atno 17370 bound_to 10713
  156.3639  130.3851  149.7229 LP  0  0  0  0  0  0  0  0  0  0  0  0  # atno 17371 bound_to 10713
  140.7573  133.8847  155.8391 LP  0  0  0  0  0  0  0  0  0  0  0  0  # atno 17394 bound_to 11000
  140.9951  134.1226  157.4371 LP  0  0  0  0  0  0  0  0  0  0  0  0  # atno 17395 bound_to 11000

$$$$
