AV-unprocessed.smi:1381|AV-procd|sdf|5606|dock3
  -GOLD-   22720 5213D 1   1.00000     0.00000
 Structure written by MMmdl.
 43 44  0  0  0  0  0  0  0  0  2 V2000
  137.0809  137.1712  154.4906 C   0  0  0  0  0  0  0  0  0  0  0  0
  138.3727  137.8261  154.1399 C   0  0  0  0  0  0  0  0  0  0  0  0
  139.6533  137.3610  154.0339 C   0  0  0  0  0  0  0  0  0  0  0  0
  140.3848  138.5205  153.6629 C   0  0  0  0  0  0  0  0  0  0  0  0
  141.7854  138.4602  153.4475 N   0  0  0  0  0  0  0  0  0  0  0  0
  142.5918  137.3970  153.6061 C   0  0  0  0  0  0  0  0  0  0  0  0
  142.2310  136.2796  153.9772 O   0  0  0  0  0  0  0  0  0  0  0  0
  143.8645  137.6995  153.3110 N   0  0  0  0  0  0  0  0  0  0  0  0
  144.9774  136.7595  153.3786 C   0  0  0  0  0  0  0  0  0  0  0  0
  145.5945  136.5129  151.9885 C   0  0  0  0  0  0  0  0  0  0  0  0
  146.1703  135.1513  151.8623 N   0  3  1  0  0  0  0  0  0  0  0  0
  146.1591  134.4110  153.1462 C   0  0  0  0  0  0  0  0  0  0  0  0
  146.8210  133.0267  152.9982 C   0  0  2  0  0  0  0  0  0  0  0  0
  148.3543  133.0876  152.8803 C   0  0  0  0  0  0  0  0  0  0  0  0
  146.2232  132.3067  151.9202 O   0  0  0  0  0  0  0  0  0  0  0  0
  146.2468  132.9793  150.6638 C   0  0  1  0  0  0  0  0  0  0  0  0
  145.5673  132.0728  149.6312 C   0  0  0  0  0  0  0  0  0  0  0  0
  145.5364  134.3383  150.7965 C   0  0  0  0  0  0  0  0  0  0  0  0
  139.6204  139.5963  153.5538 N   0  0  0  0  0  0  0  0  0  0  0  0
  138.3271  139.1569  153.8599 O   0  0  0  0  0  0  0  0  0  0  0  0
  137.1822  136.0857  154.4902 H   0  0  0  0  0  0  0  0  0  0  0  0
  136.3044  137.4377  153.7737 H   0  0  0  0  0  0  0  0  0  0  0  0
  136.7480  137.4803  155.4814 H   0  0  0  0  0  0  0  0  0  0  0  0
  140.0055  136.3530  154.1953 H   0  0  0  0  0  0  0  0  0  0  0  0
  142.2176  139.3185  153.1392 H   0  0  0  0  0  0  0  0  0  0  0  0
  144.0759  138.6404  153.0120 H   0  0  0  0  0  0  0  0  0  0  0  0
  145.7183  137.1350  154.0852 H   0  0  0  0  0  0  0  0  0  0  0  0
  144.6044  135.8213  153.7902 H   0  0  0  0  0  0  0  0  0  0  0  0
  144.8076  136.6401  151.2435 H   0  0  0  0  0  0  0  0  0  0  0  0
  146.3594  137.2556  151.7567 H   0  0  0  0  0  0  0  0  0  0  0  0
  146.6720  134.9862  153.9182 H   0  0  0  0  0  0  0  0  0  0  0  0
  145.1261  134.2904  153.4770 H   0  0  0  0  0  0  0  0  0  0  0  0
  146.5990  132.4561  153.9005 H   0  0  0  0  0  0  0  0  0  0  0  0
  148.7936  133.5228  153.7782 H   0  0  0  0  0  0  0  0  0  0  0  0
  148.6822  133.6921  152.0351 H   0  0  0  0  0  0  0  0  0  0  0  0
  148.7745  132.0887  152.7607 H   0  0  0  0  0  0  0  0  0  0  0  0
  147.2785  133.1348  150.3478 H   0  0  0  0  0  0  0  0  0  0  0  0
  145.5618  132.5361  148.6444 H   0  0  0  0  0  0  0  0  0  0  0  0
  144.5338  131.8629  149.9082 H   0  0  0  0  0  0  0  0  0  0  0  0
  146.0890  131.1194  149.5468 H   0  0  0  0  0  0  0  0  0  0  0  0
  144.4802  134.1916  151.0296 H   0  0  0  0  0  0  0  0  0  0  0  0
  145.5808  134.8609  149.8417 H   0  0  0  0  0  0  0  0  0  0  0  0
  147.1413  135.2694  151.6107 H   0  0  0  0  0  0  0  0  0  0  0  0
  1  2  1  0  0  0  0
  1 21  1  0  0  0  0
  1 22  1  0  0  0  0
  1 23  1  0  0  0  0
  2 20  1  0  0  0  0
  2  3  2  0  0  0  0
  3  4  1  0  0  0  0
  3 24  1  0  0  0  0
  4  5  1  0  0  0  0
  4 19  2  0  0  0  0
  5  6  1  0  0  0  0
  5 25  1  0  0  0  0
  6  7  2  0  0  0  0
  6  8  1  0  0  0  0
  8  9  1  0  0  0  0
  8 26  1  0  0  0  0
  9 10  1  0  0  0  0
  9 27  1  0  0  0  0
  9 28  1  0  0  0  0
 10 11  1  0  0  0  0
 10 29  1  0  0  0  0
 10 30  1  0  0  0  0
 11 18  1  0  0  0  0
 11 12  1  0  0  0  0
 11 43  1  0  0  0  0
 12 13  1  0  0  0  0
 12 31  1  0  0  0  0
 12 32  1  0  0  0  0
 13 14  1  0  0  0  0
 13 15  1  0  0  0  0
 13 33  1  0  0  0  0
 14 34  1  0  0  0  0
 14 35  1  0  0  0  0
 14 36  1  0  0  0  0
 15 16  1  0  0  0  0
 16 17  1  0  0  0  0
 16 18  1  0  0  0  0
 16 37  1  0  0  0  0
 17 38  1  0  0  0  0
 17 39  1  0  0  0  0
 17 40  1  0  0  0  0
 18 41  1  0  0  0  0
 18 42  1  0  0  0  0
 19 20  1  0  0  0  0
M  CHG  1  11   1
M  END
> <s_m_source_file>
AV-unprocessed.smi

> <i_m_source_file_index>
1381

> <i_lp_mmshare_version>
43012

> <i_f3d_flags>
0

> <s_epik_input>
W0NIM11jMVtjSF1jKG5vMSlbTkhdQyg9TylbTkhdW0NIMl1bQ0gyXU4yW0NIMl1bQ0BASF0oW0NIM10pT1tDQEBIXShbQ0gzXSlbQ0gyXTI=

> <s_epik_cmdline>
J2VwaWtfcHl0aG9uJywgJy1waCcsICc3LjAnLCAnLXRuJywgJzgnLCAnLW1hJywgJzIwMCcsICctbWV0YWxfYmluZGluZycsICctaW1hZScsICc8aW5maWxlLm1hZT4nLCAnLW9tYWUnLCAnPG91dGZpbGUubWFlPic=

> <r_epik_Ionization_Penalty>
0.707076

> <r_epik_Ionization_Penalty_Charging>
0.707039

> <r_epik_Ionization_Penalty_Neutral>
3.6548e-05

> <r_epik_State_Penalty>
0.730276

> <r_epik_Charging_Adjusted_Penalty>
1.43732

> <i_epik_Tot_Q>
1

> <i_epik_Tot_abs_Q>
1

> <r_epik_Metal_State_Penalty>
0.743132

> <b_epik_Metal_Only>
0

> <s_lp_Force_Field>
OPLS_2005

> <r_lp_Energy>
14.5355

> <b_lp_Chiralities_Consistent>
1

> <s_lp_Variant>
AV-unprocessed.smi:1381-5

> <Gold.Version>
5.8.1

> <Gold.Id.Protein>
6NUR|6NUR_protein|mol2

> <Gold.PLP.Fitness>
39.5802

> <Gold.PLP.PLP>
-33.3752

> <Gold.PLP.part.hbond>
-3.0000

> <Gold.PLP.part.metal>
0.0000

> <Gold.PLP.part.buried>
-7.4685

> <Gold.PLP.part.nonpolar>
-25.2441

> <Gold.PLP.part.repulsive>
1.8829

> <Gold.PLP.ligand.clash>
3.9434

> <Gold.PLP.ligand.torsion>
0.9382

> <Gold.PLP.Chemscore.Hbond>
4.0000

> <Gold.PLP.Chemscore.CHOScore>
0.0000

> <Gold.PLP.Chemscore.Metal>
0.0000

> <Gold.Chemscore.Hbonds>
donor molecule, donor type, donor heavy atom, donor atom, acceptor molecule, acceptor atom, score
      L1  H     5    25       P1 10175  1.00
      L1  H     8    26       P1 10175  1.00
      L1  H    11    43       P1  7948  2.00

> <Gold.PLP.Chemscore.Internal.Correction>
0.0248

> <Gold.Rescore>
     Score         DG    S(hbond)    S(metal)    S(lipo)     H(rot)  DE(clash)    DE(int)     intcor
     16.65     -19.33       2.89        0.00      70.96       1.61       0.34       2.34       ----

> <Gold.Chemscore.Fitness>
16.6492

> <Gold.Chemscore.DG>
-19.3260

> <Gold.Chemscore.ZeroCoef>
-5.4800

> <Gold.Chemscore.Hbond>
2.8925

> <Gold.Chemscore.Metal>
0.0000

> <Gold.Chemscore.Lipo>
70.9562

> <Gold.Chemscore.Internal_Hbond>
0.0000

> <Gold.Chemscore.DEClash>
0.3366

> <Gold.Chemscore.DEInternal>
2.3403

> <Gold.Chemscore.Rot>
1.6081

> <Gold.Chemscore.Internal.Correction>
   9.000000E+99

> <Gold.Chemscore.Hbonds>
donor molecule, donor type, donor heavy atom, donor atom, acceptor molecule, acceptor atom, score
      L1  H     5    25       P1 10175  0.97
      L1  H     8    26       P1 10175  0.98
      L1  H    11    43       P1  7948  0.87

> <Gold.Chemscore.Hbond.Weighted>
-9.6608

> <Gold.Chemscore.Metal.Weighted>
-0.0000

> <Gold.Chemscore.Lipo.Weighted>
-8.3019

> <Gold.Chemscore.Internal_Hbond.Weighted>
0.0000

> <Gold.Chemscore.DEClash.Weighted>
0.3366

> <Gold.Chemscore.DEInternal.Weighted>
2.3403

> <Gold.Chemscore.Rot.Weighted>
4.1167

> <Gold.Chemscore.Internal.Correction.Weighted>
   9.000000E+99

> <Gold.Protein.RotatedTorsions>
[ 6907 6896 6895 6894 ] final   -5.23 input  -60.11 | X-H torsion
[ 7974 7965 7964 7962 ] final   79.95 input  175.53 | X-H torsion
[ 8008 7997 7996 7995 ] final  -69.78 input   59.86 | X-H torsion
[ 10167 10162 10161 10158 ] final  145.00 input  -65.29 | X-H torsion
[ 10718 10713 10712 10709 ] final   26.23 input   66.30 | X-H torsion
[ 10763 10752 10751 10750 ] final   42.97 input  -60.55 | X-H torsion
[ 11005 11000 10999 10996 ] final   28.14 input  -57.11 | X-H torsion

> <Gold.Protein.ActiveResidues>
 VAL166  LYS551  ARG553  GLY616  TRP617  ASP618  TYR619  PRO620  LYS621  CYS622 
 ASP623  PHE694  ASN695  SER759  ASP760  ASP761  ALA762  ILE779  LEU786  VAL792 
 PHE793  MET794  SER795  GLU796  ALA797  LYS798  CYS799  TRP800  GLU811  SER814 

> <Gold.Protein.RotatedAtoms>
  151.4850  135.1054  159.9787 H   0  0  0  0  0  0  0  0  0  0  0  0  # atno 6907 bound_to 6896
  152.4764  133.8145  159.7031 H   0  0  0  0  0  0  0  0  0  0  0  0  # atno 6908 bound_to 6896
  150.8805  133.7317  159.2960 H   0  0  0  0  0  0  0  0  0  0  0  0  # atno 6909 bound_to 6896
  145.6576  139.2463  143.1941 H   0  0  0  0  0  0  0  0  0  0  0  0  # atno 7974 bound_to 7965
  154.4963  140.0847  156.7704 H   0  0  0  0  0  0  0  0  0  0  0  0  # atno 8008 bound_to 7997
  155.4108  140.3441  155.4245 H   0  0  0  0  0  0  0  0  0  0  0  0  # atno 8009 bound_to 7997
  156.1398  140.1526  156.8925 H   0  0  0  0  0  0  0  0  0  0  0  0  # atno 8010 bound_to 7997
  139.4935  144.5932  151.6637 H   0  0  0  0  0  0  0  0  0  0  0  0  # atno 10167 bound_to 10162
  157.2040  130.6903  149.6200 H   0  0  0  0  0  0  0  0  0  0  0  0  # atno 10718 bound_to 10713
  152.9871  135.6115  154.3036 H   0  0  0  0  0  0  0  0  0  0  0  0  # atno 10763 bound_to 10752
  154.2755  135.2778  155.2722 H   0  0  0  0  0  0  0  0  0  0  0  0  # atno 10764 bound_to 10752
  154.5084  135.5847  153.6642 H   0  0  0  0  0  0  0  0  0  0  0  0  # atno 10765 bound_to 10752
  140.3188  134.2567  155.7721 H   0  0  0  0  0  0  0  0  0  0  0  0  # atno 11005 bound_to 11000
  146.1152  140.7378  142.9484 LP  0  0  0  0  0  0  0  0  0  0  0  0  # atno 17320 bound_to 7965
  144.7100  140.4003  143.7088 LP  0  0  0  0  0  0  0  0  0  0  0  0  # atno 17321 bound_to 7965
  140.5564  144.0341  150.6149 LP  0  0  0  0  0  0  0  0  0  0  0  0  # atno 17342 bound_to 10162
  140.3412  143.3018  152.0586 LP  0  0  0  0  0  0  0  0  0  0  0  0  # atno 17343 bound_to 10162
  155.9697  130.4573  150.5958 LP  0  0  0  0  0  0  0  0  0  0  0  0  # atno 17370 bound_to 10713
  157.3739  131.0770  151.1534 LP  0  0  0  0  0  0  0  0  0  0  0  0  # atno 17371 bound_to 10713
  141.2091  133.7757  157.0015 LP  0  0  0  0  0  0  0  0  0  0  0  0  # atno 17394 bound_to 11000
  140.0960  134.9564  157.1850 LP  0  0  0  0  0  0  0  0  0  0  0  0  # atno 17395 bound_to 11000

$$$$
