AV-unprocessed.smi:1835|AV-procd|sdf|7473|dock3
  -GOLD-   22720 9163D 1   1.00000     0.00000
 Structure written by MMmdl.
 41 42  0  0  0  0  0  0  0  0  1 V2000
  145.9897  139.5875  154.7370 C   0  0  0  0  0  0  0  0  0  0  0  0
  147.1768  138.7991  154.1260 C   0  0  2  0  0  0  0  0  0  0  0  0
  146.8588  137.2796  154.1923 C   0  0  0  0  0  0  0  0  0  0  0  0
  146.5984  136.7095  152.8752 N   0  0  0  0  0  0  0  0  0  0  0  0
  145.4363  136.1580  152.4989 C   0  0  0  0  0  0  0  0  0  0  0  0
  144.4603  136.0709  153.2457 O   0  0  0  0  0  0  0  0  0  0  0  0
  145.3905  135.6133  151.0637 C   0  0  0  0  0  0  0  0  0  0  0  0
  145.1849  134.1573  150.9902 N   0  0  0  0  0  0  0  0  0  0  0  0
  143.9762  133.7101  150.4201 C   0  0  0  0  0  0  0  0  0  0  0  0
  143.6851  132.4048  150.3060 C   0  0  0  0  0  0  0  0  0  0  0  0
  144.6502  131.4456  150.7886 C   0  0  0  0  0  0  0  0  0  0  0  0
  145.8120  131.8623  151.3304 C   0  0  0  0  0  0  0  0  0  0  0  0
  146.1366  133.2885  151.4527 C   0  0  0  0  0  0  0  0  0  0  0  0
  147.1975  133.6776  151.9418 O   0  0  0  0  0  0  0  0  0  0  0  0
  148.4752  139.1601  154.7425 N   0  0  0  0  0  0  0  0  0  0  0  0
  148.7655  140.5949  154.6333 C   0  0  0  0  0  0  0  0  0  0  0  0
  150.1232  140.9805  155.2451 C   0  0  0  0  0  0  0  0  0  0  0  0
  151.1566  140.2276  154.6263 O   0  0  0  0  0  0  0  0  0  0  0  0
  150.9594  138.8290  154.7784 C   0  0  0  0  0  0  0  0  0  0  0  0
  149.6069  138.4246  154.1657 C   0  0  0  0  0  0  0  0  0  0  0  0
  145.0285  139.2878  154.3211 H   0  0  0  0  0  0  0  0  0  0  0  0
  146.0592  140.6568  154.5432 H   0  0  0  0  0  0  0  0  0  0  0  0
  145.9368  139.4434  155.8168 H   0  0  0  0  0  0  0  0  0  0  0  0
  147.2245  139.0640  153.0685 H   0  0  0  0  0  0  0  0  0  0  0  0
  147.6959  136.7172  154.6036 H   0  0  0  0  0  0  0  0  0  0  0  0
  146.0001  137.1019  154.8420 H   0  0  0  0  0  0  0  0  0  0  0  0
  147.3527  136.7414  152.2049 H   0  0  0  0  0  0  0  0  0  0  0  0
  144.6063  136.1329  150.5098 H   0  0  0  0  0  0  0  0  0  0  0  0
  146.3206  135.8893  150.5647 H   0  0  0  0  0  0  0  0  0  0  0  0
  143.3120  134.4906  150.0785 H   0  0  0  0  0  0  0  0  0  0  0  0
  142.7552  132.0809  149.8619 H   0  0  0  0  0  0  0  0  0  0  0  0
  144.4401  130.3890  150.7141 H   0  0  0  0  0  0  0  0  0  0  0  0
  146.5224  131.1301  151.6849 H   0  0  0  0  0  0  0  0  0  0  0  0
  148.7438  140.8977  153.5851 H   0  0  0  0  0  0  0  0  0  0  0  0
  148.0070  141.1818  155.1474 H   0  0  0  0  0  0  0  0  0  0  0  0
  150.3182  142.0422  155.0935 H   0  0  0  0  0  0  0  0  0  0  0  0
  150.1263  140.8045  156.3220 H   0  0  0  0  0  0  0  0  0  0  0  0
  151.7724  138.2997  154.2814 H   0  0  0  0  0  0  0  0  0  0  0  0
  151.0013  138.5606  155.8351 H   0  0  0  0  0  0  0  0  0  0  0  0
  149.4957  137.3551  154.3328 H   0  0  0  0  0  0  0  0  0  0  0  0
  149.6374  138.5779  153.0860 H   0  0  0  0  0  0  0  0  0  0  0  0
  1  2  1  0  0  0  0
  1 21  1  0  0  0  0
  1 22  1  0  0  0  0
  1 23  1  0  0  0  0
  2  3  1  0  0  0  0
  2 15  1  0  0  0  0
  2 24  1  0  0  0  0
  3  4  1  0  0  0  0
  3 25  1  0  0  0  0
  3 26  1  0  0  0  0
  4  5  1  0  0  0  0
  4 27  1  0  0  0  0
  5  6  2  0  0  0  0
  5  7  1  0  0  0  0
  7  8  1  0  0  0  0
  7 28  1  0  0  0  0
  7 29  1  0  0  0  0
  8 13  1  0  0  0  0
  8  9  1  0  0  0  0
  9 10  2  0  0  0  0
  9 30  1  0  0  0  0
 10 11  1  0  0  0  0
 10 31  1  0  0  0  0
 11 12  2  0  0  0  0
 11 32  1  0  0  0  0
 12 13  1  0  0  0  0
 12 33  1  0  0  0  0
 13 14  2  0  0  0  0
 15 20  1  0  0  0  0
 15 16  1  0  0  0  0
 16 17  1  0  0  0  0
 16 34  1  0  0  0  0
 16 35  1  0  0  0  0
 17 18  1  0  0  0  0
 17 36  1  0  0  0  0
 17 37  1  0  0  0  0
 18 19  1  0  0  0  0
 19 20  1  0  0  0  0
 19 38  1  0  0  0  0
 19 39  1  0  0  0  0
 20 40  1  0  0  0  0
 20 41  1  0  0  0  0
M  END
> <s_m_source_file>
AV-unprocessed.smi

> <i_m_source_file_index>
1835

> <i_lp_mmshare_version>
43012

> <i_f3d_flags>
0

> <s_epik_input>
W0NIMl0xW0NIMl1PW0NIMl1bQ0gyXU4xW0NASF0oW0NIM10pW0NIMl1bTkhdQyg9TylbQ0gyXW4yW2NIXVtjSF1bY0hdW2NIXWMyPU8=

> <s_epik_cmdline>
J2VwaWtfcHl0aG9uJywgJy1waCcsICc3LjAnLCAnLXRuJywgJzgnLCAnLW1hJywgJzIwMCcsICctbWV0YWxfYmluZGluZycsICctaW1hZScsICc8aW5maWxlLm1hZT4nLCAnLW9tYWUnLCAnPG91dGZpbGUubWFlPic=

> <r_lp_tautomer_probability>
1

> <r_epik_Ionization_Penalty>
0.237383

> <r_epik_Ionization_Penalty_Charging>
3.58805e-07

> <r_epik_Ionization_Penalty_Neutral>
0.237382

> <r_epik_State_Penalty>
0.228245

> <r_epik_Charging_Adjusted_Penalty>
0.228245

> <i_epik_Tot_Q>
0

> <i_epik_Tot_abs_Q>
0

> <r_epik_Metal_State_Penalty>
0.22822

> <b_epik_Metal_Only>
0

> <s_lp_Force_Field>
OPLS_2005

> <r_lp_Energy>
38.378

> <b_lp_Chiralities_Consistent>
1

> <s_lp_Variant>
AV-unprocessed.smi:1835-1

> <Gold.Version>
5.8.1

> <Gold.Id.Protein>
6NUR|6NUR_protein|mol2

> <Gold.PLP.Fitness>
41.1245

> <Gold.PLP.PLP>
-33.6765

> <Gold.PLP.part.hbond>
-1.9300

> <Gold.PLP.part.metal>
0.0000

> <Gold.PLP.part.buried>
-5.3817

> <Gold.PLP.part.nonpolar>
-27.9093

> <Gold.PLP.part.repulsive>
0.8696

> <Gold.PLP.ligand.clash>
0.0000

> <Gold.PLP.ligand.torsion>
0.7760

> <Gold.PLP.Chemscore.Hbond>
2.0000

> <Gold.PLP.Chemscore.CHOScore>
0.9804

> <Gold.PLP.Chemscore.Metal>
0.0000

> <Gold.Chemscore.Hbonds>
donor molecule, donor type, donor heavy atom, donor atom, acceptor molecule, acceptor atom, score
      L1  H     4    27       P1  7948  0.93
      P1  H  7989  7998       L1    18  0.63
      L1  C     9    30       P1 10186  1.00

> <Gold.PLP.Chemscore.Internal.Correction>
0.0587

> <Gold.Rescore>
     Score         DG    S(hbond)    S(metal)    S(lipo)     H(rot)  DE(clash)    DE(int)     intcor
     15.20     -16.14       1.90        0.00      78.06       1.89       0.03       0.90       ----

> <Gold.Chemscore.Fitness>
15.2030

> <Gold.Chemscore.DG>
-16.1357

> <Gold.Chemscore.ZeroCoef>
-5.4800

> <Gold.Chemscore.Hbond>
1.9032

> <Gold.Chemscore.Metal>
0.0000

> <Gold.Chemscore.Lipo>
78.0586

> <Gold.Chemscore.Internal_Hbond>
0.0000

> <Gold.Chemscore.DEClash>
0.0313

> <Gold.Chemscore.DEInternal>
0.9014

> <Gold.Chemscore.Rot>
1.8882

> <Gold.Chemscore.Internal.Correction>
   9.000000E+99

> <Gold.Chemscore.Hbonds>
donor molecule, donor type, donor heavy atom, donor atom, acceptor molecule, acceptor atom, score
      L1  H     4    27       P1  7948  0.90
      P1  H  7989  7998       L1    18  0.49

> <Gold.Chemscore.Hbond.Weighted>
-6.3567

> <Gold.Chemscore.Metal.Weighted>
-0.0000

> <Gold.Chemscore.Lipo.Weighted>
-9.1329

> <Gold.Chemscore.Internal_Hbond.Weighted>
0.0000

> <Gold.Chemscore.DEClash.Weighted>
0.0313

> <Gold.Chemscore.DEInternal.Weighted>
0.9014

> <Gold.Chemscore.Rot.Weighted>
4.8338

> <Gold.Chemscore.Internal.Correction.Weighted>
   9.000000E+99

> <Gold.Protein.RotatedTorsions>
[ 6907 6896 6895 6894 ] final  163.60 input  -60.11 | X-H torsion
[ 7974 7965 7964 7962 ] final  -29.42 input  175.53 | X-H torsion
[ 8008 7997 7996 7995 ] final  135.34 input   59.86 | X-H torsion
[ 10167 10162 10161 10158 ] final -137.13 input  -65.29 | X-H torsion
[ 10718 10713 10712 10709 ] final  -57.48 input   66.30 | X-H torsion
[ 10763 10752 10751 10750 ] final  -41.31 input  -60.55 | X-H torsion
[ 11005 11000 10999 10996 ] final   67.59 input  -57.11 | X-H torsion

> <Gold.Protein.ActiveResidues>
 VAL166  LYS551  ARG553  GLY616  TRP617  ASP618  TYR619  PRO620  LYS621  CYS622 
 ASP623  PHE694  ASN695  SER759  ASP760  ASP761  ALA762  ILE779  LEU786  VAL792 
 PHE793  MET794  SER795  GLU796  ALA797  LYS798  CYS799  TRP800  GLU811  SER814 

> <Gold.Protein.RotatedAtoms>
  151.9228  133.3590  159.3902 H   0  0  0  0  0  0  0  0  0  0  0  0  # atno 6907 bound_to 6896
  150.7033  134.4618  159.5393 H   0  0  0  0  0  0  0  0  0  0  0  0  # atno 6908 bound_to 6896
  152.2244  134.8382  160.0532 H   0  0  0  0  0  0  0  0  0  0  0  0  # atno 6909 bound_to 6896
  146.1218  140.5409  142.8732 H   0  0  0  0  0  0  0  0  0  0  0  0  # atno 7974 bound_to 7965
  156.3002  140.2473  156.3565 H   0  0  0  0  0  0  0  0  0  0  0  0  # atno 8008 bound_to 7997
  154.8917  140.0409  157.1861 H   0  0  0  0  0  0  0  0  0  0  0  0  # atno 8009 bound_to 7997
  154.8591  140.2918  155.5554 H   0  0  0  0  0  0  0  0  0  0  0  0  # atno 8010 bound_to 7997
  139.8609  143.7079  152.2650 H   0  0  0  0  0  0  0  0  0  0  0  0  # atno 10167 bound_to 10162
  156.1207  130.4166  150.0446 H   0  0  0  0  0  0  0  0  0  0  0  0  # atno 10718 bound_to 10713
  153.9605  135.6740  153.4745 H   0  0  0  0  0  0  0  0  0  0  0  0  # atno 10763 bound_to 10752
  153.0841  135.4908  154.8558 H   0  0  0  0  0  0  0  0  0  0  0  0  # atno 10764 bound_to 10752
  154.7275  135.3131  154.8906 H   0  0  0  0  0  0  0  0  0  0  0  0  # atno 10765 bound_to 10752
  139.9762  134.6819  156.0350 H   0  0  0  0  0  0  0  0  0  0  0  0  # atno 11005 bound_to 11000
  144.7604  140.5409  143.6739 LP  0  0  0  0  0  0  0  0  0  0  0  0  # atno 17320 bound_to 7965
  145.5450  139.1476  143.3426 LP  0  0  0  0  0  0  0  0  0  0  0  0  # atno 17321 bound_to 7965
  139.7375  144.7568  151.0705 LP  0  0  0  0  0  0  0  0  0  0  0  0  # atno 17342 bound_to 10162
  140.7775  143.5013  150.9768 LP  0  0  0  0  0  0  0  0  0  0  0  0  # atno 17343 bound_to 10162
  156.8385  130.9417  151.3633 LP  0  0  0  0  0  0  0  0  0  0  0  0  # atno 17370 bound_to 10713
  157.6391  130.8791  149.9414 LP  0  0  0  0  0  0  0  0  0  0  0  0  # atno 17371 bound_to 10713
  141.1439  133.6559  156.3809 LP  0  0  0  0  0  0  0  0  0  0  0  0  # atno 17394 bound_to 11000
  140.5190  134.6322  157.5311 LP  0  0  0  0  0  0  0  0  0  0  0  0  # atno 17395 bound_to 11000

$$$$
