AV-unprocessed.smi:811|AV-procd|sdf|3814|dock3
  -GOLD-   22720 1253D 1   1.00000     0.00000
 Structure written by MMmdl.
 46 48  0  0  0  0  0  0  0  0  2 V2000
  143.2682  136.7791  153.0257 C   0  0  0  0  0  0  0  0  0  0  0  0
  144.2848  137.5886  152.3228 N   0  3  2  0  0  0  0  0  0  0  0  0
  144.8920  136.9292  151.1429 C   0  0  0  0  0  0  0  0  0  0  0  0
  146.3686  137.3592  151.1056 C   0  0  0  0  0  0  0  0  0  0  0  0
  146.4793  138.4473  152.1773 C   0  0  2  0  0  0  0  0  0  0  0  0
  147.7924  138.5405  152.8068 N   0  0  0  0  0  0  0  0  0  0  0  0
  148.1053  139.4000  153.7864 C   0  0  0  0  0  0  0  0  0  0  0  0
  147.2994  140.1990  154.2617 O   0  0  0  0  0  0  0  0  0  0  0  0
  149.3865  139.2573  154.1678 N   0  0  0  0  0  0  0  0  0  0  0  0
  150.1138  139.9706  155.1607 C   0  0  0  0  0  0  0  0  0  0  0  0
  151.3106  139.5219  155.7669 C   0  0  0  0  0  0  0  0  0  0  0  0
  151.9246  140.3269  156.7455 C   0  0  0  0  0  0  0  0  0  0  0  0
  151.3283  141.5579  157.1079 C   0  0  0  0  0  0  0  0  0  0  0  0
  151.9276  142.3838  158.0854 N   0  0  0  0  0  0  0  0  0  0  0  0
  152.1611  141.7717  159.3918 C   0  0  0  0  0  0  0  0  0  0  0  0
  153.0958  142.6535  160.2381 C   0  0  0  0  0  0  0  0  0  0  0  0
  152.5627  143.9698  160.3331 O   0  0  0  0  0  0  0  0  0  0  0  0
  152.4528  144.5880  159.0558 C   0  0  0  0  0  0  0  0  0  0  0  0
  151.4934  143.7777  158.1681 C   0  0  0  0  0  0  0  0  0  0  0  0
  150.1791  141.9819  156.5272 N   0  0  0  0  0  0  0  0  0  0  0  0
  149.5943  141.2081  155.5895 C   0  0  0  0  0  0  0  0  0  0  0  0
  145.3966  138.0463  153.1744 C   0  0  0  0  0  0  0  0  0  0  0  0
  143.7023  135.8615  153.4250 H   0  0  0  0  0  0  0  0  0  0  0  0
  142.4602  136.5090  152.3452 H   0  0  0  0  0  0  0  0  0  0  0  0
  142.8385  137.3437  153.8537 H   0  0  0  0  0  0  0  0  0  0  0  0
  144.8206  135.8425  151.2116 H   0  0  0  0  0  0  0  0  0  0  0  0
  144.3605  137.2399  150.2429 H   0  0  0  0  0  0  0  0  0  0  0  0
  147.0023  136.5082  151.3604 H   0  0  0  0  0  0  0  0  0  0  0  0
  146.6754  137.7163  150.1220 H   0  0  0  0  0  0  0  0  0  0  0  0
  146.2102  139.4121  151.7416 H   0  0  0  0  0  0  0  0  0  0  0  0
  148.5097  137.9125  152.4745 H   0  0  0  0  0  0  0  0  0  0  0  0
  149.9025  138.5198  153.7109 H   0  0  0  0  0  0  0  0  0  0  0  0
  151.7729  138.5818  155.5128 H   0  0  0  0  0  0  0  0  0  0  0  0
  152.8494  139.9945  157.1919 H   0  0  0  0  0  0  0  0  0  0  0  0
  151.2029  141.6510  159.8986 H   0  0  0  0  0  0  0  0  0  0  0  0
  152.5997  140.7792  159.3048 H   0  0  0  0  0  0  0  0  0  0  0  0
  153.1961  142.2386  161.2410 H   0  0  0  0  0  0  0  0  0  0  0  0
  154.0972  142.6852  159.8058 H   0  0  0  0  0  0  0  0  0  0  0  0
  152.0775  145.6033  159.1834 H   0  0  0  0  0  0  0  0  0  0  0  0
  153.4375  144.6683  158.5921 H   0  0  0  0  0  0  0  0  0  0  0  0
  151.4611  144.2259  157.1743 H   0  0  0  0  0  0  0  0  0  0  0  0
  150.4829  143.8166  158.5772 H   0  0  0  0  0  0  0  0  0  0  0  0
  148.6796  141.5954  155.1645 H   0  0  0  0  0  0  0  0  0  0  0  0
  145.0939  138.8712  153.8203 H   0  0  0  0  0  0  0  0  0  0  0  0
  145.7419  137.2252  153.8060 H   0  0  0  0  0  0  0  0  0  0  0  0
  143.8285  138.4220  151.9797 H   0  0  0  0  0  0  0  0  0  0  0  0
  1  2  1  0  0  0  0
  1 23  1  0  0  0  0
  1 24  1  0  0  0  0
  1 25  1  0  0  0  0
  2 22  1  0  0  0  0
  2  3  1  0  0  0  0
  2 46  1  0  0  0  0
  3  4  1  0  0  0  0
  3 26  1  0  0  0  0
  3 27  1  0  0  0  0
  4  5  1  0  0  0  0
  4 28  1  0  0  0  0
  4 29  1  0  0  0  0
  5  6  1  0  0  0  0
  5 22  1  0  0  0  0
  5 30  1  0  0  0  0
  6  7  1  0  0  0  0
  6 31  1  0  0  0  0
  7  8  2  0  0  0  0
  7  9  1  0  0  0  0
  9 10  1  0  0  0  0
  9 32  1  0  0  0  0
 10 21  1  0  0  0  0
 10 11  2  0  0  0  0
 11 12  1  0  0  0  0
 11 33  1  0  0  0  0
 12 13  2  0  0  0  0
 12 34  1  0  0  0  0
 13 14  1  0  0  0  0
 13 20  1  0  0  0  0
 14 19  1  0  0  0  0
 14 15  1  0  0  0  0
 15 16  1  0  0  0  0
 15 35  1  0  0  0  0
 15 36  1  0  0  0  0
 16 17  1  0  0  0  0
 16 37  1  0  0  0  0
 16 38  1  0  0  0  0
 17 18  1  0  0  0  0
 18 19  1  0  0  0  0
 18 39  1  0  0  0  0
 18 40  1  0  0  0  0
 19 41  1  0  0  0  0
 19 42  1  0  0  0  0
 20 21  2  0  0  0  0
 21 43  1  0  0  0  0
 22 44  1  0  0  0  0
 22 45  1  0  0  0  0
M  CHG  1   2   1
M  END
> <s_m_source_file>
AV-unprocessed.smi

> <i_m_source_file_index>
811

> <i_lp_mmshare_version>
43012

> <i_f3d_flags>
0

> <s_epik_input>
W0NIM11OMVtDSDJdW0NIMl1bQ0BIXShbQ0gyXTEpW05IXUMoPU8pW05IXWMyW2NIXVtjSF1jKG5bY0hdMilOM1tDSDJdW0NIMl1PW0NIMl1bQ0gyXTM=

> <s_epik_cmdline>
J2VwaWtfcHl0aG9uJywgJy1waCcsICc3LjAnLCAnLXRuJywgJzgnLCAnLW1hJywgJzIwMCcsICctbWV0YWxfYmluZGluZycsICctaW1hZScsICc8aW5maWxlLm1hZT4nLCAnLW9tYWUnLCAnPG91dGZpbGUubWFlPic=

> <r_lp_tautomer_probability>
1

> <r_epik_Ionization_Penalty>
0.00503422

> <r_epik_Ionization_Penalty_Charging>
0.00366104

> <r_epik_Ionization_Penalty_Neutral>
0.00137318

> <r_epik_State_Penalty>
-0

> <r_epik_Charging_Adjusted_Penalty>
0.00366104

> <i_epik_Tot_Q>
1

> <i_epik_Tot_abs_Q>
1

> <r_epik_Metal_State_Penalty>
-0

> <b_epik_Metal_Only>
0

> <s_lp_Force_Field>
OPLS_2005

> <r_lp_Energy>
43.0214

> <b_lp_Chiralities_Consistent>
1

> <s_lp_Variant>
AV-unprocessed.smi:811-4

> <Gold.Version>
5.8.1

> <Gold.Id.Protein>
6NUR|6NUR_protein|mol2

> <Gold.PLP.Fitness>
44.0227

> <Gold.PLP.PLP>
-36.5190

> <Gold.PLP.part.hbond>
-4.7322

> <Gold.PLP.part.metal>
0.0000

> <Gold.PLP.part.buried>
6.5916

> <Gold.PLP.part.nonpolar>
-39.3611

> <Gold.PLP.part.repulsive>
0.4632

> <Gold.PLP.ligand.clash>
0.0000

> <Gold.PLP.ligand.torsion>
0.3019

> <Gold.PLP.Chemscore.Hbond>
2.5780

> <Gold.PLP.Chemscore.CHOScore>
0.0000

> <Gold.PLP.Chemscore.Metal>
0.0000

> <Gold.Chemscore.Hbonds>
donor molecule, donor type, donor heavy atom, donor atom, acceptor molecule, acceptor atom, score
      L1  H     2    46       P1 10175  1.46
      L1  H     6    31       P1  7948  0.98

> <Gold.PLP.Chemscore.Internal.Correction>
0.3736

> <Gold.Rescore>
     Score         DG    S(hbond)    S(metal)    S(lipo)     H(rot)  DE(clash)    DE(int)     intcor
     15.89     -20.80       1.90        0.00     103.62       1.23       3.25       1.66       ----

> <Gold.Chemscore.Fitness>
15.8865

> <Gold.Chemscore.DG>
-20.7960

> <Gold.Chemscore.ZeroCoef>
-5.4800

> <Gold.Chemscore.Hbond>
1.8983

> <Gold.Chemscore.Metal>
0.0000

> <Gold.Chemscore.Lipo>
103.6162

> <Gold.Chemscore.Internal_Hbond>
0.0000

> <Gold.Chemscore.DEClash>
3.2513

> <Gold.Chemscore.DEInternal>
1.6582

> <Gold.Chemscore.Rot>
1.2295

> <Gold.Chemscore.Internal.Correction>
   9.000000E+99

> <Gold.Chemscore.Hbonds>
donor molecule, donor type, donor heavy atom, donor atom, acceptor molecule, acceptor atom, score
      L1  H     2    46       P1 10175  0.69
      L1  H     6    31       P1  7948  0.93

> <Gold.Chemscore.Hbond.Weighted>
-6.3403

> <Gold.Chemscore.Metal.Weighted>
-0.0000

> <Gold.Chemscore.Lipo.Weighted>
-12.1231

> <Gold.Chemscore.Internal_Hbond.Weighted>
0.0000

> <Gold.Chemscore.DEClash.Weighted>
3.2513

> <Gold.Chemscore.DEInternal.Weighted>
1.6582

> <Gold.Chemscore.Rot.Weighted>
3.1474

> <Gold.Chemscore.Internal.Correction.Weighted>
   9.000000E+99

> <Gold.Protein.RotatedTorsions>
[ 6907 6896 6895 6894 ] final -175.82 input  -60.11 | X-H torsion
[ 7974 7965 7964 7962 ] final  -37.60 input  175.53 | X-H torsion
[ 8008 7997 7996 7995 ] final -150.16 input   59.86 | X-H torsion
[ 10167 10162 10161 10158 ] final   69.87 input  -65.29 | X-H torsion
[ 10718 10713 10712 10709 ] final -165.89 input   66.30 | X-H torsion
[ 10763 10752 10751 10750 ] final  -45.83 input  -60.55 | X-H torsion
[ 11005 11000 10999 10996 ] final  -28.33 input  -57.11 | X-H torsion

> <Gold.Protein.ActiveResidues>
 VAL166  LYS551  ARG553  GLY616  TRP617  ASP618  TYR619  PRO620  LYS621  CYS622 
 ASP623  PHE694  ASN695  SER759  ASP760  ASP761  ALA762  ILE779  LEU786  VAL792 
 PHE793  MET794  SER795  GLU796  ALA797  LYS798  CYS799  TRP800  GLU811  SER814 

> <Gold.Protein.RotatedAtoms>
  151.5947  133.3362  159.3034 H   0  0  0  0  0  0  0  0  0  0  0  0  # atno 6907 bound_to 6896
  150.8240  134.7466  159.6808 H   0  0  0  0  0  0  0  0  0  0  0  0  # atno 6908 bound_to 6896
  152.4331  134.5744  159.9982 H   0  0  0  0  0  0  0  0  0  0  0  0  # atno 6909 bound_to 6896
  146.0560  140.6415  142.9019 H   0  0  0  0  0  0  0  0  0  0  0  0  # atno 7974 bound_to 7965
  155.6191  140.0679  157.2683 H   0  0  0  0  0  0  0  0  0  0  0  0  # atno 8008 bound_to 7997
  154.4234  140.1788  156.1401 H   0  0  0  0  0  0  0  0  0  0  0  0  # atno 8009 bound_to 7997
  156.0024  140.3335  155.6862 H   0  0  0  0  0  0  0  0  0  0  0  0  # atno 8010 bound_to 7997
  140.0631  144.5216  150.7280 H   0  0  0  0  0  0  0  0  0  0  0  0  # atno 10167 bound_to 10162
  156.6599  130.9042  151.3027 H   0  0  0  0  0  0  0  0  0  0  0  0  # atno 10718 bound_to 10713
  154.0350  135.6651  153.4784 H   0  0  0  0  0  0  0  0  0  0  0  0  # atno 10763 bound_to 10752
  153.0525  135.5076  154.7897 H   0  0  0  0  0  0  0  0  0  0  0  0  # atno 10764 bound_to 10752
  154.6854  135.3052  154.9519 H   0  0  0  0  0  0  0  0  0  0  0  0  # atno 10765 bound_to 10752
  140.9199  133.7406  156.0786 H   0  0  0  0  0  0  0  0  0  0  0  0  # atno 11005 bound_to 11000
  144.7148  140.4171  143.7052 LP  0  0  0  0  0  0  0  0  0  0  0  0  # atno 17320 bound_to 7965
  145.6642  139.1587  143.2791 LP  0  0  0  0  0  0  0  0  0  0  0  0  # atno 17321 bound_to 7965
  140.7162  143.2547  151.4427 LP  0  0  0  0  0  0  0  0  0  0  0  0  # atno 17342 bound_to 10162
  139.5881  144.1559  152.2054 LP  0  0  0  0  0  0  0  0  0  0  0  0  # atno 17343 bound_to 10162
  157.7113  130.9443  150.1099 LP  0  0  0  0  0  0  0  0  0  0  0  0  # atno 17370 bound_to 10713
  156.2019  130.3661  149.8778 LP  0  0  0  0  0  0  0  0  0  0  0  0  # atno 17371 bound_to 10713
  140.8001  134.3518  157.5441 LP  0  0  0  0  0  0  0  0  0  0  0  0  # atno 17394 bound_to 11000
  139.8773  134.9193  156.3223 LP  0  0  0  0  0  0  0  0  0  0  0  0  # atno 17395 bound_to 11000

$$$$
