AV-unprocessed.smi:2953|AV-procd|sdf|11293|dock4
  -GOLD-   2272016183D 1   1.00000     0.00000
 Structure written by MMmdl.
 45 47  0  0  0  0  0  0  0  0  1 V2000
  154.2575  141.7333  160.1422 C   0  0  0  0  0  0  0  0  0  0  0  0
  152.9663  142.4916  159.9003 C   0  0  0  0  0  0  0  0  0  0  0  0
  152.6441  143.5927  160.7212 C   0  0  0  0  0  0  0  0  0  0  0  0
  151.4543  144.3122  160.5083 C   0  0  0  0  0  0  0  0  0  0  0  0
  150.5834  143.9324  159.4720 C   0  0  0  0  0  0  0  0  0  0  0  0
  150.9007  142.8348  158.6494 C   0  0  0  0  0  0  0  0  0  0  0  0
  152.0972  142.1001  158.8547 C   0  0  0  0  0  0  0  0  0  0  0  0
  152.4695  141.0140  158.0888 O   0  0  0  0  0  0  0  0  0  0  0  0
  151.4479  140.2067  157.5182 C   0  0  0  0  0  0  0  0  0  0  0  0
  151.0120  140.7936  156.1687 C   0  0  0  0  0  0  0  0  0  0  0  0
  149.9799  139.9927  155.5243 N   0  0  0  0  0  0  0  0  0  0  0  0
  150.1212  138.9441  154.6703 C   0  0  0  0  0  0  0  0  0  0  0  0
  151.4739  138.4147  154.2575 C   0  0  2  0  0  0  0  0  0  0  0  0
  152.3440  139.4374  153.5009 C   0  0  0  0  0  0  0  0  0  0  0  0
  151.3039  137.1647  153.5160 N   0  0  0  0  0  0  0  0  0  0  0  0
  152.1766  136.1481  153.4728 C   0  0  0  0  0  0  0  0  0  0  0  0
  153.2487  136.1591  154.0724 O   0  0  0  0  0  0  0  0  0  0  0  0
  148.9814  138.3654  154.2825 N   0  0  0  0  0  0  0  0  0  0  0  0
  148.0170  139.1318  154.9045 C   0  0  0  0  0  0  0  0  0  0  0  0
  146.6072  139.0362  154.8749 C   0  0  0  0  0  0  0  0  0  0  0  0
  145.8150  139.9451  155.6065 C   0  0  0  0  0  0  0  0  0  0  0  0
  146.4197  140.9588  156.3776 C   0  0  0  0  0  0  0  0  0  0  0  0
  147.8229  141.0691  156.4227 C   0  0  0  0  0  0  0  0  0  0  0  0
  148.6088  140.1605  155.6886 C   0  0  0  0  0  0  0  0  0  0  0  0
  154.7309  142.0386  161.0759 H   0  0  0  0  0  0  0  0  0  0  0  0
  154.9576  141.9215  159.3281 H   0  0  0  0  0  0  0  0  0  0  0  0
  154.0692  140.6607  160.1966 H   0  0  0  0  0  0  0  0  0  0  0  0
  153.3097  143.8910  161.5179 H   0  0  0  0  0  0  0  0  0  0  0  0
  151.2109  145.1548  161.1386 H   0  0  0  0  0  0  0  0  0  0  0  0
  149.6695  144.4840  159.3064 H   0  0  0  0  0  0  0  0  0  0  0  0
  150.2055  142.5772  157.8656 H   0  0  0  0  0  0  0  0  0  0  0  0
  151.8111  139.1897  157.3634 H   0  0  0  0  0  0  0  0  0  0  0  0
  150.5902  140.1595  158.1912 H   0  0  0  0  0  0  0  0  0  0  0  0
  150.6659  141.8192  156.2895 H   0  0  0  0  0  0  0  0  0  0  0  0
  151.8702  140.8475  155.4980 H   0  0  0  0  0  0  0  0  0  0  0  0
  152.0300  138.1648  155.1602 H   0  0  0  0  0  0  0  0  0  0  0  0
  152.4974  140.3358  154.0981 H   0  0  0  0  0  0  0  0  0  0  0  0
  151.8895  139.7462  152.5591 H   0  0  0  0  0  0  0  0  0  0  0  0
  153.3258  139.0217  153.2734 H   0  0  0  0  0  0  0  0  0  0  0  0
  150.4498  137.0673  152.9866 H   0  0  0  0  0  0  0  0  0  0  0  0
  151.8161  135.3195  152.8440 H   0  0  0  0  0  0  0  0  0  0  0  0
  146.1346  138.2622  154.2884 H   0  0  0  0  0  0  0  0  0  0  0  0
  144.7382  139.8637  155.5763 H   0  0  0  0  0  0  0  0  0  0  0  0
  145.8061  141.6509  156.9354 H   0  0  0  0  0  0  0  0  0  0  0  0
  148.2894  141.8433  157.0134 H   0  0  0  0  0  0  0  0  0  0  0  0
  1  2  1  0  0  0  0
  1 25  1  0  0  0  0
  1 26  1  0  0  0  0
  1 27  1  0  0  0  0
  2  7  1  0  0  0  0
  2  3  2  0  0  0  0
  3  4  1  0  0  0  0
  3 28  1  0  0  0  0
  4  5  2  0  0  0  0
  4 29  1  0  0  0  0
  5  6  1  0  0  0  0
  5 30  1  0  0  0  0
  6  7  2  0  0  0  0
  6 31  1  0  0  0  0
  7  8  1  0  0  0  0
  8  9  1  0  0  0  0
  9 10  1  0  0  0  0
  9 32  1  0  0  0  0
  9 33  1  0  0  0  0
 10 11  1  0  0  0  0
 10 34  1  0  0  0  0
 10 35  1  0  0  0  0
 11 24  1  0  0  0  0
 11 12  1  0  0  0  0
 12 13  1  0  0  0  0
 12 18  2  0  0  0  0
 13 14  1  0  0  0  0
 13 15  1  0  0  0  0
 13 36  1  0  0  0  0
 14 37  1  0  0  0  0
 14 38  1  0  0  0  0
 14 39  1  0  0  0  0
 15 16  1  0  0  0  0
 15 40  1  0  0  0  0
 16 17  2  0  0  0  0
 16 41  1  0  0  0  0
 18 19  1  0  0  0  0
 19 24  2  0  0  0  0
 19 20  1  0  0  0  0
 20 21  2  0  0  0  0
 20 42  1  0  0  0  0
 21 22  1  0  0  0  0
 21 43  1  0  0  0  0
 22 23  2  0  0  0  0
 22 44  1  0  0  0  0
 23 24  1  0  0  0  0
 23 45  1  0  0  0  0
M  END
> <s_m_source_file>
AV-unprocessed.smi

> <i_m_source_file_index>
2953

> <i_lp_mmshare_version>
43012

> <i_f3d_flags>
0

> <s_epik_input>
W0NIM11jMVtjSF1bY0hdW2NIXVtjSF1jMU9bQ0gyXVtDSDJdbihjKG4yKVtDQEhdKFtDSDNdKVtOSF1bQ0hdPU8pYyhjMjMpW2NIXVtjSF1bY0hdW2NIXTM=

> <s_epik_cmdline>
J2VwaWtfcHl0aG9uJywgJy1waCcsICc3LjAnLCAnLXRuJywgJzgnLCAnLW1hJywgJzIwMCcsICctbWV0YWxfYmluZGluZycsICctaW1hZScsICc8aW5maWxlLm1hZT4nLCAnLW9tYWUnLCAnPG91dGZpbGUubWFlPic=

> <r_lp_tautomer_probability>
1

> <r_epik_Ionization_Penalty>
0.0924205

> <r_epik_Ionization_Penalty_Charging>
0

> <r_epik_Ionization_Penalty_Neutral>
0.0924205

> <r_epik_State_Penalty>
0.0827154

> <r_epik_Charging_Adjusted_Penalty>
0.0827154

> <i_epik_Tot_Q>
0

> <i_epik_Tot_abs_Q>
0

> <r_epik_Metal_State_Penalty>
0.071464

> <b_epik_Metal_Only>
0

> <s_lp_Force_Field>
OPLS_2005

> <r_lp_Energy>
13.673

> <b_lp_Chiralities_Consistent>
1

> <s_lp_Variant>
AV-unprocessed.smi:2953-1

> <Gold.Version>
5.8.1

> <Gold.Id.Protein>
6NUR|6NUR_protein|mol2

> <Gold.PLP.Fitness>
57.2224

> <Gold.PLP.PLP>
-53.6763

> <Gold.PLP.part.hbond>
-2.9379

> <Gold.PLP.part.metal>
0.0000

> <Gold.PLP.part.buried>
0.9306

> <Gold.PLP.part.nonpolar>
-52.3863

> <Gold.PLP.part.repulsive>
0.3368

> <Gold.PLP.ligand.clash>
0.0000

> <Gold.PLP.ligand.torsion>
1.3028

> <Gold.PLP.Chemscore.Hbond>
1.9920

> <Gold.PLP.Chemscore.CHOScore>
0.0000

> <Gold.PLP.Chemscore.Metal>
0.0000

> <Gold.Chemscore.Hbonds>
donor molecule, donor type, donor heavy atom, donor atom, acceptor molecule, acceptor atom, score
      L1  H    15    40       P1  7948  0.20

> <Gold.PLP.Chemscore.Internal.Correction>
0.1757

> <Gold.Rescore>
     Score         DG    S(hbond)    S(metal)    S(lipo)     H(rot)  DE(clash)    DE(int)     intcor
     16.40     -18.93       0.67        0.00     145.34       2.26       1.45       1.08       ----

> <Gold.Chemscore.Fitness>
16.4030

> <Gold.Chemscore.DG>
-18.9285

> <Gold.Chemscore.ZeroCoef>
-5.4800

> <Gold.Chemscore.Hbond>
0.6689

> <Gold.Chemscore.Metal>
0.0000

> <Gold.Chemscore.Lipo>
145.3413

> <Gold.Chemscore.Internal_Hbond>
0.0000

> <Gold.Chemscore.DEClash>
1.4492

> <Gold.Chemscore.DEInternal>
1.0764

> <Gold.Chemscore.Rot>
2.2619

> <Gold.Chemscore.Internal.Correction>
   9.000000E+99

> <Gold.Chemscore.Hbond.Weighted>
-2.2342

> <Gold.Chemscore.Metal.Weighted>
-0.0000

> <Gold.Chemscore.Lipo.Weighted>
-17.0049

> <Gold.Chemscore.Internal_Hbond.Weighted>
0.0000

> <Gold.Chemscore.DEClash.Weighted>
1.4492

> <Gold.Chemscore.DEInternal.Weighted>
1.0764

> <Gold.Chemscore.Rot.Weighted>
5.7906

> <Gold.Chemscore.Internal.Correction.Weighted>
   9.000000E+99

> <Gold.Protein.RotatedTorsions>
[ 6907 6896 6895 6894 ] final   15.18 input  -60.11 | X-H torsion
[ 7974 7965 7964 7962 ] final  -91.96 input  175.53 | X-H torsion
[ 8008 7997 7996 7995 ] final -122.29 input   59.86 | X-H torsion
[ 10167 10162 10161 10158 ] final   -5.83 input  -65.29 | X-H torsion
[ 10718 10713 10712 10709 ] final -108.55 input   66.30 | X-H torsion
[ 10763 10752 10751 10750 ] final   89.75 input  -60.55 | X-H torsion
[ 11005 11000 10999 10996 ] final  111.57 input  -57.11 | X-H torsion

> <Gold.Protein.ActiveResidues>
 VAL166  LYS551  ARG553  GLY616  TRP617  ASP618  TYR619  PRO620  LYS621  CYS622 
 ASP623  PHE694  ASN695  SER759  ASP760  ASP761  ALA762  ILE779  LEU786  VAL792 
 PHE793  MET794  SER795  GLU796  ALA797  LYS798  CYS799  TRP800  GLU811  SER814 

> <Gold.Protein.RotatedAtoms>
  151.8139  135.0672  160.0416 H   0  0  0  0  0  0  0  0  0  0  0  0  # atno 6907 bound_to 6896
  152.3000  133.5641  159.5621 H   0  0  0  0  0  0  0  0  0  0  0  0  # atno 6908 bound_to 6896
  150.7269  134.0221  159.3747 H   0  0  0  0  0  0  0  0  0  0  0  0  # atno 6909 bound_to 6896
  145.4062  140.9541  143.2260 H   0  0  0  0  0  0  0  0  0  0  0  0  # atno 7974 bound_to 7965
  155.1618  140.0406  157.2844 H   0  0  0  0  0  0  0  0  0  0  0  0  # atno 8008 bound_to 7997
  154.6331  140.2529  155.7383 H   0  0  0  0  0  0  0  0  0  0  0  0  # atno 8009 bound_to 7997
  156.2495  140.2871  156.0692 H   0  0  0  0  0  0  0  0  0  0  0  0  # atno 8010 bound_to 7997
  140.6976  143.6263  150.8565 H   0  0  0  0  0  0  0  0  0  0  0  0  # atno 10167 bound_to 10162
  156.0491  130.5718  150.7976 H   0  0  0  0  0  0  0  0  0  0  0  0  # atno 10718 bound_to 10713
  153.1903  135.4459  155.0141 H   0  0  0  0  0  0  0  0  0  0  0  0  # atno 10763 bound_to 10752
  154.8086  135.3285  154.7367 H   0  0  0  0  0  0  0  0  0  0  0  0  # atno 10764 bound_to 10752
  153.7822  135.6976  153.4941 H   0  0  0  0  0  0  0  0  0  0  0  0  # atno 10765 bound_to 10752
  139.8907  134.9511  156.6453 H   0  0  0  0  0  0  0  0  0  0  0  0  # atno 11005 bound_to 11000
  144.8340  139.5580  143.6930 LP  0  0  0  0  0  0  0  0  0  0  0  0  # atno 17320 bound_to 7965
  146.2728  139.6677  142.9284 LP  0  0  0  0  0  0  0  0  0  0  0  0  # atno 17321 bound_to 7965
  139.9983  143.5772  152.2885 LP  0  0  0  0  0  0  0  0  0  0  0  0  # atno 17342 bound_to 10162
  139.6452  144.7657  151.2258 LP  0  0  0  0  0  0  0  0  0  0  0  0  # atno 17343 bound_to 10162
  157.5399  131.0940  150.9842 LP  0  0  0  0  0  0  0  0  0  0  0  0  # atno 17370 bound_to 10713
  157.0127  130.5643  149.5322 LP  0  0  0  0  0  0  0  0  0  0  0  0  # atno 17371 bound_to 10713
  140.7562  133.8856  155.8384 LP  0  0  0  0  0  0  0  0  0  0  0  0  # atno 17394 bound_to 11000
  140.9960  134.1215  157.4363 LP  0  0  0  0  0  0  0  0  0  0  0  0  # atno 17395 bound_to 11000

$$$$
