AV-unprocessed.smi:1484|AV-procd|sdf|5995|dock4
  -GOLD-   22720 6 93D 1   1.00000     0.00000
 Structure written by MMmdl.
 37 38  0  0  0  0  0  0  0  0  2 V2000
  153.8852  141.6694  161.3091 C   0  0  0  0  0  0  0  0  0  0  0  0
  153.3268  142.7824  160.4108 C   0  0  2  0  0  0  0  0  0  0  0  0
  152.3224  143.6693  161.1708 C   0  0  0  0  0  0  0  0  0  0  0  0
  151.7665  144.7845  160.2720 C   0  0  0  0  0  0  0  0  0  0  0  0
  151.1251  144.2066  159.0011 C   0  0  0  0  0  0  0  0  0  0  0  0
  152.1162  143.3193  158.2259 C   0  0  2  0  0  0  0  0  0  0  0  0
  151.4479  142.7453  157.0620 N   0  0  0  0  0  0  0  0  0  0  0  0
  150.4512  141.8476  157.1005 C   0  0  0  0  0  0  0  0  0  0  0  0
  149.9836  141.4077  158.1524 O   0  0  0  0  0  0  0  0  0  0  0  0
  149.9113  141.3985  155.7331 C   0  0  0  0  0  0  0  0  0  0  0  0
  150.6158  140.2454  155.1535 N   0  0  0  0  0  0  0  0  0  0  0  0
  152.0609  140.4290  155.0489 N   0  5  0  0  0  0  0  0  0  0  0  0
  152.8177  139.4366  154.5099 C   0  0  0  0  0  0  0  0  0  0  0  0
  154.0356  139.5265  154.3738 O   0  0  0  0  0  0  0  0  0  0  0  0
  152.1472  138.2196  154.0834 C   0  0  0  0  0  0  0  0  0  0  0  0
  150.8144  138.0684  154.2131 C   0  0  0  0  0  0  0  0  0  0  0  0
  149.9632  139.1076  154.7799 C   0  0  0  0  0  0  0  0  0  0  0  0
  148.7464  138.9721  154.9101 O   0  0  0  0  0  0  0  0  0  0  0  0
  152.6810  142.2074  159.1349 C   0  0  0  0  0  0  0  0  0  0  0  0
  153.0947  140.9996  161.6490 H   0  0  0  0  0  0  0  0  0  0  0  0
  154.3728  142.0846  162.1914 H   0  0  0  0  0  0  0  0  0  0  0  0
  154.6240  141.0695  160.7769 H   0  0  0  0  0  0  0  0  0  0  0  0
  154.1661  143.4097  160.1071 H   0  0  0  0  0  0  0  0  0  0  0  0
  151.4988  143.0584  161.5433 H   0  0  0  0  0  0  0  0  0  0  0  0
  152.8002  144.1101  162.0464 H   0  0  0  0  0  0  0  0  0  0  0  0
  151.0334  145.3748  160.8225 H   0  0  0  0  0  0  0  0  0  0  0  0
  152.5707  145.4683  159.9973 H   0  0  0  0  0  0  0  0  0  0  0  0
  150.2437  143.6247  159.2750 H   0  0  0  0  0  0  0  0  0  0  0  0
  150.7737  145.0197  158.3649 H   0  0  0  0  0  0  0  0  0  0  0  0
  152.9403  143.9493  157.8851 H   0  0  0  0  0  0  0  0  0  0  0  0
  151.7669  143.0544  156.1555 H   0  0  0  0  0  0  0  0  0  0  0  0
  148.8489  141.1737  155.8454 H   0  0  0  0  0  0  0  0  0  0  0  0
  149.9584  142.2413  155.0413 H   0  0  0  0  0  0  0  0  0  0  0  0
  152.7311  137.4183  153.6551 H   0  0  0  0  0  0  0  0  0  0  0  0
  150.3583  137.1469  153.8833 H   0  0  0  0  0  0  0  0  0  0  0  0
  153.4183  141.6196  158.5864 H   0  0  0  0  0  0  0  0  0  0  0  0
  151.8816  141.5174  159.4098 H   0  0  0  0  0  0  0  0  0  0  0  0
  1  2  1  0  0  0  0
  1 20  1  0  0  0  0
  1 21  1  0  0  0  0
  1 22  1  0  0  0  0
  2 19  1  0  0  0  0
  2  3  1  0  0  0  0
  2 23  1  0  0  0  0
  3  4  1  0  0  0  0
  3 24  1  0  0  0  0
  3 25  1  0  0  0  0
  4  5  1  0  0  0  0
  4 26  1  0  0  0  0
  4 27  1  0  0  0  0
  5  6  1  0  0  0  0
  5 28  1  0  0  0  0
  5 29  1  0  0  0  0
  6  7  1  0  0  0  0
  6 19  1  0  0  0  0
  6 30  1  0  0  0  0
  7  8  1  0  0  0  0
  7 31  1  0  0  0  0
  8  9  2  0  0  0  0
  8 10  1  0  0  0  0
 10 32  1  0  0  0  0
 10 33  1  0  0  0  0
 10 11  1  0  0  0  0
 11 12  1  0  0  0  0
 11 17  1  0  0  0  0
 12 13  1  0  0  0  0
 13 14  2  0  0  0  0
 13 15  1  0  0  0  0
 15 34  1  0  0  0  0
 15 16  2  0  0  0  0
 16 35  1  0  0  0  0
 16 17  1  0  0  0  0
 17 18  2  0  0  0  0
 19 36  1  0  0  0  0
 19 37  1  0  0  0  0
M  CHG  1  12  -1
M  END
> <s_m_source_file>
AV-unprocessed.smi

> <i_m_source_file_index>
1484

> <i_lp_mmshare_version>
43012

> <i_f3d_flags>
0

> <s_epik_input>
W0NIM11bQ0BASF0xW0NIMl1bQ0gyXVtDSDJdW0NASF0oW0NIMl0xKVtOSF1DKD1PKVtDSDJdbjJbbkhdYyg9TylbY0hdW2NIXWMyPU8=

> <s_epik_cmdline>
J2VwaWtfcHl0aG9uJywgJy1waCcsICc3LjAnLCAnLXRuJywgJzgnLCAnLW1hJywgJzIwMCcsICctbWV0YWxfYmluZGluZycsICctaW1hZScsICc8aW5maWxlLm1hZT4nLCAnLW9tYWUnLCAnPG91dGZpbGUubWFlPic=

> <r_lp_tautomer_probability>
1

> <r_epik_Ionization_Penalty>
0.101352

> <r_epik_Ionization_Penalty_Charging>
0.101352

> <r_epik_Ionization_Penalty_Neutral>
1.90469e-08

> <r_epik_State_Penalty>
0.0358555

> <r_epik_Charging_Adjusted_Penalty>
0.137208

> <i_epik_Tot_Q>
-1

> <i_epik_Tot_abs_Q>
1

> <r_epik_Metal_State_Penalty>
0.0358555

> <b_epik_Metal_Only>
0

> <s_lp_Force_Field>
OPLS_2005

> <r_lp_Energy>
24.7991

> <b_lp_Chiralities_Consistent>
1

> <s_lp_Variant>
AV-unprocessed.smi:1484-3

> <Gold.Version>
5.8.1

> <Gold.Id.Protein>
6NUR|6NUR_protein|mol2

> <Gold.PLP.Fitness>
48.1528

> <Gold.PLP.PLP>
-45.5939

> <Gold.PLP.part.hbond>
-2.0000

> <Gold.PLP.part.metal>
0.0000

> <Gold.PLP.part.buried>
-4.5530

> <Gold.PLP.part.nonpolar>
-40.0866

> <Gold.PLP.part.repulsive>
0.2182

> <Gold.PLP.ligand.clash>
0.0000

> <Gold.PLP.ligand.torsion>
0.4310

> <Gold.PLP.Chemscore.Hbond>
1.1376

> <Gold.PLP.Chemscore.CHOScore>
0.0000

> <Gold.PLP.Chemscore.Metal>
0.0000

> <Gold.Chemscore.Hbonds>
donor molecule, donor type, donor heavy atom, donor atom, acceptor molecule, acceptor atom, score
      P1  H  7989  7998       L1    12  0.04
      P1  H  7997  8008       L1    14  0.85

> <Gold.PLP.Chemscore.Internal.Correction>
0.0080

> <Gold.Rescore>
     Score         DG    S(hbond)    S(metal)    S(lipo)     H(rot)  DE(clash)    DE(int)     intcor
     15.01     -16.47       0.98        0.00     102.19       1.65       0.03       1.43       ----

> <Gold.Chemscore.Fitness>
15.0144

> <Gold.Chemscore.DG>
-16.4731

> <Gold.Chemscore.ZeroCoef>
-5.4800

> <Gold.Chemscore.Hbond>
0.9799

> <Gold.Chemscore.Metal>
0.0000

> <Gold.Chemscore.Lipo>
102.1937

> <Gold.Chemscore.Internal_Hbond>
0.0000

> <Gold.Chemscore.DEClash>
0.0304

> <Gold.Chemscore.DEInternal>
1.4283

> <Gold.Chemscore.Rot>
1.6549

> <Gold.Chemscore.Internal.Correction>
   9.000000E+99

> <Gold.Chemscore.Hbonds>
donor molecule, donor type, donor heavy atom, donor atom, acceptor molecule, acceptor atom, score
      P1  H  7997  8008       L1    14  0.29

> <Gold.Chemscore.Hbond.Weighted>
-3.2729

> <Gold.Chemscore.Metal.Weighted>
-0.0000

> <Gold.Chemscore.Lipo.Weighted>
-11.9567

> <Gold.Chemscore.Internal_Hbond.Weighted>
0.0000

> <Gold.Chemscore.DEClash.Weighted>
0.0304

> <Gold.Chemscore.DEInternal.Weighted>
1.4283

> <Gold.Chemscore.Rot.Weighted>
4.2364

> <Gold.Chemscore.Internal.Correction.Weighted>
   9.000000E+99

> <Gold.Protein.RotatedTorsions>
[ 6907 6896 6895 6894 ] final  -27.58 input  -60.11 | X-H torsion
[ 7974 7965 7964 7962 ] final  159.98 input  175.53 | X-H torsion
[ 8008 7997 7996 7995 ] final  -14.34 input   59.86 | X-H torsion
[ 10167 10162 10161 10158 ] final -141.07 input  -65.29 | X-H torsion
[ 10718 10713 10712 10709 ] final  135.51 input   66.30 | X-H torsion
[ 10763 10752 10751 10750 ] final   35.09 input  -60.55 | X-H torsion
[ 11005 11000 10999 10996 ] final -118.62 input  -57.11 | X-H torsion

> <Gold.Protein.ActiveResidues>
 VAL166  LYS551  ARG553  GLY616  TRP617  ASP618  TYR619  PRO620  LYS621  CYS622 
 ASP623  PHE694  ASN695  SER759  ASP760  ASP761  ALA762  ILE779  LEU786  VAL792 
 PHE793  MET794  SER795  GLU796  ALA797  LYS798  CYS799  TRP800  GLU811  SER814 

> <Gold.Protein.RotatedAtoms>
  151.1449  135.0198  159.8642 H   0  0  0  0  0  0  0  0  0  0  0  0  # atno 6907 bound_to 6896
  152.5453  134.1455  159.8507 H   0  0  0  0  0  0  0  0  0  0  0  0  # atno 6908 bound_to 6896
  151.1535  133.4846  159.2627 H   0  0  0  0  0  0  0  0  0  0  0  0  # atno 6909 bound_to 6896
  144.7761  139.7693  143.6278 H   0  0  0  0  0  0  0  0  0  0  0  0  # atno 7974 bound_to 7965
  154.5218  140.2225  155.8962 H   0  0  0  0  0  0  0  0  0  0  0  0  # atno 8008 bound_to 7997
  156.1670  140.3130  155.8871 H   0  0  0  0  0  0  0  0  0  0  0  0  # atno 8009 bound_to 7997
  155.3636  140.0462  157.3037 H   0  0  0  0  0  0  0  0  0  0  0  0  # atno 8010 bound_to 7997
  139.8220  143.7561  152.2666 H   0  0  0  0  0  0  0  0  0  0  0  0  # atno 10167 bound_to 10162
  157.4562  131.1070  150.9974 H   0  0  0  0  0  0  0  0  0  0  0  0  # atno 10718 bound_to 10713
  153.0134  135.6342  154.1772 H   0  0  0  0  0  0  0  0  0  0  0  0  # atno 10763 bound_to 10752
  154.1513  135.2829  155.3136 H   0  0  0  0  0  0  0  0  0  0  0  0  # atno 10764 bound_to 10752
  154.6051  135.5574  153.7476 H   0  0  0  0  0  0  0  0  0  0  0  0  # atno 10765 bound_to 10752
  141.0273  134.0034  157.3195 H   0  0  0  0  0  0  0  0  0  0  0  0  # atno 11005 bound_to 11000
  146.1941  139.5197  142.9786 LP  0  0  0  0  0  0  0  0  0  0  0  0  # atno 17320 bound_to 7965
  145.6182  141.0327  143.1929 LP  0  0  0  0  0  0  0  0  0  0  0  0  # atno 17321 bound_to 7965
  139.7742  144.7466  151.0181 LP  0  0  0  0  0  0  0  0  0  0  0  0  # atno 17342 bound_to 10162
  140.7812  143.4612  151.0275 LP  0  0  0  0  0  0  0  0  0  0  0  0  # atno 17343 bound_to 10162
  157.0787  130.5894  149.5416 LP  0  0  0  0  0  0  0  0  0  0  0  0  # atno 17370 bound_to 10713
  156.0008  130.5087  150.7657 LP  0  0  0  0  0  0  0  0  0  0  0  0  # atno 17371 bound_to 10713
  139.9184  135.0199  156.7972 LP  0  0  0  0  0  0  0  0  0  0  0  0  # atno 17394 bound_to 11000
  140.6468  133.9768  155.7735 LP  0  0  0  0  0  0  0  0  0  0  0  0  # atno 17395 bound_to 11000

$$$$
