AV-unprocessed.smi:2194|AV-procd|sdf|8902|dock3
  -GOLD-   2272012113D 1   1.00000     0.00000
 Structure written by MMmdl.
 45 47  0  0  0  0  0  0  0  0  1 V2000
  152.6857  143.4078  161.4152 C   0  0  0  0  0  0  0  0  0  0  0  0
  152.2275  142.7774  160.1162 C   0  0  0  0  0  0  0  0  0  0  0  0
  152.4084  141.3990  159.8864 C   0  0  0  0  0  0  0  0  0  0  0  0
  151.9791  140.8230  158.6752 C   0  0  0  0  0  0  0  0  0  0  0  0
  151.3634  141.6084  157.6791 C   0  0  0  0  0  0  0  0  0  0  0  0
  150.9733  140.9627  156.5258 O   0  0  0  0  0  0  0  0  0  0  0  0
  150.1143  141.6504  155.6244 C   0  0  0  0  0  0  0  0  0  0  0  0
  149.3089  140.6392  154.7921 C   0  0  2  0  0  0  0  0  0  0  0  0
  150.1625  140.0355  153.8399 O   0  0  0  0  0  0  0  0  0  0  0  0
  148.0467  141.2403  154.1400 C   0  0  0  0  0  0  0  0  0  0  0  0
  147.0057  141.5354  155.1131 N   0  0  0  0  0  0  0  0  0  0  0  0
  146.7997  140.8840  156.2758 C   0  0  0  0  0  0  0  0  0  0  0  0
  145.7769  141.3240  157.0096 N   0  0  0  0  0  0  0  0  0  0  0  0
  145.2873  142.3649  156.2287 C   0  0  0  0  0  0  0  0  0  0  0  0
  146.0076  142.5091  155.0903 C   0  0  0  0  0  0  0  0  0  0  0  0
  145.7045  143.5291  154.0822 C   0  0  0  0  0  0  0  0  0  0  0  0
  146.3705  143.6345  153.0513 O   0  0  0  0  0  0  0  0  0  0  0  0
  144.6352  144.3244  154.3983 N   0  0  0  0  0  0  0  0  0  0  0  0
  144.3042  145.3674  153.4084 C   0  0  0  0  0  0  0  0  0  0  0  0
  143.8706  144.2163  155.5491 C   0  0  0  0  0  0  0  0  0  0  0  0
  142.9211  144.9745  155.7602 O   0  0  0  0  0  0  0  0  0  0  0  0
  144.1946  143.2374  156.4583 N   0  0  0  0  0  0  0  0  0  0  0  0
  143.4360  143.0443  157.6981 C   0  0  0  0  0  0  0  0  0  0  0  0
  151.1855  142.9948  157.9167 C   0  0  0  0  0  0  0  0  0  0  0  0
  151.6159  143.5722  159.1271 C   0  0  0  0  0  0  0  0  0  0  0  0
  153.0834  142.6601  162.1023 H   0  0  0  0  0  0  0  0  0  0  0  0
  151.8520  143.9110  161.9058 H   0  0  0  0  0  0  0  0  0  0  0  0
  153.4666  144.1438  161.2227 H   0  0  0  0  0  0  0  0  0  0  0  0
  152.8755  140.7777  160.6363 H   0  0  0  0  0  0  0  0  0  0  0  0
  152.1219  139.7651  158.5097 H   0  0  0  0  0  0  0  0  0  0  0  0
  149.4404  142.3225  156.1589 H   0  0  0  0  0  0  0  0  0  0  0  0
  150.7200  142.2561  154.9483 H   0  0  0  0  0  0  0  0  0  0  0  0
  148.9980  139.8367  155.4621 H   0  0  0  0  0  0  0  0  0  0  0  0
  149.7232  140.0285  153.0033 H   0  0  0  0  0  0  0  0  0  0  0  0
  148.3059  142.1701  153.6319 H   0  0  0  0  0  0  0  0  0  0  0  0
  147.6456  140.5841  153.3691 H   0  0  0  0  0  0  0  0  0  0  0  0
  147.4186  140.0572  156.5926 H   0  0  0  0  0  0  0  0  0  0  0  0
  143.4434  145.9876  153.6586 H   0  0  0  0  0  0  0  0  0  0  0  0
  144.0864  144.9168  152.4385 H   0  0  0  0  0  0  0  0  0  0  0  0
  145.1475  146.0479  153.2783 H   0  0  0  0  0  0  0  0  0  0  0  0
  142.6198  143.7523  157.8437 H   0  0  0  0  0  0  0  0  0  0  0  0
  144.0999  143.1367  158.5584 H   0  0  0  0  0  0  0  0  0  0  0  0
  143.0041  142.0433  157.7160 H   0  0  0  0  0  0  0  0  0  0  0  0
  150.7221  143.6389  157.1853 H   0  0  0  0  0  0  0  0  0  0  0  0
  151.4744  144.6297  159.2946 H   0  0  0  0  0  0  0  0  0  0  0  0
  1  2  1  0  0  0  0
  1 26  1  0  0  0  0
  1 27  1  0  0  0  0
  1 28  1  0  0  0  0
  2 25  1  0  0  0  0
  2  3  2  0  0  0  0
  3  4  1  0  0  0  0
  3 29  1  0  0  0  0
  4  5  2  0  0  0  0
  4 30  1  0  0  0  0
  5  6  1  0  0  0  0
  5 24  1  0  0  0  0
  6  7  1  0  0  0  0
  7  8  1  0  0  0  0
  7 31  1  0  0  0  0
  7 32  1  0  0  0  0
  8  9  1  0  0  0  0
  8 10  1  0  0  0  0
  8 33  1  0  0  0  0
  9 34  1  0  0  0  0
 10 11  1  0  0  0  0
 10 35  1  0  0  0  0
 10 36  1  0  0  0  0
 11 15  1  0  0  0  0
 11 12  1  0  0  0  0
 12 13  2  0  0  0  0
 12 37  1  0  0  0  0
 13 14  1  0  0  0  0
 14 22  1  0  0  0  0
 14 15  2  0  0  0  0
 15 16  1  0  0  0  0
 16 17  2  0  0  0  0
 16 18  1  0  0  0  0
 18 19  1  0  0  0  0
 18 20  1  0  0  0  0
 19 38  1  0  0  0  0
 19 39  1  0  0  0  0
 19 40  1  0  0  0  0
 20 21  2  0  0  0  0
 20 22  1  0  0  0  0
 22 23  1  0  0  0  0
 23 41  1  0  0  0  0
 23 42  1  0  0  0  0
 23 43  1  0  0  0  0
 24 25  2  0  0  0  0
 24 44  1  0  0  0  0
 25 45  1  0  0  0  0
M  END
> <s_m_source_file>
AV-unprocessed.smi

> <i_m_source_file_index>
2194

> <i_lp_mmshare_version>
43012

> <i_f3d_flags>
0

> <s_epik_input>
W0NIM11jMVtjSF1bY0hdYyhbY0hdW2NIXTEpT1tDSDJdW0NASF0oW09IXSlbQ0gyXW4oW2NIXW4yKWMoYzIzKWMoPU8pbihbQ0gzXSljKD1PKW4zW0NIM10=

> <s_epik_cmdline>
J2VwaWtfcHl0aG9uJywgJy1waCcsICc3LjAnLCAnLXRuJywgJzgnLCAnLW1hJywgJzIwMCcsICctbWV0YWxfYmluZGluZycsICctaW1hZScsICc8aW5maWxlLm1hZT4nLCAnLW9tYWUnLCAnPG91dGZpbGUubWFlPic=

> <r_lp_tautomer_probability>
1

> <r_epik_Ionization_Penalty>
1.06124e-06

> <r_epik_Ionization_Penalty_Charging>
3.25921e-09

> <r_epik_Ionization_Penalty_Neutral>
1.05798e-06

> <r_epik_State_Penalty>
-0

> <r_epik_Charging_Adjusted_Penalty>
3.25921e-09

> <i_epik_Tot_Q>
0

> <i_epik_Tot_abs_Q>
0

> <r_epik_Metal_State_Penalty>
-0

> <b_epik_Metal_Only>
0

> <s_lp_Force_Field>
OPLS_2005

> <r_lp_Energy>
41.6396

> <b_lp_Chiralities_Consistent>
1

> <s_lp_Variant>
AV-unprocessed.smi:2194-1

> <Gold.Version>
5.8.1

> <Gold.Id.Protein>
6NUR|6NUR_protein|mol2

> <Gold.PLP.Fitness>
48.6855

> <Gold.PLP.PLP>
-44.8265

> <Gold.PLP.part.hbond>
-3.0000

> <Gold.PLP.part.metal>
0.0000

> <Gold.PLP.part.buried>
-3.7478

> <Gold.PLP.part.nonpolar>
-38.4481

> <Gold.PLP.part.repulsive>
0.2815

> <Gold.PLP.ligand.clash>
0.0000

> <Gold.PLP.ligand.torsion>
0.8767

> <Gold.PLP.Chemscore.Hbond>
1.8640

> <Gold.PLP.Chemscore.CHOScore>
0.0000

> <Gold.PLP.Chemscore.Metal>
0.0000

> <Gold.Chemscore.Hbonds>
donor molecule, donor type, donor heavy atom, donor atom, acceptor molecule, acceptor atom, score
      L1  H     9    34       P1  7957  1.00
      P1  H  7989  7998       L1     9  0.88

> <Gold.PLP.Chemscore.Internal.Correction>
0.0204

> <Gold.Rescore>
     Score         DG    S(hbond)    S(metal)    S(lipo)     H(rot)  DE(clash)    DE(int)     intcor
     13.63     -16.16       1.55        0.00     105.91       2.69       1.64       0.89       ----

> <Gold.Chemscore.Fitness>
13.6300

> <Gold.Chemscore.DG>
-16.1609

> <Gold.Chemscore.ZeroCoef>
-5.4800

> <Gold.Chemscore.Hbond>
1.5487

> <Gold.Chemscore.Metal>
0.0000

> <Gold.Chemscore.Lipo>
105.9053

> <Gold.Chemscore.Internal_Hbond>
0.0000

> <Gold.Chemscore.DEClash>
1.6359

> <Gold.Chemscore.DEInternal>
0.8950

> <Gold.Chemscore.Rot>
2.6885

> <Gold.Chemscore.Internal.Correction>
   9.000000E+99

> <Gold.Chemscore.Hbonds>
donor molecule, donor type, donor heavy atom, donor atom, acceptor molecule, acceptor atom, score
      L1  H     9    34       P1  7957  0.98
      P1  H  7989  7998       L1     9  0.28

> <Gold.Chemscore.Hbond.Weighted>
-5.1725

> <Gold.Chemscore.Metal.Weighted>
-0.0000

> <Gold.Chemscore.Lipo.Weighted>
-12.3909

> <Gold.Chemscore.Internal_Hbond.Weighted>
0.0000

> <Gold.Chemscore.DEClash.Weighted>
1.6359

> <Gold.Chemscore.DEInternal.Weighted>
0.8950

> <Gold.Chemscore.Rot.Weighted>
6.8825

> <Gold.Chemscore.Internal.Correction.Weighted>
   9.000000E+99

> <Gold.Protein.RotatedTorsions>
[ 6907 6896 6895 6894 ] final  -73.55 input  -60.11 | X-H torsion
[ 7974 7965 7964 7962 ] final  -43.25 input  175.53 | X-H torsion
[ 8008 7997 7996 7995 ] final   37.90 input   59.86 | X-H torsion
[ 10167 10162 10161 10158 ] final  141.41 input  -65.29 | X-H torsion
[ 10718 10713 10712 10709 ] final -123.64 input   66.30 | X-H torsion
[ 10763 10752 10751 10750 ] final  -23.04 input  -60.55 | X-H torsion
[ 11005 11000 10999 10996 ] final   -5.22 input  -57.11 | X-H torsion

> <Gold.Protein.ActiveResidues>
 VAL166  LYS551  ARG553  GLY616  TRP617  ASP618  TYR619  PRO620  LYS621  CYS622 
 ASP623  PHE694  ASN695  SER759  ASP760  ASP761  ALA762  ILE779  LEU786  VAL792 
 PHE793  MET794  SER795  GLU796  ALA797  LYS798  CYS799  TRP800  GLU811  SER814 

> <Gold.Protein.RotatedAtoms>
  150.7126  134.5000  159.5556 H   0  0  0  0  0  0  0  0  0  0  0  0  # atno 6907 bound_to 6896
  152.2599  134.8042  160.0441 H   0  0  0  0  0  0  0  0  0  0  0  0  # atno 6908 bound_to 6896
  151.8759  133.3450  159.3787 H   0  0  0  0  0  0  0  0  0  0  0  0  # atno 6909 bound_to 6896
  146.0037  140.7045  142.9258 H   0  0  0  0  0  0  0  0  0  0  0  0  # atno 7974 bound_to 7965
  155.2113  140.3323  155.4328 H   0  0  0  0  0  0  0  0  0  0  0  0  # atno 8008 bound_to 7997
  156.2369  140.1876  156.7143 H   0  0  0  0  0  0  0  0  0  0  0  0  # atno 8009 bound_to 7997
  154.6076  140.0614  156.9437 H   0  0  0  0  0  0  0  0  0  0  0  0  # atno 8010 bound_to 7997
  139.5021  144.6173  151.6133 H   0  0  0  0  0  0  0  0  0  0  0  0  # atno 10167 bound_to 10162
  156.1520  130.6541  150.9927 H   0  0  0  0  0  0  0  0  0  0  0  0  # atno 10718 bound_to 10713
  153.6616  135.6976  153.5175 H   0  0  0  0  0  0  0  0  0  0  0  0  # atno 10763 bound_to 10752
  153.2627  135.4239  155.0909 H   0  0  0  0  0  0  0  0  0  0  0  0  # atno 10764 bound_to 10752
  154.8450  135.3559  154.6160 H   0  0  0  0  0  0  0  0  0  0  0  0  # atno 10765 bound_to 10752
  140.6888  133.9089  155.8604 H   0  0  0  0  0  0  0  0  0  0  0  0  # atno 11005 bound_to 11000
  144.6928  140.3277  143.7221 LP  0  0  0  0  0  0  0  0  0  0  0  0  # atno 17320 bound_to 7965
  145.7449  139.1775  143.2355 LP  0  0  0  0  0  0  0  0  0  0  0  0  # atno 17321 bound_to 7965
  140.5865  143.9855  150.6299 LP  0  0  0  0  0  0  0  0  0  0  0  0  # atno 17342 bound_to 10162
  140.3021  143.3253  152.0961 LP  0  0  0  0  0  0  0  0  0  0  0  0  # atno 17343 bound_to 10162
  157.6664  131.0870  150.7717 LP  0  0  0  0  0  0  0  0  0  0  0  0  # atno 17370 bound_to 10713
  156.7785  130.4851  149.5405 LP  0  0  0  0  0  0  0  0  0  0  0  0  # atno 17371 bound_to 10713
  141.0258  134.0825  157.4070 LP  0  0  0  0  0  0  0  0  0  0  0  0  # atno 17394 bound_to 11000
  139.8929  135.0127  156.6873 LP  0  0  0  0  0  0  0  0  0  0  0  0  # atno 17395 bound_to 11000

$$$$
