AV-unprocessed.smi:255|AV-procd|sdf|1955|dock9
  -GOLD-   2262021 93D 1   1.00000     0.00000
 Structure written by MMmdl.
 44 47  0  0  0  0  0  0  0  0  1 V2000
  145.5477  136.5561  150.1563 O   0  0  0  0  0  0  0  0  0  0  0  0
  145.4163  135.9266  151.4135 C   0  0  0  0  0  0  0  0  0  0  0  0
  145.5589  134.3993  151.2715 C   0  0  2  0  0  0  0  0  0  0  0  0
  144.3038  133.7287  150.7135 C   0  0  0  0  0  0  0  0  0  0  0  0
  144.4995  132.2704  151.1223 C   0  0  1  0  0  0  0  0  0  0  0  0
  145.2395  131.6460  150.2052 F   0  0  0  0  0  0  0  0  0  0  0  0
  145.2895  132.3525  152.4356 C   0  0  0  0  0  0  0  0  0  0  0  0
  145.7576  133.7302  152.5535 N   0  0  0  0  0  0  0  0  0  0  0  0
  146.9793  133.8603  153.1155 C   0  0  0  0  0  0  0  0  0  0  0  0
  147.9577  132.9568  152.8439 N   0  0  0  0  0  0  0  0  0  0  0  0
  149.1657  133.0970  153.3985 C   0  0  0  0  0  0  0  0  0  0  0  0
  149.5953  134.0431  154.2371 N   0  0  0  0  0  0  0  0  0  0  0  0
  148.6102  134.9457  154.5142 C   0  0  0  0  0  0  0  0  0  0  0  0
  147.2847  134.9276  153.9984 C   0  0  0  0  0  0  0  0  0  0  0  0
  146.5636  136.0067  154.4923 N   0  0  0  0  0  0  0  0  0  0  0  0
  147.4168  136.6297  155.2592 C   0  0  0  0  0  0  0  0  0  0  0  0
  148.6675  136.0571  155.3372 N   0  0  0  0  0  0  0  0  0  0  0  0
  149.8017  136.5416  156.1094 C   0  0  0  0  0  0  0  0  0  0  0  0
  150.8953  137.2181  155.2493 C   0  0  2  0  0  0  0  0  0  0  0  0
  151.4377  136.2587  154.3578 O   0  0  0  0  0  0  0  0  0  0  0  0
  152.0332  137.7927  156.0833 C   0  0  0  0  0  0  0  0  0  0  0  0
  152.5334  138.9438  155.2213 C   0  0  0  0  0  0  0  0  0  0  0  0
  151.3357  139.4928  154.6989 O   0  0  0  0  0  0  0  0  0  0  0  0
  150.4187  138.4358  154.4298 C   0  0  0  0  0  0  0  0  0  0  0  0
  146.3843  134.1689  150.5952 H   0  0  0  0  0  0  0  0  0  0  0  0
  143.5625  131.7208  151.2170 H   0  0  0  0  0  0  0  0  0  0  0  0
  144.8238  137.1526  150.0414 H   0  0  0  0  0  0  0  0  0  0  0  0
  146.1379  136.3342  152.1225 H   0  0  0  0  0  0  0  0  0  0  0  0
  144.4234  136.1739  151.7900 H   0  0  0  0  0  0  0  0  0  0  0  0
  143.4136  134.1310  151.1995 H   0  0  0  0  0  0  0  0  0  0  0  0
  144.1903  133.8608  149.6369 H   0  0  0  0  0  0  0  0  0  0  0  0
  144.6346  132.1454  153.2823 H   0  0  0  0  0  0  0  0  0  0  0  0
  146.1002  131.6224  152.4621 H   0  0  0  0  0  0  0  0  0  0  0  0
  149.8920  132.3435  153.1317 H   0  0  0  0  0  0  0  0  0  0  0  0
  147.1546  137.5296  155.7963 H   0  0  0  0  0  0  0  0  0  0  0  0
  149.4293  137.2416  156.8581 H   0  0  0  0  0  0  0  0  0  0  0  0
  150.2222  135.7006  156.6623 H   0  0  0  0  0  0  0  0  0  0  0  0
  151.1051  136.4343  153.4908 H   0  0  0  0  0  0  0  0  0  0  0  0
  151.6492  138.1951  157.0216 H   0  0  0  0  0  0  0  0  0  0  0  0
  152.8107  137.0677  156.3266 H   0  0  0  0  0  0  0  0  0  0  0  0
  153.1008  139.6821  155.7881 H   0  0  0  0  0  0  0  0  0  0  0  0
  153.1580  138.5800  154.4042 H   0  0  0  0  0  0  0  0  0  0  0  0
  150.3861  138.2280  153.3591 H   0  0  0  0  0  0  0  0  0  0  0  0
  149.4261  138.7724  154.7266 H   0  0  0  0  0  0  0  0  0  0  0  0
  1  2  1  0  0  0  0
  1 27  1  0  0  0  0
  2  3  1  0  0  0  0
  2 28  1  0  0  0  0
  2 29  1  0  0  0  0
  3 25  1  0  0  0  0
  3  8  1  0  0  0  0
  3  4  1  0  0  0  0
  4  5  1  0  0  0  0
  4 30  1  0  0  0  0
  4 31  1  0  0  0  0
  5 26  1  0  0  0  0
  5  6  1  0  0  0  0
  5  7  1  0  0  0  0
  7  8  1  0  0  0  0
  7 32  1  0  0  0  0
  7 33  1  0  0  0  0
  8  9  1  0  0  0  0
  9 14  1  0  0  0  0
  9 10  2  0  0  0  0
 10 11  1  0  0  0  0
 11 12  2  0  0  0  0
 11 34  1  0  0  0  0
 12 13  1  0  0  0  0
 13 17  1  0  0  0  0
 13 14  2  0  0  0  0
 14 15  1  0  0  0  0
 15 16  2  0  0  0  0
 16 17  1  0  0  0  0
 16 35  1  0  0  0  0
 17 18  1  0  0  0  0
 18 19  1  0  0  0  0
 18 36  1  0  0  0  0
 18 37  1  0  0  0  0
 19 24  1  0  0  0  0
 19 20  1  0  0  0  0
 19 21  1  0  0  0  0
 20 38  1  0  0  0  0
 21 22  1  0  0  0  0
 21 39  1  0  0  0  0
 21 40  1  0  0  0  0
 22 23  1  0  0  0  0
 22 41  1  0  0  0  0
 22 42  1  0  0  0  0
 23 24  1  0  0  0  0
 24 43  1  0  0  0  0
 24 44  1  0  0  0  0
M  END
> <s_m_source_file>
AV-unprocessed.smi

> <i_m_source_file_index>
255

> <i_lp_mmshare_version>
43012

> <i_f3d_flags>
0

> <s_epik_input>
W09IXVtDSDJdW0NAQEhdMVtDSDJdW0NASF0oRilbQ0gyXU4xYyhuW2NIXW4yKWMoYzIzKW5bY0hdbjNbQ0gyXVtDQEBdNChbT0hdKVtDSDJdW0NIMl1PW0NIMl00

> <s_epik_cmdline>
J2VwaWtfcHl0aG9uJywgJy1waCcsICc3LjAnLCAnLXRuJywgJzgnLCAnLW1hJywgJzIwMCcsICctbWV0YWxfYmluZGluZycsICctaW1hZScsICc8aW5maWxlLm1hZT4nLCAnLW9tYWUnLCAnPG91dGZpbGUubWFlPic=

> <r_lp_tautomer_probability>
1

> <r_epik_Ionization_Penalty>
0.0058098

> <r_epik_Ionization_Penalty_Charging>
0

> <r_epik_Ionization_Penalty_Neutral>
0.0058098

> <r_epik_State_Penalty>
0.00411166

> <r_epik_Charging_Adjusted_Penalty>
0.00411166

> <i_epik_Tot_Q>
0

> <i_epik_Tot_abs_Q>
0

> <r_epik_Metal_State_Penalty>
-0

> <b_epik_Metal_Only>
0

> <s_lp_Force_Field>
OPLS_2005

> <r_lp_Energy>
53.8685

> <b_lp_Chiralities_Consistent>
1

> <s_lp_Variant>
AV-unprocessed.smi:255-7

> <Gold.Version>
5.8.1

> <Gold.Id.Protein>
6NUR|6NUR_protein|mol2

> <Gold.PLP.Fitness>
45.7718

> <Gold.PLP.PLP>
-35.8208

> <Gold.PLP.part.hbond>
-5.0000

> <Gold.PLP.part.metal>
0.0000

> <Gold.PLP.part.buried>
-4.6594

> <Gold.PLP.part.nonpolar>
-27.2315

> <Gold.PLP.part.repulsive>
0.5961

> <Gold.PLP.ligand.clash>
0.0000

> <Gold.PLP.ligand.torsion>
0.9953

> <Gold.PLP.Chemscore.Hbond>
3.9516

> <Gold.PLP.Chemscore.CHOScore>
0.0000

> <Gold.PLP.Chemscore.Metal>
0.0000

> <Gold.Chemscore.Hbonds>
donor molecule, donor type, donor heavy atom, donor atom, acceptor molecule, acceptor atom, score
      L1  H     1    27       P1 10171  1.00
      L1  H    20    38       P1  7949  0.91
      P1  H  7989  7998       L1    23  1.00
      P1  H 10752 10763       L1    20  1.00

> <Gold.PLP.Chemscore.Internal.Correction>
0.0867

> <Gold.Rescore>
     Score         DG    S(hbond)    S(metal)    S(lipo)     H(rot)  DE(clash)    DE(int)     intcor
     12.51     -15.47       3.28        0.00      64.55       3.33       1.87       1.09       ----

> <Gold.Chemscore.Fitness>
12.5088

> <Gold.Chemscore.DG>
-15.4686

> <Gold.Chemscore.ZeroCoef>
-5.4800

> <Gold.Chemscore.Hbond>
3.2798

> <Gold.Chemscore.Metal>
0.0000

> <Gold.Chemscore.Lipo>
64.5482

> <Gold.Chemscore.Internal_Hbond>
0.0000

> <Gold.Chemscore.DEClash>
1.8734

> <Gold.Chemscore.DEInternal>
1.0864

> <Gold.Chemscore.Rot>
3.3273

> <Gold.Chemscore.Internal.Correction>
   9.000000E+99

> <Gold.Chemscore.Hbonds>
donor molecule, donor type, donor heavy atom, donor atom, acceptor molecule, acceptor atom, score
      L1  H     1    27       P1 10171  1.00
      L1  H    20    38       P1  7949  0.29
      P1  H  7989  7998       L1    23  0.81
      P1  H 10752 10763       L1    20  0.74

> <Gold.Chemscore.Hbond.Weighted>
-10.9544

> <Gold.Chemscore.Metal.Weighted>
-0.0000

> <Gold.Chemscore.Lipo.Weighted>
-7.5521

> <Gold.Chemscore.Internal_Hbond.Weighted>
0.0000

> <Gold.Chemscore.DEClash.Weighted>
1.8734

> <Gold.Chemscore.DEInternal.Weighted>
1.0864

> <Gold.Chemscore.Rot.Weighted>
8.5179

> <Gold.Chemscore.Internal.Correction.Weighted>
   9.000000E+99

> <Gold.Protein.RotatedTorsions>
[ 6907 6896 6895 6894 ] final   72.57 input  -60.11 | X-H torsion
[ 7974 7965 7964 7962 ] final  119.72 input  175.53 | X-H torsion
[ 8008 7997 7996 7995 ] final   24.84 input   59.86 | X-H torsion
[ 10167 10162 10161 10158 ] final   34.71 input  -65.29 | X-H torsion
[ 10718 10713 10712 10709 ] final -124.31 input   66.30 | X-H torsion
[ 10763 10752 10751 10750 ] final   39.88 input  -60.55 | X-H torsion
[ 11005 11000 10999 10996 ] final   45.38 input  -57.11 | X-H torsion

> <Gold.Protein.ActiveResidues>
 VAL166  LYS551  ARG553  GLY616  TRP617  ASP618  TYR619  PRO620  LYS621  CYS622 
 ASP623  PHE694  ASN695  SER759  ASP760  ASP761  ALA762  ILE779  LEU786  VAL792 
 PHE793  MET794  SER795  GLU796  ALA797  LYS798  CYS799  TRP800  GLU811  SER814 

> <Gold.Protein.RotatedAtoms>
  152.4875  134.4551  159.9586 H   0  0  0  0  0  0  0  0  0  0  0  0  # atno 6907 bound_to 6896
  151.4545  133.3603  159.2808 H   0  0  0  0  0  0  0  0  0  0  0  0  # atno 6908 bound_to 6896
  150.8999  134.8435  159.7413 H   0  0  0  0  0  0  0  0  0  0  0  0  # atno 6909 bound_to 6896
  145.1397  139.3275  143.4622 H   0  0  0  0  0  0  0  0  0  0  0  0  # atno 7974 bound_to 7965
  155.0024  140.3127  155.4862 H   0  0  0  0  0  0  0  0  0  0  0  0  # atno 8008 bound_to 7997
  156.2923  140.2229  156.5076 H   0  0  0  0  0  0  0  0  0  0  0  0  # atno 8009 bound_to 7997
  154.7606  140.0459  157.0958 H   0  0  0  0  0  0  0  0  0  0  0  0  # atno 8010 bound_to 7997
  140.4290  144.1352  150.6157 H   0  0  0  0  0  0  0  0  0  0  0  0  # atno 10167 bound_to 10162
  156.1577  130.6579  151.0005 H   0  0  0  0  0  0  0  0  0  0  0  0  # atno 10718 bound_to 10713
  152.9953  135.6207  154.2537 H   0  0  0  0  0  0  0  0  0  0  0  0  # atno 10763 bound_to 10752
  154.2274  135.2793  155.2904 H   0  0  0  0  0  0  0  0  0  0  0  0  # atno 10764 bound_to 10752
  154.5478  135.5742  153.6953 H   0  0  0  0  0  0  0  0  0  0  0  0  # atno 10765 bound_to 10752
  140.1465  134.4516  155.8412 H   0  0  0  0  0  0  0  0  0  0  0  0  # atno 11005 bound_to 11000
  146.3506  140.1429  142.8594 LP  0  0  0  0  0  0  0  0  0  0  0  0  # atno 17320 bound_to 7965
  145.0545  140.9042  143.4975 LP  0  0  0  0  0  0  0  0  0  0  0  0  # atno 17321 bound_to 7965
  140.4449  143.2511  151.9425 LP  0  0  0  0  0  0  0  0  0  0  0  0  # atno 17342 bound_to 10162
  139.4784  144.5619  151.8226 LP  0  0  0  0  0  0  0  0  0  0  0  0  # atno 17343 bound_to 10162
  157.6708  131.0862  150.7618 LP  0  0  0  0  0  0  0  0  0  0  0  0  # atno 17370 bound_to 10713
  156.7682  130.4820  149.5423 LP  0  0  0  0  0  0  0  0  0  0  0  0  # atno 17371 bound_to 10713
  141.2193  133.6854  156.7343 LP  0  0  0  0  0  0  0  0  0  0  0  0  # atno 17394 bound_to 11000
  140.2657  134.8431  157.3801 LP  0  0  0  0  0  0  0  0  0  0  0  0  # atno 17395 bound_to 11000

$$$$
