AV-unprocessed.smi:1607|AV-procd|sdf|6463|dock9
  -GOLD-   22720 7123D 1   1.00000     0.00000
 Structure written by MMmdl.
 39 40  0  0  0  0  0  0  0  0  2 V2000
  152.1042  144.6785  158.0526 C   0  0  0  0  0  0  0  0  0  0  0  0
  152.0032  143.8116  159.3158 C   0  0  2  0  0  0  0  0  0  0  0  0
  152.1638  144.6567  160.5907 C   0  0  0  0  0  0  0  0  0  0  0  0
  152.0879  143.7622  161.8339 C   0  0  0  0  0  0  0  0  0  0  0  0
  153.1189  142.6258  161.7553 C   0  0  0  0  0  0  0  0  0  0  0  0
  152.9359  141.8216  160.5195 N   0  3  2  0  0  0  0  0  0  0  0  0
  153.8311  140.6378  160.4858 C   0  0  0  0  0  0  0  0  0  0  0  0
  153.2232  139.4623  159.6959 C   0  0  0  0  0  0  0  0  0  0  0  0
  153.0151  139.8095  158.2951 N   0  0  0  0  0  0  0  0  0  0  0  0
  151.8330  140.1429  157.7536 C   0  0  0  0  0  0  0  0  0  0  0  0
  150.7844  140.1936  158.3960 O   0  0  0  0  0  0  0  0  0  0  0  0
  151.8319  140.4719  156.2609 C   0  0  0  0  0  0  0  0  0  0  0  0
  152.2679  139.3319  155.4778 N   0  0  0  0  0  0  0  0  0  0  0  0
  151.6951  138.1460  155.2605 C   0  0  0  0  0  0  0  0  0  0  0  0
  152.4409  137.3792  154.4800 N   0  0  0  0  0  0  0  0  0  0  0  0
  153.5428  138.1756  154.2159 N   0  0  0  0  0  0  0  0  0  0  0  0
  153.4463  139.3352  154.8063 N   0  0  0  0  0  0  0  0  0  0  0  0
  153.0368  142.6667  159.2987 C   0  0  0  0  0  0  0  0  0  0  0  0
  153.0832  145.1519  157.9733 H   0  0  0  0  0  0  0  0  0  0  0  0
  151.3523  145.4682  158.0567 H   0  0  0  0  0  0  0  0  0  0  0  0
  151.9489  144.0826  157.1528 H   0  0  0  0  0  0  0  0  0  0  0  0
  151.0069  143.3663  159.3294 H   0  0  0  0  0  0  0  0  0  0  0  0
  153.1208  145.1802  160.5742 H   0  0  0  0  0  0  0  0  0  0  0  0
  151.3897  145.4236  160.6378 H   0  0  0  0  0  0  0  0  0  0  0  0
  152.2565  144.3571  162.7319 H   0  0  0  0  0  0  0  0  0  0  0  0
  151.0851  143.3423  161.9243 H   0  0  0  0  0  0  0  0  0  0  0  0
  154.1315  143.0320  161.7813 H   0  0  0  0  0  0  0  0  0  0  0  0
  153.0098  141.9868  162.6325 H   0  0  0  0  0  0  0  0  0  0  0  0
  154.8020  140.9277  160.0805 H   0  0  0  0  0  0  0  0  0  0  0  0
  154.0158  140.2957  161.5050 H   0  0  0  0  0  0  0  0  0  0  0  0
  153.8940  138.6035  159.7350 H   0  0  0  0  0  0  0  0  0  0  0  0
  152.2760  139.1353  160.1257 H   0  0  0  0  0  0  0  0  0  0  0  0
  153.8245  139.7847  157.6910 H   0  0  0  0  0  0  0  0  0  0  0  0
  150.8262  140.7513  155.9443 H   0  0  0  0  0  0  0  0  0  0  0  0
  152.4818  141.3243  156.0559 H   0  0  0  0  0  0  0  0  0  0  0  0
  150.7421  137.8474  155.6719 H   0  0  0  0  0  0  0  0  0  0  0  0
  152.8751  142.0588  158.4094 H   0  0  0  0  0  0  0  0  0  0  0  0
  154.0471  143.0720  159.2211 H   0  0  0  0  0  0  0  0  0  0  0  0
  151.9916  141.4653  160.5550 H   0  0  0  0  0  0  0  0  0  0  0  0
  1  2  1  0  0  0  0
  1 19  1  0  0  0  0
  1 20  1  0  0  0  0
  1 21  1  0  0  0  0
  2 18  1  0  0  0  0
  2  3  1  0  0  0  0
  2 22  1  0  0  0  0
  3  4  1  0  0  0  0
  3 23  1  0  0  0  0
  3 24  1  0  0  0  0
  4  5  1  0  0  0  0
  4 25  1  0  0  0  0
  4 26  1  0  0  0  0
  5  6  1  0  0  0  0
  5 27  1  0  0  0  0
  5 28  1  0  0  0  0
  6  7  1  0  0  0  0
  6 18  1  0  0  0  0
  6 39  1  0  0  0  0
  7  8  1  0  0  0  0
  7 29  1  0  0  0  0
  7 30  1  0  0  0  0
  8  9  1  0  0  0  0
  8 31  1  0  0  0  0
  8 32  1  0  0  0  0
  9 10  1  0  0  0  0
  9 33  1  0  0  0  0
 10 11  2  0  0  0  0
 10 12  1  0  0  0  0
 12 13  1  0  0  0  0
 12 34  1  0  0  0  0
 12 35  1  0  0  0  0
 13 17  1  0  0  0  0
 13 14  1  0  0  0  0
 14 15  2  0  0  0  0
 14 36  1  0  0  0  0
 15 16  1  0  0  0  0
 16 17  2  0  0  0  0
 18 37  1  0  0  0  0
 18 38  1  0  0  0  0
M  CHG  1   6   1
M  END
> <s_m_source_file>
AV-unprocessed.smi

> <i_m_source_file_index>
1607

> <i_lp_mmshare_version>
43012

> <i_f3d_flags>
0

> <s_epik_input>
W0NIM11bQ0BASF0xW0NIMl1bQ0gyXVtDSDJdTihbQ0gyXTEpW0NIMl1bQ0gyXVtOSF1DKD1PKVtDSDJdbjJbY0hdbm5uMg==

> <s_epik_cmdline>
J2VwaWtfcHl0aG9uJywgJy1waCcsICc3LjAnLCAnLXRuJywgJzgnLCAnLW1hJywgJzIwMCcsICctbWV0YWxfYmluZGluZycsICctaW1hZScsICc8aW5maWxlLm1hZT4nLCAnLW9tYWUnLCAnPG91dGZpbGUubWFlPic=

> <r_lp_tautomer_probability>
1

> <r_epik_Ionization_Penalty>
0.00268321

> <r_epik_Ionization_Penalty_Charging>
0.00267875

> <r_epik_Ionization_Penalty_Neutral>
4.46125e-06

> <r_epik_State_Penalty>
0.00186642

> <r_epik_Charging_Adjusted_Penalty>
0.00454517

> <i_epik_Tot_Q>
1

> <i_epik_Tot_abs_Q>
1

> <r_epik_Metal_State_Penalty>
-0

> <b_epik_Metal_Only>
0

> <s_lp_Force_Field>
OPLS_2005

> <r_lp_Energy>
18.3574

> <b_lp_Chiralities_Consistent>
1

> <s_lp_Variant>
AV-unprocessed.smi:1607-1

> <Gold.Version>
5.8.1

> <Gold.Id.Protein>
6NUR|6NUR_protein|mol2

> <Gold.PLP.Fitness>
46.9364

> <Gold.PLP.PLP>
-42.4933

> <Gold.PLP.part.hbond>
-3.0998

> <Gold.PLP.part.metal>
0.0000

> <Gold.PLP.part.buried>
-7.0113

> <Gold.PLP.part.nonpolar>
-33.4108

> <Gold.PLP.part.repulsive>
0.4893

> <Gold.PLP.ligand.clash>
0.0000

> <Gold.PLP.ligand.torsion>
0.4882

> <Gold.PLP.Chemscore.Hbond>
1.8000

> <Gold.PLP.Chemscore.CHOScore>
0.0000

> <Gold.PLP.Chemscore.Metal>
0.0000

> <Gold.Chemscore.Hbonds>
donor molecule, donor type, donor heavy atom, donor atom, acceptor molecule, acceptor atom, score
      P1  H  7997  8008       L1    17  1.00
      P1  H 10752 10765       L1    15  0.61

> <Gold.PLP.Chemscore.Internal.Correction>
0.0195

> <Gold.Rescore>
     Score         DG    S(hbond)    S(metal)    S(lipo)     H(rot)  DE(clash)    DE(int)     intcor
     14.10     -14.61       1.43        0.00      96.24       2.69       0.01       0.49       ----

> <Gold.Chemscore.Fitness>
14.1050

> <Gold.Chemscore.DG>
-14.6095

> <Gold.Chemscore.ZeroCoef>
-5.4800

> <Gold.Chemscore.Hbond>
1.4265

> <Gold.Chemscore.Metal>
0.0000

> <Gold.Chemscore.Lipo>
96.2356

> <Gold.Chemscore.Internal_Hbond>
0.0000

> <Gold.Chemscore.DEClash>
0.0132

> <Gold.Chemscore.DEInternal>
0.4913

> <Gold.Chemscore.Rot>
2.6932

> <Gold.Chemscore.Internal.Correction>
   9.000000E+99

> <Gold.Chemscore.Hbonds>
donor molecule, donor type, donor heavy atom, donor atom, acceptor molecule, acceptor atom, score
      P1  H  7997  8008       L1    17  0.81
      P1  H 10752 10765       L1    15  0.43

> <Gold.Chemscore.Hbond.Weighted>
-4.7644

> <Gold.Chemscore.Metal.Weighted>
-0.0000

> <Gold.Chemscore.Lipo.Weighted>
-11.2596

> <Gold.Chemscore.Internal_Hbond.Weighted>
0.0000

> <Gold.Chemscore.DEClash.Weighted>
0.0132

> <Gold.Chemscore.DEInternal.Weighted>
0.4913

> <Gold.Chemscore.Rot.Weighted>
6.8945

> <Gold.Chemscore.Internal.Correction.Weighted>
   9.000000E+99

> <Gold.Protein.RotatedTorsions>
[ 6907 6896 6895 6894 ] final -114.84 input  -60.11 | X-H torsion
[ 7974 7965 7964 7962 ] final   70.48 input  175.53 | X-H torsion
[ 8008 7997 7996 7995 ] final    3.59 input   59.86 | X-H torsion
[ 10167 10162 10161 10158 ] final  -89.40 input  -65.29 | X-H torsion
[ 10718 10713 10712 10709 ] final   53.78 input   66.30 | X-H torsion
[ 10763 10752 10751 10750 ] final  175.63 input  -60.55 | X-H torsion
[ 11005 11000 10999 10996 ] final   46.59 input  -57.11 | X-H torsion

> <Gold.Protein.ActiveResidues>
 VAL166  LYS551  ARG553  GLY616  TRP617  ASP618  TYR619  PRO620  LYS621  CYS622 
 ASP623  PHE694  ASN695  SER759  ASP760  ASP761  ALA762  ILE779  LEU786  VAL792 
 PHE793  MET794  SER795  GLU796  ALA797  LYS798  CYS799  TRP800  GLU811  SER814 

> <Gold.Protein.RotatedAtoms>
  150.7932  133.8744  159.3267 H   0  0  0  0  0  0  0  0  0  0  0  0  # atno 6907 bound_to 6896
  151.6576  135.0992  160.0182 H   0  0  0  0  0  0  0  0  0  0  0  0  # atno 6908 bound_to 6896
  152.4010  133.6778  159.6351 H   0  0  0  0  0  0  0  0  0  0  0  0  # atno 6909 bound_to 6896
  145.7776  139.2872  143.1285 H   0  0  0  0  0  0  0  0  0  0  0  0  # atno 7974 bound_to 7965
  154.7055  140.2682  155.6678 H   0  0  0  0  0  0  0  0  0  0  0  0  # atno 8008 bound_to 7997
  156.2779  140.2763  156.1604 H   0  0  0  0  0  0  0  0  0  0  0  0  # atno 8009 bound_to 7997
  155.0706  140.0372  157.2597 H   0  0  0  0  0  0  0  0  0  0  0  0  # atno 8010 bound_to 7997
  140.3652  143.2822  151.9567 H   0  0  0  0  0  0  0  0  0  0  0  0  # atno 10167 bound_to 10162
  157.5198  130.8557  149.8543 H   0  0  0  0  0  0  0  0  0  0  0  0  # atno 10718 bound_to 10713
  154.4701  135.2771  155.1649 H   0  0  0  0  0  0  0  0  0  0  0  0  # atno 10763 bound_to 10752
  154.3401  135.6172  153.5596 H   0  0  0  0  0  0  0  0  0  0  0  0  # atno 10764 bound_to 10752
  152.9863  135.5786  154.5081 H   0  0  0  0  0  0  0  0  0  0  0  0  # atno 10765 bound_to 10752
  140.1355  134.4650  155.8488 H   0  0  0  0  0  0  0  0  0  0  0  0  # atno 11005 bound_to 11000
  146.0107  140.8438  142.9972 LP  0  0  0  0  0  0  0  0  0  0  0  0  # atno 17320 bound_to 7965
  144.6802  140.2486  143.7334 LP  0  0  0  0  0  0  0  0  0  0  0  0  # atno 17321 bound_to 7965
  139.4809  144.5957  151.7695 LP  0  0  0  0  0  0  0  0  0  0  0  0  # atno 17342 bound_to 10162
  140.5088  144.1057  150.5989 LP  0  0  0  0  0  0  0  0  0  0  0  0  # atno 17343 bound_to 10162
  156.0345  130.3755  150.1597 LP  0  0  0  0  0  0  0  0  0  0  0  0  # atno 17370 bound_to 10713
  156.9785  130.9857  151.3443 LP  0  0  0  0  0  0  0  0  0  0  0  0  # atno 17371 bound_to 10713
  141.2177  133.6812  156.7150 LP  0  0  0  0  0  0  0  0  0  0  0  0  # atno 17394 bound_to 11000
  140.2787  134.8334  157.3914 LP  0  0  0  0  0  0  0  0  0  0  0  0  # atno 17395 bound_to 11000

$$$$
