AV-unprocessed.smi:573|AV-procd|sdf|2967|dock6
  -GOLD-   2262023473D 1   1.00000     0.00000
 Structure written by MMmdl.
 45 47  0  0  0  0  0  0  0  0  2 V2000
  145.2034  135.5699  151.4067 C   0  0  0  0  0  0  0  0  0  0  0  0
  145.3299  136.8470  152.2505 C   0  0  2  0  0  0  0  0  0  0  0  0
  144.0706  137.4834  152.2834 O   0  0  0  0  0  0  0  0  0  0  0  0
  146.3541  137.8462  151.6821 C   0  0  0  0  0  0  0  0  0  0  0  0
  146.3608  139.1125  152.4006 N   0  0  0  0  0  0  0  0  0  0  0  0
  147.4696  139.4727  153.1755 C   0  0  0  0  0  0  0  0  0  0  0  0
  148.5192  138.6694  153.4963 N   0  3  0  0  0  0  0  0  0  0  0  0
  149.4045  139.3998  154.2939 C   0  0  0  0  0  0  0  0  0  0  0  0
  150.6147  139.0338  154.8749 C   0  0  0  0  0  0  0  0  0  0  0  0
  151.2723  140.0172  155.6427 C   0  0  0  0  0  0  0  0  0  0  0  0
  150.7253  141.3057  155.8115 C   0  0  0  0  0  0  0  0  0  0  0  0
  149.4992  141.6692  155.2169 C   0  0  0  0  0  0  0  0  0  0  0  0
  148.8542  140.6945  154.4555 C   0  0  0  0  0  0  0  0  0  0  0  0
  147.6520  140.6961  153.7352 N   0  0  0  0  0  0  0  0  0  0  0  0
  146.8187  141.9068  153.6891 C   0  0  0  0  0  0  0  0  0  0  0  0
  146.4662  142.4266  155.0926 C   0  0  2  0  0  0  0  0  0  0  0  0
  146.2343  141.2759  156.0903 C   0  0  0  0  0  0  0  0  0  0  0  0
  145.8226  141.8247  157.4611 C   0  0  0  0  0  0  0  0  0  0  0  0
  144.6287  142.7721  157.3016 C   0  0  0  0  0  0  0  0  0  0  0  0
  144.9345  143.8444  156.2440 C   0  0  0  0  0  0  0  0  0  0  0  0
  145.2863  143.2243  155.0113 O   0  0  0  0  0  0  0  0  0  0  0  0
  146.1444  135.0194  151.3797 H   0  0  0  0  0  0  0  0  0  0  0  0
  144.9235  135.7994  150.3780 H   0  0  0  0  0  0  0  0  0  0  0  0
  144.4462  134.9008  151.8170 H   0  0  0  0  0  0  0  0  0  0  0  0
  145.5913  136.5823  153.2757 H   0  0  0  0  0  0  0  0  0  0  0  0
  143.8929  137.8456  151.4286 H   0  0  0  0  0  0  0  0  0  0  0  0
  147.3565  137.4196  151.7304 H   0  0  0  0  0  0  0  0  0  0  0  0
  146.1549  138.0332  150.6260 H   0  0  0  0  0  0  0  0  0  0  0  0
  145.6470  139.7966  152.1938 H   0  0  0  0  0  0  0  0  0  0  0  0
  151.0348  138.0464  154.7509 H   0  0  0  0  0  0  0  0  0  0  0  0
  152.2143  139.7774  156.1140 H   0  0  0  0  0  0  0  0  0  0  0  0
  151.2565  142.0313  156.4106 H   0  0  0  0  0  0  0  0  0  0  0  0
  149.0875  142.6574  155.3588 H   0  0  0  0  0  0  0  0  0  0  0  0
  147.3286  142.6702  153.1013 H   0  0  0  0  0  0  0  0  0  0  0  0
  145.9086  141.6578  153.1423 H   0  0  0  0  0  0  0  0  0  0  0  0
  147.2890  143.0511  155.4460 H   0  0  0  0  0  0  0  0  0  0  0  0
  145.4525  140.6146  155.7144 H   0  0  0  0  0  0  0  0  0  0  0  0
  147.1360  140.6703  156.1876 H   0  0  0  0  0  0  0  0  0  0  0  0
  145.5731  141.0083  158.1395 H   0  0  0  0  0  0  0  0  0  0  0  0
  146.6603  142.3609  157.9088 H   0  0  0  0  0  0  0  0  0  0  0  0
  143.7475  142.2043  157.0002 H   0  0  0  0  0  0  0  0  0  0  0  0
  144.3885  143.2405  158.2565 H   0  0  0  0  0  0  0  0  0  0  0  0
  144.0580  144.4723  156.0837 H   0  0  0  0  0  0  0  0  0  0  0  0
  145.7400  144.5014  156.5755 H   0  0  0  0  0  0  0  0  0  0  0  0
  148.6174  137.7070  153.1997 H   0  0  0  0  0  0  0  0  0  0  0  0
  1  2  1  0  0  0  0
  1 22  1  0  0  0  0
  1 23  1  0  0  0  0
  1 24  1  0  0  0  0
  2  3  1  0  0  0  0
  2  4  1  0  0  0  0
  2 25  1  0  0  0  0
  3 26  1  0  0  0  0
  4  5  1  0  0  0  0
  4 27  1  0  0  0  0
  4 28  1  0  0  0  0
  5  6  1  0  0  0  0
  5 29  1  0  0  0  0
  6 14  1  0  0  0  0
  6  7  2  0  0  0  0
  7  8  1  0  0  0  0
  7 45  1  0  0  0  0
  8 13  2  0  0  0  0
  8  9  1  0  0  0  0
  9 10  2  0  0  0  0
  9 30  1  0  0  0  0
 10 11  1  0  0  0  0
 10 31  1  0  0  0  0
 11 12  2  0  0  0  0
 11 32  1  0  0  0  0
 12 13  1  0  0  0  0
 12 33  1  0  0  0  0
 13 14  1  0  0  0  0
 14 15  1  0  0  0  0
 15 16  1  0  0  0  0
 15 34  1  0  0  0  0
 15 35  1  0  0  0  0
 16 21  1  0  0  0  0
 16 17  1  0  0  0  0
 16 36  1  0  0  0  0
 17 18  1  0  0  0  0
 17 37  1  0  0  0  0
 17 38  1  0  0  0  0
 18 19  1  0  0  0  0
 18 39  1  0  0  0  0
 18 40  1  0  0  0  0
 19 20  1  0  0  0  0
 19 41  1  0  0  0  0
 19 42  1  0  0  0  0
 20 21  1  0  0  0  0
 20 43  1  0  0  0  0
 20 44  1  0  0  0  0
M  CHG  1   7   1
M  END
> <s_m_source_file>
AV-unprocessed.smi

> <i_m_source_file_index>
573

> <i_lp_mmshare_version>
43012

> <i_f3d_flags>
0

> <s_epik_input>
W0NIM11bQ0BIXShbT0hdKVtDSDJdW05IXWMobjEpbihjKGMxMilbY0hdW2NIXVtjSF1bY0hdMilbQ0gyXVtDQEBIXTNbQ0gyXVtDSDJdW0NIMl1bQ0gyXU8z

> <s_epik_cmdline>
J2VwaWtfcHl0aG9uJywgJy1waCcsICc3LjAnLCAnLXRuJywgJzgnLCAnLW1hJywgJzIwMCcsICctbWV0YWxfYmluZGluZycsICctaW1hZScsICc8aW5maWxlLm1hZT4nLCAnLW9tYWUnLCAnPG91dGZpbGUubWFlPic=

> <r_epik_Ionization_Penalty>
0.0692245

> <r_epik_Ionization_Penalty_Charging>
0.0692223

> <r_epik_Ionization_Penalty_Neutral>
2.1869e-06

> <r_epik_State_Penalty>
0.0606215

> <r_epik_Charging_Adjusted_Penalty>
0.129844

> <i_epik_Tot_Q>
1

> <i_epik_Tot_abs_Q>
1

> <r_epik_Metal_State_Penalty>
2.77811

> <b_epik_Metal_Only>
0

> <s_lp_Force_Field>
OPLS_2005

> <r_lp_Energy>
19.8097

> <b_lp_Chiralities_Consistent>
1

> <s_lp_Variant>
AV-unprocessed.smi:573-1

> <Gold.Version>
5.8.1

> <Gold.Id.Protein>
6NUR|6NUR_protein|mol2

> <Gold.PLP.Fitness>
55.3362

> <Gold.PLP.PLP>
-41.1124

> <Gold.PLP.part.hbond>
-5.0000

> <Gold.PLP.part.metal>
0.0000

> <Gold.PLP.part.buried>
-1.2282

> <Gold.PLP.part.nonpolar>
-35.8141

> <Gold.PLP.part.repulsive>
0.2720

> <Gold.PLP.ligand.clash>
0.0000

> <Gold.PLP.ligand.torsion>
0.3209

> <Gold.PLP.Chemscore.Hbond>
4.9520

> <Gold.PLP.Chemscore.CHOScore>
0.0000

> <Gold.PLP.Chemscore.Metal>
0.0000

> <Gold.Chemscore.Hbonds>
donor molecule, donor type, donor heavy atom, donor atom, acceptor molecule, acceptor atom, score
      L1  H     3    26       P1 10171  1.00
      L1  H     5    29       P1 10175  1.71
      L1  H     7    45       P1  7948  2.00

> <Gold.PLP.Chemscore.Internal.Correction>
0.0095

> <Gold.Rescore>
     Score         DG    S(hbond)    S(metal)    S(lipo)     H(rot)  DE(clash)    DE(int)     intcor
     18.61     -19.10       2.92        0.00      78.42       2.07       0.30       0.20       ----

> <Gold.Chemscore.Fitness>
18.6085

> <Gold.Chemscore.DG>
-19.1029

> <Gold.Chemscore.ZeroCoef>
-5.4800

> <Gold.Chemscore.Hbond>
2.9183

> <Gold.Chemscore.Metal>
0.0000

> <Gold.Chemscore.Lipo>
78.4169

> <Gold.Chemscore.Internal_Hbond>
0.0000

> <Gold.Chemscore.DEClash>
0.2984

> <Gold.Chemscore.DEInternal>
0.1960

> <Gold.Chemscore.Rot>
2.0699

> <Gold.Chemscore.Internal.Correction>
   9.000000E+99

> <Gold.Chemscore.Hbonds>
donor molecule, donor type, donor heavy atom, donor atom, acceptor molecule, acceptor atom, score
      L1  H     3    26       P1 10171  1.00
      L1  H     5    29       P1 10175  0.69
      L1  H     7    45       P1  7948  0.94

> <Gold.Chemscore.Hbond.Weighted>
-9.7472

> <Gold.Chemscore.Metal.Weighted>
-0.0000

> <Gold.Chemscore.Lipo.Weighted>
-9.1748

> <Gold.Chemscore.Internal_Hbond.Weighted>
0.0000

> <Gold.Chemscore.DEClash.Weighted>
0.2984

> <Gold.Chemscore.DEInternal.Weighted>
0.1960

> <Gold.Chemscore.Rot.Weighted>
5.2991

> <Gold.Chemscore.Internal.Correction.Weighted>
   9.000000E+99

> <Gold.Protein.RotatedTorsions>
[ 6907 6896 6895 6894 ] final  173.80 input  -60.11 | X-H torsion
[ 7974 7965 7964 7962 ] final  178.15 input  175.53 | X-H torsion
[ 8008 7997 7996 7995 ] final -157.32 input   59.86 | X-H torsion
[ 10167 10162 10161 10158 ] final   25.48 input  -65.29 | X-H torsion
[ 10718 10713 10712 10709 ] final  -32.37 input   66.30 | X-H torsion
[ 10763 10752 10751 10750 ] final  -58.50 input  -60.55 | X-H torsion
[ 11005 11000 10999 10996 ] final  -30.49 input  -57.11 | X-H torsion

> <Gold.Protein.ActiveResidues>
 VAL166  LYS551  ARG553  GLY616  TRP617  ASP618  TYR619  PRO620  LYS621  CYS622 
 ASP623  PHE694  ASN695  SER759  ASP760  ASP761  ALA762  ILE779  LEU786  VAL792 
 PHE793  MET794  SER795  GLU796  ALA797  LYS798  CYS799  TRP800  GLU811  SER814 

> <Gold.Protein.RotatedAtoms>
  151.7624  133.3335  159.3421 H   0  0  0  0  0  0  0  0  0  0  0  0  # atno 6907 bound_to 6896
  150.7493  134.6093  159.6087 H   0  0  0  0  0  0  0  0  0  0  0  0  # atno 6908 bound_to 6896
  152.3396  134.7154  160.0319 H   0  0  0  0  0  0  0  0  0  0  0  0  # atno 6909 bound_to 6896
  144.7160  140.0354  143.6438 H   0  0  0  0  0  0  0  0  0  0  0  0  # atno 7974 bound_to 7965
  155.7307  140.0801  157.2290 H   0  0  0  0  0  0  0  0  0  0  0  0  # atno 8008 bound_to 7997
  154.4033  140.1596  156.2560 H   0  0  0  0  0  0  0  0  0  0  0  0  # atno 8009 bound_to 7997
  155.9112  140.3404  155.6103 H   0  0  0  0  0  0  0  0  0  0  0  0  # atno 8010 bound_to 7997
  140.5103  144.0172  150.6369 H   0  0  0  0  0  0  0  0  0  0  0  0  # atno 10167 bound_to 10162
  156.3757  130.4347  149.7509 H   0  0  0  0  0  0  0  0  0  0  0  0  # atno 10718 bound_to 10713
  154.2392  135.6346  153.5201 H   0  0  0  0  0  0  0  0  0  0  0  0  # atno 10763 bound_to 10752
  152.9933  135.5538  154.5929 H   0  0  0  0  0  0  0  0  0  0  0  0  # atno 10764 bound_to 10752
  154.5430  135.2896  155.1052 H   0  0  0  0  0  0  0  0  0  0  0  0  # atno 10765 bound_to 10752
  140.9387  133.7292  156.1044 H   0  0  0  0  0  0  0  0  0  0  0  0  # atno 11005 bound_to 11000
  146.0067  139.3136  143.0895 LP  0  0  0  0  0  0  0  0  0  0  0  0  # atno 17320 bound_to 7965
  145.8729  140.9409  143.0641 LP  0  0  0  0  0  0  0  0  0  0  0  0  # atno 17321 bound_to 7965
  140.3492  143.2973  152.0505 LP  0  0  0  0  0  0  0  0  0  0  0  0  # atno 17342 bound_to 10162
  139.4894  144.6386  151.6924 LP  0  0  0  0  0  0  0  0  0  0  0  0  # atno 17343 bound_to 10162
  156.4619  130.7956  151.2976 LP  0  0  0  0  0  0  0  0  0  0  0  0  # atno 17370 bound_to 10713
  157.7488  131.0063  150.3146 LP  0  0  0  0  0  0  0  0  0  0  0  0  # atno 17371 bound_to 10713
  140.7763  134.3776  157.5497 LP  0  0  0  0  0  0  0  0  0  0  0  0  # atno 17394 bound_to 11000
  139.8814  134.9054  156.2898 LP  0  0  0  0  0  0  0  0  0  0  0  0  # atno 17395 bound_to 11000

$$$$
