AV-unprocessed.smi:233|AV-procd|sdf|1783|dock4
  -GOLD-   2262020333D 1   1.00000     0.00000
 Structure written by MMmdl.
 59 62  0  0  0  0  0  0  0  0  1 V2000
  151.8624  143.8625  158.1871 C   0  0  0  0  0  0  0  0  0  0  0  0
  150.9287  142.6615  158.2934 C   0  0  0  0  0  0  0  0  0  0  0  0
  151.0927  141.8287  159.1845 O   0  0  0  0  0  0  0  0  0  0  0  0
  149.9518  142.5883  157.3767 N   0  0  0  0  0  0  0  0  0  0  0  0
  148.9526  141.5276  157.2871 C   0  0  2  0  0  0  0  0  0  0  0  0
  149.3164  140.5768  156.1313 C   0  0  0  0  0  0  0  0  0  0  0  0
  148.2570  139.4789  155.9462 C   0  0  0  0  0  0  0  0  0  0  0  0
  146.8567  140.0891  155.7315 C   0  0  1  0  0  0  0  0  0  0  0  0
  145.8354  139.0635  155.4882 N   0  0  0  0  0  0  0  0  0  0  0  0
  145.3645  138.2305  156.5943 C   0  0  0  0  0  0  0  0  0  0  0  0
  145.8752  138.4802  154.2621 C   0  0  0  0  0  0  0  0  0  0  0  0
  146.5856  139.0659  153.2606 N   0  0  0  0  0  0  0  0  0  0  0  0
  146.6268  138.5097  152.0465 C   0  0  0  0  0  0  0  0  0  0  0  0
  146.0405  137.3890  151.6223 N   0  0  0  0  0  0  0  0  0  0  0  0
  145.3290  136.7939  152.6219 C   0  0  0  0  0  0  0  0  0  0  0  0
  145.1990  137.2641  153.9594 C   0  0  0  0  0  0  0  0  0  0  0  0
  144.4219  136.3784  154.6973 N   0  0  0  0  0  0  0  0  0  0  0  0
  144.1080  135.4419  153.8441 C   0  0  0  0  0  0  0  0  0  0  0  0
  144.5873  135.6268  152.5669 N   0  0  0  0  0  0  0  0  0  0  0  0
  144.4294  134.7411  151.4509 C   0  0  0  0  0  0  0  0  0  0  0  0
  143.7918  133.3609  151.6245 C   0  0  0  0  0  0  0  0  0  0  0  0
  144.6992  132.8080  150.5023 C   0  0  0  0  0  0  0  0  0  0  0  0
  145.3001  131.4164  150.7601 C   0  0  0  0  0  0  0  0  0  0  0  0
  146.4849  131.2252  150.0141 O   0  0  0  0  0  0  0  0  0  0  0  0
  144.0879  132.8413  149.0870 C   0  0  0  0  0  0  0  0  0  0  0  0
  142.8569  132.1484  149.0400 O   0  0  0  0  0  0  0  0  0  0  0  0
  145.6234  133.9968  150.8483 C   0  0  0  0  0  0  0  0  0  0  0  0
  146.4876  141.0227  156.9020 C   0  0  0  0  0  0  0  0  0  0  0  0
  147.5443  142.1243  157.0840 C   0  0  0  0  0  0  0  0  0  0  0  0
  152.2827  143.9333  157.1834 H   0  0  0  0  0  0  0  0  0  0  0  0
  152.6864  143.7768  158.8962 H   0  0  0  0  0  0  0  0  0  0  0  0
  151.3211  144.7844  158.4019 H   0  0  0  0  0  0  0  0  0  0  0  0
  149.8964  143.3227  156.6860 H   0  0  0  0  0  0  0  0  0  0  0  0
  148.9602  140.9502  158.2138 H   0  0  0  0  0  0  0  0  0  0  0  0
  149.4125  141.1424  155.2032 H   0  0  0  0  0  0  0  0  0  0  0  0
  150.2890  140.1192  156.3159 H   0  0  0  0  0  0  0  0  0  0  0  0
  148.5288  138.8521  155.0962 H   0  0  0  0  0  0  0  0  0  0  0  0
  148.2559  138.8302  156.8229 H   0  0  0  0  0  0  0  0  0  0  0  0
  146.9271  140.7221  154.8475 H   0  0  0  0  0  0  0  0  0  0  0  0
  144.4894  137.6513  156.2970 H   0  0  0  0  0  0  0  0  0  0  0  0
  145.0720  138.8370  157.4500 H   0  0  0  0  0  0  0  0  0  0  0  0
  146.1399  137.5356  156.9175 H   0  0  0  0  0  0  0  0  0  0  0  0
  147.2123  139.0387  151.3093 H   0  0  0  0  0  0  0  0  0  0  0  0
  143.5103  134.5875  154.1265 H   0  0  0  0  0  0  0  0  0  0  0  0
  143.9048  135.3140  150.6847 H   0  0  0  0  0  0  0  0  0  0  0  0
  144.0062  132.9254  152.6023 H   0  0  0  0  0  0  0  0  0  0  0  0
  142.7224  133.3316  151.4135 H   0  0  0  0  0  0  0  0  0  0  0  0
  145.5479  131.2908  151.8145 H   0  0  0  0  0  0  0  0  0  0  0  0
  144.5953  130.6212  150.5168 H   0  0  0  0  0  0  0  0  0  0  0  0
  147.1877  131.0260  150.6137 H   0  0  0  0  0  0  0  0  0  0  0  0
  143.9041  133.8652  148.7611 H   0  0  0  0  0  0  0  0  0  0  0  0
  144.7637  132.4076  148.3496 H   0  0  0  0  0  0  0  0  0  0  0  0
  142.1600  132.7625  149.2136 H   0  0  0  0  0  0  0  0  0  0  0  0
  146.0764  134.4904  149.9879 H   0  0  0  0  0  0  0  0  0  0  0  0
  146.3783  133.7420  151.5944 H   0  0  0  0  0  0  0  0  0  0  0  0
  145.5123  141.4767  156.7242 H   0  0  0  0  0  0  0  0  0  0  0  0
  146.4055  140.4600  157.8320 H   0  0  0  0  0  0  0  0  0  0  0  0
  147.2742  142.7507  157.9349 H   0  0  0  0  0  0  0  0  0  0  0  0
  147.5414  142.7754  156.2088 H   0  0  0  0  0  0  0  0  0  0  0  0
  1  2  1  0  0  0  0
  1 30  1  0  0  0  0
  1 31  1  0  0  0  0
  1 32  1  0  0  0  0
  2  3  2  0  0  0  0
  2  4  1  0  0  0  0
  4  5  1  0  0  0  0
  4 33  1  0  0  0  0
  5 29  1  0  0  0  0
  5  6  1  0  0  0  0
  5 34  1  0  0  0  0
  6  7  1  0  0  0  0
  6 35  1  0  0  0  0
  6 36  1  0  0  0  0
  7  8  1  0  0  0  0
  7 37  1  0  0  0  0
  7 38  1  0  0  0  0
  8  9  1  0  0  0  0
  8 28  1  0  0  0  0
  8 39  1  0  0  0  0
  9 10  1  0  0  0  0
  9 11  1  0  0  0  0
 10 40  1  0  0  0  0
 10 41  1  0  0  0  0
 10 42  1  0  0  0  0
 11 16  1  0  0  0  0
 11 12  2  0  0  0  0
 12 13  1  0  0  0  0
 13 14  2  0  0  0  0
 13 43  1  0  0  0  0
 14 15  1  0  0  0  0
 15 19  1  0  0  0  0
 15 16  2  0  0  0  0
 16 17  1  0  0  0  0
 17 18  2  0  0  0  0
 18 19  1  0  0  0  0
 18 44  1  0  0  0  0
 19 20  1  0  0  0  0
 20 27  1  0  0  0  0
 20 21  1  0  0  0  0
 20 45  1  0  0  0  0
 21 22  1  0  0  0  0
 21 46  1  0  0  0  0
 21 47  1  0  0  0  0
 22 23  1  0  0  0  0
 22 25  1  0  0  0  0
 22 27  1  0  0  0  0
 23 24  1  0  0  0  0
 23 48  1  0  0  0  0
 23 49  1  0  0  0  0
 24 50  1  0  0  0  0
 25 26  1  0  0  0  0
 25 51  1  0  0  0  0
 25 52  1  0  0  0  0
 26 53  1  0  0  0  0
 27 54  1  0  0  0  0
 27 55  1  0  0  0  0
 28 29  1  0  0  0  0
 28 56  1  0  0  0  0
 28 57  1  0  0  0  0
 29 58  1  0  0  0  0
 29 59  1  0  0  0  0
M  END
> <s_m_source_file>
AV-unprocessed.smi

> <i_m_source_file_index>
233

> <i_lp_mmshare_version>
43012

> <i_f3d_flags>
0

> <s_epik_input>
W0NIM11DKD1PKVtOSF1bQ0BASF0xW0NIMl1bQ0gyXVtDQEhdKFtDSDJdW0NIMl0xKU4oW0NIM10pYyhuW2NIXW4yKWMoYzIzKW5bY0hdbjNbQ0hdKFtDSDJdNClbQ0gyXUM0KFtDSDJdW09IXSlbQ0gyXVtPSF0=

> <s_epik_cmdline>
J2VwaWtfcHl0aG9uJywgJy1waCcsICc3LjAnLCAnLXRuJywgJzgnLCAnLW1hJywgJzIwMCcsICctbWV0YWxfYmluZGluZycsICctaW1hZScsICc8aW5maWxlLm1hZT4nLCAnLW9tYWUnLCAnPG91dGZpbGUubWFlPic=

> <r_lp_tautomer_probability>
1

> <r_epik_Ionization_Penalty>
0.0029036

> <r_epik_Ionization_Penalty_Charging>
0

> <r_epik_Ionization_Penalty_Neutral>
0.0029036

> <r_epik_State_Penalty>
0.00183591

> <r_epik_Charging_Adjusted_Penalty>
0.00183591

> <i_epik_Tot_Q>
0

> <i_epik_Tot_abs_Q>
0

> <r_epik_Metal_State_Penalty>
-0

> <b_epik_Metal_Only>
0

> <s_lp_Force_Field>
OPLS_2005

> <r_lp_Energy>
37.3152

> <b_lp_Chiralities_Consistent>
1

> <s_lp_Variant>
AV-unprocessed.smi:233-1

> <Gold.Version>
5.8.1

> <Gold.Id.Protein>
6NUR|6NUR_protein|mol2

> <Gold.PLP.Fitness>
54.0109

> <Gold.PLP.PLP>
-41.4321

> <Gold.PLP.part.hbond>
-5.2947

> <Gold.PLP.part.metal>
0.0000

> <Gold.PLP.part.buried>
-8.9995

> <Gold.PLP.part.nonpolar>
-29.5529

> <Gold.PLP.part.repulsive>
1.3175

> <Gold.PLP.ligand.clash>
0.0000

> <Gold.PLP.ligand.torsion>
1.1330

> <Gold.PLP.Chemscore.Hbond>
3.4458

> <Gold.PLP.Chemscore.CHOScore>
1.0000

> <Gold.PLP.Chemscore.Metal>
0.0000

> <Gold.Chemscore.Hbonds>
donor molecule, donor type, donor heavy atom, donor atom, acceptor molecule, acceptor atom, score
      L1  H     4    33       P1  8028  1.00
      L1  H    24    50       P1 10747  0.58
      L1  H    26    53       P1 10186  0.99
      P1  H 10785 10796       L1    26  0.94
      L1  C    13    43       P1  7957  0.95

> <Gold.PLP.Chemscore.Internal.Correction>
1.5076

> <Gold.Rescore>
     Score         DG    S(hbond)    S(metal)    S(lipo)     H(rot)  DE(clash)    DE(int)     intcor
     14.16     -17.38       3.62        0.00      76.55       3.57       0.84       2.38       ----

> <Gold.Chemscore.Fitness>
14.1555

> <Gold.Chemscore.DG>
-17.3792

> <Gold.Chemscore.ZeroCoef>
-5.4800

> <Gold.Chemscore.Hbond>
3.6187

> <Gold.Chemscore.Metal>
0.0000

> <Gold.Chemscore.Lipo>
76.5543

> <Gold.Chemscore.Internal_Hbond>
0.0000

> <Gold.Chemscore.DEClash>
0.8415

> <Gold.Chemscore.DEInternal>
2.3821

> <Gold.Chemscore.Rot>
3.5719

> <Gold.Chemscore.Internal.Correction>
   9.000000E+99

> <Gold.Chemscore.Hbonds>
donor molecule, donor type, donor heavy atom, donor atom, acceptor molecule, acceptor atom, score
      L1  H     4    33       P1  8028  0.92
      L1  H    24    50       P1 10747  0.56
      L1  H    26    53       P1 10186  0.92
      P1  H 10785 10796       L1    26  0.66

> <Gold.Chemscore.Hbond.Weighted>
-12.0863

> <Gold.Chemscore.Metal.Weighted>
-0.0000

> <Gold.Chemscore.Lipo.Weighted>
-8.9569

> <Gold.Chemscore.Internal_Hbond.Weighted>
0.0000

> <Gold.Chemscore.DEClash.Weighted>
0.8415

> <Gold.Chemscore.DEInternal.Weighted>
2.3821

> <Gold.Chemscore.Rot.Weighted>
9.1440

> <Gold.Chemscore.Internal.Correction.Weighted>
   9.000000E+99

> <Gold.Protein.RotatedTorsions>
[ 6907 6896 6895 6894 ] final -134.02 input  -60.11 | X-H torsion
[ 7974 7965 7964 7962 ] final  152.20 input  175.53 | X-H torsion
[ 8008 7997 7996 7995 ] final  -46.30 input   59.86 | X-H torsion
[ 10167 10162 10161 10158 ] final -111.68 input  -65.29 | X-H torsion
[ 10718 10713 10712 10709 ] final  167.10 input   66.30 | X-H torsion
[ 10763 10752 10751 10750 ] final -170.37 input  -60.55 | X-H torsion
[ 11005 11000 10999 10996 ] final -134.78 input  -57.11 | X-H torsion

> <Gold.Protein.ActiveResidues>
 VAL166  LYS551  ARG553  GLY616  TRP617  ASP618  TYR619  PRO620  LYS621  CYS622 
 ASP623  PHE694  ASN695  SER759  ASP760  ASP761  ALA762  ILE779  LEU786  VAL792 
 PHE793  MET794  SER795  GLU796  ALA797  LYS798  CYS799  TRP800  GLU811  SER814 

> <Gold.Protein.RotatedAtoms>
  150.9809  133.6246  159.2722 H   0  0  0  0  0  0  0  0  0  0  0  0  # atno 6907 bound_to 6896
  151.3502  135.0881  159.9410 H   0  0  0  0  0  0  0  0  0  0  0  0  # atno 6908 bound_to 6896
  152.5215  133.9403  159.7677 H   0  0  0  0  0  0  0  0  0  0  0  0  # atno 6909 bound_to 6896
  144.8239  139.6638  143.6088 H   0  0  0  0  0  0  0  0  0  0  0  0  # atno 7974 bound_to 7965
  154.4006  140.1375  156.3988 H   0  0  0  0  0  0  0  0  0  0  0  0  # atno 8008 bound_to 7997
  155.7844  140.3480  155.5294 H   0  0  0  0  0  0  0  0  0  0  0  0  # atno 8009 bound_to 7997
  155.8642  140.0961  157.1584 H   0  0  0  0  0  0  0  0  0  0  0  0  # atno 8010 bound_to 7997
  140.1309  143.4361  152.1628 H   0  0  0  0  0  0  0  0  0  0  0  0  # atno 10167 bound_to 10162
  157.0564  131.0328  151.2663 H   0  0  0  0  0  0  0  0  0  0  0  0  # atno 10718 bound_to 10713
  154.6422  135.2900  155.0089 H   0  0  0  0  0  0  0  0  0  0  0  0  # atno 10763 bound_to 10752
  154.1212  135.6548  153.4907 H   0  0  0  0  0  0  0  0  0  0  0  0  # atno 10764 bound_to 10752
  153.0332  135.5288  154.7294 H   0  0  0  0  0  0  0  0  0  0  0  0  # atno 10765 bound_to 10752
  140.8958  134.1753  157.4495 H   0  0  0  0  0  0  0  0  0  0  0  0  # atno 11005 bound_to 11000
  146.2544  139.6270  142.9405 LP  0  0  0  0  0  0  0  0  0  0  0  0  # atno 17320 bound_to 7965
  145.5044  141.0437  143.2522 LP  0  0  0  0  0  0  0  0  0  0  0  0  # atno 17321 bound_to 7965
  139.5520  144.7344  151.4407 LP  0  0  0  0  0  0  0  0  0  0  0  0  # atno 17342 bound_to 10162
  140.6817  143.8066  150.7130 LP  0  0  0  0  0  0  0  0  0  0  0  0  # atno 17343 bound_to 10162
  157.4990  130.7868  149.7585 LP  0  0  0  0  0  0  0  0  0  0  0  0  # atno 17370 bound_to 10713
  155.9992  130.3890  150.2674 LP  0  0  0  0  0  0  0  0  0  0  0  0  # atno 17371 bound_to 10713
  139.8735  134.9878  156.5383 LP  0  0  0  0  0  0  0  0  0  0  0  0  # atno 17394 bound_to 11000
  140.8290  133.8293  155.8966 LP  0  0  0  0  0  0  0  0  0  0  0  0  # atno 17395 bound_to 11000

$$$$
