#       Name:                AV-unprocessed.smi:1809
#       Creating user name   scv26
#       Creation time:       Fri Mar 27 08:57:20 2020


#       File generated by GOLD software.
#

@<TRIPOS>MOLECULE
AV-unprocessed.smi:1809
    46    48     1
SMALL
NO_CHARGES


@<TRIPOS>ATOM
      1 ****        -7.4896   3.2392  -0.7989 C.3            1 S1                 0.0000
      2 ****        -6.1257   2.6638  -0.9740 C.2            1 S1                 0.0000
      3 ****        -5.9105   1.3648  -1.2156 N.2            1 S1                 0.0000
      4 ****        -4.5603   1.0699  -1.3438 N.2            1 S1                 0.0000
      5 ****        -3.7948   2.1597  -1.1950 C.2            1 S1                 0.0000
      6 ****        -2.3774   2.1458  -1.2783 N.am           1 S1                 0.0000
      7 ****        -1.5672   1.0974  -1.5065 C.2            1 S1                 0.0000
      8 ****        -1.9353  -0.0641  -1.6847 O.2            1 S1                 0.0000
      9 ****        -0.2793   1.4694  -1.5126 N.am           1 S1                 0.0000
     10 ****         0.8479   0.5695  -1.7326 C.3            1 S1                 0.0000
     11 ****         1.1565  -0.2811  -0.4877 C.3            1 S1                 0.0000
     12 ****         2.2897  -1.2996  -0.7527 C.3            1 S1                 0.0000
     13 ****         2.5960  -1.9882   0.5142 N.4            1 S1                 1.0000
     14 ****         3.6396  -3.0279   0.5126 C.3            1 S1                 0.0000
     15 ****         4.1343  -3.0915   1.9722 C.3            1 S1                 0.0000
     16 ****         3.4295  -1.9342   2.7038 C.3            1 S1                 0.0000
     17 ****         2.9731  -1.0347   1.5600 C.3            1 S1                 0.0000
     18 ****         1.8017  -0.0765   1.8108 C.3            1 S1                 0.0000
     19 ****         1.5282   0.5974   0.5813 O.3            1 S1                 0.0000
     20 ****        -4.6706   3.6484  -0.8821 S.3            1 S1                 0.0000
     21 ****        -8.2341   2.4467  -0.7155 H              1 S1                 0.0000
     22 ****        -7.7406   3.8670  -1.6540 H              1 S1                 0.0000
     23 ****        -7.5252   3.8471   0.1053 H              1 S1                 0.0000
     24 ****        -1.9285   3.0405  -1.1501 H              1 S1                 0.0000
     25 ****        -0.0612   2.4425  -1.3543 H              1 S1                 0.0000
     26 ****         0.6387  -0.0730  -2.5896 H              1 S1                 0.0000
     27 ****         1.7183   1.1688  -2.0011 H              1 S1                 0.0000
     28 ****         0.2590  -0.8276  -0.1922 H              1 S1                 0.0000
     29 ****         1.9827  -2.0293  -1.5028 H              1 S1                 0.0000
     30 ****         3.1824  -0.7976  -1.1294 H              1 S1                 0.0000
     31 ****         3.2416  -3.9807   0.1622 H              1 S1                 0.0000
     32 ****         4.4572  -2.7360  -0.1485 H              1 S1                 0.0000
     33 ****         3.8981  -4.0489   2.4378 H              1 S1                 0.0000
     34 ****         5.2173  -2.9684   2.0063 H              1 S1                 0.0000
     35 ****         2.5667  -2.3127   3.2539 H              1 S1                 0.0000
     36 ****         4.0809  -1.4197   3.4112 H              1 S1                 0.0000
     37 ****         3.8343  -0.4591   1.2131 H              1 S1                 0.0000
     38 ****         0.9148  -0.6080   2.1591 H              1 S1                 0.0000
     39 ****         2.0641   0.6579   2.5726 H              1 S1                 0.0000
     40 ****         1.7461  -2.4357   0.8269 H              1 S1                 0.0000
     41 ****        -6.6392   0.6846  -1.2947 LP             1 S1                 0.0000
     42 ****        -4.2018   0.1542  -1.5254 LP             1 S1                 0.0000
     43 ****        -2.9096  -0.2883  -1.6659 LP             1 S1                 0.0000
     44 ****        -1.2598  -0.7832  -1.8483 LP             1 S1                 0.0000
     45 ****         0.7794   1.2422   0.7346 LP             1 S1                 0.0000
     46 ****         2.3489   1.0987   0.3069 LP             1 S1                 0.0000
@<TRIPOS>BOND
    1    1    2 1     
    2    1   21 1     
    3    1   22 1     
    4    1   23 1     
    5    2   20 1     
    6    2    3 2     
    7    3    4 1     
    8    4    5 2     
    9    5    6 1     
   10    5   20 1     
   11    6    7 am    
   12    6   24 1     
   13    7    8 2     
   14    7    9 am    
   15    9   10 1     
   16    9   25 1     
   17   10   11 1     
   18   10   26 1     
   19   10   27 1     
   20   11   19 1     
   21   11   12 1     
   22   11   28 1     
   23   12   13 1     
   24   12   29 1     
   25   12   30 1     
   26   13   17 1     
   27   13   14 1     
   28   13   40 1     
   29   14   15 1     
   30   14   31 1     
   31   14   32 1     
   32   15   16 1     
   33   15   33 1     
   34   15   34 1     
   35   16   17 1     
   36   16   35 1     
   37   16   36 1     
   38   17   18 1     
   39   17   37 1     
   40   18   19 1     
   41   18   38 1     
   42   18   39 1     
   43    3   41 1     
   44    4   42 1     
   45    8   43 1     
   46    8   44 1     
   47   19   45 1     
   48   19   46 1     
@<TRIPOS>SUBSTRUCTURE
      1 S1             1
@<TRIPOS>SET
LONE_PAIRS      STATIC     ATOMS    <user>   **** ""
6 41 42 43 44 45 46
DONOR_HYDROGENS      STATIC     ATOMS    <user>   **** ""
3 24 25 40
ATOM$BLUE        STATIC     ATOMS    COLORGROUP SYSTEM
6 41 42 43 44 45 46
ATOM$RED        STATIC     ATOMS    COLORGROUP SYSTEM
3 24 25 40
