AV-unprocessed.smi:1836|AV-procd|sdf|7478|dock8
  -GOLD-   22720 9173D 1   1.00000     0.00000
 Structure written by MMmdl.
 33 34  0  0  0  0  0  0  0  0  1 V2000
  147.7527  140.9693  153.5038 C   0  0  0  0  0  0  0  0  0  0  0  0
  148.6008  139.7807  153.9770 C   0  0  1  0  0  0  0  0  0  0  0  0
  148.5769  139.6623  155.5188 C   0  0  0  0  0  0  0  0  0  0  0  0
  149.4192  140.6619  156.1741 N   0  0  0  0  0  0  0  0  0  0  0  0
  148.8510  141.6075  157.1207 C   0  0  0  0  0  0  0  0  0  0  0  0
  150.0631  142.2592  157.7995 C   0  0  0  0  0  0  0  0  0  0  0  0
  151.2578  141.9492  156.8911 C   0  0  0  0  0  0  0  0  0  0  0  0
  150.7335  140.8413  155.9935 C   0  0  0  0  0  0  0  0  0  0  0  0
  151.4532  140.2088  155.2221 O   0  0  0  0  0  0  0  0  0  0  0  0
  148.0756  138.5642  153.3587 N   0  0  0  0  0  0  0  0  0  0  0  0
  146.7977  138.1573  153.4021 C   0  0  0  0  0  0  0  0  0  0  0  0
  145.9081  138.7694  153.9936 O   0  0  0  0  0  0  0  0  0  0  0  0
  146.6279  137.0138  152.7158 N   0  0  0  0  0  0  0  0  0  0  0  0
  145.4202  136.3091  152.4686 C   0  0  0  0  0  0  0  0  0  0  0  0
  144.3536  136.3515  153.2824 N   0  0  0  0  0  0  0  0  0  0  0  0
  143.3030  135.5799  152.8028 N   0  0  0  0  0  0  0  0  0  0  0  0
  143.6175  134.9885  151.6469 C   0  0  0  0  0  0  0  0  0  0  0  0
  145.2268  135.3187  151.0294 S   0  0  0  0  0  0  0  0  0  0  0  0
  148.1343  141.9074  153.9079 H   0  0  0  0  0  0  0  0  0  0  0  0
  146.7136  140.8696  153.8194 H   0  0  0  0  0  0  0  0  0  0  0  0
  147.7650  141.0533  152.4165 H   0  0  0  0  0  0  0  0  0  0  0  0
  149.6211  139.9614  153.6341 H   0  0  0  0  0  0  0  0  0  0  0  0
  147.5571  139.7968  155.8830 H   0  0  0  0  0  0  0  0  0  0  0  0
  148.8759  138.6600  155.8295 H   0  0  0  0  0  0  0  0  0  0  0  0
  148.2630  142.3480  156.5768 H   0  0  0  0  0  0  0  0  0  0  0  0
  148.1982  141.1164  157.8432 H   0  0  0  0  0  0  0  0  0  0  0  0
  149.9211  143.3305  157.9440 H   0  0  0  0  0  0  0  0  0  0  0  0
  150.2233  141.8124  158.7820 H   0  0  0  0  0  0  0  0  0  0  0  0
  151.5302  142.8111  156.2815 H   0  0  0  0  0  0  0  0  0  0  0  0
  152.1326  141.6254  157.4561 H   0  0  0  0  0  0  0  0  0  0  0  0
  148.7368  137.9951  152.8510 H   0  0  0  0  0  0  0  0  0  0  0  0
  147.4568  136.6091  152.3063 H   0  0  0  0  0  0  0  0  0  0  0  0
  142.8956  134.3547  151.1534 H   0  0  0  0  0  0  0  0  0  0  0  0
  1  2  1  0  0  0  0
  1 19  1  0  0  0  0
  1 20  1  0  0  0  0
  1 21  1  0  0  0  0
  2  3  1  0  0  0  0
  2 10  1  0  0  0  0
  2 22  1  0  0  0  0
  3  4  1  0  0  0  0
  3 23  1  0  0  0  0
  3 24  1  0  0  0  0
  4  8  1  0  0  0  0
  4  5  1  0  0  0  0
  5  6  1  0  0  0  0
  5 25  1  0  0  0  0
  5 26  1  0  0  0  0
  6  7  1  0  0  0  0
  6 27  1  0  0  0  0
  6 28  1  0  0  0  0
  7  8  1  0  0  0  0
  7 29  1  0  0  0  0
  7 30  1  0  0  0  0
  8  9  2  0  0  0  0
 10 11  1  0  0  0  0
 10 31  1  0  0  0  0
 11 12  2  0  0  0  0
 11 13  1  0  0  0  0
 13 14  1  0  0  0  0
 13 32  1  0  0  0  0
 14 18  1  0  0  0  0
 14 15  2  0  0  0  0
 15 16  1  0  0  0  0
 16 17  2  0  0  0  0
 17 18  1  0  0  0  0
 17 33  1  0  0  0  0
M  END
> <s_m_source_file>
AV-unprocessed.smi

> <i_m_source_file_index>
1836

> <i_lp_mmshare_version>
43012

> <i_f3d_flags>
0

> <s_epik_input>
Tz1DMVtDSDJdW0NIMl1bQ0gyXU4xW0NIMl1bQ0BASF0oW0NIM10pW05IXUMoPU8pW05IXWMybm5bY0hdczI=

> <s_epik_cmdline>
J2VwaWtfcHl0aG9uJywgJy1waCcsICc3LjAnLCAnLXRuJywgJzgnLCAnLW1hJywgJzIwMCcsICctbWV0YWxfYmluZGluZycsICctaW1hZScsICc8aW5maWxlLm1hZT4nLCAnLW9tYWUnLCAnPG91dGZpbGUubWFlPic=

> <r_lp_tautomer_probability>
1

> <r_epik_Ionization_Penalty>
0.00192022

> <r_epik_Ionization_Penalty_Charging>
0

> <r_epik_Ionization_Penalty_Neutral>
0.00192022

> <r_epik_State_Penalty>
-0

> <r_epik_Charging_Adjusted_Penalty>
0

> <i_epik_Tot_Q>
0

> <i_epik_Tot_abs_Q>
0

> <r_epik_Metal_State_Penalty>
0.336618

> <b_epik_Metal_Only>
0

> <s_lp_Force_Field>
OPLS_2005

> <r_lp_Energy>
17.3914

> <b_lp_Chiralities_Consistent>
1

> <s_lp_Variant>
AV-unprocessed.smi:1836-2

> <Gold.Version>
5.8.1

> <Gold.Id.Protein>
6NUR|6NUR_protein|mol2

> <Gold.PLP.Fitness>
35.7153

> <Gold.PLP.PLP>
-24.7211

> <Gold.PLP.part.hbond>
-3.8996

> <Gold.PLP.part.metal>
0.0000

> <Gold.PLP.part.buried>
-3.8042

> <Gold.PLP.part.nonpolar>
-18.4374

> <Gold.PLP.part.repulsive>
0.4513

> <Gold.PLP.ligand.clash>
0.0000

> <Gold.PLP.ligand.torsion>
0.3540

> <Gold.PLP.Chemscore.Hbond>
2.8960

> <Gold.PLP.Chemscore.CHOScore>
1.0000

> <Gold.PLP.Chemscore.Metal>
0.0000

> <Gold.Chemscore.Hbonds>
donor molecule, donor type, donor heavy atom, donor atom, acceptor molecule, acceptor atom, score
      L1  H    10    31       P1  7948  0.90
      L1  H    13    32       P1  7948  1.00
      P1  H  7989  7998       L1     9  1.00
      L1  C    17    33       P1 10186  0.95

> <Gold.PLP.Chemscore.Internal.Correction>
0.0143

> <Gold.Rescore>
     Score         DG    S(hbond)    S(metal)    S(lipo)     H(rot)  DE(clash)    DE(int)     intcor
     12.92     -15.80       2.90        0.00      43.99       1.76       0.22       2.67       ----

> <Gold.Chemscore.Fitness>
12.9157

> <Gold.Chemscore.DG>
-15.8040

> <Gold.Chemscore.ZeroCoef>
-5.4800

> <Gold.Chemscore.Hbond>
2.8967

> <Gold.Chemscore.Metal>
0.0000

> <Gold.Chemscore.Lipo>
43.9928

> <Gold.Chemscore.Internal_Hbond>
0.0000

> <Gold.Chemscore.DEClash>
0.2231

> <Gold.Chemscore.DEInternal>
2.6652

> <Gold.Chemscore.Rot>
1.7571

> <Gold.Chemscore.Internal.Correction>
   9.000000E+99

> <Gold.Chemscore.Hbonds>
donor molecule, donor type, donor heavy atom, donor atom, acceptor molecule, acceptor atom, score
      L1  H    10    31       P1  7948  0.84
      L1  H    13    32       P1  7948  0.98
      P1  H  7989  7998       L1     9  0.89

> <Gold.Chemscore.Hbond.Weighted>
-9.6751

> <Gold.Chemscore.Metal.Weighted>
-0.0000

> <Gold.Chemscore.Lipo.Weighted>
-5.1472

> <Gold.Chemscore.Internal_Hbond.Weighted>
0.0000

> <Gold.Chemscore.DEClash.Weighted>
0.2231

> <Gold.Chemscore.DEInternal.Weighted>
2.6652

> <Gold.Chemscore.Rot.Weighted>
4.4983

> <Gold.Chemscore.Internal.Correction.Weighted>
   9.000000E+99

> <Gold.Protein.RotatedTorsions>
[ 6907 6896 6895 6894 ] final  124.23 input  -60.11 | X-H torsion
[ 7974 7965 7964 7962 ] final  -99.06 input  175.53 | X-H torsion
[ 8008 7997 7996 7995 ] final  159.15 input   59.86 | X-H torsion
[ 10167 10162 10161 10158 ] final    3.52 input  -65.29 | X-H torsion
[ 10718 10713 10712 10709 ] final  -18.80 input   66.30 | X-H torsion
[ 10763 10752 10751 10750 ] final   20.88 input  -60.55 | X-H torsion
[ 11005 11000 10999 10996 ] final  169.74 input  -57.11 | X-H torsion

> <Gold.Protein.ActiveResidues>
 VAL166  LYS551  ARG553  GLY616  TRP617  ASP618  TYR619  PRO620  LYS621  CYS622 
 ASP623  PHE694  ASN695  SER759  ASP760  ASP761  ALA762  ILE779  LEU786  VAL792 
 PHE793  MET794  SER795  GLU796  ALA797  LYS798  CYS799  TRP800  GLU811  SER814 

> <Gold.Protein.RotatedAtoms>
  152.4096  133.6942  159.6385 H   0  0  0  0  0  0  0  0  0  0  0  0  # atno 6907 bound_to 6896
  150.7977  133.8648  159.3251 H   0  0  0  0  0  0  0  0  0  0  0  0  # atno 6908 bound_to 6896
  151.6394  135.1016  160.0189 H   0  0  0  0  0  0  0  0  0  0  0  0  # atno 6909 bound_to 6896
  145.3125  140.9403  143.2761 H   0  0  0  0  0  0  0  0  0  0  0  0  # atno 7974 bound_to 7965
  156.2257  140.1839  156.7368 H   0  0  0  0  0  0  0  0  0  0  0  0  # atno 8008 bound_to 7997
  154.5938  140.0646  156.9303 H   0  0  0  0  0  0  0  0  0  0  0  0  # atno 8009 bound_to 7997
  155.2291  140.3313  155.4308 H   0  0  0  0  0  0  0  0  0  0  0  0  # atno 8010 bound_to 7997
  140.6581  143.7374  150.7690 H   0  0  0  0  0  0  0  0  0  0  0  0  # atno 10167 bound_to 10162
  156.5545  130.4710  149.6436 H   0  0  0  0  0  0  0  0  0  0  0  0  # atno 10718 bound_to 10713
  153.1041  135.6680  153.9619 H   0  0  0  0  0  0  0  0  0  0  0  0  # atno 10763 bound_to 10752
  153.9181  135.3017  155.3449 H   0  0  0  0  0  0  0  0  0  0  0  0  # atno 10764 bound_to 10752
  154.7462  135.5056  153.9284 H   0  0  0  0  0  0  0  0  0  0  0  0  # atno 10765 bound_to 10752
  140.3009  134.7596  157.3915 H   0  0  0  0  0  0  0  0  0  0  0  0  # atno 11005 bound_to 11000
  144.9004  139.4657  143.6635 LP  0  0  0  0  0  0  0  0  0  0  0  0  # atno 17320 bound_to 7965
  146.3112  139.7754  142.9018 LP  0  0  0  0  0  0  0  0  0  0  0  0  # atno 17321 bound_to 7965
  140.1038  143.4763  152.2410 LP  0  0  0  0  0  0  0  0  0  0  0  0  # atno 17342 bound_to 10162
  139.5808  144.7509  151.3644 LP  0  0  0  0  0  0  0  0  0  0  0  0  # atno 17343 bound_to 10162
  156.2854  130.7094  151.1929 LP  0  0  0  0  0  0  0  0  0  0  0  0  # atno 17370 bound_to 10713
  157.7381  131.0545  150.5316 LP  0  0  0  0  0  0  0  0  0  0  0  0  # atno 17371 bound_to 10713
  140.1110  134.5346  155.8266 LP  0  0  0  0  0  0  0  0  0  0  0  0  # atno 17394 bound_to 11000
  141.2128  133.6724  156.6689 LP  0  0  0  0  0  0  0  0  0  0  0  0  # atno 17395 bound_to 11000

$$$$
