AV-unprocessed.smi:2336|AV-procd|sdf|9331|dock2
  -GOLD-   2272012553D 1   1.00000     0.00000
 Structure written by MMmdl.
 49 50  0  0  0  0  0  0  0  0  1 V2000
  148.8422  141.8381  154.1773 C   0  0  0  0  0  0  0  0  0  0  0  0
  147.5994  141.0359  153.7484 C   0  0  0  0  0  0  0  0  0  0  0  0
  146.3363  141.5128  154.4906 C   0  0  0  0  0  0  0  0  0  0  0  0
  147.8080  139.4768  153.7689 C   0  0  2  0  0  0  0  0  0  0  0  0
  146.5124  138.7150  153.3427 C   0  0  0  0  0  0  0  0  0  0  0  0
  146.7784  137.4018  152.7678 N   0  0  0  0  0  0  0  0  0  0  0  0
  145.8505  136.5046  152.4069 C   0  0  0  0  0  0  0  0  0  0  0  0
  144.6413  136.6765  152.5578 O   0  0  0  0  0  0  0  0  0  0  0  0
  146.4230  135.4094  151.8787 N   0  0  0  0  0  0  0  0  0  0  0  0
  145.8071  134.2590  151.3139 C   0  0  0  0  0  0  0  0  0  0  0  0
  144.5188  134.2511  150.7257 C   0  0  0  0  0  0  0  0  0  0  0  0
  144.0338  133.0458  150.1792 C   0  0  0  0  0  0  0  0  0  0  0  0
  144.7357  131.8928  150.1785 N   0  0  0  0  0  0  0  0  0  0  0  0
  145.9676  131.9066  150.7298 C   0  0  0  0  0  0  0  0  0  0  0  0
  146.5462  133.0568  151.3028 C   0  0  0  0  0  0  0  0  0  0  0  0
  147.7914  133.0026  151.8347 F   0  0  0  0  0  0  0  0  0  0  0  0
  148.3836  139.0021  155.0568 N   0  0  0  0  0  0  0  0  0  0  0  0
  148.8055  137.5883  154.9964 C   0  0  0  0  0  0  0  0  0  0  0  0
  149.4349  137.1029  156.3144 C   0  0  0  0  0  0  0  0  0  0  0  0
  148.5006  137.2300  157.4256 N   0  0  0  0  0  0  0  0  0  0  0  0
  149.0844  136.7606  158.6727 C   0  0  0  0  0  0  0  0  0  0  0  0
  148.0847  138.6239  157.5184 C   0  0  0  0  0  0  0  0  0  0  0  0
  147.4606  139.1172  156.1994 C   0  0  0  0  0  0  0  0  0  0  0  0
  149.0566  141.7297  155.2400 H   0  0  0  0  0  0  0  0  0  0  0  0
  148.7024  142.9022  153.9848 H   0  0  0  0  0  0  0  0  0  0  0  0
  149.7251  141.5196  153.6227 H   0  0  0  0  0  0  0  0  0  0  0  0
  147.4133  141.3585  152.7299 H   0  0  0  0  0  0  0  0  0  0  0  0
  146.4373  141.4688  155.5730 H   0  0  0  0  0  0  0  0  0  0  0  0
  145.4650  140.9218  154.2078 H   0  0  0  0  0  0  0  0  0  0  0  0
  146.1166  142.5512  154.2413 H   0  0  0  0  0  0  0  0  0  0  0  0
  148.5468  139.2476  152.9994 H   0  0  0  0  0  0  0  0  0  0  0  0
  145.8859  138.4980  154.2066 H   0  0  0  0  0  0  0  0  0  0  0  0
  145.9120  139.3339  152.6738 H   0  0  0  0  0  0  0  0  0  0  0  0
  147.7480  137.1675  152.6131 H   0  0  0  0  0  0  0  0  0  0  0  0
  147.4320  135.3827  151.9043 H   0  0  0  0  0  0  0  0  0  0  0  0
  143.9036  135.1354  150.6692 H   0  0  0  0  0  0  0  0  0  0  0  0
  143.0557  133.0091  149.7228 H   0  0  0  0  0  0  0  0  0  0  0  0
  146.5103  130.9732  150.7112 H   0  0  0  0  0  0  0  0  0  0  0  0
  147.9505  136.9566  154.7504 H   0  0  0  0  0  0  0  0  0  0  0  0
  149.5440  137.4143  154.2199 H   0  0  0  0  0  0  0  0  0  0  0  0
  149.7369  136.0607  156.2060 H   0  0  0  0  0  0  0  0  0  0  0  0
  150.3436  137.6717  156.5185 H   0  0  0  0  0  0  0  0  0  0  0  0
  148.3677  136.8456  159.4900 H   0  0  0  0  0  0  0  0  0  0  0  0
  149.9710  137.3392  158.9360 H   0  0  0  0  0  0  0  0  0  0  0  0
  149.3743  135.7125  158.5930 H   0  0  0  0  0  0  0  0  0  0  0  0
  147.3590  138.7376  158.3245 H   0  0  0  0  0  0  0  0  0  0  0  0
  148.9381  139.2532  157.7766 H   0  0  0  0  0  0  0  0  0  0  0  0
  147.1873  140.1582  156.3644 H   0  0  0  0  0  0  0  0  0  0  0  0
  146.5386  138.5700  155.9963 H   0  0  0  0  0  0  0  0  0  0  0  0
  1  2  1  0  0  0  0
  1 24  1  0  0  0  0
  1 25  1  0  0  0  0
  1 26  1  0  0  0  0
  2  3  1  0  0  0  0
  2  4  1  0  0  0  0
  2 27  1  0  0  0  0
  3 28  1  0  0  0  0
  3 29  1  0  0  0  0
  3 30  1  0  0  0  0
  4  5  1  0  0  0  0
  4 17  1  0  0  0  0
  4 31  1  0  0  0  0
  5  6  1  0  0  0  0
  5 32  1  0  0  0  0
  5 33  1  0  0  0  0
  6  7  1  0  0  0  0
  6 34  1  0  0  0  0
  7  8  2  0  0  0  0
  7  9  1  0  0  0  0
  9 10  1  0  0  0  0
  9 35  1  0  0  0  0
 10 15  1  0  0  0  0
 10 11  2  0  0  0  0
 11 12  1  0  0  0  0
 11 36  1  0  0  0  0
 12 13  2  0  0  0  0
 12 37  1  0  0  0  0
 13 14  1  0  0  0  0
 14 15  2  0  0  0  0
 14 38  1  0  0  0  0
 15 16  1  0  0  0  0
 17 23  1  0  0  0  0
 17 18  1  0  0  0  0
 18 19  1  0  0  0  0
 18 39  1  0  0  0  0
 18 40  1  0  0  0  0
 19 20  1  0  0  0  0
 19 41  1  0  0  0  0
 19 42  1  0  0  0  0
 20 21  1  0  0  0  0
 20 22  1  0  0  0  0
 21 43  1  0  0  0  0
 21 44  1  0  0  0  0
 21 45  1  0  0  0  0
 22 23  1  0  0  0  0
 22 46  1  0  0  0  0
 22 47  1  0  0  0  0
 23 48  1  0  0  0  0
 23 49  1  0  0  0  0
M  END
> <s_m_source_file>
AV-unprocessed.smi

> <i_m_source_file_index>
2336

> <i_lp_mmshare_version>
43012

> <i_f3d_flags>
0

> <s_epik_input>
W0NIMl0xW0NIMl1OKFtDSDNdKVtDSDJdW0NIMl1OMVtDQEhdKFtDSF0oW0NIM10pW0NIM10pW0NIMl1bTkhdQyg9TylbTkhdYzJbY0hdW2NIXW5bY0hdYzJG

> <s_epik_cmdline>
J2VwaWtfcHl0aG9uJywgJy1waCcsICc3LjAnLCAnLXRuJywgJzgnLCAnLW1hJywgJzIwMCcsICctbWV0YWxfYmluZGluZycsICctaW1hZScsICc8aW5maWxlLm1hZT4nLCAnLW9tYWUnLCAnPG91dGZpbGUubWFlPic=

> <r_epik_Ionization_Penalty>
2.58102

> <r_epik_Ionization_Penalty_Charging>
0

> <r_epik_Ionization_Penalty_Neutral>
2.58102

> <r_epik_State_Penalty>
2.00874

> <r_epik_Charging_Adjusted_Penalty>
2.00874

> <i_epik_Tot_Q>
0

> <i_epik_Tot_abs_Q>
0

> <r_epik_Metal_State_Penalty>
2.00867

> <b_epik_Metal_Only>
0

> <s_lp_Force_Field>
OPLS_2005

> <r_lp_Energy>
52.971

> <b_lp_Chiralities_Consistent>
1

> <s_lp_Variant>
AV-unprocessed.smi:2336-5

> <Gold.Version>
5.8.1

> <Gold.Id.Protein>
6NUR|6NUR_protein|mol2

> <Gold.PLP.Fitness>
41.1128

> <Gold.PLP.PLP>
-30.7119

> <Gold.PLP.part.hbond>
-2.0000

> <Gold.PLP.part.metal>
0.0000

> <Gold.PLP.part.buried>
-0.6903

> <Gold.PLP.part.nonpolar>
-27.9978

> <Gold.PLP.part.repulsive>
0.5053

> <Gold.PLP.ligand.clash>
0.0000

> <Gold.PLP.ligand.torsion>
0.5619

> <Gold.PLP.Chemscore.Hbond>
1.9200

> <Gold.PLP.Chemscore.CHOScore>
1.7785

> <Gold.PLP.Chemscore.Metal>
0.0000

> <Gold.Chemscore.Hbonds>
donor molecule, donor type, donor heavy atom, donor atom, acceptor molecule, acceptor atom, score
      L1  H     6    34       P1  7948  1.00
      L1  H     9    35       P1  7948  1.00
      L1  C    12    37       P1 10186  1.00
      L1  C    14    38       P1 10747  0.86

> <Gold.PLP.Chemscore.Internal.Correction>
0.4291

> <Gold.Rescore>
     Score         DG    S(hbond)    S(metal)    S(lipo)     H(rot)  DE(clash)    DE(int)     intcor
     15.88     -16.88       1.93        0.00      77.88       1.63       0.02       0.98       ----

> <Gold.Chemscore.Fitness>
15.8763

> <Gold.Chemscore.DG>
-16.8751

> <Gold.Chemscore.ZeroCoef>
-5.4800

> <Gold.Chemscore.Hbond>
1.9312

> <Gold.Chemscore.Metal>
0.0000

> <Gold.Chemscore.Lipo>
77.8807

> <Gold.Chemscore.Internal_Hbond>
0.0000

> <Gold.Chemscore.DEClash>
0.0174

> <Gold.Chemscore.DEInternal>
0.9815

> <Gold.Chemscore.Rot>
1.6277

> <Gold.Chemscore.Internal.Correction>
   9.000000E+99

> <Gold.Chemscore.Hbonds>
donor molecule, donor type, donor heavy atom, donor atom, acceptor molecule, acceptor atom, score
      L1  H     6    34       P1  7948  0.95
      L1  H     9    35       P1  7948  0.94

> <Gold.Chemscore.Hbond.Weighted>
-6.4500

> <Gold.Chemscore.Metal.Weighted>
-0.0000

> <Gold.Chemscore.Lipo.Weighted>
-9.1120

> <Gold.Chemscore.Internal_Hbond.Weighted>
0.0000

> <Gold.Chemscore.DEClash.Weighted>
0.0174

> <Gold.Chemscore.DEInternal.Weighted>
0.9815

> <Gold.Chemscore.Rot.Weighted>
4.1670

> <Gold.Chemscore.Internal.Correction.Weighted>
   9.000000E+99

> <Gold.Protein.RotatedTorsions>
[ 6907 6896 6895 6894 ] final   66.09 input  -60.11 | X-H torsion
[ 7974 7965 7964 7962 ] final -151.25 input  175.53 | X-H torsion
[ 8008 7997 7996 7995 ] final  -27.07 input   59.86 | X-H torsion
[ 10167 10162 10161 10158 ] final  -96.81 input  -65.29 | X-H torsion
[ 10718 10713 10712 10709 ] final -106.41 input   66.30 | X-H torsion
[ 10763 10752 10751 10750 ] final  -46.24 input  -60.55 | X-H torsion
[ 11005 11000 10999 10996 ] final   80.23 input  -57.11 | X-H torsion

> <Gold.Protein.ActiveResidues>
 VAL166  LYS551  ARG553  GLY616  TRP617  ASP618  TYR619  PRO620  LYS621  CYS622 
 ASP623  PHE694  ASN695  SER759  ASP760  ASP761  ALA762  ILE779  LEU786  VAL792 
 PHE793  MET794  SER795  GLU796  ALA797  LYS798  CYS799  TRP800  GLU811  SER814 

> <Gold.Protein.RotatedAtoms>
  152.4455  134.5502  159.9864 H   0  0  0  0  0  0  0  0  0  0  0  0  # atno 6907 bound_to 6896
  151.5588  133.3400  159.2975 H   0  0  0  0  0  0  0  0  0  0  0  0  # atno 6908 bound_to 6896
  150.8371  134.7681  159.6965 H   0  0  0  0  0  0  0  0  0  0  0  0  # atno 6909 bound_to 6896
  144.7860  140.4823  143.5805 H   0  0  0  0  0  0  0  0  0  0  0  0  # atno 7974 bound_to 7965
  154.4395  140.1882  156.0874 H   0  0  0  0  0  0  0  0  0  0  0  0  # atno 8008 bound_to 7997
  156.0392  140.3322  155.7198 H   0  0  0  0  0  0  0  0  0  0  0  0  # atno 8009 bound_to 7997
  155.5725  140.0614  157.2794 H   0  0  0  0  0  0  0  0  0  0  0  0  # atno 8010 bound_to 7997
  140.2900  143.3227  152.0355 H   0  0  0  0  0  0  0  0  0  0  0  0  # atno 10167 bound_to 10162
  156.0389  130.5611  150.7677 H   0  0  0  0  0  0  0  0  0  0  0  0  # atno 10718 bound_to 10713
  154.0418  135.6643  153.4791 H   0  0  0  0  0  0  0  0  0  0  0  0  # atno 10763 bound_to 10752
  153.0498  135.5091  154.7835 H   0  0  0  0  0  0  0  0  0  0  0  0  # atno 10764 bound_to 10752
  154.6813  135.3045  154.9574 H   0  0  0  0  0  0  0  0  0  0  0  0  # atno 10765 bound_to 10752
  139.9142  134.7904  156.1881 H   0  0  0  0  0  0  0  0  0  0  0  0  # atno 11005 bound_to 11000
  145.5919  139.1496  143.3177 LP  0  0  0  0  0  0  0  0  0  0  0  0  # atno 17320 bound_to 7965
  146.2092  140.6045  142.9067 LP  0  0  0  0  0  0  0  0  0  0  0  0  # atno 17321 bound_to 7965
  139.4940  144.6532  151.6631 LP  0  0  0  0  0  0  0  0  0  0  0  0  # atno 17342 bound_to 10162
  140.5740  144.0060  150.6232 LP  0  0  0  0  0  0  0  0  0  0  0  0  # atno 17343 bound_to 10162
  157.5179  131.0929  151.0116 LP  0  0  0  0  0  0  0  0  0  0  0  0  # atno 17370 bound_to 10713
  157.0454  130.5766  149.5362 LP  0  0  0  0  0  0  0  0  0  0  0  0  # atno 17371 bound_to 10713
  141.0600  133.6846  156.1935 LP  0  0  0  0  0  0  0  0  0  0  0  0  # atno 17394 bound_to 11000
  140.6675  134.4902  157.5586 LP  0  0  0  0  0  0  0  0  0  0  0  0  # atno 17395 bound_to 11000

$$$$
