AV-unprocessed.smi:1514|AV-procd|sdf|6116|dock7
  -GOLD-   22720 6253D 1   1.00000     0.00000
 Structure written by MMmdl.
 47 48  0  0  0  0  0  0  0  0  1 V2000
  144.9408  131.9120  151.1603 C   0  0  0  0  0  0  0  0  0  0  0  0
  143.8644  132.8794  150.6478 C   0  0  0  0  0  0  0  0  0  0  0  0
  144.0669  134.2784  151.0186 N   0  0  0  0  0  0  0  0  0  0  0  0
  145.4236  134.7154  150.6895 C   0  0  0  0  0  0  0  0  0  0  0  0
  145.6507  136.1940  151.0552 C   0  0  0  0  0  0  0  0  0  0  0  0
  145.4250  136.4366  152.4826 N   0  0  0  0  0  0  0  0  0  0  0  0
  145.6223  137.8371  152.8503 C   0  0  0  0  0  0  0  0  0  0  0  0
  146.6689  138.5869  152.0105 C   0  0  0  0  0  0  0  0  0  0  0  0
  147.9830  138.4748  152.6271 N   0  0  0  0  0  0  0  0  0  0  0  0
  148.4343  139.2761  153.6011 C   0  0  0  0  0  0  0  0  0  0  0  0
  147.7708  140.1932  154.0852 O   0  0  0  0  0  0  0  0  0  0  0  0
  149.6840  138.9389  153.9650 N   0  0  0  0  0  0  0  0  0  0  0  0
  150.4925  139.5329  154.8824 C   0  0  0  0  0  0  0  0  0  0  0  0
  150.2099  140.5563  155.7454 C   0  0  0  0  0  0  0  0  0  0  0  0
  151.4453  140.7363  156.4332 C   0  0  0  0  0  0  0  0  0  0  0  0
  151.7672  141.7281  157.5119 C   0  0  0  0  0  0  0  0  0  0  0  0
  152.3873  139.8942  156.0238 N   0  0  0  0  0  0  0  0  0  0  0  0
  151.8024  139.1483  155.0617 N   0  0  0  0  0  0  0  0  0  0  0  0
  152.5595  138.1132  154.3852 C   0  0  0  0  0  0  0  0  0  0  0  0
  144.0689  135.9973  152.8121 C   0  0  0  0  0  0  0  0  0  0  0  0
  143.8432  134.5186  152.4463 C   0  0  0  0  0  0  0  0  0  0  0  0
  144.6658  130.8813  150.9367 H   0  0  0  0  0  0  0  0  0  0  0  0
  145.0614  131.9948  152.2408 H   0  0  0  0  0  0  0  0  0  0  0  0
  145.9095  132.0958  150.6961 H   0  0  0  0  0  0  0  0  0  0  0  0
  143.7803  132.7904  149.5637 H   0  0  0  0  0  0  0  0  0  0  0  0
  142.9075  132.5449  151.0510 H   0  0  0  0  0  0  0  0  0  0  0  0
  146.1538  134.0938  151.2102 H   0  0  0  0  0  0  0  0  0  0  0  0
  145.6053  134.5808  149.6228 H   0  0  0  0  0  0  0  0  0  0  0  0
  146.6707  136.4630  150.7834 H   0  0  0  0  0  0  0  0  0  0  0  0
  144.9905  136.8252  150.4581 H   0  0  0  0  0  0  0  0  0  0  0  0
  144.6692  138.3669  152.8058 H   0  0  0  0  0  0  0  0  0  0  0  0
  145.9417  137.8818  153.8925 H   0  0  0  0  0  0  0  0  0  0  0  0
  146.7027  138.1728  151.0013 H   0  0  0  0  0  0  0  0  0  0  0  0
  146.4171  139.6439  151.9213 H   0  0  0  0  0  0  0  0  0  0  0  0
  148.5890  137.7439  152.2844 H   0  0  0  0  0  0  0  0  0  0  0  0
  150.0881  138.1483  153.4850 H   0  0  0  0  0  0  0  0  0  0  0  0
  149.2861  141.0992  155.8765 H   0  0  0  0  0  0  0  0  0  0  0  0
  150.9518  142.4381  157.6505 H   0  0  0  0  0  0  0  0  0  0  0  0
  152.6640  142.2980  157.2676 H   0  0  0  0  0  0  0  0  0  0  0  0
  151.9384  141.2282  158.4655 H   0  0  0  0  0  0  0  0  0  0  0  0
  152.5042  138.2634  153.3069 H   0  0  0  0  0  0  0  0  0  0  0  0
  152.1429  137.1363  154.6314 H   0  0  0  0  0  0  0  0  0  0  0  0
  153.6063  138.1398  154.6916 H   0  0  0  0  0  0  0  0  0  0  0  0
  143.8880  136.1308  153.8791 H   0  0  0  0  0  0  0  0  0  0  0  0
  143.3372  136.6181  152.2924 H   0  0  0  0  0  0  0  0  0  0  0  0
  142.8236  134.2477  152.7187 H   0  0  0  0  0  0  0  0  0  0  0  0
  144.5050  133.8877  153.0417 H   0  0  0  0  0  0  0  0  0  0  0  0
  1  2  1  0  0  0  0
  1 22  1  0  0  0  0
  1 23  1  0  0  0  0
  1 24  1  0  0  0  0
  2  3  1  0  0  0  0
  2 25  1  0  0  0  0
  2 26  1  0  0  0  0
  3 21  1  0  0  0  0
  3  4  1  0  0  0  0
  4  5  1  0  0  0  0
  4 27  1  0  0  0  0
  4 28  1  0  0  0  0
  5  6  1  0  0  0  0
  5 29  1  0  0  0  0
  5 30  1  0  0  0  0
  6  7  1  0  0  0  0
  6 20  1  0  0  0  0
  7  8  1  0  0  0  0
  7 31  1  0  0  0  0
  7 32  1  0  0  0  0
  8  9  1  0  0  0  0
  8 33  1  0  0  0  0
  8 34  1  0  0  0  0
  9 10  1  0  0  0  0
  9 35  1  0  0  0  0
 10 11  2  0  0  0  0
 10 12  1  0  0  0  0
 12 13  1  0  0  0  0
 12 36  1  0  0  0  0
 13 18  1  0  0  0  0
 13 14  2  0  0  0  0
 14 15  1  0  0  0  0
 14 37  1  0  0  0  0
 15 16  1  0  0  0  0
 15 17  2  0  0  0  0
 16 38  1  0  0  0  0
 16 39  1  0  0  0  0
 16 40  1  0  0  0  0
 17 18  1  0  0  0  0
 18 19  1  0  0  0  0
 19 41  1  0  0  0  0
 19 42  1  0  0  0  0
 19 43  1  0  0  0  0
 20 21  1  0  0  0  0
 20 44  1  0  0  0  0
 20 45  1  0  0  0  0
 21 46  1  0  0  0  0
 21 47  1  0  0  0  0
M  END
> <s_m_source_file>
AV-unprocessed.smi

> <i_m_source_file_index>
1514

> <i_lp_mmshare_version>
43012

> <i_f3d_flags>
0

> <s_epik_input>
W0NIM11bQ0gyXU4xW0NIMl1bQ0gyXU4oW0NIMl1bQ0gyXTEpW0NIMl1bQ0gyXVtOSF1DKD1PKVtOSF1jMltjSF1jKFtDSDNdKW5uMltDSDNd

> <s_epik_cmdline>
J2VwaWtfcHl0aG9uJywgJy1waCcsICc3LjAnLCAnLXRuJywgJzgnLCAnLW1hJywgJzIwMCcsICctbWV0YWxfYmluZGluZycsICctaW1hZScsICc8aW5maWxlLm1hZT4nLCAnLW9tYWUnLCAnPG91dGZpbGUubWFlPic=

> <r_lp_tautomer_probability>
1

> <r_epik_Ionization_Penalty>
2.12169

> <r_epik_Ionization_Penalty_Charging>
0

> <r_epik_Ionization_Penalty_Neutral>
2.12169

> <r_epik_State_Penalty>
1.63644

> <r_epik_Charging_Adjusted_Penalty>
1.63644

> <i_epik_Tot_Q>
0

> <i_epik_Tot_abs_Q>
0

> <r_epik_Metal_State_Penalty>
1.63644

> <b_epik_Metal_Only>
0

> <s_lp_Force_Field>
OPLS_2005

> <r_lp_Energy>
34.6539

> <b_lp_Chiralities_Consistent>
1

> <s_lp_Variant>
AV-unprocessed.smi:1514-3

> <Gold.Version>
5.8.1

> <Gold.Id.Protein>
6NUR|6NUR_protein|mol2

> <Gold.PLP.Fitness>
43.3746

> <Gold.PLP.PLP>
-38.9361

> <Gold.PLP.part.hbond>
-3.9038

> <Gold.PLP.part.metal>
0.0000

> <Gold.PLP.part.buried>
-3.0974

> <Gold.PLP.part.nonpolar>
-32.9851

> <Gold.PLP.part.repulsive>
0.5966

> <Gold.PLP.ligand.clash>
0.0000

> <Gold.PLP.ligand.torsion>
0.7694

> <Gold.PLP.Chemscore.Hbond>
1.9750

> <Gold.PLP.Chemscore.CHOScore>
0.0000

> <Gold.PLP.Chemscore.Metal>
0.0000

> <Gold.Chemscore.Hbonds>
donor molecule, donor type, donor heavy atom, donor atom, acceptor molecule, acceptor atom, score
      L1  H     9    35       P1  7948  1.00
      P1  H  7997  8009       L1    17  1.00

> <Gold.PLP.Chemscore.Internal.Correction>
0.0523

> <Gold.Rescore>
     Score         DG    S(hbond)    S(metal)    S(lipo)     H(rot)  DE(clash)    DE(int)     intcor
     14.91     -16.84       1.95        0.00      77.53       1.64       0.05       1.89       ----

> <Gold.Chemscore.Fitness>
14.9099

> <Gold.Chemscore.DG>
-16.8443

> <Gold.Chemscore.ZeroCoef>
-5.4800

> <Gold.Chemscore.Hbond>
1.9460

> <Gold.Chemscore.Metal>
0.0000

> <Gold.Chemscore.Lipo>
77.5311

> <Gold.Chemscore.Internal_Hbond>
0.0000

> <Gold.Chemscore.DEClash>
0.0469

> <Gold.Chemscore.DEInternal>
1.8874

> <Gold.Chemscore.Rot>
1.6432

> <Gold.Chemscore.Internal.Correction>
   9.000000E+99

> <Gold.Chemscore.Hbonds>
donor molecule, donor type, donor heavy atom, donor atom, acceptor molecule, acceptor atom, score
      L1  H     9    35       P1  7948  0.96
      P1  H  7997  8009       L1    17  0.95

> <Gold.Chemscore.Hbond.Weighted>
-6.4997

> <Gold.Chemscore.Metal.Weighted>
-0.0000

> <Gold.Chemscore.Lipo.Weighted>
-9.0711

> <Gold.Chemscore.Internal_Hbond.Weighted>
0.0000

> <Gold.Chemscore.DEClash.Weighted>
0.0469

> <Gold.Chemscore.DEInternal.Weighted>
1.8874

> <Gold.Chemscore.Rot.Weighted>
4.2065

> <Gold.Chemscore.Internal.Correction.Weighted>
   9.000000E+99

> <Gold.Protein.RotatedTorsions>
[ 6907 6896 6895 6894 ] final   89.73 input  -60.11 | X-H torsion
[ 7974 7965 7964 7962 ] final -168.84 input  175.53 | X-H torsion
[ 8008 7997 7996 7995 ] final -169.26 input   59.86 | X-H torsion
[ 10167 10162 10161 10158 ] final  134.40 input  -65.29 | X-H torsion
[ 10718 10713 10712 10709 ] final  -98.79 input   66.30 | X-H torsion
[ 10763 10752 10751 10750 ] final   93.22 input  -60.55 | X-H torsion
[ 11005 11000 10999 10996 ] final  135.95 input  -57.11 | X-H torsion

> <Gold.Protein.ActiveResidues>
 VAL166  LYS551  ARG553  GLY616  TRP617  ASP618  TYR619  PRO620  LYS621  CYS622 
 ASP623  PHE694  ASN695  SER759  ASP760  ASP761  ALA762  ILE779  LEU786  VAL792 
 PHE793  MET794  SER795  GLU796  ALA797  LYS798  CYS799  TRP800  GLU811  SER814 

> <Gold.Protein.RotatedAtoms>
  152.5439  134.1921  159.8677 H   0  0  0  0  0  0  0  0  0  0  0  0  # atno 6907 bound_to 6896
  151.1916  133.4657  159.2602 H   0  0  0  0  0  0  0  0  0  0  0  0  # atno 6908 bound_to 6896
  151.1077  135.0021  159.8535 H   0  0  0  0  0  0  0  0  0  0  0  0  # atno 6909 bound_to 6896
  144.7196  140.2310  143.6304 H   0  0  0  0  0  0  0  0  0  0  0  0  # atno 7974 bound_to 7965
  155.9026  140.1043  157.1338 H   0  0  0  0  0  0  0  0  0  0  0  0  # atno 8008 bound_to 7997
  154.4028  140.1289  156.4520 H   0  0  0  0  0  0  0  0  0  0  0  0  # atno 8009 bound_to 7997
  155.7404  140.3467  155.5104 H   0  0  0  0  0  0  0  0  0  0  0  0  # atno 8010 bound_to 7997
  139.5258  144.6569  151.5134 H   0  0  0  0  0  0  0  0  0  0  0  0  # atno 10167 bound_to 10162
  156.0117  130.5254  150.6575 H   0  0  0  0  0  0  0  0  0  0  0  0  # atno 10718 bound_to 10713
  153.2278  135.4333  155.0562 H   0  0  0  0  0  0  0  0  0  0  0  0  # atno 10763 bound_to 10752
  154.8282  135.3372  154.6832 H   0  0  0  0  0  0  0  0  0  0  0  0  # atno 10764 bound_to 10752
  153.7260  135.7014  153.5057 H   0  0  0  0  0  0  0  0  0  0  0  0  # atno 10765 bound_to 10752
  140.0014  134.9477  157.0079 H   0  0  0  0  0  0  0  0  0  0  0  0  # atno 11005 bound_to 11000
  145.8410  139.2130  143.1827 LP  0  0  0  0  0  0  0  0  0  0  0  0  # atno 17320 bound_to 7965
  146.0346  140.8225  142.9859 LP  0  0  0  0  0  0  0  0  0  0  0  0  # atno 17321 bound_to 7965
  140.6399  143.8910  150.6682 LP  0  0  0  0  0  0  0  0  0  0  0  0  # atno 17342 bound_to 10162
  140.2241  143.3786  152.1619 LP  0  0  0  0  0  0  0  0  0  0  0  0  # atno 17343 bound_to 10162
  157.4324  131.0851  151.1025 LP  0  0  0  0  0  0  0  0  0  0  0  0  # atno 17370 bound_to 10713
  157.1594  130.6219  149.5606 LP  0  0  0  0  0  0  0  0  0  0  0  0  # atno 17371 bound_to 10713
  140.4722  134.1375  155.7204 LP  0  0  0  0  0  0  0  0  0  0  0  0  # atno 17394 bound_to 11000
  141.1644  133.8731  157.1756 LP  0  0  0  0  0  0  0  0  0  0  0  0  # atno 17395 bound_to 11000

$$$$
