AV-unprocessed.smi:2173|AV-procd|sdf|8838|dock5
  -GOLD-   2272012 33D 1   1.00000     0.00000
 Structure written by MMmdl.
 35 36  0  0  0  0  0  0  0  0  1 V2000
  151.1443  140.7059  157.4824 O   0  0  0  0  0  0  0  0  0  0  0  0
  150.6581  141.8286  157.3405 C   0  0  0  0  0  0  0  0  0  0  0  0
  149.9215  142.1847  156.2759 N   0  0  0  0  0  0  0  0  0  0  0  0
  149.6331  141.3378  155.1210 C   0  0  0  0  0  0  0  0  0  0  0  0
  148.2135  140.7365  155.1638 C   0  0  0  0  0  0  0  0  0  0  0  0
  147.1021  141.7682  155.0592 C   0  0  0  0  0  0  0  0  0  0  0  0
  146.8582  142.4361  153.8404 C   0  0  0  0  0  0  0  0  0  0  0  0
  145.8470  143.4154  153.8025 C   0  0  0  0  0  0  0  0  0  0  0  0
  145.1215  143.6875  154.9785 C   0  0  0  0  0  0  0  0  0  0  0  0
  145.4408  142.9646  156.1449 C   0  0  0  0  0  0  0  0  0  0  0  0
  146.4074  142.0231  156.1917 N   0  0  0  0  0  0  0  0  0  0  0  0
  150.9000  142.9149  158.3958 C   0  0  2  0  0  0  0  0  0  0  0  0
  151.5609  144.1596  157.7607 C   0  0  0  0  0  0  0  0  0  0  0  0
  152.0412  145.1497  158.8069 C   0  0  0  0  0  0  0  0  0  0  0  0
  152.1870  144.8386  160.1063 C   0  0  0  0  0  0  0  0  0  0  0  0
  151.8943  143.4608  160.6742 C   0  0  0  0  0  0  0  0  0  0  0  0
  151.7506  142.3941  159.5719 C   0  0  0  0  0  0  0  0  0  0  0  0
  149.5659  143.1293  156.2459 H   0  0  0  0  0  0  0  0  0  0  0  0
  149.7751  141.8930  154.1923 H   0  0  0  0  0  0  0  0  0  0  0  0
  150.3666  140.5316  155.1048 H   0  0  0  0  0  0  0  0  0  0  0  0
  148.0990  140.0158  154.3535 H   0  0  0  0  0  0  0  0  0  0  0  0
  148.0853  140.1700  156.0876 H   0  0  0  0  0  0  0  0  0  0  0  0
  147.4403  142.2126  152.9585 H   0  0  0  0  0  0  0  0  0  0  0  0
  145.6347  143.9514  152.8893 H   0  0  0  0  0  0  0  0  0  0  0  0
  144.3408  144.4334  154.9871 H   0  0  0  0  0  0  0  0  0  0  0  0
  144.9078  143.1490  157.0657 H   0  0  0  0  0  0  0  0  0  0  0  0
  149.9316  143.2153  158.8010 H   0  0  0  0  0  0  0  0  0  0  0  0
  152.4146  143.8828  157.1402 H   0  0  0  0  0  0  0  0  0  0  0  0
  150.8464  144.6632  157.1085 H   0  0  0  0  0  0  0  0  0  0  0  0
  152.2812  146.1448  158.4618 H   0  0  0  0  0  0  0  0  0  0  0  0
  152.5187  145.5932  160.8044 H   0  0  0  0  0  0  0  0  0  0  0  0
  152.6905  143.1785  161.3634 H   0  0  0  0  0  0  0  0  0  0  0  0
  150.9753  143.5248  161.2577 H   0  0  0  0  0  0  0  0  0  0  0  0
  151.3166  141.4864  159.9932 H   0  0  0  0  0  0  0  0  0  0  0  0
  152.7438  142.1207  159.2110 H   0  0  0  0  0  0  0  0  0  0  0  0
  1  2  2  0  0  0  0
  2  3  1  0  0  0  0
  2 12  1  0  0  0  0
  3  4  1  0  0  0  0
  3 18  1  0  0  0  0
  4  5  1  0  0  0  0
  4 19  1  0  0  0  0
  4 20  1  0  0  0  0
  5  6  1  0  0  0  0
  5 21  1  0  0  0  0
  5 22  1  0  0  0  0
  6 11  1  0  0  0  0
  6  7  2  0  0  0  0
  7  8  1  0  0  0  0
  7 23  1  0  0  0  0
  8  9  2  0  0  0  0
  8 24  1  0  0  0  0
  9 10  1  0  0  0  0
  9 25  1  0  0  0  0
 10 11  2  0  0  0  0
 10 26  1  0  0  0  0
 12 17  1  0  0  0  0
 12 13  1  0  0  0  0
 12 27  1  0  0  0  0
 13 14  1  0  0  0  0
 13 28  1  0  0  0  0
 13 29  1  0  0  0  0
 14 15  2  0  0  0  0
 14 30  1  0  0  0  0
 15 16  1  0  0  0  0
 15 31  1  0  0  0  0
 16 17  1  0  0  0  0
 16 32  1  0  0  0  0
 16 33  1  0  0  0  0
 17 34  1  0  0  0  0
 17 35  1  0  0  0  0
M  END
> <s_m_source_file>
AV-unprocessed.smi

> <i_m_source_file_index>
2173

> <i_lp_mmshare_version>
43012

> <i_f3d_flags>
0

> <s_epik_input>
W0NIMl0xW0NIMl1bQ0hdPVtDSF1bQ0gyXVtDQEhdMUMoPU8pW05IXVtDSDJdW0NIMl1jMltjSF1bY0hdW2NIXVtjSF1uMg==

> <s_epik_cmdline>
J2VwaWtfcHl0aG9uJywgJy1waCcsICc3LjAnLCAnLXRuJywgJzgnLCAnLW1hJywgJzIwMCcsICctbWV0YWxfYmluZGluZycsICctaW1hZScsICc8aW5maWxlLm1hZT4nLCAnLW9tYWUnLCAnPG91dGZpbGUubWFlPic=

> <r_epik_Ionization_Penalty>
0.0268825

> <r_epik_Ionization_Penalty_Charging>
0

> <r_epik_Ionization_Penalty_Neutral>
0.0268825

> <r_epik_State_Penalty>
0.0219706

> <r_epik_Charging_Adjusted_Penalty>
0.0219706

> <i_epik_Tot_Q>
0

> <i_epik_Tot_abs_Q>
0

> <r_epik_Metal_State_Penalty>
0.0210138

> <b_epik_Metal_Only>
0

> <s_lp_Force_Field>
OPLS_2005

> <r_lp_Energy>
7.98713

> <b_lp_Chiralities_Consistent>
1

> <s_lp_Variant>
AV-unprocessed.smi:2173-1

> <Gold.Version>
5.8.1

> <Gold.Id.Protein>
6NUR|6NUR_protein|mol2

> <Gold.PLP.Fitness>
44.2581

> <Gold.PLP.PLP>
-41.7719

> <Gold.PLP.part.hbond>
-1.0000

> <Gold.PLP.part.metal>
0.0000

> <Gold.PLP.part.buried>
-6.1904

> <Gold.PLP.part.nonpolar>
-34.3521

> <Gold.PLP.part.repulsive>
0.1996

> <Gold.PLP.ligand.clash>
0.0000

> <Gold.PLP.ligand.torsion>
0.2694

> <Gold.PLP.Chemscore.Hbond>
1.0000

> <Gold.PLP.Chemscore.CHOScore>
0.0000

> <Gold.PLP.Chemscore.Metal>
0.0000

> <Gold.Chemscore.Hbonds>
donor molecule, donor type, donor heavy atom, donor atom, acceptor molecule, acceptor atom, score
      L1  H     3    18       P1  8028  1.00

> <Gold.PLP.Chemscore.Internal.Correction>
0.0251

> <Gold.Rescore>
     Score         DG    S(hbond)    S(metal)    S(lipo)     H(rot)  DE(clash)    DE(int)     intcor
     17.87     -18.07       1.00        0.00     109.52       1.39       0.06       0.13       ----

> <Gold.Chemscore.Fitness>
17.8720

> <Gold.Chemscore.DG>
-18.0661

> <Gold.Chemscore.ZeroCoef>
-5.4800

> <Gold.Chemscore.Hbond>
0.9975

> <Gold.Chemscore.Metal>
0.0000

> <Gold.Chemscore.Lipo>
109.5248

> <Gold.Chemscore.Internal_Hbond>
0.0000

> <Gold.Chemscore.DEClash>
0.0630

> <Gold.Chemscore.DEInternal>
0.1310

> <Gold.Chemscore.Rot>
1.3907

> <Gold.Chemscore.Internal.Correction>
   9.000000E+99

> <Gold.Chemscore.Hbonds>
donor molecule, donor type, donor heavy atom, donor atom, acceptor molecule, acceptor atom, score
      L1  H     3    18       P1  8028  1.00

> <Gold.Chemscore.Hbond.Weighted>
-3.3318

> <Gold.Chemscore.Metal.Weighted>
-0.0000

> <Gold.Chemscore.Lipo.Weighted>
-12.8144

> <Gold.Chemscore.Internal_Hbond.Weighted>
0.0000

> <Gold.Chemscore.DEClash.Weighted>
0.0630

> <Gold.Chemscore.DEInternal.Weighted>
0.1310

> <Gold.Chemscore.Rot.Weighted>
3.5601

> <Gold.Chemscore.Internal.Correction.Weighted>
   9.000000E+99

> <Gold.Protein.RotatedTorsions>
[ 6907 6896 6895 6894 ] final  154.57 input  -60.11 | X-H torsion
[ 7974 7965 7964 7962 ] final  167.22 input  175.53 | X-H torsion
[ 8008 7997 7996 7995 ] final   65.42 input   59.86 | X-H torsion
[ 10167 10162 10161 10158 ] final  -37.85 input  -65.29 | X-H torsion
[ 10718 10713 10712 10709 ] final   43.21 input   66.30 | X-H torsion
[ 10763 10752 10751 10750 ] final    9.41 input  -60.55 | X-H torsion
[ 11005 11000 10999 10996 ] final  -79.23 input  -57.11 | X-H torsion

> <Gold.Protein.ActiveResidues>
 VAL166  LYS551  ARG553  GLY616  TRP617  ASP618  TYR619  PRO620  LYS621  CYS622 
 ASP623  PHE694  ASN695  SER759  ASP760  ASP761  ALA762  ILE779  LEU786  VAL792 
 PHE793  MET794  SER795  GLU796  ALA797  LYS798  CYS799  TRP800  GLU811  SER814 

> <Gold.Protein.RotatedAtoms>
  152.0567  133.4043  159.4399 H   0  0  0  0  0  0  0  0  0  0  0  0  # atno 6907 bound_to 6896
  150.6868  134.3247  159.4811 H   0  0  0  0  0  0  0  0  0  0  0  0  # atno 6908 bound_to 6896
  152.1063  134.9305  160.0618 H   0  0  0  0  0  0  0  0  0  0  0  0  # atno 6909 bound_to 6896
  144.7432  139.8730  143.6390 H   0  0  0  0  0  0  0  0  0  0  0  0  # atno 7974 bound_to 7965
  155.6615  140.3497  155.4784 H   0  0  0  0  0  0  0  0  0  0  0  0  # atno 8008 bound_to 7997
  155.9765  140.1166  157.0789 H   0  0  0  0  0  0  0  0  0  0  0  0  # atno 8009 bound_to 7997
  154.4180  140.1147  156.5363 H   0  0  0  0  0  0  0  0  0  0  0  0  # atno 8010 bound_to 7997
  140.7107  143.3315  151.2559 H   0  0  0  0  0  0  0  0  0  0  0  0  # atno 10167 bound_to 10162
  157.4134  130.7927  149.7450 H   0  0  0  0  0  0  0  0  0  0  0  0  # atno 10718 bound_to 10713
  153.2143  135.6873  153.8076 H   0  0  0  0  0  0  0  0  0  0  0  0  # atno 10763 bound_to 10752
  153.7297  135.3254  155.3284 H   0  0  0  0  0  0  0  0  0  0  0  0  # atno 10764 bound_to 10752
  154.8238  135.4633  154.0964 H   0  0  0  0  0  0  0  0  0  0  0  0  # atno 10765 bound_to 10752
  141.1667  133.7097  156.8092 H   0  0  0  0  0  0  0  0  0  0  0  0  # atno 11005 bound_to 11000
  146.1267  139.4294  143.0194 LP  0  0  0  0  0  0  0  0  0  0  0  0  # atno 17320 bound_to 7965
  145.7225  141.0070  143.1395 LP  0  0  0  0  0  0  0  0  0  0  0  0  # atno 17321 bound_to 7965
  139.6798  143.9874  152.2802 LP  0  0  0  0  0  0  0  0  0  0  0  0  # atno 17342 bound_to 10162
  139.9500  144.6626  150.8181 LP  0  0  0  0  0  0  0  0  0  0  0  0  # atno 17343 bound_to 10162
  155.9857  130.3980  150.3246 LP  0  0  0  0  0  0  0  0  0  0  0  0  # atno 17370 bound_to 10713
  157.1386  131.0290  151.2937 LP  0  0  0  0  0  0  0  0  0  0  0  0  # atno 17371 bound_to 10713
  140.2200  134.8764  157.3367 LP  0  0  0  0  0  0  0  0  0  0  0  0  # atno 17394 bound_to 11000
  140.1998  134.4269  155.7669 LP  0  0  0  0  0  0  0  0  0  0  0  0  # atno 17395 bound_to 11000

$$$$
