AV-unprocessed.smi:34|AV-procd|sdf|232|dock8
  -GOLD-   2262015563D 1   1.00000     0.00000
 Structure written by MMmdl.
 54 58  0  0  0  0  0  0  0  0  2 V2000
  150.6401  142.5718  156.3467 O   0  0  0  0  0  0  0  0  0  0  0  0
  151.1812  142.2753  157.4140 C   0  0  0  0  0  0  0  0  0  0  0  0
  151.5139  141.0386  157.8637 N   0  5  0  0  0  0  0  0  0  0  0  0
  151.7097  140.0383  156.9910 C   0  0  0  0  0  0  0  0  0  0  0  0
  152.4127  140.2528  155.8497 N   0  0  0  0  0  0  0  0  0  0  0  0
  152.6025  139.2573  154.9762 C   0  0  0  0  0  0  0  0  0  0  0  0
  152.1796  137.9919  155.0422 N   0  0  0  0  0  0  0  0  0  0  0  0
  151.4637  137.7623  156.1808 C   0  0  0  0  0  0  0  0  0  0  0  0
  151.1878  138.7303  157.1906 C   0  0  0  0  0  0  0  0  0  0  0  0
  150.4345  138.1738  158.2139 N   0  0  0  0  0  0  0  0  0  0  0  0
  150.2930  136.9198  157.7917 C   0  0  0  0  0  0  0  0  0  0  0  0
  150.8636  136.5895  156.6163 N   0  0  0  0  0  0  0  0  0  0  0  0
  150.8378  135.2457  155.9553 C   0  0  1  0  0  0  0  0  0  0  0  0
  149.8825  134.4310  156.5706 O   0  0  0  0  0  0  0  0  0  0  0  0
  149.1261  133.6994  155.6007 C   0  0  1  0  0  0  0  0  0  0  0  0
  147.6782  134.2156  155.6054 C   0  0  0  0  0  0  0  0  0  0  0  0
  146.9833  133.6536  154.5040 O   0  0  0  0  0  0  0  0  0  0  0  0
  146.1434  134.4144  153.7755 C   0  0  0  0  0  0  0  0  0  0  0  0
  145.8825  135.5900  154.0397 O   0  0  0  0  0  0  0  0  0  0  0  0
  145.5579  133.6828  152.6154 C   0  0  0  0  0  0  0  0  0  0  0  0
  144.7145  134.3738  151.7144 C   0  0  0  0  0  0  0  0  0  0  0  0
  144.1434  133.7079  150.6124 C   0  0  0  0  0  0  0  0  0  0  0  0
  144.4073  132.3424  150.3992 C   0  0  0  0  0  0  0  0  0  0  0  0
  145.2442  131.6435  151.2887 C   0  0  0  0  0  0  0  0  0  0  0  0
  145.8171  132.3080  152.3907 C   0  0  0  0  0  0  0  0  0  0  0  0
  149.8652  133.9443  154.2808 C   0  0  1  0  0  0  0  0  0  0  0  0
  149.1146  133.8372  153.1828 F   0  0  0  0  0  0  0  0  0  0  0  0
  150.4979  135.3115  154.4607 C   0  0  1  0  0  0  0  0  0  0  0  0
  149.6162  136.3696  154.1276 O   0  0  0  0  0  0  0  0  0  0  0  0
  151.4769  143.3694  158.4057 C   0  0  0  0  0  0  0  0  0  0  0  0
  151.2522  144.7185  158.0477 C   0  0  0  0  0  0  0  0  0  0  0  0
  151.5465  145.7585  158.9511 C   0  0  0  0  0  0  0  0  0  0  0  0
  152.0786  145.4613  160.2195 C   0  0  0  0  0  0  0  0  0  0  0  0
  152.3198  144.1231  160.5825 C   0  0  0  0  0  0  0  0  0  0  0  0
  152.0255  143.0825  159.6799 C   0  0  0  0  0  0  0  0  0  0  0  0
  153.1754  139.5106  154.0964 H   0  0  0  0  0  0  0  0  0  0  0  0
  149.7435  136.1953  158.3746 H   0  0  0  0  0  0  0  0  0  0  0  0
  151.8272  134.8243  156.1391 H   0  0  0  0  0  0  0  0  0  0  0  0
  149.1340  132.6365  155.8449 H   0  0  0  0  0  0  0  0  0  0  0  0
  147.1816  133.9639  156.5422 H   0  0  0  0  0  0  0  0  0  0  0  0
  147.6636  135.3020  155.5121 H   0  0  0  0  0  0  0  0  0  0  0  0
  144.4959  135.4219  151.8594 H   0  0  0  0  0  0  0  0  0  0  0  0
  143.5014  134.2460  149.9310 H   0  0  0  0  0  0  0  0  0  0  0  0
  143.9680  131.8314  149.5555 H   0  0  0  0  0  0  0  0  0  0  0  0
  145.4469  130.5951  151.1267 H   0  0  0  0  0  0  0  0  0  0  0  0
  146.4522  131.7415  153.0560 H   0  0  0  0  0  0  0  0  0  0  0  0
  150.6577  133.2016  154.1802 H   0  0  0  0  0  0  0  0  0  0  0  0
  151.4124  135.4231  153.8774 H   0  0  0  0  0  0  0  0  0  0  0  0
  149.3123  136.2417  153.2418 H   0  0  0  0  0  0  0  0  0  0  0  0
  150.8470  144.9644  157.0768 H   0  0  0  0  0  0  0  0  0  0  0  0
  151.3654  146.7851  158.6691 H   0  0  0  0  0  0  0  0  0  0  0  0
  152.3051  146.2586  160.9118 H   0  0  0  0  0  0  0  0  0  0  0  0
  152.7343  143.8933  161.5528 H   0  0  0  0  0  0  0  0  0  0  0  0
  152.2283  142.0632  159.9752 H   0  0  0  0  0  0  0  0  0  0  0  0
  1  2  2  0  0  0  0
  2  3  1  0  0  0  0
  2 30  1  0  0  0  0
  3  4  1  0  0  0  0
  4  9  1  0  0  0  0
  4  5  2  0  0  0  0
  5  6  1  0  0  0  0
  6  7  2  0  0  0  0
  6 36  1  0  0  0  0
  7  8  1  0  0  0  0
  8 12  1  0  0  0  0
  8  9  2  0  0  0  0
  9 10  1  0  0  0  0
 10 11  2  0  0  0  0
 11 12  1  0  0  0  0
 11 37  1  0  0  0  0
 12 13  1  0  0  0  0
 13 28  1  0  0  0  0
 13 14  1  0  0  0  0
 13 38  1  0  0  0  0
 14 15  1  0  0  0  0
 15 16  1  0  0  0  0
 15 26  1  0  0  0  0
 15 39  1  0  0  0  0
 16 17  1  0  0  0  0
 16 40  1  0  0  0  0
 16 41  1  0  0  0  0
 17 18  1  0  0  0  0
 18 19  2  0  0  0  0
 18 20  1  0  0  0  0
 20 25  1  0  0  0  0
 20 21  2  0  0  0  0
 21 22  1  0  0  0  0
 21 42  1  0  0  0  0
 22 23  2  0  0  0  0
 22 43  1  0  0  0  0
 23 24  1  0  0  0  0
 23 44  1  0  0  0  0
 24 25  2  0  0  0  0
 24 45  1  0  0  0  0
 25 46  1  0  0  0  0
 26 27  1  0  0  0  0
 26 28  1  0  0  0  0
 26 47  1  0  0  0  0
 28 29  1  0  0  0  0
 28 48  1  0  0  0  0
 29 49  1  0  0  0  0
 30 35  1  0  0  0  0
 30 31  2  0  0  0  0
 31 32  1  0  0  0  0
 31 50  1  0  0  0  0
 32 33  2  0  0  0  0
 32 51  1  0  0  0  0
 33 34  1  0  0  0  0
 33 52  1  0  0  0  0
 34 35  2  0  0  0  0
 34 53  1  0  0  0  0
 35 54  1  0  0  0  0
M  CHG  1   3  -1
M  END
> <s_m_source_file>
AV-unprocessed.smi

> <i_m_source_file_index>
34

> <i_lp_mmshare_version>
43012

> <i_f3d_flags>
0

> <s_epik_input>
W2NIXTFbY0hdW2NIXVtjSF1bY0hdYzFDKD1PKVtOSF1jKG5bY0hdbjIpYyhjMjMpbltjSF1uM1tDQEBIXTRPW0NASF0oW0NAQEhdKEYpW0NASF00W09IXSlbQ0gyXU9DKD1PKWM1W2NIXVtjSF1bY0hdW2NIXVtjSF01

> <s_epik_cmdline>
J2VwaWtfcHl0aG9uJywgJy1waCcsICc3LjAnLCAnLXRuJywgJzgnLCAnLW1hJywgJzIwMCcsICctbWV0YWxfYmluZGluZycsICctaW1hZScsICc8aW5maWxlLm1hZT4nLCAnLW9tYWUnLCAnPG91dGZpbGUubWFlPic=

> <r_lp_tautomer_probability>
1

> <r_epik_Ionization_Penalty>
4.33227

> <r_epik_Ionization_Penalty_Charging>
3.41027

> <r_epik_Ionization_Penalty_Neutral>
0.922001

> <r_epik_State_Penalty>
3.41358

> <r_epik_Charging_Adjusted_Penalty>
6.82385

> <i_epik_Tot_Q>
-1

> <i_epik_Tot_abs_Q>
1

> <r_epik_Metal_State_Penalty>
0.496292

> <b_epik_Metal_Only>
1

> <s_epik_Chemistry_Notes>
This compound has an ester and may undergo hydrolysis at high or low pH. This compound contains an acetal/aminal-like group ( X-CH(R)-Y where X, Y are N, S, or O) that may be acid/base labile, releasing an aldehyde.

> <s_lp_Force_Field>
OPLS_2005

> <r_lp_Energy>
54.2336

> <b_lp_Chiralities_Consistent>
1

> <s_lp_Variant>
AV-unprocessed.smi:34-18

> <Gold.Version>
5.8.1

> <Gold.Id.Protein>
6NUR|6NUR_protein|mol2

> <Gold.PLP.Fitness>
65.2237

> <Gold.PLP.PLP>
-58.4097

> <Gold.PLP.part.hbond>
-3.3489

> <Gold.PLP.part.metal>
0.0000

> <Gold.PLP.part.buried>
-9.1330

> <Gold.PLP.part.nonpolar>
-46.1224

> <Gold.PLP.part.repulsive>
0.2442

> <Gold.PLP.ligand.clash>
0.0000

> <Gold.PLP.ligand.torsion>
1.1301

> <Gold.PLP.Chemscore.Hbond>
2.8480

> <Gold.PLP.Chemscore.CHOScore>
0.0000

> <Gold.PLP.Chemscore.Metal>
0.0000

> <Gold.Chemscore.Hbonds>
donor molecule, donor type, donor heavy atom, donor atom, acceptor molecule, acceptor atom, score
      L1  H    29    49       P1  7948  0.67
      P1  H  7997  8008       L1     5  0.41

> <Gold.PLP.Chemscore.Internal.Correction>
0.5302

> <Gold.Rescore>
     Score         DG    S(hbond)    S(metal)    S(lipo)     H(rot)  DE(clash)    DE(int)     intcor
     17.58     -20.34       1.95        0.00     130.35       2.69       0.03       2.72       ----

> <Gold.Chemscore.Fitness>
17.5833

> <Gold.Chemscore.DG>
-20.3385

> <Gold.Chemscore.ZeroCoef>
-5.4800

> <Gold.Chemscore.Hbond>
1.9476

> <Gold.Chemscore.Metal>
0.0000

> <Gold.Chemscore.Lipo>
130.3506

> <Gold.Chemscore.Internal_Hbond>
0.0000

> <Gold.Chemscore.DEClash>
0.0338

> <Gold.Chemscore.DEInternal>
2.7214

> <Gold.Chemscore.Rot>
2.6944

> <Gold.Chemscore.Internal.Correction>
   9.000000E+99

> <Gold.Chemscore.Hbonds>
donor molecule, donor type, donor heavy atom, donor atom, acceptor molecule, acceptor atom, score
      L1  H    29    49       P1  7948  0.50
      P1  H  7997  8008       L1     5  0.01

> <Gold.Chemscore.Hbond.Weighted>
-6.5050

> <Gold.Chemscore.Metal.Weighted>
-0.0000

> <Gold.Chemscore.Lipo.Weighted>
-15.2510

> <Gold.Chemscore.Internal_Hbond.Weighted>
0.0000

> <Gold.Chemscore.DEClash.Weighted>
0.0338

> <Gold.Chemscore.DEInternal.Weighted>
2.7214

> <Gold.Chemscore.Rot.Weighted>
6.8975

> <Gold.Chemscore.Internal.Correction.Weighted>
   9.000000E+99

> <Gold.Protein.RotatedTorsions>
[ 6907 6896 6895 6894 ] final -152.19 input  -60.11 | X-H torsion
[ 7974 7965 7964 7962 ] final  -62.99 input  175.53 | X-H torsion
[ 8008 7997 7996 7995 ] final  -59.39 input   59.86 | X-H torsion
[ 10167 10162 10161 10158 ] final  -16.52 input  -65.29 | X-H torsion
[ 10718 10713 10712 10709 ] final  105.95 input   66.30 | X-H torsion
[ 10763 10752 10751 10750 ] final  -45.09 input  -60.55 | X-H torsion
[ 11005 11000 10999 10996 ] final   42.55 input  -57.11 | X-H torsion

> <Gold.Protein.ActiveResidues>
 VAL166  LYS551  ARG553  GLY616  TRP617  ASP618  TYR619  PRO620  LYS621  CYS622 
 ASP623  PHE694  ASN695  SER759  ASP760  ASP761  ALA762  ILE779  LEU786  VAL792 
 PHE793  MET794  SER795  GLU796  ALA797  LYS798  CYS799  TRP800  GLU811  SER814 

> <Gold.Protein.RotatedAtoms>
  151.2241  133.4486  159.2601 H   0  0  0  0  0  0  0  0  0  0  0  0  # atno 6907 bound_to 6896
  151.0856  134.9885  159.8388 H   0  0  0  0  0  0  0  0  0  0  0  0  # atno 6908 bound_to 6896
  152.5429  134.2178  159.8828 H   0  0  0  0  0  0  0  0  0  0  0  0  # atno 6909 bound_to 6896
  145.7846  140.8743  143.0312 H   0  0  0  0  0  0  0  0  0  0  0  0  # atno 7974 bound_to 7965
  154.4350  140.1063  156.6108 H   0  0  0  0  0  0  0  0  0  0  0  0  # atno 8008 bound_to 7997
  155.5811  140.3491  155.4522 H   0  0  0  0  0  0  0  0  0  0  0  0  # atno 8009 bound_to 7997
  156.0318  140.1262  157.0240 H   0  0  0  0  0  0  0  0  0  0  0  0  # atno 8010 bound_to 7997
  140.7235  143.5108  150.9752 H   0  0  0  0  0  0  0  0  0  0  0  0  # atno 10167 bound_to 10162
  157.6687  131.0839  150.5933 H   0  0  0  0  0  0  0  0  0  0  0  0  # atno 10718 bound_to 10713
  154.0229  135.6667  153.4774 H   0  0  0  0  0  0  0  0  0  0  0  0  # atno 10763 bound_to 10752
  153.0572  135.5049  154.8006 H   0  0  0  0  0  0  0  0  0  0  0  0  # atno 10764 bound_to 10752
  154.6926  135.3064  154.9422 H   0  0  0  0  0  0  0  0  0  0  0  0  # atno 10765 bound_to 10752
  140.1728  134.4200  155.8246 H   0  0  0  0  0  0  0  0  0  0  0  0  # atno 11005 bound_to 11000
  144.6791  140.0037  143.7484 LP  0  0  0  0  0  0  0  0  0  0  0  0  # atno 17320 bound_to 7965
  146.0039  139.3114  143.0911 LP  0  0  0  0  0  0  0  0  0  0  0  0  # atno 17321 bound_to 7965
  139.8821  143.7058  152.3155 LP  0  0  0  0  0  0  0  0  0  0  0  0  # atno 17342 bound_to 10162
  139.7344  144.7574  151.0750 LP  0  0  0  0  0  0  0  0  0  0  0  0  # atno 17343 bound_to 10162
  156.6233  130.4412  149.5814 LP  0  0  0  0  0  0  0  0  0  0  0  0  # atno 17370 bound_to 10713
  156.2338  130.6810  151.1490 LP  0  0  0  0  0  0  0  0  0  0  0  0  # atno 17371 bound_to 10713
  141.2218  133.6964  156.7794 LP  0  0  0  0  0  0  0  0  0  0  0  0  # atno 17394 bound_to 11000
  140.2357  134.8652  157.3522 LP  0  0  0  0  0  0  0  0  0  0  0  0  # atno 17395 bound_to 11000

$$$$
