AV-unprocessed.smi:1534|AV-procd|sdf|6169|dock1
  -GOLD-   22720 6313D 1   1.00000     0.00000
 Structure written by MMmdl.
 37 38  0  0  0  0  0  0  0  0  2 V2000
  142.2942  136.4254  154.1014 O   0  0  0  0  0  0  0  0  0  0  0  0
  142.5415  137.5087  153.5764 C   0  0  0  0  0  0  0  0  0  0  0  0
  143.7382  137.8193  153.0514 N   0  0  0  0  0  0  0  0  0  0  0  0
  144.9280  136.9770  153.1141 C   0  0  0  0  0  0  0  0  0  0  0  0
  145.5101  136.6632  151.7207 C   0  0  0  0  0  0  0  0  0  0  0  0
  145.5416  135.1794  151.3926 C   0  0  0  0  0  0  0  0  0  0  0  0
  144.4187  134.5043  150.8667 C   0  0  0  0  0  0  0  0  0  0  0  0
  144.5211  133.1312  150.5604 C   0  0  0  0  0  0  0  0  0  0  0  0
  145.7430  132.4629  150.7831 C   0  0  0  0  0  0  0  0  0  0  0  0
  146.8329  133.1850  151.3106 C   0  0  0  0  0  0  0  0  0  0  0  0
  146.6942  134.4986  151.5935 N   0  3  0  0  0  0  0  0  0  0  0  0
  141.6204  138.4844  153.4885 N   0  0  0  0  0  0  0  0  0  0  0  0
  140.2355  138.4568  153.9615 C   0  0  1  0  0  0  0  0  0  0  0  0
  139.4296  137.2929  153.3488 C   0  0  0  0  0  0  0  0  0  0  0  0
  138.1432  137.0924  154.1631 C   0  0  0  0  0  0  0  0  0  0  0  0
  138.4955  137.7120  155.8536 S   0  0  0  0  0  0  0  0  0  0  0  0
  137.6307  138.8716  156.1198 O   0  0  0  0  0  0  0  0  0  0  0  0
  138.5663  136.5853  156.7961 O   0  0  0  0  0  0  0  0  0  0  0  0
  140.1881  138.3013  155.4853 C   0  0  0  0  0  0  0  0  0  0  0  0
  143.8444  138.7240  152.6161 H   0  0  0  0  0  0  0  0  0  0  0  0
  145.6868  137.4361  153.7499 H   0  0  0  0  0  0  0  0  0  0  0  0
  144.6404  136.0459  153.6031 H   0  0  0  0  0  0  0  0  0  0  0  0
  144.9272  137.1781  150.9553 H   0  0  0  0  0  0  0  0  0  0  0  0
  146.5212  137.0655  151.6476 H   0  0  0  0  0  0  0  0  0  0  0  0
  143.4910  135.0312  150.6959 H   0  0  0  0  0  0  0  0  0  0  0  0
  143.6731  132.5974  150.1567 H   0  0  0  0  0  0  0  0  0  0  0  0
  145.8424  131.4122  150.5527 H   0  0  0  0  0  0  0  0  0  0  0  0
  147.8034  132.7556  151.5123 H   0  0  0  0  0  0  0  0  0  0  0  0
  141.8918  139.3111  152.9754 H   0  0  0  0  0  0  0  0  0  0  0  0
  139.7349  139.3960  153.7177 H   0  0  0  0  0  0  0  0  0  0  0  0
  139.2089  137.4589  152.2940 H   0  0  0  0  0  0  0  0  0  0  0  0
  140.0230  136.3791  153.4068 H   0  0  0  0  0  0  0  0  0  0  0  0
  137.3241  137.6833  153.7526 H   0  0  0  0  0  0  0  0  0  0  0  0
  137.8308  136.0487  154.2040 H   0  0  0  0  0  0  0  0  0  0  0  0
  140.8875  137.5376  155.8276 H   0  0  0  0  0  0  0  0  0  0  0  0
  140.3900  139.2280  156.0226 H   0  0  0  0  0  0  0  0  0  0  0  0
  147.4961  135.0029  151.9729 H   0  0  0  0  0  0  0  0  0  0  0  0
  1  2  2  0  0  0  0
  2  3  1  0  0  0  0
  2 12  1  0  0  0  0
  3  4  1  0  0  0  0
  3 20  1  0  0  0  0
  4  5  1  0  0  0  0
  4 21  1  0  0  0  0
  4 22  1  0  0  0  0
  5  6  1  0  0  0  0
  5 23  1  0  0  0  0
  5 24  1  0  0  0  0
  6 11  1  0  0  0  0
  6  7  2  0  0  0  0
  7  8  1  0  0  0  0
  7 25  1  0  0  0  0
  8  9  2  0  0  0  0
  8 26  1  0  0  0  0
  9 10  1  0  0  0  0
  9 27  1  0  0  0  0
 10 11  2  0  0  0  0
 10 28  1  0  0  0  0
 11 37  1  0  0  0  0
 12 13  1  0  0  0  0
 12 29  1  0  0  0  0
 13 19  1  0  0  0  0
 13 14  1  0  0  0  0
 13 30  1  0  0  0  0
 14 15  1  0  0  0  0
 14 31  1  0  0  0  0
 14 32  1  0  0  0  0
 15 16  1  0  0  0  0
 15 33  1  0  0  0  0
 15 34  1  0  0  0  0
 16 17  2  0  0  0  0
 16 18  2  0  0  0  0
 16 19  1  0  0  0  0
 19 35  1  0  0  0  0
 19 36  1  0  0  0  0
M  CHG  1  11   1
M  END
> <s_m_source_file>
AV-unprocessed.smi

> <i_m_source_file_index>
1534

> <i_lp_mmshare_version>
43012

> <i_f3d_flags>
0

> <s_epik_input>
Tz1TMSg9TylbQ0gyXVtDSDJdW0NASF0oW0NIMl0xKVtOSF1DKD1PKVtOSF1bQ0gyXVtDSDJdYzJbY0hdW2NIXVtjSF1bY0hdbjI=

> <s_epik_cmdline>
J2VwaWtfcHl0aG9uJywgJy1waCcsICc3LjAnLCAnLXRuJywgJzgnLCAnLW1hJywgJzIwMCcsICctbWV0YWxfYmluZGluZycsICctaW1hZScsICc8aW5maWxlLm1hZT4nLCAnLW9tYWUnLCAnPG91dGZpbGUubWFlPic=

> <r_epik_Ionization_Penalty>
1.58466

> <r_epik_Ionization_Penalty_Charging>
1.58462

> <r_epik_Ionization_Penalty_Neutral>
3.4911e-05

> <r_epik_State_Penalty>
1.6815

> <r_epik_Charging_Adjusted_Penalty>
3.26612

> <i_epik_Tot_Q>
1

> <i_epik_Tot_abs_Q>
1

> <r_epik_Metal_State_Penalty>
1.72144

> <b_epik_Metal_Only>
0

> <s_lp_Force_Field>
OPLS_2005

> <r_lp_Energy>
19.4727

> <b_lp_Chiralities_Consistent>
1

> <s_lp_Variant>
AV-unprocessed.smi:1534-4

> <Gold.Version>
5.8.1

> <Gold.Id.Protein>
6NUR|6NUR_protein|mol2

> <Gold.PLP.Fitness>
45.7937

> <Gold.PLP.PLP>
-32.2876

> <Gold.PLP.part.hbond>
-4.0000

> <Gold.PLP.part.metal>
0.0000

> <Gold.PLP.part.buried>
-4.7026

> <Gold.PLP.part.nonpolar>
-23.7923

> <Gold.PLP.part.repulsive>
0.2254

> <Gold.PLP.ligand.clash>
0.0000

> <Gold.PLP.ligand.torsion>
0.7239

> <Gold.PLP.Chemscore.Hbond>
4.9760

> <Gold.PLP.Chemscore.CHOScore>
0.0000

> <Gold.PLP.Chemscore.Metal>
0.0000

> <Gold.Chemscore.Hbonds>
donor molecule, donor type, donor heavy atom, donor atom, acceptor molecule, acceptor atom, score
      L1  H     3    20       P1 10175  1.00
      L1  H    11    37       P1  7948  2.00
      L1  H    12    29       P1 10175  0.70
      P1  H 11000 11005       L1    18  0.96

> <Gold.PLP.Chemscore.Internal.Correction>
0.0260

> <Gold.Rescore>
     Score         DG    S(hbond)    S(metal)    S(lipo)     H(rot)  DE(clash)    DE(int)     intcor
     20.25     -20.88       3.58        0.00      69.45       1.82       0.05       0.59       ----

> <Gold.Chemscore.Fitness>
20.2477

> <Gold.Chemscore.DG>
-20.8835

> <Gold.Chemscore.ZeroCoef>
-5.4800

> <Gold.Chemscore.Hbond>
3.5753

> <Gold.Chemscore.Metal>
0.0000

> <Gold.Chemscore.Lipo>
69.4537

> <Gold.Chemscore.Internal_Hbond>
0.0000

> <Gold.Chemscore.DEClash>
0.0491

> <Gold.Chemscore.DEInternal>
0.5866

> <Gold.Chemscore.Rot>
1.8220

> <Gold.Chemscore.Internal.Correction>
   9.000000E+99

> <Gold.Chemscore.Hbonds>
donor molecule, donor type, donor heavy atom, donor atom, acceptor molecule, acceptor atom, score
      L1  H     3    20       P1 10175  0.99
      L1  H    11    37       P1  7948  0.87
      L1  H    12    29       P1 10175  0.55
      P1  H 11000 11005       L1    18  0.91

> <Gold.Chemscore.Hbond.Weighted>
-11.9416

> <Gold.Chemscore.Metal.Weighted>
-0.0000

> <Gold.Chemscore.Lipo.Weighted>
-8.1261

> <Gold.Chemscore.Internal_Hbond.Weighted>
0.0000

> <Gold.Chemscore.DEClash.Weighted>
0.0491

> <Gold.Chemscore.DEInternal.Weighted>
0.5866

> <Gold.Chemscore.Rot.Weighted>
4.6642

> <Gold.Chemscore.Internal.Correction.Weighted>
   9.000000E+99

> <Gold.Protein.RotatedTorsions>
[ 6907 6896 6895 6894 ] final -171.00 input  -60.11 | X-H torsion
[ 7974 7965 7964 7962 ] final   13.52 input  175.53 | X-H torsion
[ 8008 7997 7996 7995 ] final -121.90 input   59.86 | X-H torsion
[ 10167 10162 10161 10158 ] final  158.94 input  -65.29 | X-H torsion
[ 10718 10713 10712 10709 ] final  -20.41 input   66.30 | X-H torsion
[ 10763 10752 10751 10750 ] final -140.28 input  -60.55 | X-H torsion
[ 11005 11000 10999 10996 ] final  107.54 input  -57.11 | X-H torsion

> <Gold.Protein.ActiveResidues>
 VAL166  LYS551  ARG553  GLY616  TRP617  ASP618  TYR619  PRO620  LYS621  CYS622 
 ASP623  PHE694  ASN695  SER759  ASP760  ASP761  ALA762  ILE779  LEU786  VAL792 
 PHE793  MET794  SER795  GLU796  ALA797  LYS798  CYS799  TRP800  GLU811  SER814 

> <Gold.Protein.RotatedAtoms>
  151.5168  133.3474  159.2894 H   0  0  0  0  0  0  0  0  0  0  0  0  # atno 6907 bound_to 6896
  150.8677  134.8047  159.7142 H   0  0  0  0  0  0  0  0  0  0  0  0  # atno 6908 bound_to 6896
  152.4676  134.5047  159.9787 H   0  0  0  0  0  0  0  0  0  0  0  0  # atno 6909 bound_to 6896
  146.2327  139.9176  142.8515 H   0  0  0  0  0  0  0  0  0  0  0  0  # atno 7974 bound_to 7965
  155.1554  140.0404  157.2830 H   0  0  0  0  0  0  0  0  0  0  0  0  # atno 8008 bound_to 7997
  154.6374  140.2538  155.7335 H   0  0  0  0  0  0  0  0  0  0  0  0  # atno 8009 bound_to 7997
  156.2515  140.2863  156.0752 H   0  0  0  0  0  0  0  0  0  0  0  0  # atno 8010 bound_to 7997
  139.4829  144.4777  151.8487 H   0  0  0  0  0  0  0  0  0  0  0  0  # atno 10167 bound_to 10162
  156.5323  130.4658  149.6541 H   0  0  0  0  0  0  0  0  0  0  0  0  # atno 10718 bound_to 10713
  154.8583  135.3558  154.5682 H   0  0  0  0  0  0  0  0  0  0  0  0  # atno 10763 bound_to 10752
  153.6296  135.7003  153.5285 H   0  0  0  0  0  0  0  0  0  0  0  0  # atno 10764 bound_to 10752
  153.3061  135.4192  155.1254 H   0  0  0  0  0  0  0  0  0  0  0  0  # atno 10765 bound_to 10752
  139.8830  134.9404  156.5835 H   0  0  0  0  0  0  0  0  0  0  0  0  # atno 11005 bound_to 11000
  145.2168  140.9918  143.4069 LP  0  0  0  0  0  0  0  0  0  0  0  0  # atno 17320 bound_to 7965
  144.9644  139.3945  143.6340 LP  0  0  0  0  0  0  0  0  0  0  0  0  # atno 17321 bound_to 7965
  140.4251  144.2191  150.5887 LP  0  0  0  0  0  0  0  0  0  0  0  0  # atno 17342 bound_to 10162
  140.4835  143.2371  151.8921 LP  0  0  0  0  0  0  0  0  0  0  0  0  # atno 17343 bound_to 10162
  156.3048  130.7197  151.2077 LP  0  0  0  0  0  0  0  0  0  0  0  0  # atno 17370 bound_to 10713
  157.7419  131.0497  150.5059 LP  0  0  0  0  0  0  0  0  0  0  0  0  # atno 17371 bound_to 10713
  140.8009  133.8506  155.8726 LP  0  0  0  0  0  0  0  0  0  0  0  0  # atno 17394 bound_to 11000
  140.9593  134.1676  157.4666 LP  0  0  0  0  0  0  0  0  0  0  0  0  # atno 17395 bound_to 11000

$$$$
