AV-unprocessed.smi:1199|AV-procd|sdf|5017|dock2
  -GOLD-   22720 4 33D 1   1.00000     0.00000
 Structure written by MMmdl.
 41 42  0  0  0  0  0  0  0  0  3 V2000
  148.4309  135.7128  156.6654 C   0  0  0  0  0  0  0  0  0  0  0  0
  148.4790  135.3569  155.1720 C   0  0  1  0  0  0  0  0  0  0  0  0
  147.1075  135.5410  154.4850 C   0  0  0  0  0  0  0  0  0  0  0  0
  146.9479  134.7462  153.2371 N   0  3  0  0  0  0  0  0  0  0  0  0
  146.9421  133.2786  153.4535 C   0  0  0  0  0  0  0  0  0  0  0  0
  146.8184  132.5420  152.1091 C   0  0  0  0  0  0  0  0  0  0  0  0
  145.6362  132.9656  151.4416 O   0  0  0  0  0  0  0  0  0  0  0  0
  145.6625  134.3569  151.1482 C   0  0  0  0  0  0  0  0  0  0  0  0
  145.7594  135.1611  152.4549 C   0  0  0  0  0  0  0  0  0  0  0  0
  149.4885  136.1574  154.4885 N   0  0  0  0  0  0  0  0  0  0  0  0
  150.7492  136.3678  154.8991 C   0  0  0  0  0  0  0  0  0  0  0  0
  151.1671  135.9974  155.9955 O   0  0  0  0  0  0  0  0  0  0  0  0
  151.7072  137.0659  153.9191 C   0  0  0  0  0  0  0  0  0  0  0  0
  151.6528  138.5373  153.9623 N   0  0  0  0  0  0  0  0  0  0  0  0
  150.9291  139.1306  152.8399 N   0  5  0  0  0  0  0  0  0  0  0  0
  150.8484  140.4838  152.7454 C   0  0  0  0  0  0  0  0  0  0  0  0
  150.2939  141.0526  151.8083 O   0  0  0  0  0  0  0  0  0  0  0  0
  151.4331  141.2798  153.8114 C   0  0  0  0  0  0  0  0  0  0  0  0
  152.0522  140.7037  154.8607 C   0  0  0  0  0  0  0  0  0  0  0  0
  152.1859  139.2577  154.9899 C   0  0  0  0  0  0  0  0  0  0  0  0
  152.7332  138.7245  155.9545 O   0  0  0  0  0  0  0  0  0  0  0  0
  147.6856  135.1120  157.1870 H   0  0  0  0  0  0  0  0  0  0  0  0
  148.1777  136.7627  156.8167 H   0  0  0  0  0  0  0  0  0  0  0  0
  149.3933  135.5306  157.1449 H   0  0  0  0  0  0  0  0  0  0  0  0
  148.7536  134.3039  155.0906 H   0  0  0  0  0  0  0  0  0  0  0  0
  146.2995  135.3090  155.1804 H   0  0  0  0  0  0  0  0  0  0  0  0
  146.9951  136.5948  154.2250 H   0  0  0  0  0  0  0  0  0  0  0  0
  147.8609  132.9633  153.9473 H   0  0  0  0  0  0  0  0  0  0  0  0
  146.1139  133.0061  154.1091 H   0  0  0  0  0  0  0  0  0  0  0  0
  147.6924  132.7220  151.4813 H   0  0  0  0  0  0  0  0  0  0  0  0
  146.7634  131.4660  152.2746 H   0  0  0  0  0  0  0  0  0  0  0  0
  146.4967  134.5886  150.4868 H   0  0  0  0  0  0  0  0  0  0  0  0
  144.7510  134.6213  150.6120 H   0  0  0  0  0  0  0  0  0  0  0  0
  144.8587  135.0112  153.0523 H   0  0  0  0  0  0  0  0  0  0  0  0
  145.8197  136.2253  152.2247 H   0  0  0  0  0  0  0  0  0  0  0  0
  149.2415  136.5190  153.5784 H   0  0  0  0  0  0  0  0  0  0  0  0
  152.7203  136.7082  154.1090 H   0  0  0  0  0  0  0  0  0  0  0  0
  151.4674  136.7256  152.9102 H   0  0  0  0  0  0  0  0  0  0  0  0
  151.3667  142.3567  153.7628 H   0  0  0  0  0  0  0  0  0  0  0  0
  152.4693  141.3339  155.6320 H   0  0  0  0  0  0  0  0  0  0  0  0
  147.7543  134.9470  152.6611 H   0  0  0  0  0  0  0  0  0  0  0  0
  1  2  1  0  0  0  0
  1 22  1  0  0  0  0
  1 23  1  0  0  0  0
  1 24  1  0  0  0  0
  2  3  1  0  0  0  0
  2 10  1  0  0  0  0
  2 25  1  0  0  0  0
  3  4  1  0  0  0  0
  3 26  1  0  0  0  0
  3 27  1  0  0  0  0
  4  9  1  0  0  0  0
  4  5  1  0  0  0  0
  4 41  1  0  0  0  0
  5  6  1  0  0  0  0
  5 28  1  0  0  0  0
  5 29  1  0  0  0  0
  6  7  1  0  0  0  0
  6 30  1  0  0  0  0
  6 31  1  0  0  0  0
  7  8  1  0  0  0  0
  8  9  1  0  0  0  0
  8 32  1  0  0  0  0
  8 33  1  0  0  0  0
  9 34  1  0  0  0  0
  9 35  1  0  0  0  0
 10 11  1  0  0  0  0
 10 36  1  0  0  0  0
 11 12  2  0  0  0  0
 11 13  1  0  0  0  0
 13 37  1  0  0  0  0
 13 38  1  0  0  0  0
 13 14  1  0  0  0  0
 14 15  1  0  0  0  0
 14 20  1  0  0  0  0
 15 16  1  0  0  0  0
 16 17  2  0  0  0  0
 16 18  1  0  0  0  0
 18 39  1  0  0  0  0
 18 19  2  0  0  0  0
 19 40  1  0  0  0  0
 19 20  1  0  0  0  0
 20 21  2  0  0  0  0
M  CHG  1   4   1
M  CHG  1  15  -1
M  END
> <s_m_source_file>
AV-unprocessed.smi

> <i_m_source_file_index>
1199

> <i_lp_mmshare_version>
43012

> <i_f3d_flags>
0

> <s_epik_input>
W0NIMl0xW0NIMl1PW0NIMl1bQ0gyXU4xW0NIMl1bQ0BASF0oW0NIM10pW05IXUMoPU8pW0NIMl1uMltuSF1jKD1PKVtjSF1bY0hdYzI9Tw==

> <s_epik_cmdline>
J2VwaWtfcHl0aG9uJywgJy1waCcsICc3LjAnLCAnLXRuJywgJzgnLCAnLW1hJywgJzIwMCcsICctbWV0YWxfYmluZGluZycsICctaW1hZScsICc8aW5maWxlLm1hZT4nLCAnLW9tYWUnLCAnPG91dGZpbGUubWFlPic=

> <r_lp_tautomer_probability>
1

> <r_epik_Ionization_Penalty>
0.741876

> <r_epik_Ionization_Penalty_Charging>
0.741876

> <r_epik_Ionization_Penalty_Neutral>
9.12373e-08

> <r_epik_State_Penalty>
0.692284

> <r_epik_Charging_Adjusted_Penalty>
1.43416

> <i_epik_Tot_Q>
0

> <i_epik_Tot_abs_Q>
2

> <r_epik_Metal_State_Penalty>
0.692284

> <b_epik_Metal_Only>
0

> <s_lp_Force_Field>
OPLS_2005

> <r_lp_Energy>
27.3091

> <b_lp_Chiralities_Consistent>
1

> <s_lp_Variant>
AV-unprocessed.smi:1199-4

> <Gold.Version>
5.8.1

> <Gold.Id.Protein>
6NUR|6NUR_protein|mol2

> <Gold.PLP.Fitness>
46.1949

> <Gold.PLP.PLP>
-33.8306

> <Gold.PLP.part.hbond>
-6.0000

> <Gold.PLP.part.metal>
0.0000

> <Gold.PLP.part.buried>
-1.2298

> <Gold.PLP.part.nonpolar>
-26.6422

> <Gold.PLP.part.repulsive>
1.5109

> <Gold.PLP.ligand.clash>
0.0000

> <Gold.PLP.ligand.torsion>
0.8848

> <Gold.PLP.Chemscore.Hbond>
4.6770

> <Gold.PLP.Chemscore.CHOScore>
0.0000

> <Gold.PLP.Chemscore.Metal>
0.0000

> <Gold.Chemscore.Hbonds>
donor molecule, donor type, donor heavy atom, donor atom, acceptor molecule, acceptor atom, score
      L1  H     4    41       P1  7948  2.00
      L1  H    10    36       P1  7948  0.98
      P1  H  7997  8008       L1    21  0.57
      P1  H  8011  8017       L1    17  0.64

> <Gold.PLP.Chemscore.Internal.Correction>
0.1028

> <Gold.Rescore>
     Score         DG    S(hbond)    S(metal)    S(lipo)     H(rot)  DE(clash)    DE(int)     intcor
     12.60     -17.21       3.30        0.00      57.87       2.37       1.90       2.71       ----

> <Gold.Chemscore.Fitness>
12.5976

> <Gold.Chemscore.DG>
-17.2055

> <Gold.Chemscore.ZeroCoef>
-5.4800

> <Gold.Chemscore.Hbond>
3.3035

> <Gold.Chemscore.Metal>
0.0000

> <Gold.Chemscore.Lipo>
57.8715

> <Gold.Chemscore.Internal_Hbond>
0.0000

> <Gold.Chemscore.DEClash>
1.9021

> <Gold.Chemscore.DEInternal>
2.7058

> <Gold.Chemscore.Rot>
2.3747

> <Gold.Chemscore.Internal.Correction>
   9.000000E+99

> <Gold.Chemscore.Hbonds>
donor molecule, donor type, donor heavy atom, donor atom, acceptor molecule, acceptor atom, score
      L1  H     4    41       P1  7948  0.92
      L1  H    10    36       P1  7948  0.89
      P1  H  7997  8008       L1    21  0.10
      P1  H  8011  8017       L1    17  0.44

> <Gold.Chemscore.Hbond.Weighted>
-11.0337

> <Gold.Chemscore.Metal.Weighted>
-0.0000

> <Gold.Chemscore.Lipo.Weighted>
-6.7710

> <Gold.Chemscore.Internal_Hbond.Weighted>
0.0000

> <Gold.Chemscore.DEClash.Weighted>
1.9021

> <Gold.Chemscore.DEInternal.Weighted>
2.7058

> <Gold.Chemscore.Rot.Weighted>
6.0791

> <Gold.Chemscore.Internal.Correction.Weighted>
   9.000000E+99

> <Gold.Protein.RotatedTorsions>
[ 6907 6896 6895 6894 ] final -162.74 input  -60.11 | X-H torsion
[ 7974 7965 7964 7962 ] final -127.50 input  175.53 | X-H torsion
[ 8008 7997 7996 7995 ] final  -31.86 input   59.86 | X-H torsion
[ 10167 10162 10161 10158 ] final -120.39 input  -65.29 | X-H torsion
[ 10718 10713 10712 10709 ] final  -28.62 input   66.30 | X-H torsion
[ 10763 10752 10751 10750 ] final   66.18 input  -60.55 | X-H torsion
[ 11005 11000 10999 10996 ] final  146.27 input  -57.11 | X-H torsion

> <Gold.Protein.ActiveResidues>
 VAL166  LYS551  ARG553  GLY616  TRP617  ASP618  TYR619  PRO620  LYS621  CYS622 
 ASP623  PHE694  ASN695  SER759  ASP760  ASP761  ALA762  ILE779  LEU786  VAL792 
 PHE793  MET794  SER795  GLU796  ALA797  LYS798  CYS799  TRP800  GLU811  SER814 

> <Gold.Protein.RotatedAtoms>
  151.3850  133.3808  159.2714 H   0  0  0  0  0  0  0  0  0  0  0  0  # atno 6907 bound_to 6896
  150.9548  134.8945  159.7705 H   0  0  0  0  0  0  0  0  0  0  0  0  # atno 6908 bound_to 6896
  152.5126  134.3807  159.9402 H   0  0  0  0  0  0  0  0  0  0  0  0  # atno 6909 bound_to 6896
  144.9764  140.7597  143.4639 H   0  0  0  0  0  0  0  0  0  0  0  0  # atno 7974 bound_to 7965
  154.4199  140.1753  156.1634 H   0  0  0  0  0  0  0  0  0  0  0  0  # atno 8008 bound_to 7997
  155.9819  140.3376  155.6647 H   0  0  0  0  0  0  0  0  0  0  0  0  # atno 8009 bound_to 7997
  155.6488  140.0688  157.2584 H   0  0  0  0  0  0  0  0  0  0  0  0  # atno 8010 bound_to 7997
  140.0364  143.5197  152.2151 H   0  0  0  0  0  0  0  0  0  0  0  0  # atno 10167 bound_to 10162
  156.4229  130.4430  149.7171 H   0  0  0  0  0  0  0  0  0  0  0  0  # atno 10718 bound_to 10713
  153.0128  135.5330  154.6783 H   0  0  0  0  0  0  0  0  0  0  0  0  # atno 10763 bound_to 10752
  154.5949  135.2862  155.0598 H   0  0  0  0  0  0  0  0  0  0  0  0  # atno 10764 bound_to 10752
  154.1677  135.6537  153.5054 H   0  0  0  0  0  0  0  0  0  0  0  0  # atno 10765 bound_to 10752
  140.0779  134.9114  157.1453 H   0  0  0  0  0  0  0  0  0  0  0  0  # atno 11005 bound_to 11000
  145.2484  139.2042  143.4955 LP  0  0  0  0  0  0  0  0  0  0  0  0  # atno 17320 bound_to 7965
  146.3396  140.2392  142.8595 LP  0  0  0  0  0  0  0  0  0  0  0  0  # atno 17321 bound_to 7965
  139.6042  144.7591  151.3100 LP  0  0  0  0  0  0  0  0  0  0  0  0  # atno 17342 bound_to 10162
  140.7279  143.6949  150.7892 LP  0  0  0  0  0  0  0  0  0  0  0  0  # atno 17343 bound_to 10162
  156.4104  130.7719  151.2732 LP  0  0  0  0  0  0  0  0  0  0  0  0  # atno 17370 bound_to 10713
  157.7508  131.0213  150.3744 LP  0  0  0  0  0  0  0  0  0  0  0  0  # atno 17371 bound_to 10713
  140.3530  134.2577  155.7196 LP  0  0  0  0  0  0  0  0  0  0  0  0  # atno 17394 bound_to 11000
  141.2036  133.7907  157.0330 LP  0  0  0  0  0  0  0  0  0  0  0  0  # atno 17395 bound_to 11000

$$$$
