AV-unprocessed.smi:193|AV-procd|sdf|1501|dock6
  -GOLD-   2262019333D 1   1.00000     0.00000
 Structure written by MMmdl.
 62 66  0  0  0  0  0  0  0  0  2 V2000
  152.5238  139.8421  155.4795 C   0  0  0  0  0  0  0  0  0  0  0  0
  151.2730  140.3863  156.1865 C   0  0  1  0  0  0  0  0  0  0  0  0
  150.1175  139.3727  156.0219 C   0  0  0  0  0  0  0  0  0  0  0  0
  148.8099  139.8913  156.4215 N   0  0  0  0  0  0  0  0  0  0  0  0
  148.0116  140.4466  155.4706 C   0  0  0  0  0  0  0  0  0  0  0  0
  148.1072  140.0192  154.1832 N   0  0  0  0  0  0  0  0  0  0  0  0
  147.3492  140.5674  153.2293 C   0  0  0  0  0  0  0  0  0  0  0  0
  146.4443  141.5407  153.3408 N   0  0  0  0  0  0  0  0  0  0  0  0
  146.3357  141.9702  154.6301 C   0  0  0  0  0  0  0  0  0  0  0  0
  147.0712  141.4804  155.7469 C   0  0  0  0  0  0  0  0  0  0  0  0
  146.6727  142.1462  156.9006 N   0  0  0  0  0  0  0  0  0  0  0  0
  145.7631  142.9861  156.4885 C   0  0  0  0  0  0  0  0  0  0  0  0
  145.5080  142.9572  155.1363 N   0  0  0  0  0  0  0  0  0  0  0  0
  144.5560  143.7845  154.4110 C   0  0  0  0  0  0  0  0  0  0  0  0
  143.1578  143.8637  155.0740 C   0  0  0  0  0  0  0  0  0  0  0  0
  142.2400  144.3261  154.0984 O   0  0  0  0  0  0  0  0  0  0  0  0
  142.7066  142.4652  155.5415 C   0  0  0  0  0  0  0  0  0  0  0  0
  141.4051  142.5180  156.3611 C   0  0  0  0  0  0  0  0  0  0  0  0
  141.5606  143.4045  157.4623 O   0  0  0  0  0  0  0  0  0  0  0  0
  141.8014  144.7463  157.0571 C   0  0  0  0  0  0  0  0  0  0  0  0
  143.1234  144.8360  156.2741 C   0  0  0  0  0  0  0  0  0  0  0  0
  148.6618  140.4093  157.7797 C   0  0  0  0  0  0  0  0  0  0  0  0
  149.3312  141.7869  157.9392 C   0  0  0  0  0  0  0  0  0  0  0  0
  150.7695  141.7323  158.3121 N   0  3  2  0  0  0  0  0  0  0  0  0
  151.4165  143.0603  158.1847 C   0  0  1  0  0  0  0  0  0  0  0  0
  151.1028  144.0092  159.3195 C   0  0  0  0  0  0  0  0  0  0  0  0
  152.4722  143.3714  159.2310 C   0  0  1  0  0  0  0  0  0  0  0  0
  152.9230  142.3792  160.2877 C   0  0  0  0  0  0  0  0  0  0  0  0
  151.5805  140.6548  157.6791 C   0  0  0  0  0  0  0  0  0  0  0  0
  152.8540  138.9017  155.9223 H   0  0  0  0  0  0  0  0  0  0  0  0
  153.3520  140.5489  155.5410 H   0  0  0  0  0  0  0  0  0  0  0  0
  152.3300  139.6616  154.4217 H   0  0  0  0  0  0  0  0  0  0  0  0
  151.0202  141.3236  155.6897 H   0  0  0  0  0  0  0  0  0  0  0  0
  150.0670  139.0269  154.9881 H   0  0  0  0  0  0  0  0  0  0  0  0
  150.3232  138.4784  156.6110 H   0  0  0  0  0  0  0  0  0  0  0  0
  147.4898  140.1715  152.2343 H   0  0  0  0  0  0  0  0  0  0  0  0
  145.2555  143.6610  157.1625 H   0  0  0  0  0  0  0  0  0  0  0  0
  144.9818  144.7830  154.3026 H   0  0  0  0  0  0  0  0  0  0  0  0
  144.4672  143.3838  153.4005 H   0  0  0  0  0  0  0  0  0  0  0  0
  142.2629  143.7370  153.3599 H   0  0  0  0  0  0  0  0  0  0  0  0
  142.5840  141.7971  154.6879 H   0  0  0  0  0  0  0  0  0  0  0  0
  143.4865  142.0236  156.1635 H   0  0  0  0  0  0  0  0  0  0  0  0
  140.5617  142.8302  155.7431 H   0  0  0  0  0  0  0  0  0  0  0  0
  141.1647  141.5255  156.7424 H   0  0  0  0  0  0  0  0  0  0  0  0
  140.9656  145.1134  156.4598 H   0  0  0  0  0  0  0  0  0  0  0  0
  141.8527  145.3763  157.9454 H   0  0  0  0  0  0  0  0  0  0  0  0
  143.9444  144.5984  156.9518 H   0  0  0  0  0  0  0  0  0  0  0  0
  143.2823  145.8645  155.9479 H   0  0  0  0  0  0  0  0  0  0  0  0
  147.6056  140.5038  158.0253 H   0  0  0  0  0  0  0  0  0  0  0  0
  149.0609  139.6939  158.4993 H   0  0  0  0  0  0  0  0  0  0  0  0
  149.1947  142.3876  157.0384 H   0  0  0  0  0  0  0  0  0  0  0  0
  148.8169  142.3279  158.7337 H   0  0  0  0  0  0  0  0  0  0  0  0
  151.5144  143.4438  157.1704 H   0  0  0  0  0  0  0  0  0  0  0  0
  151.0330  145.0688  159.0830 H   0  0  0  0  0  0  0  0  0  0  0  0
  150.4392  143.6684  160.1123 H   0  0  0  0  0  0  0  0  0  0  0  0
  153.2755  144.0237  158.8936 H   0  0  0  0  0  0  0  0  0  0  0  0
  152.0842  141.8022  160.6774 H   0  0  0  0  0  0  0  0  0  0  0  0
  153.3857  142.9100  161.1200 H   0  0  0  0  0  0  0  0  0  0  0  0
  153.6576  141.6914  159.8688 H   0  0  0  0  0  0  0  0  0  0  0  0
  151.4470  139.7380  158.2540 H   0  0  0  0  0  0  0  0  0  0  0  0
  152.6346  140.9076  157.8032 H   0  0  0  0  0  0  0  0  0  0  0  0
  150.7867  141.5209  159.2995 H   0  0  0  0  0  0  0  0  0  0  0  0
  1  2  1  0  0  0  0
  1 30  1  0  0  0  0
  1 31  1  0  0  0  0
  1 32  1  0  0  0  0
  2 29  1  0  0  0  0
  2  3  1  0  0  0  0
  2 33  1  0  0  0  0
  3  4  1  0  0  0  0
  3 34  1  0  0  0  0
  3 35  1  0  0  0  0
  4  5  1  0  0  0  0
  4 22  1  0  0  0  0
  5 10  1  0  0  0  0
  5  6  2  0  0  0  0
  6  7  1  0  0  0  0
  7  8  2  0  0  0  0
  7 36  1  0  0  0  0
  8  9  1  0  0  0  0
  9 13  1  0  0  0  0
  9 10  2  0  0  0  0
 10 11  1  0  0  0  0
 11 12  2  0  0  0  0
 12 13  1  0  0  0  0
 12 37  1  0  0  0  0
 13 14  1  0  0  0  0
 14 15  1  0  0  0  0
 14 38  1  0  0  0  0
 14 39  1  0  0  0  0
 15 21  1  0  0  0  0
 15 16  1  0  0  0  0
 15 17  1  0  0  0  0
 16 40  1  0  0  0  0
 17 18  1  0  0  0  0
 17 41  1  0  0  0  0
 17 42  1  0  0  0  0
 18 19  1  0  0  0  0
 18 43  1  0  0  0  0
 18 44  1  0  0  0  0
 19 20  1  0  0  0  0
 20 21  1  0  0  0  0
 20 45  1  0  0  0  0
 20 46  1  0  0  0  0
 21 47  1  0  0  0  0
 21 48  1  0  0  0  0
 22 23  1  0  0  0  0
 22 49  1  0  0  0  0
 22 50  1  0  0  0  0
 23 24  1  0  0  0  0
 23 51  1  0  0  0  0
 23 52  1  0  0  0  0
 24 25  1  0  0  0  0
 24 29  1  0  0  0  0
 24 62  1  0  0  0  0
 25 27  1  0  0  0  0
 25 26  1  0  0  0  0
 25 53  1  0  0  0  0
 26 27  1  0  0  0  0
 26 54  1  0  0  0  0
 26 55  1  0  0  0  0
 27 28  1  0  0  0  0
 27 56  1  0  0  0  0
 28 57  1  0  0  0  0
 28 58  1  0  0  0  0
 28 59  1  0  0  0  0
 29 60  1  0  0  0  0
 29 61  1  0  0  0  0
M  CHG  1  24   1
M  END
> <s_m_source_file>
AV-unprocessed.smi

> <i_m_source_file_index>
193

> <i_lp_mmshare_version>
43012

> <i_f3d_flags>
0

> <s_epik_input>
W0NIM11bQ0BASF0xW0NIMl1bQ0BIXTFOKFtDSDJdMilbQ0gyXVtDSDJdTihbQ0gyXVtDQEhdMltDSDNdKWMobltjSF1uMyljKGMzNCluW2NIXW40W0NIMl1DNShbT0hdKVtDSDJdW0NIMl1PW0NIMl1bQ0gyXTU=

> <s_epik_cmdline>
J2VwaWtfcHl0aG9uJywgJy1waCcsICc3LjAnLCAnLXRuJywgJzgnLCAnLW1hJywgJzIwMCcsICctbWV0YWxfYmluZGluZycsICctaW1hZScsICc8aW5maWxlLm1hZT4nLCAnLW9tYWUnLCAnPG91dGZpbGUubWFlPic=

> <r_lp_tautomer_probability>
1

> <r_epik_Ionization_Penalty>
0.0540825

> <r_epik_Ionization_Penalty_Charging>
0.0538476

> <r_epik_Ionization_Penalty_Neutral>
0.000234891

> <r_epik_State_Penalty>
0.0200719

> <r_epik_Charging_Adjusted_Penalty>
0.0739194

> <i_epik_Tot_Q>
1

> <i_epik_Tot_abs_Q>
1

> <r_epik_Metal_State_Penalty>
0.0199414

> <b_epik_Metal_Only>
0

> <s_lp_Force_Field>
OPLS_2005

> <r_lp_Energy>
56.4216

> <b_lp_Chiralities_Consistent>
1

> <s_lp_Variant>
AV-unprocessed.smi:193-6

> <Gold.Version>
5.8.1

> <Gold.Id.Protein>
6NUR|6NUR_protein|mol2

> <Gold.PLP.Fitness>
44.3100

> <Gold.PLP.PLP>
-39.8546

> <Gold.PLP.part.hbond>
-1.1245

> <Gold.PLP.part.metal>
0.0000

> <Gold.PLP.part.buried>
-3.9333

> <Gold.PLP.part.nonpolar>
-35.5867

> <Gold.PLP.part.repulsive>
0.7377

> <Gold.PLP.ligand.clash>
0.0000

> <Gold.PLP.ligand.torsion>
1.1626

> <Gold.PLP.Chemscore.Hbond>
1.0000

> <Gold.PLP.Chemscore.CHOScore>
0.7720

> <Gold.PLP.Chemscore.Metal>
0.0000

> <Gold.Chemscore.Hbonds>
donor molecule, donor type, donor heavy atom, donor atom, acceptor molecule, acceptor atom, score
      L1  H    16    40       P1 10174  1.00
      L1  C     7    36       P1  7957  0.89

> <Gold.PLP.Chemscore.Internal.Correction>
1.4647

> <Gold.Rescore>
     Score         DG    S(hbond)    S(metal)    S(lipo)     H(rot)  DE(clash)    DE(int)     intcor
     11.37     -15.21       1.00        0.00      96.87       1.93       0.04       3.80       ----

> <Gold.Chemscore.Fitness>
11.3741

> <Gold.Chemscore.DG>
-15.2134

> <Gold.Chemscore.ZeroCoef>
-5.4800

> <Gold.Chemscore.Hbond>
0.9995

> <Gold.Chemscore.Metal>
0.0000

> <Gold.Chemscore.Lipo>
96.8660

> <Gold.Chemscore.Internal_Hbond>
0.0000

> <Gold.Chemscore.DEClash>
0.0413

> <Gold.Chemscore.DEInternal>
3.7980

> <Gold.Chemscore.Rot>
1.9290

> <Gold.Chemscore.Internal.Correction>
   9.000000E+99

> <Gold.Chemscore.Hbonds>
donor molecule, donor type, donor heavy atom, donor atom, acceptor molecule, acceptor atom, score
      L1  H    16    40       P1 10174  1.00

> <Gold.Chemscore.Hbond.Weighted>
-3.3384

> <Gold.Chemscore.Metal.Weighted>
-0.0000

> <Gold.Chemscore.Lipo.Weighted>
-11.3333

> <Gold.Chemscore.Internal_Hbond.Weighted>
0.0000

> <Gold.Chemscore.DEClash.Weighted>
0.0413

> <Gold.Chemscore.DEInternal.Weighted>
3.7980

> <Gold.Chemscore.Rot.Weighted>
4.9383

> <Gold.Chemscore.Internal.Correction.Weighted>
   9.000000E+99

> <Gold.Protein.RotatedTorsions>
[ 6907 6896 6895 6894 ] final   38.44 input  -60.11 | X-H torsion
[ 7974 7965 7964 7962 ] final -120.79 input  175.53 | X-H torsion
[ 8008 7997 7996 7995 ] final  174.51 input   59.86 | X-H torsion
[ 10167 10162 10161 10158 ] final  -56.34 input  -65.29 | X-H torsion
[ 10718 10713 10712 10709 ] final   41.12 input   66.30 | X-H torsion
[ 10763 10752 10751 10750 ] final   10.49 input  -60.55 | X-H torsion
[ 11005 11000 10999 10996 ] final  148.73 input  -57.11 | X-H torsion

> <Gold.Protein.ActiveResidues>
 VAL166  LYS551  ARG553  GLY616  TRP617  ASP618  TYR619  PRO620  LYS621  CYS622 
 ASP623  PHE694  ASN695  SER759  ASP760  ASP761  ALA762  ILE779  LEU786  VAL792 
 PHE793  MET794  SER795  GLU796  ALA797  LYS798  CYS799  TRP800  GLU811  SER814 

> <Gold.Protein.RotatedAtoms>
  152.1565  134.8946  160.0544 H   0  0  0  0  0  0  0  0  0  0  0  0  # atno 6907 bound_to 6896
  151.9958  133.3802  159.4170 H   0  0  0  0  0  0  0  0  0  0  0  0  # atno 6908 bound_to 6896
  150.6882  134.3809  159.5077 H   0  0  0  0  0  0  0  0  0  0  0  0  # atno 6909 bound_to 6896
  145.0475  140.8192  143.4229 H   0  0  0  0  0  0  0  0  0  0  0  0  # atno 7974 bound_to 7965
  156.0967  140.1432  156.9522 H   0  0  0  0  0  0  0  0  0  0  0  0  # atno 8008 bound_to 7997
  154.4676  140.0921  156.7106 H   0  0  0  0  0  0  0  0  0  0  0  0  # atno 8009 bound_to 7997
  155.4829  140.3445  155.4345 H   0  0  0  0  0  0  0  0  0  0  0  0  # atno 8010 bound_to 7997
  140.6323  143.2465  151.5209 H   0  0  0  0  0  0  0  0  0  0  0  0  # atno 10167 bound_to 10162
  157.3900  130.7801  149.7261 H   0  0  0  0  0  0  0  0  0  0  0  0  # atno 10718 bound_to 10713
  153.2027  135.6858  153.8211 H   0  0  0  0  0  0  0  0  0  0  0  0  # atno 10763 bound_to 10752
  153.7472  135.3229  155.3316 H   0  0  0  0  0  0  0  0  0  0  0  0  # atno 10764 bound_to 10752
  154.8180  135.4672  154.0800 H   0  0  0  0  0  0  0  0  0  0  0  0  # atno 10765 bound_to 10752
  140.0984  134.8998  157.1759 H   0  0  0  0  0  0  0  0  0  0  0  0  # atno 11005 bound_to 11000
  145.1569  139.2481  143.5411 LP  0  0  0  0  0  0  0  0  0  0  0  0  # atno 17320 bound_to 7965
  146.3515  140.1287  142.8598 LP  0  0  0  0  0  0  0  0  0  0  0  0  # atno 17321 bound_to 7965
  139.5536  144.2332  152.1573 LP  0  0  0  0  0  0  0  0  0  0  0  0  # atno 17342 bound_to 10162
  140.1579  144.5053  150.6649 LP  0  0  0  0  0  0  0  0  0  0  0  0  # atno 17343 bound_to 10162
  155.9796  130.4038  150.3578 LP  0  0  0  0  0  0  0  0  0  0  0  0  # atno 17370 bound_to 10713
  157.1693  131.0365  151.2803 LP  0  0  0  0  0  0  0  0  0  0  0  0  # atno 17371 bound_to 10713
  140.3253  134.2870  155.7238 LP  0  0  0  0  0  0  0  0  0  0  0  0  # atno 17394 bound_to 11000
  141.2099  133.7736  156.9968 LP  0  0  0  0  0  0  0  0  0  0  0  0  # atno 17395 bound_to 11000

$$$$
