AV-unprocessed.smi:3046|AV-procd|sdf|11616|dock9
  -GOLD-   2272017 03D 1   1.00000     0.00000
 Structure written by MMmdl.
 38 38  0  0  0  0  0  0  0  0  2 V2000
  151.4299  139.3908  154.9423 C   0  0  0  0  0  0  0  0  0  0  0  0
  150.5901  138.4259  154.5388 C   0  0  0  0  0  0  0  0  0  0  0  0
  149.1294  138.6448  154.2092 C   0  0  0  0  0  0  0  0  0  0  0  0
  148.4523  137.3710  154.0182 N   0  0  0  0  0  0  0  0  0  0  0  0
  147.3547  136.9914  154.6877 C   0  0  0  0  0  0  0  0  0  0  0  0
  146.8111  137.6898  155.5440 O   0  0  0  0  0  0  0  0  0  0  0  0
  146.7906  135.6045  154.3519 C   0  0  1  0  0  0  0  0  0  0  0  0
  145.5031  135.3560  155.1521 C   0  0  0  0  0  0  0  0  0  0  0  0
  146.5146  135.4599  152.9028 N   0  3  0  0  0  0  0  0  0  0  0  0
  145.2176  136.0029  152.4341 C   0  0  1  0  0  0  0  0  0  0  0  0
  145.1882  137.5248  152.6480 C   0  0  0  0  0  0  0  0  0  0  0  0
  144.9737  135.6086  150.9618 C   0  0  0  0  0  0  0  0  0  0  0  0
  145.0782  134.1784  150.7382 N   0  0  0  0  0  0  0  0  0  0  0  0
  144.1182  133.3073  150.2675 C   0  0  0  0  0  0  0  0  0  0  0  0
  144.6858  132.0662  150.2198 C   0  0  0  0  0  0  0  0  0  0  0  0
  146.0143  132.2834  150.6810 C   0  0  0  0  0  0  0  0  0  0  0  0
  146.2465  133.5490  150.9892 N   0  0  0  0  0  0  0  0  0  0  0  0
  151.0972  140.4115  155.0620 H   0  0  0  0  0  0  0  0  0  0  0  0
  152.4649  139.1703  155.1587 H   0  0  0  0  0  0  0  0  0  0  0  0
  150.9619  137.4176  154.4273 H   0  0  0  0  0  0  0  0  0  0  0  0
  148.6422  139.2091  155.0061 H   0  0  0  0  0  0  0  0  0  0  0  0
  149.0622  139.2390  153.2966 H   0  0  0  0  0  0  0  0  0  0  0  0
  148.8465  136.7390  153.3361 H   0  0  0  0  0  0  0  0  0  0  0  0
  147.5128  134.8387  154.6412 H   0  0  0  0  0  0  0  0  0  0  0  0
  145.6850  135.4226  156.2256 H   0  0  0  0  0  0  0  0  0  0  0  0
  145.1034  134.3613  154.9513 H   0  0  0  0  0  0  0  0  0  0  0  0
  144.7269  136.0805  154.9013 H   0  0  0  0  0  0  0  0  0  0  0  0
  147.2413  135.9580  152.4093 H   0  0  0  0  0  0  0  0  0  0  0  0
  144.4151  135.5776  153.0393 H   0  0  0  0  0  0  0  0  0  0  0  0
  144.2179  137.9470  152.3855 H   0  0  0  0  0  0  0  0  0  0  0  0
  145.9441  138.0257  152.0422 H   0  0  0  0  0  0  0  0  0  0  0  0
  145.3774  137.7765  153.6920 H   0  0  0  0  0  0  0  0  0  0  0  0
  143.9850  135.9382  150.6398 H   0  0  0  0  0  0  0  0  0  0  0  0
  145.6926  136.1009  150.3064 H   0  0  0  0  0  0  0  0  0  0  0  0
  143.1223  133.6372  150.0104 H   0  0  0  0  0  0  0  0  0  0  0  0
  144.2234  131.1437  149.9013 H   0  0  0  0  0  0  0  0  0  0  0  0
  146.8114  131.5642  150.7998 H   0  0  0  0  0  0  0  0  0  0  0  0
  146.5748  134.4821  152.6557 H   0  0  0  0  0  0  0  0  0  0  0  0
  1  2  2  0  0  0  0
  1 18  1  0  0  0  0
  1 19  1  0  0  0  0
  2  3  1  0  0  0  0
  2 20  1  0  0  0  0
  3  4  1  0  0  0  0
  3 21  1  0  0  0  0
  3 22  1  0  0  0  0
  4  5  1  0  0  0  0
  4 23  1  0  0  0  0
  5  6  2  0  0  0  0
  5  7  1  0  0  0  0
  7  8  1  0  0  0  0
  7  9  1  0  0  0  0
  7 24  1  0  0  0  0
  8 25  1  0  0  0  0
  8 26  1  0  0  0  0
  8 27  1  0  0  0  0
  9 10  1  0  0  0  0
  9 28  1  0  0  0  0
  9 38  1  0  0  0  0
 10 11  1  0  0  0  0
 10 12  1  0  0  0  0
 10 29  1  0  0  0  0
 11 30  1  0  0  0  0
 11 31  1  0  0  0  0
 11 32  1  0  0  0  0
 12 13  1  0  0  0  0
 12 33  1  0  0  0  0
 12 34  1  0  0  0  0
 13 17  1  0  0  0  0
 13 14  1  0  0  0  0
 14 15  2  0  0  0  0
 14 35  1  0  0  0  0
 15 16  1  0  0  0  0
 15 36  1  0  0  0  0
 16 17  2  0  0  0  0
 16 37  1  0  0  0  0
M  CHG  1   9   1
M  END
> <s_m_source_file>
AV-unprocessed.smi

> <i_m_source_file_index>
3046

> <i_lp_mmshare_version>
43012

> <i_f3d_flags>
0

> <s_epik_input>
W0NIMl09W0NIXVtDSDJdW05IXUMoPU8pW0NASF0oW0NIM10pW05IXVtDQEhdKFtDSDNdKVtDSDJdbjFbY0hdW2NIXVtjSF1uMQ==

> <s_epik_cmdline>
J2VwaWtfcHl0aG9uJywgJy1waCcsICc3LjAnLCAnLXRuJywgJzgnLCAnLW1hJywgJzIwMCcsICctbWV0YWxfYmluZGluZycsICctaW1hZScsICc8aW5maWxlLm1hZT4nLCAnLW9tYWUnLCAnPG91dGZpbGUubWFlPic=

> <r_lp_tautomer_probability>
1

> <r_epik_Ionization_Penalty>
0.132961

> <r_epik_Ionization_Penalty_Charging>
0.132956

> <r_epik_Ionization_Penalty_Neutral>
5.00268e-06

> <r_epik_State_Penalty>
0.122332

> <r_epik_Charging_Adjusted_Penalty>
0.255288

> <i_epik_Tot_Q>
1

> <i_epik_Tot_abs_Q>
1

> <r_epik_Metal_State_Penalty>
0.122338

> <b_epik_Metal_Only>
0

> <s_lp_Force_Field>
OPLS_2005

> <r_lp_Energy>
6.90886

> <b_lp_Chiralities_Consistent>
1

> <s_lp_Variant>
AV-unprocessed.smi:3046-4

> <Gold.Version>
5.8.1

> <Gold.Id.Protein>
6NUR|6NUR_protein|mol2

> <Gold.PLP.Fitness>
42.4310

> <Gold.PLP.PLP>
-28.0674

> <Gold.PLP.part.hbond>
-1.7899

> <Gold.PLP.part.metal>
0.0000

> <Gold.PLP.part.buried>
-4.3763

> <Gold.PLP.part.nonpolar>
-23.5017

> <Gold.PLP.part.repulsive>
0.2193

> <Gold.PLP.ligand.clash>
0.0000

> <Gold.PLP.ligand.torsion>
0.3450

> <Gold.PLP.Chemscore.Hbond>
2.9920

> <Gold.PLP.Chemscore.CHOScore>
2.0000

> <Gold.PLP.Chemscore.Metal>
0.0000

> <Gold.Chemscore.Hbonds>
donor molecule, donor type, donor heavy atom, donor atom, acceptor molecule, acceptor atom, score
      L1  H     4    23       P1  7948  1.00
      L1  H     9    28       P1  7948  2.00
      L1  C    14    35       P1 10186  1.00
      L1  C    16    37       P1 10747  1.00

> <Gold.PLP.Chemscore.Internal.Correction>
0.0775

> <Gold.Rescore>
     Score         DG    S(hbond)    S(metal)    S(lipo)     H(rot)  DE(clash)    DE(int)     intcor
     11.62     -13.46       1.89        0.00      63.67       2.26       0.01       1.84       ----

> <Gold.Chemscore.Fitness>
11.6154

> <Gold.Chemscore.DG>
-13.4604

> <Gold.Chemscore.ZeroCoef>
-5.4800

> <Gold.Chemscore.Hbond>
1.8933

> <Gold.Chemscore.Metal>
0.0000

> <Gold.Chemscore.Lipo>
63.6656

> <Gold.Chemscore.Internal_Hbond>
0.0000

> <Gold.Chemscore.DEClash>
0.0082

> <Gold.Chemscore.DEInternal>
1.8368

> <Gold.Chemscore.Rot>
2.2626

> <Gold.Chemscore.Internal.Correction>
   9.000000E+99

> <Gold.Chemscore.Hbonds>
donor molecule, donor type, donor heavy atom, donor atom, acceptor molecule, acceptor atom, score
      L1  H     4    23       P1  7948  0.91
      L1  H     9    28       P1  7948  0.98

> <Gold.Chemscore.Hbond.Weighted>
-6.3237

> <Gold.Chemscore.Metal.Weighted>
-0.0000

> <Gold.Chemscore.Lipo.Weighted>
-7.4489

> <Gold.Chemscore.Internal_Hbond.Weighted>
0.0000

> <Gold.Chemscore.DEClash.Weighted>
0.0082

> <Gold.Chemscore.DEInternal.Weighted>
1.8368

> <Gold.Chemscore.Rot.Weighted>
5.7922

> <Gold.Chemscore.Internal.Correction.Weighted>
   9.000000E+99

> <Gold.Protein.RotatedTorsions>
[ 6907 6896 6895 6894 ] final    6.45 input  -60.11 | X-H torsion
[ 7974 7965 7964 7962 ] final -114.44 input  175.53 | X-H torsion
[ 8008 7997 7996 7995 ] final  -60.58 input   59.86 | X-H torsion
[ 10167 10162 10161 10158 ] final  138.99 input  -65.29 | X-H torsion
[ 10718 10713 10712 10709 ] final -146.62 input   66.30 | X-H torsion
[ 10763 10752 10751 10750 ] final -116.44 input  -60.55 | X-H torsion
[ 11005 11000 10999 10996 ] final   89.81 input  -57.11 | X-H torsion

> <Gold.Protein.ActiveResidues>
 VAL166  LYS551  ARG553  GLY616  TRP617  ASP618  TYR619  PRO620  LYS621  CYS622 
 ASP623  PHE694  ASN695  SER759  ASP760  ASP761  ALA762  ILE779  LEU786  VAL792 
 PHE793  MET794  SER795  GLU796  ALA797  LYS798  CYS799  TRP800  GLU811  SER814 

> <Gold.Protein.RotatedAtoms>
  151.6739  135.0972  160.0203 H   0  0  0  0  0  0  0  0  0  0  0  0  # atno 6907 bound_to 6896
  152.3875  133.6627  159.6219 H   0  0  0  0  0  0  0  0  0  0  0  0  # atno 6908 bound_to 6896
  150.7797  133.8927  159.3359 H   0  0  0  0  0  0  0  0  0  0  0  0  # atno 6909 bound_to 6896
  145.1201  140.8664  143.3819 H   0  0  0  0  0  0  0  0  0  0  0  0  # atno 7974 bound_to 7965
  154.4406  140.1036  156.6296 H   0  0  0  0  0  0  0  0  0  0  0  0  # atno 8008 bound_to 7997
  155.5619  140.3487  155.4475 H   0  0  0  0  0  0  0  0  0  0  0  0  # atno 8009 bound_to 7997
  156.0453  140.1291  157.0099 H   0  0  0  0  0  0  0  0  0  0  0  0  # atno 8010 bound_to 7997
  139.5093  144.6321  151.5791 H   0  0  0  0  0  0  0  0  0  0  0  0  # atno 10167 bound_to 10162
  156.3972  130.7916  151.2123 H   0  0  0  0  0  0  0  0  0  0  0  0  # atno 10718 bound_to 10713
  154.8519  135.4345  154.1821 H   0  0  0  0  0  0  0  0  0  0  0  0  # atno 10763 bound_to 10752
  153.2909  135.6961  153.7300 H   0  0  0  0  0  0  0  0  0  0  0  0  # atno 10764 bound_to 10752
  153.6467  135.3458  155.3062 H   0  0  0  0  0  0  0  0  0  0  0  0  # atno 10765 bound_to 10752
  139.8868  134.8575  156.3196 H   0  0  0  0  0  0  0  0  0  0  0  0  # atno 11005 bound_to 11000
  145.0749  139.3003  143.5813 LP  0  0  0  0  0  0  0  0  0  0  0  0  # atno 17320 bound_to 7965
  146.3521  140.0237  142.8656 LP  0  0  0  0  0  0  0  0  0  0  0  0  # atno 17321 bound_to 7965
  140.6057  143.9528  150.6417 LP  0  0  0  0  0  0  0  0  0  0  0  0  # atno 17342 bound_to 10162
  140.2755  143.3426  152.1199 LP  0  0  0  0  0  0  0  0  0  0  0  0  # atno 17343 bound_to 10162
  157.7502  131.0297  150.4107 LP  0  0  0  0  0  0  0  0  0  0  0  0  # atno 17370 bound_to 10713
  156.4380  130.3985  149.6716 LP  0  0  0  0  0  0  0  0  0  0  0  0  # atno 17371 bound_to 10713
  140.9796  133.7276  156.0652 LP  0  0  0  0  0  0  0  0  0  0  0  0  # atno 17394 bound_to 11000
  140.7767  134.3772  157.5496 LP  0  0  0  0  0  0  0  0  0  0  0  0  # atno 17395 bound_to 11000

$$$$
