AV-unprocessed.smi:275|AV-procd|sdf|2069|dock2
  -GOLD-   2262021323D 1   1.00000     0.00000
 Structure written by MMmdl.
 65 69  0  0  0  0  0  0  0  0  1 V2000
  145.9740  137.7585  162.7957 C   0  0  0  0  0  0  0  0  0  0  0  0
  145.1954  136.9246  161.7646 C   0  0  0  0  0  0  0  0  0  0  0  0
  144.3799  135.8633  162.5286 C   0  0  0  0  0  0  0  0  0  0  0  0
  146.0975  136.2812  160.6787 C   0  0  1  0  0  0  0  0  0  0  0  0
  147.0788  137.2909  160.2716 N   0  0  0  0  0  0  0  0  0  0  0  0
  147.2745  137.4874  158.8650 C   0  0  0  0  0  0  0  0  0  0  0  0
  148.3320  138.2341  158.4448 N   0  0  0  0  0  0  0  0  0  0  0  0
  148.5586  138.4606  157.1485 C   0  0  0  0  0  0  0  0  0  0  0  0
  147.8505  138.0520  156.0970 N   0  0  0  0  0  0  0  0  0  0  0  0
  146.7691  137.3259  156.4941 C   0  0  0  0  0  0  0  0  0  0  0  0
  146.4084  137.0064  157.8361 C   0  0  0  0  0  0  0  0  0  0  0  0
  145.2319  136.2647  157.8313 N   0  0  0  0  0  0  0  0  0  0  0  0
  144.9248  136.1421  156.5699 C   0  0  0  0  0  0  0  0  0  0  0  0
  145.7998  136.7440  155.6971 N   0  0  0  0  0  0  0  0  0  0  0  0
  145.7059  136.7658  154.2479 C   0  0  0  0  0  0  0  0  0  0  0  0
  144.4064  136.1189  153.7062 C   0  0  1  0  0  0  0  0  0  0  0  0
  143.4637  137.1411  153.0250 C   0  0  0  0  0  0  0  0  0  0  0  0
  143.1427  138.2075  153.8947 O   0  0  0  0  0  0  0  0  0  0  0  0
  144.7142  134.9049  152.7938 C   0  0  1  0  0  0  0  0  0  0  0  0
  143.4906  134.1619  152.2872 C   0  0  0  0  0  0  0  0  0  0  0  0
  144.0557  133.3805  151.1061 C   0  0  0  0  0  0  0  0  0  0  0  0
  145.0844  134.1994  150.5625 O   0  0  0  0  0  0  0  0  0  0  0  0
  145.3963  135.2547  151.4668 C   0  0  0  0  0  0  0  0  0  0  0  0
  148.1489  136.6256  161.0047 C   0  0  0  0  0  0  0  0  0  0  0  0
  147.3087  135.3407  160.9734 C   0  0  0  0  0  0  0  0  0  0  0  0
  147.7075  134.3626  159.8412 C   0  0  0  0  0  0  0  0  0  0  0  0
  146.8277  133.1067  159.7657 C   0  0  0  0  0  0  0  0  0  0  0  0
  146.8878  132.3280  161.0813 C   0  0  0  0  0  0  0  0  0  0  0  0
  146.4947  133.2340  162.2496 C   0  0  0  0  0  0  0  0  0  0  0  0
  147.3414  134.5240  162.2819 C   0  0  0  0  0  0  0  0  0  0  0  0
  146.8550  137.2267  163.1559 H   0  0  0  0  0  0  0  0  0  0  0  0
  145.3551  137.9911  163.6628 H   0  0  0  0  0  0  0  0  0  0  0  0
  146.2866  138.7182  162.3926 H   0  0  0  0  0  0  0  0  0  0  0  0
  144.4788  137.5979  161.2913 H   0  0  0  0  0  0  0  0  0  0  0  0
  145.0326  135.1856  163.0792 H   0  0  0  0  0  0  0  0  0  0  0  0
  143.7626  135.2631  161.8601 H   0  0  0  0  0  0  0  0  0  0  0  0
  143.7066  136.3276  163.2494 H   0  0  0  0  0  0  0  0  0  0  0  0
  145.5165  135.8779  159.8506 H   0  0  0  0  0  0  0  0  0  0  0  0
  149.4312  139.0557  156.9233 H   0  0  0  0  0  0  0  0  0  0  0  0
  144.0494  135.6015  156.2398 H   0  0  0  0  0  0  0  0  0  0  0  0
  145.7768  137.8020  153.9145 H   0  0  0  0  0  0  0  0  0  0  0  0
  146.5838  136.2541  153.8524 H   0  0  0  0  0  0  0  0  0  0  0  0
  143.8617  135.7375  154.5711 H   0  0  0  0  0  0  0  0  0  0  0  0
  143.9203  137.5508  152.1243 H   0  0  0  0  0  0  0  0  0  0  0  0
  142.5391  136.6650  152.6983 H   0  0  0  0  0  0  0  0  0  0  0  0
  143.2957  139.0219  153.4400 H   0  0  0  0  0  0  0  0  0  0  0  0
  145.3447  134.1945  153.3312 H   0  0  0  0  0  0  0  0  0  0  0  0
  143.0388  133.5120  153.0373 H   0  0  0  0  0  0  0  0  0  0  0  0
  142.7313  134.8655  151.9419 H   0  0  0  0  0  0  0  0  0  0  0  0
  144.5012  132.4448  151.4468 H   0  0  0  0  0  0  0  0  0  0  0  0
  143.2970  133.1438  150.3596 H   0  0  0  0  0  0  0  0  0  0  0  0
  144.9958  136.1831  151.0573 H   0  0  0  0  0  0  0  0  0  0  0  0
  146.4752  135.3711  151.5722 H   0  0  0  0  0  0  0  0  0  0  0  0
  149.1179  136.5405  160.5127 H   0  0  0  0  0  0  0  0  0  0  0  0
  148.2546  137.0428  162.0071 H   0  0  0  0  0  0  0  0  0  0  0  0
  147.6731  134.8536  158.8697 H   0  0  0  0  0  0  0  0  0  0  0  0
  148.7472  134.0576  159.9680 H   0  0  0  0  0  0  0  0  0  0  0  0
  145.7972  133.3895  159.5474 H   0  0  0  0  0  0  0  0  0  0  0  0
  147.1568  132.4705  158.9439 H   0  0  0  0  0  0  0  0  0  0  0  0
  146.2273  131.4615  161.0375 H   0  0  0  0  0  0  0  0  0  0  0  0
  147.8971  131.9445  161.2362 H   0  0  0  0  0  0  0  0  0  0  0  0
  145.4371  133.4688  162.1527 H   0  0  0  0  0  0  0  0  0  0  0  0
  146.6040  132.6948  163.1910 H   0  0  0  0  0  0  0  0  0  0  0  0
  148.3729  134.2463  162.5027 H   0  0  0  0  0  0  0  0  0  0  0  0
  147.0377  135.1415  163.1263 H   0  0  0  0  0  0  0  0  0  0  0  0
  1  2  1  0  0  0  0
  1 31  1  0  0  0  0
  1 32  1  0  0  0  0
  1 33  1  0  0  0  0
  2  3  1  0  0  0  0
  2  4  1  0  0  0  0
  2 34  1  0  0  0  0
  3 35  1  0  0  0  0
  3 36  1  0  0  0  0
  3 37  1  0  0  0  0
  4 25  1  0  0  0  0
  4  5  1  0  0  0  0
  4 38  1  0  0  0  0
  5  6  1  0  0  0  0
  5 24  1  0  0  0  0
  6 11  1  0  0  0  0
  6  7  2  0  0  0  0
  7  8  1  0  0  0  0
  8  9  2  0  0  0  0
  8 39  1  0  0  0  0
  9 10  1  0  0  0  0
 10 14  1  0  0  0  0
 10 11  2  0  0  0  0
 11 12  1  0  0  0  0
 12 13  2  0  0  0  0
 13 14  1  0  0  0  0
 13 40  1  0  0  0  0
 14 15  1  0  0  0  0
 15 16  1  0  0  0  0
 15 41  1  0  0  0  0
 15 42  1  0  0  0  0
 16 17  1  0  0  0  0
 16 19  1  0  0  0  0
 16 43  1  0  0  0  0
 17 18  1  0  0  0  0
 17 44  1  0  0  0  0
 17 45  1  0  0  0  0
 18 46  1  0  0  0  0
 19 23  1  0  0  0  0
 19 20  1  0  0  0  0
 19 47  1  0  0  0  0
 20 21  1  0  0  0  0
 20 48  1  0  0  0  0
 20 49  1  0  0  0  0
 21 22  1  0  0  0  0
 21 50  1  0  0  0  0
 21 51  1  0  0  0  0
 22 23  1  0  0  0  0
 23 52  1  0  0  0  0
 23 53  1  0  0  0  0
 24 25  1  0  0  0  0
 24 54  1  0  0  0  0
 24 55  1  0  0  0  0
 25 30  1  0  0  0  0
 25 26  1  0  0  0  0
 26 27  1  0  0  0  0
 26 56  1  0  0  0  0
 26 57  1  0  0  0  0
 27 28  1  0  0  0  0
 27 58  1  0  0  0  0
 27 59  1  0  0  0  0
 28 29  1  0  0  0  0
 28 60  1  0  0  0  0
 28 61  1  0  0  0  0
 29 30  1  0  0  0  0
 29 62  1  0  0  0  0
 29 63  1  0  0  0  0
 30 64  1  0  0  0  0
 30 65  1  0  0  0  0
M  END
> <s_m_source_file>
AV-unprocessed.smi

> <i_m_source_file_index>
275

> <i_lp_mmshare_version>
43012

> <i_f3d_flags>
0

> <s_epik_input>
W0NIMl0xW0NIMl1bQ0gyXVtDSDJdW0NIMl1DMTJbQ0BIXShbQ0hdKFtDSDNdKVtDSDNdKU4oW0NIMl0yKWMobltjSF1uMyljKGMzNCluW2NIXW40W0NIMl1bQ0BIXShbQ0gyXVtPSF0pW0NAQEhdNVtDSDJdW0NIMl1PW0NIMl01

> <s_epik_cmdline>
J2VwaWtfcHl0aG9uJywgJy1waCcsICc3LjAnLCAnLXRuJywgJzgnLCAnLW1hJywgJzIwMCcsICctbWV0YWxfYmluZGluZycsICctaW1hZScsICc8aW5maWxlLm1hZT4nLCAnLW9tYWUnLCAnPG91dGZpbGUubWFlPic=

> <r_lp_tautomer_probability>
1

> <r_epik_Ionization_Penalty>
0.00375122

> <r_epik_Ionization_Penalty_Charging>
0

> <r_epik_Ionization_Penalty_Neutral>
0.00375122

> <r_epik_State_Penalty>
0.00260593

> <r_epik_Charging_Adjusted_Penalty>
0.00260593

> <i_epik_Tot_Q>
0

> <i_epik_Tot_abs_Q>
0

> <r_epik_Metal_State_Penalty>
-0

> <b_epik_Metal_Only>
0

> <s_lp_Force_Field>
OPLS_2005

> <r_lp_Energy>
68.7999

> <b_lp_Chiralities_Consistent>
1

> <s_lp_Variant>
AV-unprocessed.smi:275-8

> <Gold.Version>
5.8.1

> <Gold.Id.Protein>
6NUR|6NUR_protein|mol2

> <Gold.PLP.Fitness>
39.5747

> <Gold.PLP.PLP>
-35.0351

> <Gold.PLP.part.hbond>
-2.3313

> <Gold.PLP.part.metal>
0.0000

> <Gold.PLP.part.buried>
-4.2715

> <Gold.PLP.part.nonpolar>
-28.3292

> <Gold.PLP.part.repulsive>
0.3948

> <Gold.PLP.ligand.clash>
0.0000

> <Gold.PLP.ligand.torsion>
1.0901

> <Gold.PLP.Chemscore.Hbond>
2.0000

> <Gold.PLP.Chemscore.CHOScore>
0.0000

> <Gold.PLP.Chemscore.Metal>
0.0000

> <Gold.Chemscore.Hbonds>
donor molecule, donor type, donor heavy atom, donor atom, acceptor molecule, acceptor atom, score
      L1  H    18    46       P1 10175  1.00
      P1  H  6934  6947       L1     5  1.00

> <Gold.PLP.Chemscore.Internal.Correction>
0.7199

> <Gold.Rescore>
     Score         DG    S(hbond)    S(metal)    S(lipo)     H(rot)  DE(clash)    DE(int)     intcor
     10.45     -13.71       1.24        0.00      90.65       2.54       0.10       3.17       ----

> <Gold.Chemscore.Fitness>
10.4487

> <Gold.Chemscore.DG>
-13.7139

> <Gold.Chemscore.ZeroCoef>
-5.4800

> <Gold.Chemscore.Hbond>
1.2350

> <Gold.Chemscore.Metal>
0.0000

> <Gold.Chemscore.Lipo>
90.6454

> <Gold.Chemscore.Internal_Hbond>
0.0000

> <Gold.Chemscore.DEClash>
0.0974

> <Gold.Chemscore.DEInternal>
3.1679

> <Gold.Chemscore.Rot>
2.5377

> <Gold.Chemscore.Internal.Correction>
   9.000000E+99

> <Gold.Chemscore.Hbonds>
donor molecule, donor type, donor heavy atom, donor atom, acceptor molecule, acceptor atom, score
      L1  H    18    46       P1 10175  1.00
      P1  H  6934  6947       L1     5  0.12

> <Gold.Chemscore.Hbond.Weighted>
-4.1250

> <Gold.Chemscore.Metal.Weighted>
-0.0000

> <Gold.Chemscore.Lipo.Weighted>
-10.6055

> <Gold.Chemscore.Internal_Hbond.Weighted>
0.0000

> <Gold.Chemscore.DEClash.Weighted>
0.0974

> <Gold.Chemscore.DEInternal.Weighted>
3.1679

> <Gold.Chemscore.Rot.Weighted>
6.4966

> <Gold.Chemscore.Internal.Correction.Weighted>
   9.000000E+99

> <Gold.Protein.RotatedTorsions>
[ 6907 6896 6895 6894 ] final  -11.88 input  -60.11 | X-H torsion
[ 7974 7965 7964 7962 ] final -104.44 input  175.53 | X-H torsion
[ 8008 7997 7996 7995 ] final -141.88 input   59.86 | X-H torsion
[ 10167 10162 10161 10158 ] final   55.23 input  -65.29 | X-H torsion
[ 10718 10713 10712 10709 ] final  133.74 input   66.30 | X-H torsion
[ 10763 10752 10751 10750 ] final   16.73 input  -60.55 | X-H torsion
[ 11005 11000 10999 10996 ] final  103.10 input  -57.11 | X-H torsion

> <Gold.Protein.ActiveResidues>
 VAL166  LYS551  ARG553  GLY616  TRP617  ASP618  TYR619  PRO620  LYS621  CYS622 
 ASP623  PHE694  ASN695  SER759  ASP760  ASP761  ALA762  ILE779  LEU786  VAL792 
 PHE793  MET794  SER795  GLU796  ALA797  LYS798  CYS799  TRP800  GLU811  SER814 

> <Gold.Protein.RotatedAtoms>
  151.3793  135.0937  159.9490 H   0  0  0  0  0  0  0  0  0  0  0  0  # atno 6907 bound_to 6896
  152.5113  133.9088  159.7488 H   0  0  0  0  0  0  0  0  0  0  0  0  # atno 6908 bound_to 6896
  150.9518  133.6486  159.2799 H   0  0  0  0  0  0  0  0  0  0  0  0  # atno 6909 bound_to 6896
  145.2431  140.9212  143.3138 H   0  0  0  0  0  0  0  0  0  0  0  0  # atno 7974 bound_to 7965
  155.4850  140.0563  157.2962 H   0  0  0  0  0  0  0  0  0  0  0  0  # atno 8008 bound_to 7997
  154.4645  140.2012  156.0107 H   0  0  0  0  0  0  0  0  0  0  0  0  # atno 8009 bound_to 7997
  156.0950  140.3228  155.7870 H   0  0  0  0  0  0  0  0  0  0  0  0  # atno 8010 bound_to 7997
  140.2217  144.3781  150.6448 H   0  0  0  0  0  0  0  0  0  0  0  0  # atno 10167 bound_to 10162
  157.4743  131.1082  150.9763 H   0  0  0  0  0  0  0  0  0  0  0  0  # atno 10718 bound_to 10713
  153.1404  135.6758  153.9037 H   0  0  0  0  0  0  0  0  0  0  0  0  # atno 10763 bound_to 10752
  153.8495  135.3095  155.3433 H   0  0  0  0  0  0  0  0  0  0  0  0  # atno 10764 bound_to 10752
  154.7782  135.4903  153.9873 H   0  0  0  0  0  0  0  0  0  0  0  0  # atno 10765 bound_to 10752
  139.8781  134.9250  156.5159 H   0  0  0  0  0  0  0  0  0  0  0  0  # atno 11005 bound_to 11000
  144.9571  139.4020  143.6374 LP  0  0  0  0  0  0  0  0  0  0  0  0  # atno 17320 bound_to 7965
  146.3323  139.8606  142.8857 LP  0  0  0  0  0  0  0  0  0  0  0  0  # atno 17321 bound_to 7965
  140.6250  143.2180  151.6615 LP  0  0  0  0  0  0  0  0  0  0  0  0  # atno 17342 bound_to 10162
  139.5142  144.3419  152.0732 LP  0  0  0  0  0  0  0  0  0  0  0  0  # atno 17343 bound_to 10162
  157.0518  130.5790  149.5371 LP  0  0  0  0  0  0  0  0  0  0  0  0  # atno 17370 bound_to 10713
  156.0089  130.5178  150.7922 LP  0  0  0  0  0  0  0  0  0  0  0  0  # atno 17371 bound_to 10713
  140.8486  133.8149  155.9146 LP  0  0  0  0  0  0  0  0  0  0  0  0  # atno 17394 bound_to 11000
  140.9167  134.2193  157.4952 LP  0  0  0  0  0  0  0  0  0  0  0  0  # atno 17395 bound_to 11000

$$$$
