AV-unprocessed.smi:1524|AV-procd|sdf|6139|dock1
  -GOLD-   22720 6283D 1   1.00000     0.00000
 Structure written by MMmdl.
 35 36  0  0  0  0  0  0  0  0  1 V2000
  141.5708  136.4067  153.4213 O   0  0  0  0  0  0  0  0  0  0  0  0
  142.1282  137.4524  153.0950 C   0  0  0  0  0  0  0  0  0  0  0  0
  143.3250  137.5358  152.4782 N   0  0  0  0  0  0  0  0  0  0  0  0
  144.1801  136.5086  152.0483 C   0  0  0  0  0  0  0  0  0  0  0  0
  143.7734  135.2734  151.6549 C   0  0  0  0  0  0  0  0  0  0  0  0
  144.7135  134.2575  151.2115 C   0  0  0  0  0  0  0  0  0  0  0  0
  144.2561  132.8526  150.8512 C   0  0  0  0  0  0  0  0  0  0  0  0
  142.9452  132.7053  151.0475 F   0  0  0  0  0  0  0  0  0  0  0  0
  144.5220  132.5749  149.5746 F   0  0  0  0  0  0  0  0  0  0  0  0
  144.8922  131.9613  151.6103 F   0  0  0  0  0  0  0  0  0  0  0  0
  146.0151  134.6003  151.2185 C   0  0  0  0  0  0  0  0  0  0  0  0
  146.4386  135.8758  151.5987 N   0  0  0  0  0  0  0  0  0  0  0  0
  145.6090  136.8600  152.0119 C   0  0  0  0  0  0  0  0  0  0  0  0
  146.0592  137.9610  152.3282 O   0  0  0  0  0  0  0  0  0  0  0  0
  141.5728  138.6463  153.3723 N   0  0  0  0  0  0  0  0  0  0  0  0
  140.2932  138.9248  154.0291 C   0  0  0  0  0  0  0  0  0  0  0  0
  139.1309  138.2284  153.2976 C   0  0  0  0  0  0  0  0  0  0  0  0
  137.7785  138.6663  153.8834 C   0  0  0  0  0  0  0  0  0  0  0  0
  137.6558  140.0832  153.8224 O   0  0  0  0  0  0  0  0  0  0  0  0
  138.6437  140.7580  154.5937 C   0  0  0  0  0  0  0  0  0  0  0  0
  140.0446  140.4405  154.0462 C   0  0  0  0  0  0  0  0  0  0  0  0
  147.4305  136.0611  151.5586 H   0  0  0  0  0  0  0  0  0  0  0  0
  143.6897  138.4674  152.3420 H   0  0  0  0  0  0  0  0  0  0  0  0
  142.7276  135.0136  151.6394 H   0  0  0  0  0  0  0  0  0  0  0  0
  146.8207  133.9356  150.9431 H   0  0  0  0  0  0  0  0  0  0  0  0
  142.1157  139.4591  153.1182 H   0  0  0  0  0  0  0  0  0  0  0  0
  140.3255  138.5804  155.0645 H   0  0  0  0  0  0  0  0  0  0  0  0
  139.1579  138.4782  152.2359 H   0  0  0  0  0  0  0  0  0  0  0  0
  139.2268  137.1442  153.3648 H   0  0  0  0  0  0  0  0  0  0  0  0
  136.9624  138.2179  153.3168 H   0  0  0  0  0  0  0  0  0  0  0  0
  137.6740  138.3265  154.9150 H   0  0  0  0  0  0  0  0  0  0  0  0
  138.4568  141.8307  154.5433 H   0  0  0  0  0  0  0  0  0  0  0  0
  138.5612  140.4696  155.6427 H   0  0  0  0  0  0  0  0  0  0  0  0
  140.8027  140.9412  154.6497 H   0  0  0  0  0  0  0  0  0  0  0  0
  140.1326  140.8436  153.0362 H   0  0  0  0  0  0  0  0  0  0  0  0
  1  2  2  0  0  0  0
  2  3  1  0  0  0  0
  2 15  1  0  0  0  0
  3  4  1  0  0  0  0
  3 23  1  0  0  0  0
  4 13  1  0  0  0  0
  4  5  2  0  0  0  0
  5  6  1  0  0  0  0
  5 24  1  0  0  0  0
  6  7  1  0  0  0  0
  6 11  2  0  0  0  0
  7  8  1  0  0  0  0
  7  9  1  0  0  0  0
  7 10  1  0  0  0  0
 11 12  1  0  0  0  0
 11 25  1  0  0  0  0
 12 22  1  0  0  0  0
 12 13  1  0  0  0  0
 13 14  2  0  0  0  0
 15 16  1  0  0  0  0
 15 26  1  0  0  0  0
 16 21  1  0  0  0  0
 16 17  1  0  0  0  0
 16 27  1  0  0  0  0
 17 18  1  0  0  0  0
 17 28  1  0  0  0  0
 17 29  1  0  0  0  0
 18 19  1  0  0  0  0
 18 30  1  0  0  0  0
 18 31  1  0  0  0  0
 19 20  1  0  0  0  0
 20 21  1  0  0  0  0
 20 32  1  0  0  0  0
 20 33  1  0  0  0  0
 21 34  1  0  0  0  0
 21 35  1  0  0  0  0
M  END
> <s_m_source_file>
AV-unprocessed.smi

> <i_m_source_file_index>
1524

> <i_lp_mmshare_version>
43012

> <i_f3d_flags>
0

> <s_epik_input>
W0NIMl0xW0NIMl1PW0NIMl1bQ0gyXVtDSF0xW05IXUMoPU8pW05IXWMyW2NIXWMoQyhGKShGKUYpW2NIXVtuSF1jMj1P

> <s_epik_cmdline>
J2VwaWtfcHl0aG9uJywgJy1waCcsICc3LjAnLCAnLXRuJywgJzgnLCAnLW1hJywgJzIwMCcsICctbWV0YWxfYmluZGluZycsICctaW1hZScsICc8aW5maWxlLm1hZT4nLCAnLW9tYWUnLCAnPG91dGZpbGUubWFlPic=

> <r_lp_tautomer_probability>
1

> <r_epik_Ionization_Penalty>
0.00380781

> <r_epik_Ionization_Penalty_Charging>
0.00378827

> <r_epik_Ionization_Penalty_Neutral>
1.95401e-05

> <r_epik_State_Penalty>
-0

> <r_epik_Charging_Adjusted_Penalty>
0.00378827

> <i_epik_Tot_Q>
0

> <i_epik_Tot_abs_Q>
0

> <r_epik_Metal_State_Penalty>
0.371078

> <b_epik_Metal_Only>
0

> <s_lp_Force_Field>
OPLS_2005

> <r_lp_Energy>
30.03

> <b_lp_Chiralities_Consistent>
1

> <s_lp_Variant>
AV-unprocessed.smi:1524-1

> <Gold.Version>
5.8.1

> <Gold.Id.Protein>
6NUR|6NUR_protein|mol2

> <Gold.PLP.Fitness>
44.4757

> <Gold.PLP.PLP>
-35.9669

> <Gold.PLP.part.hbond>
-3.9627

> <Gold.PLP.part.metal>
0.0000

> <Gold.PLP.part.buried>
-5.4597

> <Gold.PLP.part.nonpolar>
-27.8118

> <Gold.PLP.part.repulsive>
0.6036

> <Gold.PLP.ligand.clash>
0.0000

> <Gold.PLP.ligand.torsion>
0.2512

> <Gold.PLP.Chemscore.Hbond>
2.9913

> <Gold.PLP.Chemscore.CHOScore>
0.0000

> <Gold.PLP.Chemscore.Metal>
0.0000

> <Gold.Chemscore.Hbonds>
donor molecule, donor type, donor heavy atom, donor atom, acceptor molecule, acceptor atom, score
      L1  H     3    23       P1 10175  1.00
      L1  H    12    22       P1  7948  0.98
      L1  H    15    26       P1 10175  1.00

> <Gold.PLP.Chemscore.Internal.Correction>
0.0374

> <Gold.Rescore>
     Score         DG    S(hbond)    S(metal)    S(lipo)     H(rot)  DE(clash)    DE(int)     intcor
     17.82     -19.10       2.83        0.00      57.56       1.00       0.16       1.12       ----

> <Gold.Chemscore.Fitness>
17.8217

> <Gold.Chemscore.DG>
-19.1050

> <Gold.Chemscore.ZeroCoef>
-5.4800

> <Gold.Chemscore.Hbond>
2.8294

> <Gold.Chemscore.Metal>
0.0000

> <Gold.Chemscore.Lipo>
57.5609

> <Gold.Chemscore.Internal_Hbond>
0.0000

> <Gold.Chemscore.DEClash>
0.1637

> <Gold.Chemscore.DEInternal>
1.1195

> <Gold.Chemscore.Rot>
1.0000

> <Gold.Chemscore.Internal.Correction>
   9.000000E+99

> <Gold.Chemscore.Hbonds>
donor molecule, donor type, donor heavy atom, donor atom, acceptor molecule, acceptor atom, score
      L1  H     3    23       P1 10175  0.96
      L1  H    12    22       P1  7948  0.92
      L1  H    15    26       P1 10175  0.90

> <Gold.Chemscore.Hbond.Weighted>
-9.4503

> <Gold.Chemscore.Metal.Weighted>
-0.0000

> <Gold.Chemscore.Lipo.Weighted>
-6.7346

> <Gold.Chemscore.Internal_Hbond.Weighted>
0.0000

> <Gold.Chemscore.DEClash.Weighted>
0.1637

> <Gold.Chemscore.DEInternal.Weighted>
1.1195

> <Gold.Chemscore.Rot.Weighted>
2.5600

> <Gold.Chemscore.Internal.Correction.Weighted>
   9.000000E+99

> <Gold.Protein.RotatedTorsions>
[ 6907 6896 6895 6894 ] final  179.30 input  -60.11 | X-H torsion
[ 7974 7965 7964 7962 ] final   72.78 input  175.53 | X-H torsion
[ 8008 7997 7996 7995 ] final -100.37 input   59.86 | X-H torsion
[ 10167 10162 10161 10158 ] final  -21.60 input  -65.29 | X-H torsion
[ 10718 10713 10712 10709 ] final  177.34 input   66.30 | X-H torsion
[ 10763 10752 10751 10750 ] final   44.73 input  -60.55 | X-H torsion
[ 11005 11000 10999 10996 ] final -139.38 input  -57.11 | X-H torsion

> <Gold.Protein.ActiveResidues>
 VAL166  LYS551  ARG553  GLY616  TRP617  ASP618  TYR619  PRO620  LYS621  CYS622 
 ASP623  PHE694  ASN695  SER759  ASP760  ASP761  ALA762  ILE779  LEU786  VAL792 
 PHE793  MET794  SER795  GLU796  ALA797  LYS798  CYS799  TRP800  GLU811  SER814 

> <Gold.Protein.RotatedAtoms>
  151.6738  133.3313  159.3202 H   0  0  0  0  0  0  0  0  0  0  0  0  # atno 6907 bound_to 6896
  150.7855  134.6839  159.6469 H   0  0  0  0  0  0  0  0  0  0  0  0  # atno 6908 bound_to 6896
  152.3923  134.6424  160.0154 H   0  0  0  0  0  0  0  0  0  0  0  0  # atno 6909 bound_to 6896
  145.7491  139.2752  143.1441 H   0  0  0  0  0  0  0  0  0  0  0  0  # atno 7974 bound_to 7965
  154.8276  140.0441  157.1455 H   0  0  0  0  0  0  0  0  0  0  0  0  # atno 8008 bound_to 7997
  154.9188  140.3024  155.5207 H   0  0  0  0  0  0  0  0  0  0  0  0  # atno 8009 bound_to 7997
  156.2985  140.2344  156.4236 H   0  0  0  0  0  0  0  0  0  0  0  0  # atno 8010 bound_to 7997
  140.7282  143.4613  151.0376 H   0  0  0  0  0  0  0  0  0  0  0  0  # atno 10167 bound_to 10162
  156.9069  130.9897  151.3027 H   0  0  0  0  0  0  0  0  0  0  0  0  # atno 10718 bound_to 10713
  152.9836  135.6062  154.3321 H   0  0  0  0  0  0  0  0  0  0  0  0  # atno 10763 bound_to 10752
  154.3023  135.2772  155.2607 H   0  0  0  0  0  0  0  0  0  0  0  0  # atno 10764 bound_to 10752
  154.4853  135.5906  153.6475 H   0  0  0  0  0  0  0  0  0  0  0  0  # atno 10765 bound_to 10752
  140.8525  134.2268  157.4752 H   0  0  0  0  0  0  0  0  0  0  0  0  # atno 11005 bound_to 11000
  146.0374  140.8199  142.9846 LP  0  0  0  0  0  0  0  0  0  0  0  0  # atno 17320 bound_to 7965
  144.6853  140.2858  143.7285 LP  0  0  0  0  0  0  0  0  0  0  0  0  # atno 17321 bound_to 7965
  139.8297  143.7707  152.3179 LP  0  0  0  0  0  0  0  0  0  0  0  0  # atno 17342 bound_to 10162
  139.7818  144.7441  151.0077 LP  0  0  0  0  0  0  0  0  0  0  0  0  # atno 17343 bound_to 10162
  157.5992  130.8500  149.8775 LP  0  0  0  0  0  0  0  0  0  0  0  0  # atno 17370 bound_to 10713
  156.0555  130.3709  150.1102 LP  0  0  0  0  0  0  0  0  0  0  0  0  # atno 17371 bound_to 10713
  139.8704  134.9690  156.4652 LP  0  0  0  0  0  0  0  0  0  0  0  0  # atno 17394 bound_to 11000
  140.8774  133.7943  155.9429 LP  0  0  0  0  0  0  0  0  0  0  0  0  # atno 17395 bound_to 11000

$$$$
