AV-unprocessed.smi:2389|AV-procd|sdf|9472|dock4
  -GOLD-   2272013103D 1   1.00000     0.00000
 Structure written by MMmdl.
 34 35  0  0  0  0  0  0  0  0  1 V2000
  154.7664  140.4774  161.2414 C   0  0  0  0  0  0  0  0  0  0  0  0
  153.7070  141.1797  160.3888 C   0  0  0  0  0  0  0  0  0  0  0  0
  153.4051  142.4406  160.9794 O   0  0  0  0  0  0  0  0  0  0  0  0
  152.5669  143.3007  160.2998 C   0  0  0  0  0  0  0  0  0  0  0  0
  152.3682  144.5968  160.8118 C   0  0  0  0  0  0  0  0  0  0  0  0
  151.5093  145.4680  160.1182 C   0  0  0  0  0  0  0  0  0  0  0  0
  150.8832  145.0124  158.9424 C   0  0  0  0  0  0  0  0  0  0  0  0
  151.1326  143.6982  158.4888 C   0  0  0  0  0  0  0  0  0  0  0  0
  150.4557  143.3315  157.2951 N   0  0  0  0  0  0  0  0  0  0  0  0
  150.5043  142.1574  156.6407 C   0  0  0  0  0  0  0  0  0  0  0  0
  151.1638  141.1763  156.9860 O   0  0  0  0  0  0  0  0  0  0  0  0
  149.7357  142.1818  155.5426 N   0  0  0  0  0  0  0  0  0  0  0  0
  149.5716  141.0705  154.6147 C   0  0  0  0  0  0  0  0  0  0  0  0
  148.3440  141.1519  153.7275 C   0  0  0  0  0  0  0  0  0  0  0  0
  147.2013  142.0853  154.0559 C   0  0  0  0  0  0  0  0  0  0  0  0
  147.0229  140.5941  154.2032 C   0  0  0  0  0  0  0  0  0  0  0  0
  151.9628  142.8678  159.1662 N   0  0  0  0  0  0  0  0  0  0  0  0
  155.0270  139.5077  160.8171 H   0  0  0  0  0  0  0  0  0  0  0  0
  154.4045  140.3116  162.2563 H   0  0  0  0  0  0  0  0  0  0  0  0
  155.6779  141.0725  161.3027 H   0  0  0  0  0  0  0  0  0  0  0  0
  154.0837  141.3157  159.3737 H   0  0  0  0  0  0  0  0  0  0  0  0
  152.8113  140.5583  160.3361 H   0  0  0  0  0  0  0  0  0  0  0  0
  152.8628  144.9149  161.7177 H   0  0  0  0  0  0  0  0  0  0  0  0
  151.3324  146.4693  160.4821 H   0  0  0  0  0  0  0  0  0  0  0  0
  150.2201  145.6688  158.3979 H   0  0  0  0  0  0  0  0  0  0  0  0
  149.8711  144.0474  156.8899 H   0  0  0  0  0  0  0  0  0  0  0  0
  149.2283  143.0289  155.3328 H   0  0  0  0  0  0  0  0  0  0  0  0
  150.4519  141.0476  153.9722 H   0  0  0  0  0  0  0  0  0  0  0  0
  149.5685  140.1257  155.1612 H   0  0  0  0  0  0  0  0  0  0  0  0
  148.5572  141.0041  152.6703 H   0  0  0  0  0  0  0  0  0  0  0  0
  147.2742  142.6754  154.9674 H   0  0  0  0  0  0  0  0  0  0  0  0
  146.6993  142.5743  153.2237 H   0  0  0  0  0  0  0  0  0  0  0  0
  146.3984  140.0875  153.4704 H   0  0  0  0  0  0  0  0  0  0  0  0
  146.9754  140.1929  155.2138 H   0  0  0  0  0  0  0  0  0  0  0  0
  1  2  1  0  0  0  0
  1 18  1  0  0  0  0
  1 19  1  0  0  0  0
  1 20  1  0  0  0  0
  2  3  1  0  0  0  0
  2 21  1  0  0  0  0
  2 22  1  0  0  0  0
  3  4  1  0  0  0  0
  4 17  1  0  0  0  0
  4  5  2  0  0  0  0
  5  6  1  0  0  0  0
  5 23  1  0  0  0  0
  6  7  2  0  0  0  0
  6 24  1  0  0  0  0
  7  8  1  0  0  0  0
  7 25  1  0  0  0  0
  8  9  1  0  0  0  0
  8 17  2  0  0  0  0
  9 10  1  0  0  0  0
  9 26  1  0  0  0  0
 10 11  2  0  0  0  0
 10 12  1  0  0  0  0
 12 13  1  0  0  0  0
 12 27  1  0  0  0  0
 13 14  1  0  0  0  0
 13 28  1  0  0  0  0
 13 29  1  0  0  0  0
 14 16  1  0  0  0  0
 14 15  1  0  0  0  0
 14 30  1  0  0  0  0
 15 16  1  0  0  0  0
 15 31  1  0  0  0  0
 15 32  1  0  0  0  0
 16 33  1  0  0  0  0
 16 34  1  0  0  0  0
M  END
> <s_m_source_file>
AV-unprocessed.smi

> <i_m_source_file_index>
2389

> <i_lp_mmshare_version>
43012

> <i_f3d_flags>
0

> <s_epik_input>
W0NIM11bQ0gyXU9jMVtjSF1bY0hdW2NIXWMobjEpW05IXUMoPU8pW05IXVtDSDJdW0NIXTJbQ0gyXVtDSDJdMg==

> <s_epik_cmdline>
J2VwaWtfcHl0aG9uJywgJy1waCcsICc3LjAnLCAnLXRuJywgJzgnLCAnLW1hJywgJzIwMCcsICctbWV0YWxfYmluZGluZycsICctaW1hZScsICc8aW5maWxlLm1hZT4nLCAnLW9tYWUnLCAnPG91dGZpbGUubWFlPic=

> <r_lp_tautomer_probability>
1

> <r_epik_Ionization_Penalty>
4.07356e-05

> <r_epik_Ionization_Penalty_Charging>
0

> <r_epik_Ionization_Penalty_Neutral>
4.07356e-05

> <r_epik_State_Penalty>
-0

> <r_epik_Charging_Adjusted_Penalty>
0

> <i_epik_Tot_Q>
0

> <i_epik_Tot_abs_Q>
0

> <r_epik_Metal_State_Penalty>
-0

> <b_epik_Metal_Only>
0

> <s_lp_Force_Field>
OPLS_2005

> <r_lp_Energy>
13.6513

> <b_lp_Chiralities_Consistent>
1

> <s_lp_Variant>
AV-unprocessed.smi:2389-1

> <Gold.Version>
5.8.1

> <Gold.Id.Protein>
6NUR|6NUR_protein|mol2

> <Gold.PLP.Fitness>
45.7367

> <Gold.PLP.PLP>
-40.4778

> <Gold.PLP.part.hbond>
-2.0000

> <Gold.PLP.part.metal>
0.0000

> <Gold.PLP.part.buried>
-6.1951

> <Gold.PLP.part.nonpolar>
-32.4317

> <Gold.PLP.part.repulsive>
0.2029

> <Gold.PLP.ligand.clash>
0.0000

> <Gold.PLP.ligand.torsion>
0.6551

> <Gold.PLP.Chemscore.Hbond>
2.0000

> <Gold.PLP.Chemscore.CHOScore>
0.0000

> <Gold.PLP.Chemscore.Metal>
0.0000

> <Gold.Chemscore.Hbonds>
donor molecule, donor type, donor heavy atom, donor atom, acceptor molecule, acceptor atom, score
      L1  H     9    26       P1  8028  1.00
      L1  H    12    27       P1  8028  1.00

> <Gold.PLP.Chemscore.Internal.Correction>
0.5690

> <Gold.Rescore>
     Score         DG    S(hbond)    S(metal)    S(lipo)     H(rot)  DE(clash)    DE(int)     intcor
     14.86     -17.34       1.90        0.00      82.80       1.62       0.43       2.05       ----

> <Gold.Chemscore.Fitness>
14.8634

> <Gold.Chemscore.DG>
-17.3423

> <Gold.Chemscore.ZeroCoef>
-5.4800

> <Gold.Chemscore.Hbond>
1.8950

> <Gold.Chemscore.Metal>
0.0000

> <Gold.Chemscore.Lipo>
82.7985

> <Gold.Chemscore.Internal_Hbond>
0.0000

> <Gold.Chemscore.DEClash>
0.4264

> <Gold.Chemscore.DEInternal>
2.0524

> <Gold.Chemscore.Rot>
1.6228

> <Gold.Chemscore.Internal.Correction>
   9.000000E+99

> <Gold.Chemscore.Hbonds>
donor molecule, donor type, donor heavy atom, donor atom, acceptor molecule, acceptor atom, score
      L1  H     9    26       P1  8028  0.91
      L1  H    12    27       P1  8028  0.95

> <Gold.Chemscore.Hbond.Weighted>
-6.3294

> <Gold.Chemscore.Metal.Weighted>
-0.0000

> <Gold.Chemscore.Lipo.Weighted>
-9.6874

> <Gold.Chemscore.Internal_Hbond.Weighted>
0.0000

> <Gold.Chemscore.DEClash.Weighted>
0.4264

> <Gold.Chemscore.DEInternal.Weighted>
2.0524

> <Gold.Chemscore.Rot.Weighted>
4.1545

> <Gold.Chemscore.Internal.Correction.Weighted>
   9.000000E+99

> <Gold.Protein.RotatedTorsions>
[ 6907 6896 6895 6894 ] final   -2.00 input  -60.11 | X-H torsion
[ 7974 7965 7964 7962 ] final   40.53 input  175.53 | X-H torsion
[ 8008 7997 7996 7995 ] final  -56.69 input   59.86 | X-H torsion
[ 10167 10162 10161 10158 ] final  124.47 input  -65.29 | X-H torsion
[ 10718 10713 10712 10709 ] final  149.39 input   66.30 | X-H torsion
[ 10763 10752 10751 10750 ] final  134.58 input  -60.55 | X-H torsion
[ 11005 11000 10999 10996 ] final   85.36 input  -57.11 | X-H torsion

> <Gold.Protein.ActiveResidues>
 VAL166  LYS551  ARG553  GLY616  TRP617  ASP618  TYR619  PRO620  LYS621  CYS622 
 ASP623  PHE694  ASN695  SER759  ASP760  ASP761  ALA762  ILE779  LEU786  VAL792 
 PHE793  MET794  SER795  GLU796  ALA797  LYS798  CYS799  TRP800  GLU811  SER814 

> <Gold.Protein.RotatedAtoms>
  151.5370  135.1068  159.9916 H   0  0  0  0  0  0  0  0  0  0  0  0  # atno 6907 bound_to 6896
  152.4553  133.7706  159.6807 H   0  0  0  0  0  0  0  0  0  0  0  0  # atno 6908 bound_to 6896
  150.8494  133.7745  159.3056 H   0  0  0  0  0  0  0  0  0  0  0  0  # atno 6909 bound_to 6896
  146.0897  139.5522  142.9483 H   0  0  0  0  0  0  0  0  0  0  0  0  # atno 7974 bound_to 7965
  154.4239  140.1124  156.5678 H   0  0  0  0  0  0  0  0  0  0  0  0  # atno 8008 bound_to 7997
  155.6244  140.3495  155.4643 H   0  0  0  0  0  0  0  0  0  0  0  0  # atno 8009 bound_to 7997
  155.9998  140.1197  157.0548 H   0  0  0  0  0  0  0  0  0  0  0  0  # atno 8010 bound_to 7997
  139.5739  144.6953  151.3704 H   0  0  0  0  0  0  0  0  0  0  0  0  # atno 10167 bound_to 10162
  157.2966  131.0863  151.1422 H   0  0  0  0  0  0  0  0  0  0  0  0  # atno 10718 bound_to 10713
  153.8259  135.3110  155.3414 H   0  0  0  0  0  0  0  0  0  0  0  0  # atno 10763 bound_to 10752
  154.7993  135.4736  154.0240 H   0  0  0  0  0  0  0  0  0  0  0  0  # atno 10764 bound_to 10752
  153.1664  135.6870  153.8760 H   0  0  0  0  0  0  0  0  0  0  0  0  # atno 10765 bound_to 10752
  139.8973  134.8281  156.2572 H   0  0  0  0  0  0  0  0  0  0  0  0  # atno 11005 bound_to 11000
  145.6061  141.0347  143.1992 LP  0  0  0  0  0  0  0  0  0  0  0  0  # atno 17320 bound_to 7965
  144.7351  139.7608  143.7332 LP  0  0  0  0  0  0  0  0  0  0  0  0  # atno 17321 bound_to 7965
  140.7023  143.7601  150.7423 LP  0  0  0  0  0  0  0  0  0  0  0  0  # atno 17342 bound_to 10162
  140.1115  143.4695  152.2367 LP  0  0  0  0  0  0  0  0  0  0  0  0  # atno 17343 bound_to 10162
  157.2797  130.6744  149.6060 LP  0  0  0  0  0  0  0  0  0  0  0  0  # atno 17370 bound_to 10713
  155.9669  130.4453  150.5498 LP  0  0  0  0  0  0  0  0  0  0  0  0  # atno 17371 bound_to 10713
  141.0186  133.7054  156.1230 LP  0  0  0  0  0  0  0  0  0  0  0  0  # atno 17394 bound_to 11000
  140.7266  134.4300  157.5570 LP  0  0  0  0  0  0  0  0  0  0  0  0  # atno 17395 bound_to 11000

$$$$
