AV-unprocessed.smi:1440|AV-procd|sdf|5873|dock9
  -GOLD-   22720 5553D 1   1.00000     0.00000
 Structure written by MMmdl.
 41 42  0  0  0  0  0  0  0  0  1 V2000
  152.4425  144.5038  160.7703 C   0  0  0  0  0  0  0  0  0  0  0  0
  151.7498  143.4139  159.9403 C   0  0  2  0  0  0  0  0  0  0  0  0
  152.5964  142.1290  159.8756 C   0  0  0  0  0  0  0  0  0  0  0  0
  151.9010  141.0353  159.0493 C   0  0  0  0  0  0  0  0  0  0  0  0
  151.5609  141.5283  157.6273 C   0  0  1  0  0  0  0  0  0  0  0  0
  150.8226  140.5086  156.8878 N   0  0  0  0  0  0  0  0  0  0  0  0
  151.1451  140.0411  155.6724 C   0  0  0  0  0  0  0  0  0  0  0  0
  152.1285  140.4296  155.0400 O   0  0  0  0  0  0  0  0  0  0  0  0
  150.2144  138.9606  155.1064 C   0  0  0  0  0  0  0  0  0  0  0  0
  150.4410  137.6403  155.6887 N   0  0  0  0  0  0  0  0  0  0  0  0
  151.2699  136.7056  155.1966 C   0  0  0  0  0  0  0  0  0  0  0  0
  151.9305  136.8564  154.1694 O   0  0  0  0  0  0  0  0  0  0  0  0
  151.3742  135.4017  155.9885 C   0  0  0  0  0  0  0  0  0  0  0  0
  150.6883  134.3178  155.3095 N   0  0  0  0  0  0  0  0  0  0  0  0
  149.8979  134.3298  154.2343 C   0  0  0  0  0  0  0  0  0  0  0  0
  149.4375  133.1337  153.8950 N   0  0  0  0  0  0  0  0  0  0  0  0
  150.0235  132.3780  154.8713 C   0  0  0  0  0  0  0  0  0  0  0  0
  150.7838  133.0387  155.7446 N   0  0  0  0  0  0  0  0  0  0  0  0
  150.7265  142.8212  157.6864 C   0  0  0  0  0  0  0  0  0  0  0  0
  151.4238  143.9093  158.5187 C   0  0  0  0  0  0  0  0  0  0  0  0
  153.3958  144.7935  160.3278 H   0  0  0  0  0  0  0  0  0  0  0  0
  152.6376  144.1592  161.7862 H   0  0  0  0  0  0  0  0  0  0  0  0
  151.8218  145.3976  160.8393 H   0  0  0  0  0  0  0  0  0  0  0  0
  150.8090  143.1720  160.4371 H   0  0  0  0  0  0  0  0  0  0  0  0
  153.5707  142.3502  159.4373 H   0  0  0  0  0  0  0  0  0  0  0  0
  152.7889  141.7572  160.8824 H   0  0  0  0  0  0  0  0  0  0  0  0
  152.5433  140.1552  159.0018 H   0  0  0  0  0  0  0  0  0  0  0  0
  150.9889  140.7229  159.5600 H   0  0  0  0  0  0  0  0  0  0  0  0
  152.4899  141.7461  157.0965 H   0  0  0  0  0  0  0  0  0  0  0  0
  150.0001  140.1308  157.3354 H   0  0  0  0  0  0  0  0  0  0  0  0
  149.1828  139.2486  155.3100 H   0  0  0  0  0  0  0  0  0  0  0  0
  150.3185  138.9182  154.0206 H   0  0  0  0  0  0  0  0  0  0  0  0
  149.9413  137.4275  156.5401 H   0  0  0  0  0  0  0  0  0  0  0  0
  152.4219  135.1263  156.1168 H   0  0  0  0  0  0  0  0  0  0  0  0
  150.9518  135.5335  156.9862 H   0  0  0  0  0  0  0  0  0  0  0  0
  149.6533  135.2313  153.6918 H   0  0  0  0  0  0  0  0  0  0  0  0
  149.8855  131.3090  154.9407 H   0  0  0  0  0  0  0  0  0  0  0  0
  150.5429  143.1939  156.6779 H   0  0  0  0  0  0  0  0  0  0  0  0
  149.7479  142.6102  158.1203 H   0  0  0  0  0  0  0  0  0  0  0  0
  150.7867  144.7929  158.5694 H   0  0  0  0  0  0  0  0  0  0  0  0
  152.3411  144.2188  158.0160 H   0  0  0  0  0  0  0  0  0  0  0  0
  1  2  1  0  0  0  0
  1 21  1  0  0  0  0
  1 22  1  0  0  0  0
  1 23  1  0  0  0  0
  2 20  1  0  0  0  0
  2  3  1  0  0  0  0
  2 24  1  0  0  0  0
  3  4  1  0  0  0  0
  3 25  1  0  0  0  0
  3 26  1  0  0  0  0
  4  5  1  0  0  0  0
  4 27  1  0  0  0  0
  4 28  1  0  0  0  0
  5  6  1  0  0  0  0
  5 19  1  0  0  0  0
  5 29  1  0  0  0  0
  6  7  1  0  0  0  0
  6 30  1  0  0  0  0
  7  8  2  0  0  0  0
  7  9  1  0  0  0  0
  9 10  1  0  0  0  0
  9 31  1  0  0  0  0
  9 32  1  0  0  0  0
 10 11  1  0  0  0  0
 10 33  1  0  0  0  0
 11 12  2  0  0  0  0
 11 13  1  0  0  0  0
 13 14  1  0  0  0  0
 13 34  1  0  0  0  0
 13 35  1  0  0  0  0
 14 18  1  0  0  0  0
 14 15  1  0  0  0  0
 15 16  2  0  0  0  0
 15 36  1  0  0  0  0
 16 17  1  0  0  0  0
 17 18  2  0  0  0  0
 17 37  1  0  0  0  0
 19 20  1  0  0  0  0
 19 38  1  0  0  0  0
 19 39  1  0  0  0  0
 20 40  1  0  0  0  0
 20 41  1  0  0  0  0
M  END
> <s_m_source_file>
AV-unprocessed.smi

> <i_m_source_file_index>
1440

> <i_lp_mmshare_version>
43012

> <i_f3d_flags>
0

> <s_epik_input>
W0NIM11bQ0BASF0xW0NIMl1bQ0gyXVtDQEhdKFtDSDJdW0NIMl0xKVtOSF1DKD1PKVtDSDJdW05IXUMoPU8pW0NIMl1uMltjSF1uW2NIXW4y

> <s_epik_cmdline>
J2VwaWtfcHl0aG9uJywgJy1waCcsICc3LjAnLCAnLXRuJywgJzgnLCAnLW1hJywgJzIwMCcsICctbWV0YWxfYmluZGluZycsICctaW1hZScsICc8aW5maWxlLm1hZT4nLCAnLW9tYWUnLCAnPG91dGZpbGUubWFlPic=

> <r_lp_tautomer_probability>
1

> <r_epik_Ionization_Penalty>
7.34071e-06

> <r_epik_Ionization_Penalty_Charging>
0

> <r_epik_Ionization_Penalty_Neutral>
7.34071e-06

> <r_epik_State_Penalty>
-0

> <r_epik_Charging_Adjusted_Penalty>
0

> <i_epik_Tot_Q>
0

> <i_epik_Tot_abs_Q>
0

> <r_epik_Metal_State_Penalty>
-0

> <b_epik_Metal_Only>
0

> <s_lp_Force_Field>
OPLS_2005

> <r_lp_Energy>
7.17082

> <b_lp_Chiralities_Consistent>
1

> <s_lp_Variant>
AV-unprocessed.smi:1440-1

> <Gold.Version>
5.8.1

> <Gold.Id.Protein>
6NUR|6NUR_protein|mol2

> <Gold.PLP.Fitness>
42.3766

> <Gold.PLP.PLP>
-34.2937

> <Gold.PLP.part.hbond>
-2.7170

> <Gold.PLP.part.metal>
0.0000

> <Gold.PLP.part.buried>
-3.2692

> <Gold.PLP.part.nonpolar>
-29.0374

> <Gold.PLP.part.repulsive>
0.3728

> <Gold.PLP.ligand.clash>
0.0000

> <Gold.PLP.ligand.torsion>
0.7243

> <Gold.PLP.Chemscore.Hbond>
2.1876

> <Gold.PLP.Chemscore.CHOScore>
0.9845

> <Gold.PLP.Chemscore.Metal>
0.0000

> <Gold.Chemscore.Hbonds>
donor molecule, donor type, donor heavy atom, donor atom, acceptor molecule, acceptor atom, score
      P1  H  7989  7998       L1     8  0.62
      P1  H 10752 10765       L1    12  1.00
      L1  C    15    36       P1  7948  0.64

> <Gold.PLP.Chemscore.Internal.Correction>
0.0150

> <Gold.Rescore>
     Score         DG    S(hbond)    S(metal)    S(lipo)     H(rot)  DE(clash)    DE(int)     intcor
     13.30     -13.91       1.95        0.00      78.98       2.86       0.21       0.40       ----

> <Gold.Chemscore.Fitness>
13.2969

> <Gold.Chemscore.DG>
-13.9106

> <Gold.Chemscore.ZeroCoef>
-5.4800

> <Gold.Chemscore.Hbond>
1.9512

> <Gold.Chemscore.Metal>
0.0000

> <Gold.Chemscore.Lipo>
78.9786

> <Gold.Chemscore.Internal_Hbond>
0.0000

> <Gold.Chemscore.DEClash>
0.2133

> <Gold.Chemscore.DEInternal>
0.4004

> <Gold.Chemscore.Rot>
2.8621

> <Gold.Chemscore.Internal.Correction>
   9.000000E+99

> <Gold.Chemscore.Hbonds>
donor molecule, donor type, donor heavy atom, donor atom, acceptor molecule, acceptor atom, score
      P1  H  7989  7998       L1     8  0.46
      P1  H  7997  8008       L1     8  0.02
      P1  H 10752 10765       L1    12  0.48

> <Gold.Chemscore.Hbond.Weighted>
-6.5171

> <Gold.Chemscore.Metal.Weighted>
-0.0000

> <Gold.Chemscore.Lipo.Weighted>
-9.2405

> <Gold.Chemscore.Internal_Hbond.Weighted>
0.0000

> <Gold.Chemscore.DEClash.Weighted>
0.2133

> <Gold.Chemscore.DEInternal.Weighted>
0.4004

> <Gold.Chemscore.Rot.Weighted>
7.3270

> <Gold.Chemscore.Internal.Correction.Weighted>
   9.000000E+99

> <Gold.Protein.RotatedTorsions>
[ 6907 6896 6895 6894 ] final  -67.50 input  -60.11 | X-H torsion
[ 7974 7965 7964 7962 ] final -123.55 input  175.53 | X-H torsion
[ 8008 7997 7996 7995 ] final  -27.25 input   59.86 | X-H torsion
[ 10167 10162 10161 10158 ] final   17.87 input  -65.29 | X-H torsion
[ 10718 10713 10712 10709 ] final  -27.80 input   66.30 | X-H torsion
[ 10763 10752 10751 10750 ] final  155.76 input  -60.55 | X-H torsion
[ 11005 11000 10999 10996 ] final   28.45 input  -57.11 | X-H torsion

> <Gold.Protein.ActiveResidues>
 VAL166  LYS551  ARG553  GLY616  TRP617  ASP618  TYR619  PRO620  LYS621  CYS622 
 ASP623  PHE694  ASN695  SER759  ASP760  ASP761  ALA762  ILE779  LEU786  VAL792 
 PHE793  MET794  SER795  GLU796  ALA797  LYS798  CYS799  TRP800  GLU811  SER814 

> <Gold.Protein.RotatedAtoms>
  150.7406  134.5872  159.5968 H   0  0  0  0  0  0  0  0  0  0  0  0  # atno 6907 bound_to 6896
  152.3269  134.7306  160.0308 H   0  0  0  0  0  0  0  0  0  0  0  0  # atno 6908 bound_to 6896
  151.7803  133.3313  159.3506 H   0  0  0  0  0  0  0  0  0  0  0  0  # atno 6909 bound_to 6896
  145.0175  140.7959  143.4401 H   0  0  0  0  0  0  0  0  0  0  0  0  # atno 7974 bound_to 7965
  154.4386  140.1877  156.0903 H   0  0  0  0  0  0  0  0  0  0  0  0  # atno 8008 bound_to 7997
  156.0371  140.3324  155.7176 H   0  0  0  0  0  0  0  0  0  0  0  0  # atno 8009 bound_to 7997
  155.5754  140.0616  157.2787 H   0  0  0  0  0  0  0  0  0  0  0  0  # atno 8010 bound_to 7997
  140.5695  143.9189  150.6702 H   0  0  0  0  0  0  0  0  0  0  0  0  # atno 10167 bound_to 10162
  156.4334  130.4450  149.7101 H   0  0  0  0  0  0  0  0  0  0  0  0  # atno 10718 bound_to 10713
  154.1735  135.2803  155.3074 H   0  0  0  0  0  0  0  0  0  0  0  0  # atno 10763 bound_to 10752
  154.6057  135.5515  153.7423 H   0  0  0  0  0  0  0  0  0  0  0  0  # atno 10764 bound_to 10752
  153.0158  135.6403  154.1875 H   0  0  0  0  0  0  0  0  0  0  0  0  # atno 10765 bound_to 10752
  140.3155  134.2602  155.7726 H   0  0  0  0  0  0  0  0  0  0  0  0  # atno 11005 bound_to 11000
  145.1940  139.2286  143.5228 LP  0  0  0  0  0  0  0  0  0  0  0  0  # atno 17320 bound_to 7965
  146.3480  140.1743  142.8589 LP  0  0  0  0  0  0  0  0  0  0  0  0  # atno 17321 bound_to 7965
  140.2660  143.3490  152.1280 LP  0  0  0  0  0  0  0  0  0  0  0  0  # atno 17342 bound_to 10162
  139.5110  144.6893  151.5803 LP  0  0  0  0  0  0  0  0  0  0  0  0  # atno 17343 bound_to 10162
  156.3995  130.7667  151.2674 LP  0  0  0  0  0  0  0  0  0  0  0  0  # atno 17370 bound_to 10713
  157.7508  131.0244  150.3875 LP  0  0  0  0  0  0  0  0  0  0  0  0  # atno 17371 bound_to 10713
  141.2099  133.7736  156.9969 LP  0  0  0  0  0  0  0  0  0  0  0  0  # atno 17394 bound_to 11000
  140.0988  134.9548  157.1890 LP  0  0  0  0  0  0  0  0  0  0  0  0  # atno 17395 bound_to 11000

$$$$
