#       Name:                AV-unprocessed.smi:1119
#       Creating user name   scv26
#       Creation time:       Fri Mar 27 03:37:10 2020


#       File generated by GOLD software.
#

@<TRIPOS>MOLECULE
AV-unprocessed.smi:1119
    36    37     1
SMALL
NO_CHARGES


@<TRIPOS>ATOM
      1 ****        -2.2628  -3.9679  -0.7876 C.3            1 S1                 0.0000
      2 ****        -1.5978  -2.7093  -0.7981 O.3            1 S1                 0.0000
      3 ****        -2.3635  -1.5593  -0.8250 C.ar           1 S1                 0.0000
      4 ****        -3.7145  -1.6840  -0.8482 N.ar           1 S1                 0.0000
      5 ****        -4.4635  -0.5627  -0.8778 C.ar           1 S1                 0.0000
      6 ****        -3.9123   0.7317  -0.8926 C.ar           1 S1                 0.0000
      7 ****        -2.5116   0.8640  -0.8677 C.ar           1 S1                 0.0000
      8 ****        -1.7123  -0.3037  -0.8215 C.ar           1 S1                 0.0000
      9 ****        -0.2906  -0.2785  -0.8182 N.am           1 S1                 0.0000
     10 ****         0.5229   0.6914  -0.3676 C.2            1 S1                 0.0000
     11 ****         0.1532   1.7401   0.1608 O.2            1 S1                 0.0000
     12 ****         1.8105   0.3653  -0.5453 N.am           1 S1                 0.0000
     13 ****         2.9430   1.1849  -0.1339 C.3            1 S1                 0.0000
     14 ****         3.3217   1.0558   1.3288 C.3            1 S1                 0.0000
     15 ****         2.7977   2.0257   2.3624 C.3            1 S1                 0.0000
     16 ****         4.2543   2.0580   1.9683 C.3            1 S1                 0.0000
     17 ****        -1.5221  -4.7666  -0.7554 H              1 S1                 0.0000
     18 ****        -2.8627  -4.1092  -1.6877 H              1 S1                 0.0000
     19 ****        -2.9019  -4.0749   0.0902 H              1 S1                 0.0000
     20 ****        -5.5343  -0.7019  -0.8964 H              1 S1                 0.0000
     21 ****        -4.5490   1.6033  -0.9271 H              1 S1                 0.0000
     22 ****        -2.0785   1.8518  -0.9003 H              1 S1                 0.0000
     23 ****         0.1572  -1.1265  -1.1337 H              1 S1                 0.0000
     24 ****         2.0227  -0.5174  -0.9866 H              1 S1                 0.0000
     25 ****         3.8020   0.8835  -0.7335 H              1 S1                 0.0000
     26 ****         2.7573   2.2331  -0.3752 H              1 S1                 0.0000
     27 ****         3.4503   0.0258   1.6568 H              1 S1                 0.0000
     28 ****         2.1657   2.8422   2.0182 H              1 S1                 0.0000
     29 ****         2.5487   1.6257   3.3432 H              1 S1                 0.0000
     30 ****         4.9785   1.6826   2.6885 H              1 S1                 0.0000
     31 ****         4.5905   2.8982   1.3636 H              1 S1                 0.0000
     32 ****        -1.0109  -2.6923  -1.6077 LP             1 S1                 0.0000
     33 ****        -1.0315  -2.6678   0.0250 LP             1 S1                 0.0000
     34 ****        -4.1449  -2.5866  -0.8435 LP             1 S1                 0.0000
     35 ****        -0.8226   1.9218   0.2824 LP             1 S1                 0.0000
     36 ****         0.8287   2.4102   0.4683 LP             1 S1                 0.0000
@<TRIPOS>BOND
    1    1    2 1     
    2    1   17 1     
    3    1   18 1     
    4    1   19 1     
    5    2    3 1     
    6    3    8 ar    
    7    3    4 ar    
    8    4    5 ar    
    9    5    6 ar    
   10    5   20 1     
   11    6    7 ar    
   12    6   21 1     
   13    7    8 ar    
   14    7   22 1     
   15    8    9 1     
   16    9   10 am    
   17    9   23 1     
   18   10   11 2     
   19   10   12 am    
   20   12   13 1     
   21   12   24 1     
   22   13   14 1     
   23   13   25 1     
   24   13   26 1     
   25   14   16 1     
   26   14   15 1     
   27   14   27 1     
   28   15   16 1     
   29   15   28 1     
   30   15   29 1     
   31   16   30 1     
   32   16   31 1     
   33    2   32 1     
   34    2   33 1     
   35    4   34 1     
   36   11   35 1     
   37   11   36 1     
@<TRIPOS>SUBSTRUCTURE
      1 S1             1
@<TRIPOS>SET
LONE_PAIRS      STATIC     ATOMS    <user>   **** ""
5 32 33 34 35 36
DONOR_HYDROGENS      STATIC     ATOMS    <user>   **** ""
2 23 24
ATOM$BLUE        STATIC     ATOMS    COLORGROUP SYSTEM
5 32 33 34 35 36
ATOM$RED        STATIC     ATOMS    COLORGROUP SYSTEM
2 23 24
