AV-unprocessed.smi:2829|AV-procd|sdf|10898|dock10
  -GOLD-   2272015343D 1   1.00000     0.00000
 Structure written by MMmdl.
 50 53  0  0  0  0  0  0  0  0  1 V2000
  158.6746  136.3383  151.8282 C   0  0  0  0  0  0  0  0  0  0  0  0
  157.3100  136.8669  152.3252 C   0  0  0  0  0  0  0  0  0  0  0  0
  157.1458  138.3037  151.7869 C   0  0  0  0  0  0  0  0  0  0  0  0
  156.2157  135.9554  151.7315 C   0  0  0  0  0  0  0  0  0  0  0  0
  157.2060  136.8718  153.8610 C   0  0  0  0  0  0  0  0  0  0  0  0
  157.4477  138.0199  154.6490 C   0  0  0  0  0  0  0  0  0  0  0  0
  157.3209  137.8955  156.0426 C   0  0  0  0  0  0  0  0  0  0  0  0
  156.9619  136.6413  156.5754 C   0  0  0  0  0  0  0  0  0  0  0  0
  156.8544  136.5902  157.9892 N   0  0  0  0  0  0  0  0  0  0  0  0
  156.5682  137.5945  158.8410 C   0  0  0  0  0  0  0  0  0  0  0  0
  156.3713  138.7621  158.5095 O   0  0  0  0  0  0  0  0  0  0  0  0
  156.5058  137.2155  160.1293 N   0  0  0  0  0  0  0  0  0  0  0  0
  156.2170  138.0635  161.2940 C   0  0  2  0  0  0  0  0  0  0  0  0
  155.7911  137.2843  162.5459 C   0  0  2  0  0  0  0  0  0  0  0  0
  155.9964  135.9037  163.0548 C   0  0  0  0  0  0  0  0  0  0  0  0
  154.5725  135.7004  163.6329 C   0  0  0  0  0  0  0  0  0  0  0  0
  153.7952  136.8383  163.1803 O   0  0  0  0  0  0  0  0  0  0  0  0
  154.3933  137.2128  161.9525 C   0  0  1  0  0  0  0  0  0  0  0  0
  154.7415  138.5837  161.3479 C   0  0  0  0  0  0  0  0  0  0  0  0
  154.3742  139.8934  162.0647 C   0  0  0  0  0  0  0  0  0  0  0  0
  154.1856  140.5347  160.6865 C   0  0  0  0  0  0  0  0  0  0  0  0
  154.0282  139.1272  160.1020 C   0  0  0  0  0  0  0  0  0  0  0  0
  156.7448  135.5797  155.7591 N   0  0  0  0  0  0  0  0  0  0  0  0
  156.8639  135.6913  154.4328 N   0  0  0  0  0  0  0  0  0  0  0  0
  158.7279  136.3446  150.7389 H   0  0  0  0  0  0  0  0  0  0  0  0
  158.8503  135.3107  152.1491 H   0  0  0  0  0  0  0  0  0  0  0  0
  159.5005  136.9517  152.1906 H   0  0  0  0  0  0  0  0  0  0  0  0
  157.9071  138.9687  152.1967 H   0  0  0  0  0  0  0  0  0  0  0  0
  156.1722  138.7237  152.0413 H   0  0  0  0  0  0  0  0  0  0  0  0
  157.2336  138.3343  150.7003 H   0  0  0  0  0  0  0  0  0  0  0  0
  156.2773  135.9163  150.6434 H   0  0  0  0  0  0  0  0  0  0  0  0
  155.2143  136.3067  151.9831 H   0  0  0  0  0  0  0  0  0  0  0  0
  156.3080  134.9341  152.1028 H   0  0  0  0  0  0  0  0  0  0  0  0
  157.7221  138.9735  154.2256 H   0  0  0  0  0  0  0  0  0  0  0  0
  157.4966  138.7463  156.6850 H   0  0  0  0  0  0  0  0  0  0  0  0
  156.9966  135.6812  158.4041 H   0  0  0  0  0  0  0  0  0  0  0  0
  156.6686  136.2378  160.3232 H   0  0  0  0  0  0  0  0  0  0  0  0
  156.9572  138.8433  161.4801 H   0  0  0  0  0  0  0  0  0  0  0  0
  155.8372  137.9797  163.3923 H   0  0  0  0  0  0  0  0  0  0  0  0
  156.2166  135.1949  162.2556 H   0  0  0  0  0  0  0  0  0  0  0  0
  156.7743  135.8426  163.8160 H   0  0  0  0  0  0  0  0  0  0  0  0
  154.1342  134.7716  163.2656 H   0  0  0  0  0  0  0  0  0  0  0  0
  154.5748  135.6670  164.7227 H   0  0  0  0  0  0  0  0  0  0  0  0
  154.2685  136.4350  161.1933 H   0  0  0  0  0  0  0  0  0  0  0  0
  153.4419  139.8184  162.6265 H   0  0  0  0  0  0  0  0  0  0  0  0
  155.1732  140.3317  162.6635 H   0  0  0  0  0  0  0  0  0  0  0  0
  153.3029  141.1683  160.5948 H   0  0  0  0  0  0  0  0  0  0  0  0
  155.0851  141.0391  160.3309 H   0  0  0  0  0  0  0  0  0  0  0  0
  154.5516  138.9689  159.1588 H   0  0  0  0  0  0  0  0  0  0  0  0
  152.9857  138.8107  160.0430 H   0  0  0  0  0  0  0  0  0  0  0  0
  1  2  1  0  0  0  0
  1 25  1  0  0  0  0
  1 26  1  0  0  0  0
  1 27  1  0  0  0  0
  2  3  1  0  0  0  0
  2  4  1  0  0  0  0
  2  5  1  0  0  0  0
  3 28  1  0  0  0  0
  3 29  1  0  0  0  0
  3 30  1  0  0  0  0
  4 31  1  0  0  0  0
  4 32  1  0  0  0  0
  4 33  1  0  0  0  0
  5 24  1  0  0  0  0
  5  6  2  0  0  0  0
  6  7  1  0  0  0  0
  6 34  1  0  0  0  0
  7  8  2  0  0  0  0
  7 35  1  0  0  0  0
  8  9  1  0  0  0  0
  8 23  1  0  0  0  0
  9 10  1  0  0  0  0
  9 36  1  0  0  0  0
 10 11  2  0  0  0  0
 10 12  1  0  0  0  0
 12 13  1  0  0  0  0
 12 37  1  0  0  0  0
 13 19  1  0  0  0  0
 13 14  1  0  0  0  0
 13 38  1  0  0  0  0
 14 18  1  0  0  0  0
 14 15  1  0  0  0  0
 14 39  1  0  0  0  0
 15 16  1  0  0  0  0
 15 40  1  0  0  0  0
 15 41  1  0  0  0  0
 16 17  1  0  0  0  0
 16 42  1  0  0  0  0
 16 43  1  0  0  0  0
 17 18  1  0  0  0  0
 18 19  1  0  0  0  0
 18 44  1  0  0  0  0
 19 22  1  0  0  0  0
 19 20  1  0  0  0  0
 20 21  1  0  0  0  0
 20 45  1  0  0  0  0
 20 46  1  0  0  0  0
 21 22  1  0  0  0  0
 21 47  1  0  0  0  0
 21 48  1  0  0  0  0
 22 49  1  0  0  0  0
 22 50  1  0  0  0  0
 23 24  2  0  0  0  0
M  END
> <s_m_source_file>
AV-unprocessed.smi

> <i_m_source_file_index>
2829

> <i_lp_mmshare_version>
43012

> <i_f3d_flags>
0

> <s_epik_input>
W0NIM11DKFtDSDNdKShbQ0gzXSljMVtjSF1bY0hdYyhubjEpW05IXUMoPU8pW05IXVtDQEBIXTJbQ0BIXShbQ0gyXVtDSDJdTzMpW0NAQEhdM0MyNFtDSDJdW0NIMl1bQ0gyXTQ=

> <s_epik_cmdline>
J2VwaWtfcHl0aG9uJywgJy1waCcsICc3LjAnLCAnLXRuJywgJzgnLCAnLW1hJywgJzIwMCcsICctbWV0YWxfYmluZGluZycsICctaW1hZScsICc8aW5maWxlLm1hZT4nLCAnLW9tYWUnLCAnPG91dGZpbGUubWFlPic=

> <r_lp_tautomer_probability>
1

> <r_epik_Ionization_Penalty>
0.011915

> <r_epik_Ionization_Penalty_Charging>
0

> <r_epik_Ionization_Penalty_Neutral>
0.011915

> <r_epik_State_Penalty>
0.00486223

> <r_epik_Charging_Adjusted_Penalty>
0.00486223

> <i_epik_Tot_Q>
0

> <i_epik_Tot_abs_Q>
0

> <r_epik_Metal_State_Penalty>
-0

> <b_epik_Metal_Only>
0

> <s_lp_Force_Field>
OPLS_2005

> <r_lp_Energy>
85.5181

> <b_lp_Chiralities_Consistent>
1

> <s_lp_Variant>
AV-unprocessed.smi:2829-1

> <Gold.Version>
5.8.1

> <Gold.Id.Protein>
6NUR|6NUR_protein|mol2

> <Gold.PLP.Fitness>
39.0426

> <Gold.PLP.PLP>
-36.1777

> <Gold.PLP.part.hbond>
-3.0000

> <Gold.PLP.part.metal>
0.0000

> <Gold.PLP.part.buried>
-0.5722

> <Gold.PLP.part.nonpolar>
-32.6061

> <Gold.PLP.part.repulsive>
0.1091

> <Gold.PLP.ligand.clash>
0.0000

> <Gold.PLP.ligand.torsion>
1.2764

> <Gold.PLP.Chemscore.Hbond>
1.7000

> <Gold.PLP.Chemscore.CHOScore>
0.0000

> <Gold.PLP.Chemscore.Metal>
0.0000

> <Gold.Chemscore.Hbonds>
donor molecule, donor type, donor heavy atom, donor atom, acceptor molecule, acceptor atom, score
      P1  H  7997  8009       L1    11  1.00
      P1  H 10752 10764       L1    24  0.75

> <Gold.PLP.Chemscore.Internal.Correction>
0.3176

> <Gold.Rescore>
     Score         DG    S(hbond)    S(metal)    S(lipo)     H(rot)  DE(clash)    DE(int)     intcor
     17.83     -22.05       1.07        0.00     136.63       1.16       0.30       3.92       ----

> <Gold.Chemscore.Fitness>
17.8312

> <Gold.Chemscore.DG>
-22.0493

> <Gold.Chemscore.ZeroCoef>
-5.4800

> <Gold.Chemscore.Hbond>
1.0653

> <Gold.Chemscore.Metal>
0.0000

> <Gold.Chemscore.Lipo>
136.6270

> <Gold.Chemscore.Internal_Hbond>
0.0000

> <Gold.Chemscore.DEClash>
0.2961

> <Gold.Chemscore.DEInternal>
3.9220

> <Gold.Chemscore.Rot>
1.1618

> <Gold.Chemscore.Internal.Correction>
   9.000000E+99

> <Gold.Chemscore.Hbonds>
donor molecule, donor type, donor heavy atom, donor atom, acceptor molecule, acceptor atom, score
      P1  H  7997  8009       L1    11  1.00
      P1  H 10752 10764       L1    24  0.04

> <Gold.Chemscore.Hbond.Weighted>
-3.5581

> <Gold.Chemscore.Metal.Weighted>
-0.0000

> <Gold.Chemscore.Lipo.Weighted>
-15.9854

> <Gold.Chemscore.Internal_Hbond.Weighted>
0.0000

> <Gold.Chemscore.DEClash.Weighted>
0.2961

> <Gold.Chemscore.DEInternal.Weighted>
3.9220

> <Gold.Chemscore.Rot.Weighted>
2.9741

> <Gold.Chemscore.Internal.Correction.Weighted>
   9.000000E+99

> <Gold.Protein.RotatedTorsions>
[ 6907 6896 6895 6894 ] final -156.44 input  -60.11 | X-H torsion
[ 7974 7965 7964 7962 ] final -176.66 input  175.53 | X-H torsion
[ 8008 7997 7996 7995 ] final   82.67 input   59.86 | X-H torsion
[ 10167 10162 10161 10158 ] final  -83.91 input  -65.29 | X-H torsion
[ 10718 10713 10712 10709 ] final  146.17 input   66.30 | X-H torsion
[ 10763 10752 10751 10750 ] final  132.40 input  -60.55 | X-H torsion
[ 11005 11000 10999 10996 ] final  112.16 input  -57.11 | X-H torsion

> <Gold.Protein.ActiveResidues>
 VAL166  LYS551  ARG553  GLY616  TRP617  ASP618  TYR619  PRO620  LYS621  CYS622 
 ASP623  PHE694  ASN695  SER759  ASP760  ASP761  ALA762  ILE779  LEU786  VAL792 
 PHE793  MET794  SER795  GLU796  ALA797  LYS798  CYS799  TRP800  GLU811  SER814 

> <Gold.Protein.RotatedAtoms>
  151.2877  133.4180  159.2630 H   0  0  0  0  0  0  0  0  0  0  0  0  # atno 6907 bound_to 6896
  151.0305  134.9536  159.8119 H   0  0  0  0  0  0  0  0  0  0  0  0  # atno 6908 bound_to 6896
  152.5344  134.2838  159.9070 H   0  0  0  0  0  0  0  0  0  0  0  0  # atno 6909 bound_to 6896
  144.7127  140.1136  143.6409 H   0  0  0  0  0  0  0  0  0  0  0  0  # atno 7974 bound_to 7965
  155.9137  140.3426  155.6118 H   0  0  0  0  0  0  0  0  0  0  0  0  # atno 8008 bound_to 7997
  155.7357  140.0801  157.2287 H   0  0  0  0  0  0  0  0  0  0  0  0  # atno 8009 bound_to 7997
  154.4059  140.1580  156.2546 H   0  0  0  0  0  0  0  0  0  0  0  0  # atno 8010 bound_to 7997
  140.4182  143.2595  151.8925 H   0  0  0  0  0  0  0  0  0  0  0  0  # atno 10167 bound_to 10162
  157.3364  131.0929  151.1119 H   0  0  0  0  0  0  0  0  0  0  0  0  # atno 10718 bound_to 10713
  153.7901  135.3156  155.3377 H   0  0  0  0  0  0  0  0  0  0  0  0  # atno 10763 bound_to 10752
  154.8129  135.4655  154.0567 H   0  0  0  0  0  0  0  0  0  0  0  0  # atno 10764 bound_to 10752
  153.1883  135.6904  153.8473 H   0  0  0  0  0  0  0  0  0  0  0  0  # atno 10765 bound_to 10752
  139.8920  134.9524  156.6542 H   0  0  0  0  0  0  0  0  0  0  0  0  # atno 11005 bound_to 11000
  145.9433  139.2683  143.1256 LP  0  0  0  0  0  0  0  0  0  0  0  0  # atno 17320 bound_to 7965
  145.9401  140.8986  143.0312 LP  0  0  0  0  0  0  0  0  0  0  0  0  # atno 17321 bound_to 7965
  139.4782  144.5465  151.8450 LP  0  0  0  0  0  0  0  0  0  0  0  0  # atno 17342 bound_to 10162
  140.4563  144.1785  150.5902 LP  0  0  0  0  0  0  0  0  0  0  0  0  # atno 17343 bound_to 10162
  157.2348  130.6542  149.5864 LP  0  0  0  0  0  0  0  0  0  0  0  0  # atno 17370 bound_to 10713
  155.9702  130.4587  150.6010 LP  0  0  0  0  0  0  0  0  0  0  0  0  # atno 17371 bound_to 10713
  140.7497  133.8908  155.8338 LP  0  0  0  0  0  0  0  0  0  0  0  0  # atno 17394 bound_to 11000
  141.0011  134.1149  157.4316 LP  0  0  0  0  0  0  0  0  0  0  0  0  # atno 17395 bound_to 11000

$$$$
