#       Name:                AV-unprocessed.smi:2859
#       Creating user name   scv26
#       Creation time:       Fri Mar 27 15:46:15 2020


#       File generated by GOLD software.
#

@<TRIPOS>MOLECULE
AV-unprocessed.smi:2859
    58    59     1
SMALL
NO_CHARGES


@<TRIPOS>ATOM
      1 ****        -1.4575  -3.8480  -1.0644 C.3            1 S1                 0.0000
      2 ****        -2.3125  -2.6420  -0.6147 C.3            1 S1                 0.0000
      3 ****        -3.2208  -2.2482  -1.7980 C.3            1 S1                 0.0000
      4 ****        -3.1757  -3.1022   0.5783 C.3            1 S1                 0.0000
      5 ****        -1.4541  -1.4356  -0.1974 C.ar           1 S1                 0.0000
      6 ****        -0.0387  -1.4330  -0.2305 C.ar           1 S1                 0.0000
      7 ****         0.6185  -0.2406   0.1630 C.ar           1 S1                 0.0000
      8 ****         2.0259  -0.1076   0.1684 N.3            1 S1                 0.0000
      9 ****         2.8388  -1.2735  -0.1644 C.3            1 S1                 0.0000
     10 ****         4.3071  -1.0337   0.2185 C.3            1 S1                 0.0000
     11 ****         4.7739   0.1606  -0.3964 O.3            1 S1                 0.0000
     12 ****         4.0584   1.3112   0.0526 C.3            1 S1                 0.0000
     13 ****         4.6950   2.5628  -0.5699 C.2            1 S1                 0.0000
     14 ****         6.0212   2.5564  -0.7336 N.am           1 S1                 0.0000
     15 ****         4.0089   3.5335  -0.8852 O.2            1 S1                 0.0000
     16 ****         2.5661   1.1615  -0.3211 C.3            1 S1                 0.0000
     17 ****        -0.1049   0.8316   0.5604 N.ar           1 S1                 0.0000
     18 ****        -1.4371   0.7294   0.6028 C.ar           1 S1                 0.0000
     19 ****        -2.2325   2.0082   0.9135 C.3            1 S1                 0.0000
     20 ****        -2.4922   2.7793  -0.3934 C.3            1 S1                 0.0000
     21 ****        -1.4645   2.9151   1.9042 C.3            1 S1                 0.0000
     22 ****        -3.5792   1.6707   1.5957 C.3            1 S1                 0.0000
     23 ****        -2.1348  -0.3398   0.2083 N.ar           1 S1                 0.0000
     24 ****        -2.0856  -4.6909  -1.3549 H              1 S1                 0.0000
     25 ****        -0.8036  -4.1988  -0.2650 H              1 S1                 0.0000
     26 ****        -0.8361  -3.6028  -1.9266 H              1 S1                 0.0000
     27 ****        -2.6326  -1.9113  -2.6524 H              1 S1                 0.0000
     28 ****        -3.9054  -1.4418  -1.5325 H              1 S1                 0.0000
     29 ****        -3.8300  -3.0899  -2.1293 H              1 S1                 0.0000
     30 ****        -3.7841  -3.9688   0.3177 H              1 S1                 0.0000
     31 ****        -3.8582  -2.3194   0.9111 H              1 S1                 0.0000
     32 ****        -2.5545  -3.3802   1.4306 H              1 S1                 0.0000
     33 ****         0.5144  -2.2972  -0.5596 H              1 S1                 0.0000
     34 ****         2.4808  -2.1529   0.3717 H              1 S1                 0.0000
     35 ****         2.7558  -1.4787  -1.2325 H              1 S1                 0.0000
     36 ****         4.4218  -0.9679   1.3016 H              1 S1                 0.0000
     37 ****         4.9223  -1.8691  -0.1161 H              1 S1                 0.0000
     38 ****         4.1599   1.3968   1.1359 H              1 S1                 0.0000
     39 ****         6.4798   3.3635  -1.1310 H              1 S1                 0.0000
     40 ****         6.5590   1.7501  -0.4515 H              1 S1                 0.0000
     41 ****         2.4394   1.1976  -1.4042 H              1 S1                 0.0000
     42 ****         2.0170   2.0078   0.0925 H              1 S1                 0.0000
     43 ****        -3.0540   3.6958  -0.2104 H              1 S1                 0.0000
     44 ****        -3.0643   2.1779  -1.1009 H              1 S1                 0.0000
     45 ****        -1.5567   3.0576  -0.8804 H              1 S1                 0.0000
     46 ****        -0.5210   3.2695   1.4870 H              1 S1                 0.0000
     47 ****        -1.2384   2.3878   2.8319 H              1 S1                 0.0000
     48 ****        -2.0451   3.8007   2.1641 H              1 S1                 0.0000
     49 ****        -4.1276   2.5753   1.8609 H              1 S1                 0.0000
     50 ****        -3.4275   1.0990   2.5121 H              1 S1                 0.0000
     51 ****        -4.2322   1.0864   0.9461 H              1 S1                 0.0000
     52 ****         2.1477  -0.0627   1.1600 LP             1 S1                 0.0000
     53 ****         4.6627   0.0780  -1.3867 LP             1 S1                 0.0000
     54 ****         5.7427   0.2780  -0.1783 LP             1 S1                 0.0000
     55 ****         3.0200   3.5160  -0.7373 LP             1 S1                 0.0000
     56 ****         4.4399   4.3403  -1.2893 LP             1 S1                 0.0000
     57 ****         0.3487   1.6848   0.8177 LP             1 S1                 0.0000
     58 ****        -3.1348  -0.3299   0.2130 LP             1 S1                 0.0000
@<TRIPOS>BOND
    1    1    2 1     
    2    1   24 1     
    3    1   25 1     
    4    1   26 1     
    5    2    3 1     
    6    2    4 1     
    7    2    5 1     
    8    3   27 1     
    9    3   28 1     
   10    3   29 1     
   11    4   30 1     
   12    4   31 1     
   13    4   32 1     
   14    5   23 ar    
   15    5    6 ar    
   16    6    7 ar    
   17    6   33 1     
   18    7    8 1     
   19    7   17 ar    
   20    8   16 1     
   21    8    9 1     
   22    9   10 1     
   23    9   34 1     
   24    9   35 1     
   25   10   11 1     
   26   10   36 1     
   27   10   37 1     
   28   11   12 1     
   29   12   13 1     
   30   12   16 1     
   31   12   38 1     
   32   13   14 am    
   33   13   15 2     
   34   14   39 1     
   35   14   40 1     
   36   16   41 1     
   37   16   42 1     
   38   17   18 ar    
   39   18   19 1     
   40   18   23 ar    
   41   19   20 1     
   42   19   21 1     
   43   19   22 1     
   44   20   43 1     
   45   20   44 1     
   46   20   45 1     
   47   21   46 1     
   48   21   47 1     
   49   21   48 1     
   50   22   49 1     
   51   22   50 1     
   52   22   51 1     
   53    8   52 1     
   54   11   53 1     
   55   11   54 1     
   56   15   55 1     
   57   15   56 1     
   58   17   57 1     
   59   23   58 1     
@<TRIPOS>SUBSTRUCTURE
      1 S1             1
@<TRIPOS>SET
LONE_PAIRS      STATIC     ATOMS    <user>   **** ""
7 52 53 54 55 56 57 58
DONOR_HYDROGENS      STATIC     ATOMS    <user>   **** ""
2 39 40
ATOM$BLUE        STATIC     ATOMS    COLORGROUP SYSTEM
7 52 53 54 55 56 57 58
ATOM$RED        STATIC     ATOMS    COLORGROUP SYSTEM
2 39 40
