#       Name:                AV-unprocessed.smi:2052
#       Creating user name   scv26
#       Creation time:       Fri Mar 27 10:59:28 2020


#       File generated by GOLD software.
#

@<TRIPOS>MOLECULE
AV-unprocessed.smi:2052
    47    48     1
SMALL
NO_CHARGES


@<TRIPOS>ATOM
      1 ****        -3.4003  -1.7348   4.2798 C.3            1 S1                 0.0000
      2 ****        -3.8855  -2.3376   2.6397 S.3            1 S1                 0.0000
      3 ****        -2.8446  -1.2987   1.5718 C.3            1 S1                 0.0000
      4 ****        -3.3699  -1.3227   0.1276 C.3            1 S1                 0.0000
      5 ****        -1.3700  -1.7153   1.6278 C.2            1 S1                 0.0000
      6 ****        -0.9885  -2.7357   1.0536 O.2            1 S1                 0.0000
      7 ****        -0.5471  -0.9121   2.3201 N.am           1 S1                 0.0000
      8 ****         0.8944  -1.1032   2.4468 C.3            1 S1                 0.0000
      9 ****         1.6925  -0.7277   1.2046 C.ar           1 S1                 0.0000
     10 ****         2.9532  -1.3138   0.9796 C.ar           1 S1                 0.0000
     11 ****         3.6696  -0.9435  -0.1734 C.ar           1 S1                 0.0000
     12 ****         3.2088  -0.0546  -1.0778 N.ar           1 S1                 0.0000
     13 ****         1.9958   0.5166  -0.8753 C.ar           1 S1                 0.0000
     14 ****         1.5179   1.4364  -1.8334 N.3            1 S1                 0.0000
     15 ****         2.4534   1.9180  -2.8480 C.3            1 S1                 0.0000
     16 ****         1.8477   3.1073  -3.6123 C.3            1 S1                 0.0000
     17 ****         0.5880   2.7335  -4.1604 O.3            1 S1                 0.0000
     18 ****        -0.3440   2.3709  -3.1470 C.3            1 S1                 0.0000
     19 ****         0.1847   1.1579  -2.3624 C.3            1 S1                 0.0000
     20 ****         1.2143   0.2126   0.2644 C.ar           1 S1                 0.0000
     21 ****        -3.9807  -2.2417   5.0507 H              1 S1                 0.0000
     22 ****        -3.5809  -0.6630   4.3611 H              1 S1                 0.0000
     23 ****        -2.3436  -1.9266   4.4655 H              1 S1                 0.0000
     24 ****        -2.9326  -0.2734   1.9345 H              1 S1                 0.0000
     25 ****        -2.7489  -0.7139  -0.5310 H              1 S1                 0.0000
     26 ****        -4.3846  -0.9272   0.0770 H              1 S1                 0.0000
     27 ****        -3.3914  -2.3359  -0.2758 H              1 S1                 0.0000
     28 ****        -0.9409  -0.0964   2.7659 H              1 S1                 0.0000
     29 ****         1.2464  -0.4897   3.2763 H              1 S1                 0.0000
     30 ****         1.1031  -2.1395   2.7185 H              1 S1                 0.0000
     31 ****         3.3648  -2.0324   1.6731 H              1 S1                 0.0000
     32 ****         4.6393  -1.3733  -0.3759 H              1 S1                 0.0000
     33 ****         3.3902   2.2267  -2.3821 H              1 S1                 0.0000
     34 ****         2.6840   1.1078  -3.5411 H              1 S1                 0.0000
     35 ****         1.7294   3.9719  -2.9571 H              1 S1                 0.0000
     36 ****         2.5118   3.4102  -4.4218 H              1 S1                 0.0000
     37 ****        -0.5218   3.2168  -2.4809 H              1 S1                 0.0000
     38 ****        -1.2985   2.1280  -3.6138 H              1 S1                 0.0000
     39 ****         0.2418   0.2873  -3.0170 H              1 S1                 0.0000
     40 ****        -0.5228   0.9121  -1.5717 H              1 S1                 0.0000
     41 ****         0.2643   0.7006   0.4214 H              1 S1                 0.0000
     42 ****        -1.6418  -3.2983   0.5468 LP             1 S1                 0.0000
     43 ****        -0.0254  -3.0018   1.0940 LP             1 S1                 0.0000
     44 ****         3.7527   0.1790  -1.8839 LP             1 S1                 0.0000
     45 ****         1.4146   2.2374  -1.2438 LP             1 S1                 0.0000
     46 ****         0.7201   1.9537  -4.7725 LP             1 S1                 0.0000
     47 ****         0.2188   3.5050  -4.6784 LP             1 S1                 0.0000
@<TRIPOS>BOND
    1    1    2 1     
    2    1   21 1     
    3    1   22 1     
    4    1   23 1     
    5    2    3 1     
    6    3    4 1     
    7    3    5 1     
    8    3   24 1     
    9    4   25 1     
   10    4   26 1     
   11    4   27 1     
   12    5    6 2     
   13    5    7 am    
   14    7    8 1     
   15    7   28 1     
   16    8    9 1     
   17    8   29 1     
   18    8   30 1     
   19    9   20 ar    
   20    9   10 ar    
   21   10   11 ar    
   22   10   31 1     
   23   11   12 ar    
   24   11   32 1     
   25   12   13 ar    
   26   13   14 1     
   27   13   20 ar    
   28   14   19 1     
   29   14   15 1     
   30   15   16 1     
   31   15   33 1     
   32   15   34 1     
   33   16   17 1     
   34   16   35 1     
   35   16   36 1     
   36   17   18 1     
   37   18   19 1     
   38   18   37 1     
   39   18   38 1     
   40   19   39 1     
   41   19   40 1     
   42   20   41 1     
   43    6   42 1     
   44    6   43 1     
   45   12   44 1     
   46   14   45 1     
   47   17   46 1     
   48   17   47 1     
@<TRIPOS>SUBSTRUCTURE
      1 S1             1
@<TRIPOS>SET
LONE_PAIRS      STATIC     ATOMS    <user>   **** ""
6 42 43 44 45 46 47
DONOR_HYDROGENS      STATIC     ATOMS    <user>   **** ""
1 28
ATOM$BLUE        STATIC     ATOMS    COLORGROUP SYSTEM
6 42 43 44 45 46 47
ATOM$RED        STATIC     ATOMS    COLORGROUP SYSTEM
1 28
