AV-unprocessed.smi:3014|AV-procd|sdf|11468|dock6
  -GOLD-   2272016403D 1   1.00000     0.00000
 Structure written by MMmdl.
 45 46  0  0  0  0  0  0  0  0  1 V2000
  146.5200  138.7422  152.2559 C   0  0  0  0  0  0  0  0  0  0  0  0
  147.1650  139.5383  153.3994 C   0  0  2  0  0  0  0  0  0  0  0  0
  146.8121  141.0359  153.3112 C   0  0  0  0  0  0  0  0  0  0  0  0
  147.4643  141.8370  154.4491 C   0  0  0  0  0  0  0  0  0  0  0  0
  148.9865  141.6332  154.4683 C   0  0  0  0  0  0  0  0  0  0  0  0
  149.3466  140.1424  154.5775 C   0  0  2  0  0  0  0  0  0  0  0  0
  150.7677  140.0420  154.5134 O   0  0  0  0  0  0  0  0  0  0  0  0
  151.3436  138.8518  155.0470 C   0  0  0  0  0  0  0  0  0  0  0  0
  151.9549  139.1100  156.4287 C   0  0  0  0  0  0  0  0  0  0  0  0
  152.4511  138.1749  157.0574 O   0  0  0  0  0  0  0  0  0  0  0  0
  151.9044  140.3839  156.8603 N   0  0  0  0  0  0  0  0  0  0  0  0
  152.3950  140.9149  158.0818 C   0  0  0  0  0  0  0  0  0  0  0  0
  153.3703  140.1382  158.7433 C   0  0  0  0  0  0  0  0  0  0  0  0
  153.8762  140.6418  159.9571 C   0  0  0  0  0  0  0  0  0  0  0  0
  153.4522  141.8138  160.4719 N   0  0  0  0  0  0  0  0  0  0  0  0
  152.5235  142.4880  159.7827 C   0  0  0  0  0  0  0  0  0  0  0  0
  152.0804  143.7034  160.3123 N   0  0  0  0  0  0  0  0  0  0  0  0
  151.6312  144.7864  159.4415 C   0  0  0  0  0  0  0  0  0  0  0  0
  152.0567  143.9368  161.7533 C   0  0  0  0  0  0  0  0  0  0  0  0
  151.9856  142.0884  158.6230 N   0  0  0  0  0  0  0  0  0  0  0  0
  148.6940  139.3436  153.4302 C   0  0  0  0  0  0  0  0  0  0  0  0
  146.8783  139.0829  151.2838 H   0  0  0  0  0  0  0  0  0  0  0  0
  145.4351  138.8489  152.2666 H   0  0  0  0  0  0  0  0  0  0  0  0
  146.7468  137.6790  152.3402 H   0  0  0  0  0  0  0  0  0  0  0  0
  146.7600  139.1529  154.3365 H   0  0  0  0  0  0  0  0  0  0  0  0
  147.1407  141.4368  152.3513 H   0  0  0  0  0  0  0  0  0  0  0  0
  145.7300  141.1672  153.3458 H   0  0  0  0  0  0  0  0  0  0  0  0
  147.2326  142.8968  154.3385 H   0  0  0  0  0  0  0  0  0  0  0  0
  147.0420  141.5257  155.4054 H   0  0  0  0  0  0  0  0  0  0  0  0
  149.4215  142.0528  153.5602 H   0  0  0  0  0  0  0  0  0  0  0  0
  149.4231  142.1824  155.3032 H   0  0  0  0  0  0  0  0  0  0  0  0
  148.9715  139.7752  155.5339 H   0  0  0  0  0  0  0  0  0  0  0  0
  150.6163  138.0400  155.0797 H   0  0  0  0  0  0  0  0  0  0  0  0
  152.1426  138.5309  154.3786 H   0  0  0  0  0  0  0  0  0  0  0  0
  151.4650  141.0490  156.2410 H   0  0  0  0  0  0  0  0  0  0  0  0
  153.7191  139.1978  158.3420 H   0  0  0  0  0  0  0  0  0  0  0  0
  154.6246  140.1010  160.5173 H   0  0  0  0  0  0  0  0  0  0  0  0
  150.7749  144.4654  158.8473 H   0  0  0  0  0  0  0  0  0  0  0  0
  152.4296  145.0837  158.7607 H   0  0  0  0  0  0  0  0  0  0  0  0
  151.3320  145.6683  160.0077 H   0  0  0  0  0  0  0  0  0  0  0  0
  153.0625  143.8582  162.1669 H   0  0  0  0  0  0  0  0  0  0  0  0
  151.4223  143.2006  162.2480 H   0  0  0  0  0  0  0  0  0  0  0  0
  151.6712  144.9260  162.0004 H   0  0  0  0  0  0  0  0  0  0  0  0
  148.9199  138.2823  153.5334 H   0  0  0  0  0  0  0  0  0  0  0  0
  149.1234  139.6582  152.4778 H   0  0  0  0  0  0  0  0  0  0  0  0
  1  2  1  0  0  0  0
  1 22  1  0  0  0  0
  1 23  1  0  0  0  0
  1 24  1  0  0  0  0
  2 21  1  0  0  0  0
  2  3  1  0  0  0  0
  2 25  1  0  0  0  0
  3  4  1  0  0  0  0
  3 26  1  0  0  0  0
  3 27  1  0  0  0  0
  4  5  1  0  0  0  0
  4 28  1  0  0  0  0
  4 29  1  0  0  0  0
  5  6  1  0  0  0  0
  5 30  1  0  0  0  0
  5 31  1  0  0  0  0
  6  7  1  0  0  0  0
  6 21  1  0  0  0  0
  6 32  1  0  0  0  0
  7  8  1  0  0  0  0
  8  9  1  0  0  0  0
  8 33  1  0  0  0  0
  8 34  1  0  0  0  0
  9 10  2  0  0  0  0
  9 11  1  0  0  0  0
 11 12  1  0  0  0  0
 11 35  1  0  0  0  0
 12 20  1  0  0  0  0
 12 13  2  0  0  0  0
 13 14  1  0  0  0  0
 13 36  1  0  0  0  0
 14 15  2  0  0  0  0
 14 37  1  0  0  0  0
 15 16  1  0  0  0  0
 16 17  1  0  0  0  0
 16 20  2  0  0  0  0
 17 18  1  0  0  0  0
 17 19  1  0  0  0  0
 18 38  1  0  0  0  0
 18 39  1  0  0  0  0
 18 40  1  0  0  0  0
 19 41  1  0  0  0  0
 19 42  1  0  0  0  0
 19 43  1  0  0  0  0
 21 44  1  0  0  0  0
 21 45  1  0  0  0  0
M  END
> <s_m_source_file>
AV-unprocessed.smi

> <i_m_source_file_index>
3014

> <i_lp_mmshare_version>
43012

> <i_f3d_flags>
0

> <s_epik_input>
W0NIM11bQ0BASF0xW0NIMl1bQ0gyXVtDSDJdW0NASF0oW0NIMl0xKU9bQ0gyXUMoPU8pW05IXWMyW2NIXVtjSF1uYyhuMilOKFtDSDNdKVtDSDNd

> <s_epik_cmdline>
J2VwaWtfcHl0aG9uJywgJy1waCcsICc3LjAnLCAnLXRuJywgJzgnLCAnLW1hJywgJzIwMCcsICctbWV0YWxfYmluZGluZycsICctaW1hZScsICc8aW5maWxlLm1hZT4nLCAnLW9tYWUnLCAnPG91dGZpbGUubWFlPic=

> <r_lp_tautomer_probability>
1

> <r_epik_Ionization_Penalty>
0.000308195

> <r_epik_Ionization_Penalty_Charging>
0

> <r_epik_Ionization_Penalty_Neutral>
0.000308195

> <r_epik_State_Penalty>
-0

> <r_epik_Charging_Adjusted_Penalty>
0

> <i_epik_Tot_Q>
0

> <i_epik_Tot_abs_Q>
0

> <r_epik_Metal_State_Penalty>
-0

> <b_epik_Metal_Only>
0

> <s_lp_Force_Field>
OPLS_2005

> <r_lp_Energy>
8.92974

> <b_lp_Chiralities_Consistent>
1

> <s_lp_Variant>
AV-unprocessed.smi:3014-3

> <Gold.Version>
5.8.1

> <Gold.Id.Protein>
6NUR|6NUR_protein|mol2

> <Gold.PLP.Fitness>
45.4580

> <Gold.PLP.PLP>
-44.5399

> <Gold.PLP.part.hbond>
-1.0000

> <Gold.PLP.part.metal>
0.0000

> <Gold.PLP.part.buried>
-0.9974

> <Gold.PLP.part.nonpolar>
-42.1636

> <Gold.PLP.part.repulsive>
0.2013

> <Gold.PLP.ligand.clash>
0.1401

> <Gold.PLP.ligand.torsion>
0.9806

> <Gold.PLP.Chemscore.Hbond>
1.0000

> <Gold.PLP.Chemscore.CHOScore>
0.0000

> <Gold.PLP.Chemscore.Metal>
0.0000

> <Gold.Chemscore.Hbonds>
donor molecule, donor type, donor heavy atom, donor atom, acceptor molecule, acceptor atom, score
      P1  H  7989  7998       L1     7  1.00

> <Gold.PLP.Chemscore.Internal.Correction>
0.0193

> <Gold.Rescore>
     Score         DG    S(hbond)    S(metal)    S(lipo)     H(rot)  DE(clash)    DE(int)     intcor
     12.74     -16.34       0.91        0.00      98.24       1.43       1.37       2.23       ----

> <Gold.Chemscore.Fitness>
12.7401

> <Gold.Chemscore.DG>
-16.3370

> <Gold.Chemscore.ZeroCoef>
-5.4800

> <Gold.Chemscore.Hbond>
0.9059

> <Gold.Chemscore.Metal>
0.0000

> <Gold.Chemscore.Lipo>
98.2430

> <Gold.Chemscore.Internal_Hbond>
0.0000

> <Gold.Chemscore.DEClash>
1.3695

> <Gold.Chemscore.DEInternal>
2.2274

> <Gold.Chemscore.Rot>
1.4310

> <Gold.Chemscore.Internal.Correction>
   9.000000E+99

> <Gold.Chemscore.Hbonds>
donor molecule, donor type, donor heavy atom, donor atom, acceptor molecule, acceptor atom, score
      P1  H  7989  7998       L1     7  0.92

> <Gold.Chemscore.Hbond.Weighted>
-3.0258

> <Gold.Chemscore.Metal.Weighted>
-0.0000

> <Gold.Chemscore.Lipo.Weighted>
-11.4944

> <Gold.Chemscore.Internal_Hbond.Weighted>
0.0000

> <Gold.Chemscore.DEClash.Weighted>
1.3695

> <Gold.Chemscore.DEInternal.Weighted>
2.2274

> <Gold.Chemscore.Rot.Weighted>
3.6632

> <Gold.Chemscore.Internal.Correction.Weighted>
   9.000000E+99

> <Gold.Protein.RotatedTorsions>
[ 6907 6896 6895 6894 ] final -132.38 input  -60.11 | X-H torsion
[ 7974 7965 7964 7962 ] final   86.83 input  175.53 | X-H torsion
[ 8008 7997 7996 7995 ] final  -48.55 input   59.86 | X-H torsion
[ 10167 10162 10161 10158 ] final  178.18 input  -65.29 | X-H torsion
[ 10718 10713 10712 10709 ] final  -89.02 input   66.30 | X-H torsion
[ 10763 10752 10751 10750 ] final -124.93 input  -60.55 | X-H torsion
[ 11005 11000 10999 10996 ] final -137.64 input  -57.11 | X-H torsion

> <Gold.Protein.ActiveResidues>
 VAL166  LYS551  ARG553  GLY616  TRP617  ASP618  TYR619  PRO620  LYS621  CYS622 
 ASP623  PHE694  ASN695  SER759  ASP760  ASP761  ALA762  ILE779  LEU786  VAL792 
 PHE793  MET794  SER795  GLU796  ALA797  LYS798  CYS799  TRP800  GLU811  SER814 

> <Gold.Protein.RotatedAtoms>
  150.9618  133.6437  159.2752 H   0  0  0  0  0  0  0  0  0  0  0  0  # atno 6907 bound_to 6896
  151.3757  135.0929  159.9489 H   0  0  0  0  0  0  0  0  0  0  0  0  # atno 6908 bound_to 6896
  152.5150  133.9163  159.7567 H   0  0  0  0  0  0  0  0  0  0  0  0  # atno 6909 bound_to 6896
  145.5670  139.2309  143.2427 H   0  0  0  0  0  0  0  0  0  0  0  0  # atno 7974 bound_to 7965
  154.4030  140.1319  156.4357 H   0  0  0  0  0  0  0  0  0  0  0  0  # atno 8008 bound_to 7997
  155.7508  140.3488  155.5129 H   0  0  0  0  0  0  0  0  0  0  0  0  # atno 8009 bound_to 7997
  155.8951  140.1010  157.1380 H   0  0  0  0  0  0  0  0  0  0  0  0  # atno 8010 bound_to 7997
  139.5283  144.2711  152.0627 H   0  0  0  0  0  0  0  0  0  0  0  0  # atno 10167 bound_to 10162
  155.9984  130.4857  150.5108 H   0  0  0  0  0  0  0  0  0  0  0  0  # atno 10718 bound_to 10713
  154.8730  135.4047  154.3186 H   0  0  0  0  0  0  0  0  0  0  0  0  # atno 10763 bound_to 10752
  153.4018  135.7018  153.6426 H   0  0  0  0  0  0  0  0  0  0  0  0  # atno 10764 bound_to 10752
  153.5166  135.3696  155.2583 H   0  0  0  0  0  0  0  0  0  0  0  0  # atno 10765 bound_to 10752
  140.8692  134.2072  157.4661 H   0  0  0  0  0  0  0  0  0  0  0  0  # atno 11005 bound_to 11000
  146.1811  140.6496  142.9189 LP  0  0  0  0  0  0  0  0  0  0  0  0  # atno 17320 bound_to 7965
  144.7456  140.5058  143.6838 LP  0  0  0  0  0  0  0  0  0  0  0  0  # atno 17321 bound_to 7965
  140.2170  144.4505  150.6359 LP  0  0  0  0  0  0  0  0  0  0  0  0  # atno 17342 bound_to 10162
  140.6443  143.2210  151.6220 LP  0  0  0  0  0  0  0  0  0  0  0  0  # atno 17343 bound_to 10162
  157.3081  131.0658  151.2020 LP  0  0  0  0  0  0  0  0  0  0  0  0  # atno 17370 bound_to 10713
  157.2976  130.6827  149.6147 LP  0  0  0  0  0  0  0  0  0  0  0  0  # atno 17371 bound_to 10713
  139.8711  134.9766  156.4927 LP  0  0  0  0  0  0  0  0  0  0  0  0  # atno 17394 bound_to 11000
  140.8593  133.8072  155.9249 LP  0  0  0  0  0  0  0  0  0  0  0  0  # atno 17395 bound_to 11000

$$$$
