AV-unprocessed.smi:270|AV-procd|sdf|2046|dock5
  -GOLD-   2262021273D 1   1.00000     0.00000
 Structure written by MMmdl.
 54 57  0  0  0  0  0  0  0  0  1 V2000
  147.6272  141.1611  153.3728 C   0  0  0  0  0  0  0  0  0  0  0  0
  148.2934  140.4246  154.5481 C   0  0  1  0  0  0  0  0  0  0  0  0
  147.3085  140.0450  155.5080 O   0  0  0  0  0  0  0  0  0  0  0  0
  147.2684  138.6314  155.6248 C   0  0  0  0  0  0  0  0  0  0  0  0
  148.6981  138.2018  155.3274 C   0  0  0  0  0  0  0  0  0  0  0  0
  149.1017  139.1461  154.2043 C   0  0  1  0  0  0  0  0  0  0  0  0
  148.6642  138.5827  152.9778 O   0  0  0  0  0  0  0  0  0  0  0  0
  150.6338  139.3534  154.1330 C   0  0  0  0  0  0  0  0  0  0  0  0
  151.2564  139.5352  155.4346 N   0  0  0  0  0  0  0  0  0  0  0  0
  152.2496  138.7601  155.9887 C   0  0  0  0  0  0  0  0  0  0  0  0
  152.6387  139.1232  157.1797 N   0  0  0  0  0  0  0  0  0  0  0  0
  151.8634  140.2405  157.4683 C   0  0  0  0  0  0  0  0  0  0  0  0
  151.7785  141.1169  158.5893 C   0  0  0  0  0  0  0  0  0  0  0  0
  152.5808  140.9897  159.7604 N   0  0  0  0  0  0  0  0  0  0  0  0
  153.5235  142.0723  160.0028 C   0  0  0  0  0  0  0  0  0  0  0  0
  154.5561  140.9960  160.3512 C   0  0  0  0  0  0  0  0  0  0  0  0
  154.7581  140.8240  161.7455 O   0  0  0  0  0  0  0  0  0  0  0  0
  155.2570  139.5362  162.0715 C   0  0  0  0  0  0  0  0  0  0  0  0
  155.5484  139.4822  163.5755 C   0  0  0  0  0  0  0  0  0  0  0  0
  156.1175  140.4443  164.0932 O   0  0  0  0  0  0  0  0  0  0  0  0
  155.1656  138.3952  164.2857 N   0  0  0  0  0  0  0  0  0  0  0  0
  154.5283  137.2230  163.6790 C   0  0  0  0  0  0  0  0  0  0  0  0
  155.3938  138.3274  165.7314 C   0  0  0  0  0  0  0  0  0  0  0  0
  153.6034  139.9498  159.7713 C   0  0  0  0  0  0  0  0  0  0  0  0
  150.9003  142.1498  158.4788 N   0  0  0  0  0  0  0  0  0  0  0  0
  150.1433  142.3008  157.3882 C   0  0  0  0  0  0  0  0  0  0  0  0
  150.1075  141.5484  156.2883 N   0  0  0  0  0  0  0  0  0  0  0  0
  150.9973  140.5197  156.3722 C   0  0  0  0  0  0  0  0  0  0  0  0
  148.3591  141.4500  152.6186 H   0  0  0  0  0  0  0  0  0  0  0  0
  147.1331  142.0692  153.7180 H   0  0  0  0  0  0  0  0  0  0  0  0
  146.8710  140.5428  152.8885 H   0  0  0  0  0  0  0  0  0  0  0  0
  148.9437  141.1284  155.0681 H   0  0  0  0  0  0  0  0  0  0  0  0
  146.9298  138.3204  156.6132 H   0  0  0  0  0  0  0  0  0  0  0  0
  146.5791  138.2272  154.8819 H   0  0  0  0  0  0  0  0  0  0  0  0
  149.3133  138.3782  156.2110 H   0  0  0  0  0  0  0  0  0  0  0  0
  148.7840  137.1459  155.0676 H   0  0  0  0  0  0  0  0  0  0  0  0
  149.1125  137.7612  152.8468 H   0  0  0  0  0  0  0  0  0  0  0  0
  151.1071  138.4964  153.6520 H   0  0  0  0  0  0  0  0  0  0  0  0
  150.8710  140.2185  153.5124 H   0  0  0  0  0  0  0  0  0  0  0  0
  152.6749  137.9058  155.4823 H   0  0  0  0  0  0  0  0  0  0  0  0
  153.7828  142.6343  159.1043 H   0  0  0  0  0  0  0  0  0  0  0  0
  153.2337  142.7177  160.8324 H   0  0  0  0  0  0  0  0  0  0  0  0
  155.4839  141.0744  159.7821 H   0  0  0  0  0  0  0  0  0  0  0  0
  154.5115  138.7798  161.8198 H   0  0  0  0  0  0  0  0  0  0  0  0
  156.1561  139.2975  161.5022 H   0  0  0  0  0  0  0  0  0  0  0  0
  153.5336  137.4745  163.3097 H   0  0  0  0  0  0  0  0  0  0  0  0
  154.4146  136.4003  164.3852 H   0  0  0  0  0  0  0  0  0  0  0  0
  155.1183  136.8383  162.8468 H   0  0  0  0  0  0  0  0  0  0  0  0
  156.4409  138.1032  165.9367 H   0  0  0  0  0  0  0  0  0  0  0  0
  154.7865  137.5603  166.2124 H   0  0  0  0  0  0  0  0  0  0  0  0
  155.1468  139.2719  166.2189 H   0  0  0  0  0  0  0  0  0  0  0  0
  153.3755  139.1238  160.4454 H   0  0  0  0  0  0  0  0  0  0  0  0
  153.9124  139.6099  158.7817 H   0  0  0  0  0  0  0  0  0  0  0  0
  149.4711  143.1461  157.3994 H   0  0  0  0  0  0  0  0  0  0  0  0
  1  2  1  0  0  0  0
  1 29  1  0  0  0  0
  1 30  1  0  0  0  0
  1 31  1  0  0  0  0
  2  6  1  0  0  0  0
  2  3  1  0  0  0  0
  2 32  1  0  0  0  0
  3  4  1  0  0  0  0
  4  5  1  0  0  0  0
  4 33  1  0  0  0  0
  4 34  1  0  0  0  0
  5  6  1  0  0  0  0
  5 35  1  0  0  0  0
  5 36  1  0  0  0  0
  6  7  1  0  0  0  0
  6  8  1  0  0  0  0
  7 37  1  0  0  0  0
  8  9  1  0  0  0  0
  8 38  1  0  0  0  0
  8 39  1  0  0  0  0
  9 28  1  0  0  0  0
  9 10  1  0  0  0  0
 10 11  2  0  0  0  0
 10 40  1  0  0  0  0
 11 12  1  0  0  0  0
 12 28  2  0  0  0  0
 12 13  1  0  0  0  0
 13 14  1  0  0  0  0
 13 25  2  0  0  0  0
 14 24  1  0  0  0  0
 14 15  1  0  0  0  0
 15 16  1  0  0  0  0
 15 41  1  0  0  0  0
 15 42  1  0  0  0  0
 16 17  1  0  0  0  0
 16 24  1  0  0  0  0
 16 43  1  0  0  0  0
 17 18  1  0  0  0  0
 18 19  1  0  0  0  0
 18 44  1  0  0  0  0
 18 45  1  0  0  0  0
 19 20  2  0  0  0  0
 19 21  1  0  0  0  0
 21 22  1  0  0  0  0
 21 23  1  0  0  0  0
 22 46  1  0  0  0  0
 22 47  1  0  0  0  0
 22 48  1  0  0  0  0
 23 49  1  0  0  0  0
 23 50  1  0  0  0  0
 23 51  1  0  0  0  0
 24 52  1  0  0  0  0
 24 53  1  0  0  0  0
 25 26  1  0  0  0  0
 26 27  2  0  0  0  0
 26 54  1  0  0  0  0
 27 28  1  0  0  0  0
M  END
> <s_m_source_file>
AV-unprocessed.smi

> <i_m_source_file_index>
270

> <i_lp_mmshare_version>
43012

> <i_f3d_flags>
0

> <s_epik_input>
W0NIMl0xW0NIMl1PW0NAQEhdKFtDSDNdKVtDQEBdMShbT0hdKVtDSDJdbihbY0hdbjIpYyhjMjMpbltjSF1uYzNONFtDSDJdW0NIXShbQ0gyXTQpT1tDSDJdQyg9TylOKFtDSDNdKVtDSDNd

> <s_epik_cmdline>
J2VwaWtfcHl0aG9uJywgJy1waCcsICc3LjAnLCAnLXRuJywgJzgnLCAnLW1hJywgJzIwMCcsICctbWV0YWxfYmluZGluZycsICctaW1hZScsICc8aW5maWxlLm1hZT4nLCAnLW9tYWUnLCAnPG91dGZpbGUubWFlPic=

> <r_lp_tautomer_probability>
1

> <r_epik_Ionization_Penalty>
0.00375854

> <r_epik_Ionization_Penalty_Charging>
0

> <r_epik_Ionization_Penalty_Neutral>
0.00375854

> <r_epik_State_Penalty>
-0

> <r_epik_Charging_Adjusted_Penalty>
0

> <i_epik_Tot_Q>
0

> <i_epik_Tot_abs_Q>
0

> <r_epik_Metal_State_Penalty>
-0

> <b_epik_Metal_Only>
0

> <s_lp_Force_Field>
OPLS_2005

> <r_lp_Energy>
55.1289

> <b_lp_Chiralities_Consistent>
1

> <s_lp_Variant>
AV-unprocessed.smi:270-2

> <Gold.Version>
5.8.1

> <Gold.Id.Protein>
6NUR|6NUR_protein|mol2

> <Gold.PLP.Fitness>
53.4798

> <Gold.PLP.PLP>
-46.1052

> <Gold.PLP.part.hbond>
-5.0000

> <Gold.PLP.part.metal>
0.0000

> <Gold.PLP.part.buried>
-5.3122

> <Gold.PLP.part.nonpolar>
-36.2848

> <Gold.PLP.part.repulsive>
0.1212

> <Gold.PLP.ligand.clash>
0.0000

> <Gold.PLP.ligand.torsion>
0.5829

> <Gold.PLP.Chemscore.Hbond>
1.7360

> <Gold.PLP.Chemscore.CHOScore>
1.0000

> <Gold.PLP.Chemscore.Metal>
0.0000

> <Gold.Chemscore.Hbonds>
donor molecule, donor type, donor heavy atom, donor atom, acceptor molecule, acceptor atom, score
      L1  H     7    37       P1  7948  0.80
      P1  H  7997  8008       L1    11  0.81
      L1  C    26    54       P1  8028  1.00

> <Gold.PLP.Chemscore.Internal.Correction>
0.3323

> <Gold.Rescore>
     Score         DG    S(hbond)    S(metal)    S(lipo)     H(rot)  DE(clash)    DE(int)     intcor
      7.68     -11.37       1.45        0.00      77.30       3.12       0.23       3.45       ----

> <Gold.Chemscore.Fitness>
7.6772

> <Gold.Chemscore.DG>
-11.3653

> <Gold.Chemscore.ZeroCoef>
-5.4800

> <Gold.Chemscore.Hbond>
1.4482

> <Gold.Chemscore.Metal>
0.0000

> <Gold.Chemscore.Lipo>
77.3010

> <Gold.Chemscore.Internal_Hbond>
0.0000

> <Gold.Chemscore.DEClash>
0.2350

> <Gold.Chemscore.DEInternal>
3.4532

> <Gold.Chemscore.Rot>
3.1234

> <Gold.Chemscore.Internal.Correction>
   9.000000E+99

> <Gold.Chemscore.Hbonds>
donor molecule, donor type, donor heavy atom, donor atom, acceptor molecule, acceptor atom, score
      L1  H     7    37       P1  7948  0.79
      P1  H  7997  8008       L1    11  0.03

> <Gold.Chemscore.Hbond.Weighted>
-4.8370

> <Gold.Chemscore.Metal.Weighted>
-0.0000

> <Gold.Chemscore.Lipo.Weighted>
-9.0442

> <Gold.Chemscore.Internal_Hbond.Weighted>
0.0000

> <Gold.Chemscore.DEClash.Weighted>
0.2350

> <Gold.Chemscore.DEInternal.Weighted>
3.4532

> <Gold.Chemscore.Rot.Weighted>
7.9959

> <Gold.Chemscore.Internal.Correction.Weighted>
   9.000000E+99

> <Gold.Protein.RotatedTorsions>
[ 6907 6896 6895 6894 ] final  -93.66 input  -60.11 | X-H torsion
[ 7974 7965 7964 7962 ] final  -23.71 input  175.53 | X-H torsion
[ 8008 7997 7996 7995 ] final  -59.90 input   59.86 | X-H torsion
[ 10167 10162 10161 10158 ] final  -66.45 input  -65.29 | X-H torsion
[ 10718 10713 10712 10709 ] final  -73.98 input   66.30 | X-H torsion
[ 10763 10752 10751 10750 ] final  -66.68 input  -60.55 | X-H torsion
[ 11005 11000 10999 10996 ] final -113.82 input  -57.11 | X-H torsion

> <Gold.Protein.ActiveResidues>
 VAL166  LYS551  ARG553  GLY616  TRP617  ASP618  TYR619  PRO620  LYS621  CYS622 
 ASP623  PHE694  ASN695  SER759  ASP760  ASP761  ALA762  ILE779  LEU786  VAL792 
 PHE793  MET794  SER795  GLU796  ALA797  LYS798  CYS799  TRP800  GLU811  SER814 

> <Gold.Protein.RotatedAtoms>
  150.6927  134.1932  159.4293 H   0  0  0  0  0  0  0  0  0  0  0  0  # atno 6907 bound_to 6896
  151.9902  134.9981  160.0570 H   0  0  0  0  0  0  0  0  0  0  0  0  # atno 6908 bound_to 6896
  152.1674  133.4586  159.4929 H   0  0  0  0  0  0  0  0  0  0  0  0  # atno 6909 bound_to 6896
  146.1600  140.4652  142.8575 H   0  0  0  0  0  0  0  0  0  0  0  0  # atno 7974 bound_to 7965
  154.4373  140.1051  156.6189 H   0  0  0  0  0  0  0  0  0  0  0  0  # atno 8008 bound_to 7997
  155.5729  140.3489  155.4501 H   0  0  0  0  0  0  0  0  0  0  0  0  # atno 8009 bound_to 7997
  156.0376  140.1274  157.0180 H   0  0  0  0  0  0  0  0  0  0  0  0  # atno 8010 bound_to 7997
  140.5656  143.2314  151.6642 H   0  0  0  0  0  0  0  0  0  0  0  0  # atno 10167 bound_to 10162
  156.0260  130.4406  150.2823 H   0  0  0  0  0  0  0  0  0  0  0  0  # atno 10718 bound_to 10713
  154.3634  135.6111  153.5702 H   0  0  0  0  0  0  0  0  0  0  0  0  # atno 10763 bound_to 10752
  152.9792  135.5821  154.4606 H   0  0  0  0  0  0  0  0  0  0  0  0  # atno 10764 bound_to 10752
  154.4347  135.2848  155.1866 H   0  0  0  0  0  0  0  0  0  0  0  0  # atno 10765 bound_to 10752
  141.0590  133.9566  157.2701 H   0  0  0  0  0  0  0  0  0  0  0  0  # atno 11005 bound_to 11000
  144.8014  140.6219  143.6476 LP  0  0  0  0  0  0  0  0  0  0  0  0  # atno 17320 bound_to 7965
  145.4613  139.1512  143.3865 LP  0  0  0  0  0  0  0  0  0  0  0  0  # atno 17321 bound_to 7965
  139.5091  144.3588  152.0582 LP  0  0  0  0  0  0  0  0  0  0  0  0  # atno 17342 bound_to 10162
  140.2719  144.3955  150.6148 LP  0  0  0  0  0  0  0  0  0  0  0  0  # atno 17343 bound_to 10162
  157.0926  131.0174  151.3116 LP  0  0  0  0  0  0  0  0  0  0  0  0  # atno 17370 bound_to 10713
  157.4842  130.7783  149.7443 LP  0  0  0  0  0  0  0  0  0  0  0  0  # atno 17371 bound_to 10713
  139.9416  135.0190  156.8724 LP  0  0  0  0  0  0  0  0  0  0  0  0  # atno 17394 bound_to 11000
  140.5906  134.0265  155.7498 LP  0  0  0  0  0  0  0  0  0  0  0  0  # atno 17395 bound_to 11000

$$$$
