AV-unprocessed.smi:837|AV-procd|sdf|3900|dock8
  -GOLD-   22720 1363D 1   1.00000     0.00000
 Structure written by MMmdl.
 48 50  0  0  0  0  0  0  0  0  2 V2000
  150.3973  140.3679  158.3203 C   0  0  0  0  0  0  0  0  0  0  0  0
  151.6887  140.1869  159.1480 C   0  0  2  0  0  0  0  0  0  0  0  0
  152.4159  141.5364  159.3329 C   0  0  0  0  0  0  0  0  0  0  0  0
  153.6400  141.4039  160.2511 C   0  0  0  0  0  0  0  0  0  0  0  0
  154.6152  140.3419  159.7265 C   0  0  0  0  0  0  0  0  0  0  0  0
  153.9145  138.9851  159.5359 C   0  0  0  0  0  0  0  0  0  0  0  0
  152.6632  139.0814  158.6245 C   0  0  2  0  0  0  0  0  0  0  0  0
  153.0636  139.3226  157.2469 N   0  5  0  0  0  0  0  0  0  0  0  0
  152.6779  138.2721  156.4866 C   0  0  0  0  0  0  0  0  0  0  0  0
  152.8441  138.1421  155.2742 O   0  0  0  0  0  0  0  0  0  0  0  0
  152.0583  137.3366  157.2313 N   0  0  0  0  0  0  0  0  0  0  0  0
  151.4944  136.0863  156.7056 C   0  0  0  0  0  0  0  0  0  0  0  0
  149.9645  136.0344  156.8108 C   0  0  0  0  0  0  0  0  0  0  0  0
  149.2599  136.7574  156.1051 O   0  0  0  0  0  0  0  0  0  0  0  0
  149.4645  135.1877  157.7230 N   0  0  0  0  0  0  0  0  0  0  0  0
  148.0440  134.9943  157.9964 C   0  0  0  0  0  0  0  0  0  0  0  0
  147.7981  134.1340  159.2499 C   0  0  0  0  0  0  0  0  0  0  0  0
  147.7159  134.9483  160.5294 C   0  0  0  0  0  0  0  0  0  0  0  0
  147.4946  134.3246  161.7748 C   0  0  0  0  0  0  0  0  0  0  0  0
  147.4196  135.1260  162.9304 C   0  0  0  0  0  0  0  0  0  0  0  0
  147.5687  136.5203  162.7905 C   0  0  0  0  0  0  0  0  0  0  0  0
  147.7803  137.1281  161.6032 N   0  0  0  0  0  0  0  0  0  0  0  0
  147.8529  136.3524  160.5004 C   0  0  0  0  0  0  0  0  0  0  0  0
  151.9928  137.7190  158.5114 C   0  0  0  0  0  0  0  0  0  0  0  0
  151.4826  137.1090  159.4524 O   0  0  0  0  0  0  0  0  0  0  0  0
  150.6146  140.6850  157.3001 H   0  0  0  0  0  0  0  0  0  0  0  0
  149.7537  141.1258  158.7672 H   0  0  0  0  0  0  0  0  0  0  0  0
  149.8154  139.4480  158.2662 H   0  0  0  0  0  0  0  0  0  0  0  0
  151.3646  139.8770  160.1432 H   0  0  0  0  0  0  0  0  0  0  0  0
  152.7265  141.9269  158.3628 H   0  0  0  0  0  0  0  0  0  0  0  0
  151.7311  142.2737  159.7526 H   0  0  0  0  0  0  0  0  0  0  0  0
  154.1476  142.3652  160.3329 H   0  0  0  0  0  0  0  0  0  0  0  0
  153.3155  141.1379  161.2578 H   0  0  0  0  0  0  0  0  0  0  0  0
  155.0424  140.6730  158.7792 H   0  0  0  0  0  0  0  0  0  0  0  0
  155.4511  140.2324  160.4176 H   0  0  0  0  0  0  0  0  0  0  0  0
  154.6268  138.2596  159.1388 H   0  0  0  0  0  0  0  0  0  0  0  0
  153.6216  138.6086  160.5174 H   0  0  0  0  0  0  0  0  0  0  0  0
  151.8008  135.9561  155.6662 H   0  0  0  0  0  0  0  0  0  0  0  0
  151.9025  135.2288  157.2428 H   0  0  0  0  0  0  0  0  0  0  0  0
  150.1143  134.6366  158.2647 H   0  0  0  0  0  0  0  0  0  0  0  0
  147.5423  135.9583  158.0934 H   0  0  0  0  0  0  0  0  0  0  0  0
  147.6040  134.5068  157.1261 H   0  0  0  0  0  0  0  0  0  0  0  0
  146.8767  133.5621  159.1306 H   0  0  0  0  0  0  0  0  0  0  0  0
  148.5974  133.3993  159.3523 H   0  0  0  0  0  0  0  0  0  0  0  0
  147.3801  133.2526  161.8447 H   0  0  0  0  0  0  0  0  0  0  0  0
  147.2502  134.6831  163.9007 H   0  0  0  0  0  0  0  0  0  0  0  0
  147.5150  137.1647  163.6555 H   0  0  0  0  0  0  0  0  0  0  0  0
  148.0205  136.8678  159.5662 H   0  0  0  0  0  0  0  0  0  0  0  0
  1  2  1  0  0  0  0
  1 26  1  0  0  0  0
  1 27  1  0  0  0  0
  1 28  1  0  0  0  0
  2  7  1  0  0  0  0
  2  3  1  0  0  0  0
  2 29  1  0  0  0  0
  3  4  1  0  0  0  0
  3 30  1  0  0  0  0
  3 31  1  0  0  0  0
  4  5  1  0  0  0  0
  4 32  1  0  0  0  0
  4 33  1  0  0  0  0
  5  6  1  0  0  0  0
  5 34  1  0  0  0  0
  5 35  1  0  0  0  0
  6  7  1  0  0  0  0
  6 36  1  0  0  0  0
  6 37  1  0  0  0  0
  7 24  1  0  0  0  0
  7  8  1  0  0  0  0
  8  9  1  0  0  0  0
  9 10  2  0  0  0  0
  9 11  1  0  0  0  0
 11 12  1  0  0  0  0
 11 24  1  0  0  0  0
 12 13  1  0  0  0  0
 12 38  1  0  0  0  0
 12 39  1  0  0  0  0
 13 14  2  0  0  0  0
 13 15  1  0  0  0  0
 15 16  1  0  0  0  0
 15 40  1  0  0  0  0
 16 17  1  0  0  0  0
 16 41  1  0  0  0  0
 16 42  1  0  0  0  0
 17 18  1  0  0  0  0
 17 43  1  0  0  0  0
 17 44  1  0  0  0  0
 18 23  1  0  0  0  0
 18 19  2  0  0  0  0
 19 20  1  0  0  0  0
 19 45  1  0  0  0  0
 20 21  2  0  0  0  0
 20 46  1  0  0  0  0
 21 22  1  0  0  0  0
 21 47  1  0  0  0  0
 22 23  2  0  0  0  0
 23 48  1  0  0  0  0
 24 25  2  0  0  0  0
M  CHG  1   8  -1
M  END
> <s_m_source_file>
AV-unprocessed.smi

> <i_m_source_file_index>
837

> <i_lp_mmshare_version>
43012

> <i_f3d_flags>
0

> <s_epik_input>
W0NIMl0xW0NIMl1bQ0gyXVtDSDJdW0NAQEhdKFtDSDNdKVtDQEBdMTJbTkhdQyg9TylOKEMyPU8pW0NIMl1DKD1PKVtOSF1bQ0gyXVtDSDJdYzNbY0hdW2NIXVtjSF1uW2NIXTM=

> <s_epik_cmdline>
J2VwaWtfcHl0aG9uJywgJy1waCcsICc3LjAnLCAnLXRuJywgJzgnLCAnLW1hJywgJzIwMCcsICctbWV0YWxfYmluZGluZycsICctaW1hZScsICc8aW5maWxlLm1hZT4nLCAnLW9tYWUnLCAnPG91dGZpbGUubWFlPic=

> <r_lp_tautomer_probability>
1

> <r_epik_Ionization_Penalty>
6.03002

> <r_epik_Ionization_Penalty_Charging>
6.01728

> <r_epik_Ionization_Penalty_Neutral>
0.0127382

> <r_epik_State_Penalty>
6.02713

> <r_epik_Charging_Adjusted_Penalty>
12.0444

> <i_epik_Tot_Q>
-1

> <i_epik_Tot_abs_Q>
1

> <r_epik_Metal_State_Penalty>
1.99078

> <b_epik_Metal_Only>
1

> <s_lp_Force_Field>
OPLS_2005

> <r_lp_Energy>
20.4671

> <b_lp_Chiralities_Consistent>
1

> <s_lp_Variant>
AV-unprocessed.smi:837-9

> <Gold.Version>
5.8.1

> <Gold.Id.Protein>
6NUR|6NUR_protein|mol2

> <Gold.PLP.Fitness>
54.8516

> <Gold.PLP.PLP>
-41.2894

> <Gold.PLP.part.hbond>
-4.5880

> <Gold.PLP.part.metal>
0.0000

> <Gold.PLP.part.buried>
-5.8187

> <Gold.PLP.part.nonpolar>
-31.2797

> <Gold.PLP.part.repulsive>
0.3519

> <Gold.PLP.ligand.clash>
0.0000

> <Gold.PLP.ligand.torsion>
0.3576

> <Gold.PLP.Chemscore.Hbond>
4.7520

> <Gold.PLP.Chemscore.CHOScore>
0.0000

> <Gold.PLP.Chemscore.Metal>
0.0000

> <Gold.Chemscore.Hbonds>
donor molecule, donor type, donor heavy atom, donor atom, acceptor molecule, acceptor atom, score
      P1  H  6896  6907       L1    25  1.00
      P1  H  6931  6943       L1    22  1.00
      P1  H  6934  6947       L1    22  0.61
      P1  H  7997  8009       L1     8  2.00

> <Gold.PLP.Chemscore.Internal.Correction>
0.0215

> <Gold.Rescore>
     Score         DG    S(hbond)    S(metal)    S(lipo)     H(rot)  DE(clash)    DE(int)     intcor
     22.57     -23.20       3.41        0.00      93.55       1.81       0.14       0.48       ----

> <Gold.Chemscore.Fitness>
22.5703

> <Gold.Chemscore.DG>
-23.1956

> <Gold.Chemscore.ZeroCoef>
-5.4800

> <Gold.Chemscore.Hbond>
3.4137

> <Gold.Chemscore.Metal>
0.0000

> <Gold.Chemscore.Lipo>
93.5460

> <Gold.Chemscore.Internal_Hbond>
0.0000

> <Gold.Chemscore.DEClash>
0.1407

> <Gold.Chemscore.DEInternal>
0.4846

> <Gold.Chemscore.Rot>
1.8090

> <Gold.Chemscore.Internal.Correction>
   9.000000E+99

> <Gold.Chemscore.Hbonds>
donor molecule, donor type, donor heavy atom, donor atom, acceptor molecule, acceptor atom, score
      P1  H  6896  6907       L1    25  0.94
      P1  H  6931  6943       L1    22  0.42
      P1  H  6934  6947       L1    22  0.33
      P1  H  7997  8009       L1     8  0.94

> <Gold.Chemscore.Hbond.Weighted>
-11.4018

> <Gold.Chemscore.Metal.Weighted>
-0.0000

> <Gold.Chemscore.Lipo.Weighted>
-10.9449

> <Gold.Chemscore.Internal_Hbond.Weighted>
0.0000

> <Gold.Chemscore.DEClash.Weighted>
0.1407

> <Gold.Chemscore.DEInternal.Weighted>
0.4846

> <Gold.Chemscore.Rot.Weighted>
4.6310

> <Gold.Chemscore.Internal.Correction.Weighted>
   9.000000E+99

> <Gold.Protein.RotatedTorsions>
[ 6907 6896 6895 6894 ] final  -14.17 input  -60.11 | X-H torsion
[ 7974 7965 7964 7962 ] final  -42.43 input  175.53 | X-H torsion
[ 8008 7997 7996 7995 ] final  160.50 input   59.86 | X-H torsion
[ 10167 10162 10161 10158 ] final   26.39 input  -65.29 | X-H torsion
[ 10718 10713 10712 10709 ] final  171.92 input   66.30 | X-H torsion
[ 10763 10752 10751 10750 ] final -152.06 input  -60.55 | X-H torsion
[ 11005 11000 10999 10996 ] final   21.05 input  -57.11 | X-H torsion

> <Gold.Protein.ActiveResidues>
 VAL166  LYS551  ARG553  GLY616  TRP617  ASP618  TYR619  PRO620  LYS621  CYS622 
 ASP623  PHE694  ASN695  SER759  ASP760  ASP761  ALA762  ILE779  LEU786  VAL792 
 PHE793  MET794  SER795  GLU796  ALA797  LYS798  CYS799  TRP800  GLU811  SER814 

> <Gold.Protein.RotatedAtoms>
  151.3435  135.0869  159.9378 H   0  0  0  0  0  0  0  0  0  0  0  0  # atno 6907 bound_to 6896
  152.5205  133.9423  159.7643 H   0  0  0  0  0  0  0  0  0  0  0  0  # atno 6908 bound_to 6896
  150.9785  133.6216  159.2756 H   0  0  0  0  0  0  0  0  0  0  0  0  # atno 6909 bound_to 6896
  146.0117  140.6956  142.9221 H   0  0  0  0  0  0  0  0  0  0  0  0  # atno 7974 bound_to 7965
  156.2168  140.1802  156.7571 H   0  0  0  0  0  0  0  0  0  0  0  0  # atno 8008 bound_to 7997
  154.5803  140.0667  156.9123 H   0  0  0  0  0  0  0  0  0  0  0  0  # atno 8009 bound_to 7997
  155.2514  140.3329  155.4284 H   0  0  0  0  0  0  0  0  0  0  0  0  # atno 8010 bound_to 7997
  140.5026  144.0290  150.6339 H   0  0  0  0  0  0  0  0  0  0  0  0  # atno 10167 bound_to 10162
  156.9865  131.0135  151.2868 H   0  0  0  0  0  0  0  0  0  0  0  0  # atno 10718 bound_to 10713
  154.8018  135.3245  154.7531 H   0  0  0  0  0  0  0  0  0  0  0  0  # atno 10763 bound_to 10752
  153.8197  135.6888  153.4833 H   0  0  0  0  0  0  0  0  0  0  0  0  # atno 10764 bound_to 10752
  153.1739  135.4612  154.9883 H   0  0  0  0  0  0  0  0  0  0  0  0  # atno 10765 bound_to 10752
  140.3958  134.1770  155.7663 H   0  0  0  0  0  0  0  0  0  0  0  0  # atno 11005 bound_to 11000
  144.6955  140.3410  143.7199 LP  0  0  0  0  0  0  0  0  0  0  0  0  # atno 17320 bound_to 7965
  145.7332  139.1742  143.2418 LP  0  0  0  0  0  0  0  0  0  0  0  0  # atno 17321 bound_to 7965
  140.3590  143.2919  152.0404 LP  0  0  0  0  0  0  0  0  0  0  0  0  # atno 17342 bound_to 10162
  139.4876  144.6317  151.7056 LP  0  0  0  0  0  0  0  0  0  0  0  0  # atno 17343 bound_to 10162
  157.5489  130.8169  149.8120 LP  0  0  0  0  0  0  0  0  0  0  0  0  # atno 17370 bound_to 10713
  156.0224  130.3791  150.1923 LP  0  0  0  0  0  0  0  0  0  0  0  0  # atno 17371 bound_to 10713
  141.1874  133.8281  157.1032 LP  0  0  0  0  0  0  0  0  0  0  0  0  # atno 17394 bound_to 11000
  140.0372  134.9872  157.0894 LP  0  0  0  0  0  0  0  0  0  0  0  0  # atno 17395 bound_to 11000

$$$$
