#       Name:                AV-unprocessed.smi:1005
#       Creating user name   scv26
#       Creation time:       Fri Mar 27 02:26:42 2020


#       File generated by GOLD software.
#

@<TRIPOS>MOLECULE
AV-unprocessed.smi:1005
    62    64     1
SMALL
NO_CHARGES


@<TRIPOS>ATOM
      1 ****         1.0661   6.0738  -1.2144 C.3            1 S1                 0.0000
      2 ****         0.0931   4.9540  -0.8903 C.ar           1 S1                 0.0000
      3 ****        -0.3947   4.1424  -1.9391 C.ar           1 S1                 0.0000
      4 ****        -1.2989   3.0894  -1.6797 C.ar           1 S1                 0.0000
      5 ****        -1.8916   2.1817  -2.5406 N.2            1 S1                 0.0000
      6 ****        -2.6246   1.4564  -1.7013 C.2            1 S1                 0.0000
      7 ****        -2.5701   1.7809  -0.3954 N.pl3          1 S1                 0.0000
      8 ****        -3.2682   1.1228   0.6945 C.3            1 S1                 0.0000
      9 ****        -2.6279  -0.2286   1.0625 C.3            1 S1                 0.0000
     10 ****        -3.4190  -0.8215   2.0709 O.3            1 S1                 0.0000
     11 ****        -1.1831  -0.0959   1.5958 C.3            1 S1                 0.0000
     12 ****        -0.3882  -1.3237   1.5586 N.3            1 S1                 0.0000
     13 ****         0.8195  -1.1827   2.3644 C.3            1 S1                 0.0000
     14 ****         1.6810  -2.4555   2.3343 C.3            1 S1                 0.0000
     15 ****         2.0087  -2.7732   0.9857 O.3            1 S1                 0.0000
     16 ****         0.8607  -2.9725   0.1644 C.3            1 S1                 0.0000
     17 ****         1.3437  -3.2939  -1.2608 C.3            1 S1                 0.0000
     18 ****         2.1022  -4.5685  -1.3319 N.4            1 S1                 1.0000
     19 ****         1.2373  -5.7697  -1.2826 C.3            1 S1                 0.0000
     20 ****         3.0195  -4.6074  -2.4921 C.3            1 S1                 0.0000
     21 ****        -0.0002  -1.6934   0.1976 C.3            1 S1                 0.0000
     22 ****        -1.7051   2.8682  -0.3311 C.ar           1 S1                 0.0000
     23 ****        -1.2275   3.6696   0.7209 C.ar           1 S1                 0.0000
     24 ****        -0.3259   4.7185   0.4439 C.ar           1 S1                 0.0000
     25 ****         0.1837   5.5778   1.5871 C.3            1 S1                 0.0000
     26 ****         1.3241   6.0839  -2.2739 H              1 S1                 0.0000
     27 ****         1.9897   5.9549  -0.6477 H              1 S1                 0.0000
     28 ****         0.6293   7.0416  -0.9669 H              1 S1                 0.0000
     29 ****        -0.0762   4.3212  -2.9556 H              1 S1                 0.0000
     30 ****        -3.2312   0.6352  -2.0544 H              1 S1                 0.0000
     31 ****        -3.2839   1.7882   1.5585 H              1 S1                 0.0000
     32 ****        -4.3066   0.9802   0.3919 H              1 S1                 0.0000
     33 ****        -2.6708  -0.8729   0.1856 H              1 S1                 0.0000
     34 ****        -3.0367  -1.6553   2.2986 H              1 S1                 0.0000
     35 ****        -0.6484   0.6719   1.0366 H              1 S1                 0.0000
     36 ****        -1.2327   0.2810   2.6186 H              1 S1                 0.0000
     37 ****         1.4099  -0.3392   2.0028 H              1 S1                 0.0000
     38 ****         0.5518  -0.9553   3.3970 H              1 S1                 0.0000
     39 ****         2.6008  -2.3049   2.8995 H              1 S1                 0.0000
     40 ****         1.1534  -3.2916   2.7959 H              1 S1                 0.0000
     41 ****         0.2725  -3.8003   0.5616 H              1 S1                 0.0000
     42 ****         0.5010  -3.3342  -1.9527 H              1 S1                 0.0000
     43 ****         1.9769  -2.4718  -1.5986 H              1 S1                 0.0000
     44 ****         0.5527  -5.7937  -2.1316 H              1 S1                 0.0000
     45 ****         0.6477  -5.8029  -0.3671 H              1 S1                 0.0000
     46 ****         1.8413  -6.6773  -1.3097 H              1 S1                 0.0000
     47 ****         2.4659  -4.5553  -3.4305 H              1 S1                 0.0000
     48 ****         3.6057  -5.5270  -2.4907 H              1 S1                 0.0000
     49 ****         3.7205  -3.7724  -2.4601 H              1 S1                 0.0000
     50 ****        -0.8821  -1.8553  -0.4200 H              1 S1                 0.0000
     51 ****         0.5524  -0.8728  -0.2631 H              1 S1                 0.0000
     52 ****        -1.5511   3.4774   1.7331 H              1 S1                 0.0000
     53 ****        -0.2884   5.3043   2.5312 H              1 S1                 0.0000
     54 ****        -0.0296   6.6306   1.4012 H              1 S1                 0.0000
     55 ****         1.2609   5.4567   1.7031 H              1 S1                 0.0000
     56 ****         2.6916  -4.5958  -0.5114 H              1 S1                 0.0000
     57 ****        -1.7942   2.0946  -3.5321 LP             1 S1                 0.0000
     58 ****        -4.3502  -0.9580   1.7329 LP             1 S1                 0.0000
     59 ****        -3.4401  -0.2285   2.8758 LP             1 S1                 0.0000
     60 ****        -0.9700  -2.0464   1.9316 LP             1 S1                 0.0000
     61 ****         2.5541  -3.6113   0.9794 LP             1 S1                 0.0000
     62 ****         2.5472  -2.0222   0.6034 LP             1 S1                 0.0000
@<TRIPOS>BOND
    1    1    2 1     
    2    1   26 1     
    3    1   27 1     
    4    1   28 1     
    5    2   24 ar    
    6    2    3 ar    
    7    3    4 ar    
    8    3   29 1     
    9    4   22 ar    
   10    4    5 1     
   11    5    6 2     
   12    6    7 1     
   13    6   30 1     
   14    7    8 1     
   15    7   22 1     
   16    8    9 1     
   17    8   31 1     
   18    8   32 1     
   19    9   10 1     
   20    9   11 1     
   21    9   33 1     
   22   10   34 1     
   23   11   12 1     
   24   11   35 1     
   25   11   36 1     
   26   12   21 1     
   27   12   13 1     
   28   13   14 1     
   29   13   37 1     
   30   13   38 1     
   31   14   15 1     
   32   14   39 1     
   33   14   40 1     
   34   15   16 1     
   35   16   17 1     
   36   16   21 1     
   37   16   41 1     
   38   17   18 1     
   39   17   42 1     
   40   17   43 1     
   41   18   19 1     
   42   18   20 1     
   43   18   56 1     
   44   19   44 1     
   45   19   45 1     
   46   19   46 1     
   47   20   47 1     
   48   20   48 1     
   49   20   49 1     
   50   21   50 1     
   51   21   51 1     
   52   22   23 ar    
   53   23   24 ar    
   54   23   52 1     
   55   24   25 1     
   56   25   53 1     
   57   25   54 1     
   58   25   55 1     
   59    5   57 1     
   60   10   58 1     
   61   10   59 1     
   62   12   60 1     
   63   15   61 1     
   64   15   62 1     
@<TRIPOS>SUBSTRUCTURE
      1 S1             1
@<TRIPOS>SET
LONE_PAIRS      STATIC     ATOMS    <user>   **** ""
6 57 58 59 60 61 62
DONOR_HYDROGENS      STATIC     ATOMS    <user>   **** ""
2 34 56
ATOM$BLUE        STATIC     ATOMS    COLORGROUP SYSTEM
6 57 58 59 60 61 62
ATOM$RED        STATIC     ATOMS    COLORGROUP SYSTEM
2 34 56
