AV-unprocessed.smi:841|AV-procd|sdf|3916|dock10
  -GOLD-   22720 1383D 1   1.00000     0.00000
 Structure written by MMmdl.
 30 31  0  0  0  0  0  0  0  0  1 V2000
  152.8393  139.7765  157.3985 O   0  0  0  0  0  0  0  0  0  0  0  0
  151.9073  140.5169  157.7127 C   0  0  0  0  0  0  0  0  0  0  0  0
  151.9391  141.2689  159.0458 C   0  0  0  0  0  0  0  0  0  0  0  0
  151.9031  142.7079  158.8474 N   0  0  0  0  0  0  0  0  0  0  0  0
  152.5395  143.6917  159.5763 C   0  0  0  0  0  0  0  0  0  0  0  0
  152.1987  144.8931  159.0241 C   0  0  0  0  0  0  0  0  0  0  0  0
  151.3340  144.5383  157.9513 C   0  0  0  0  0  0  0  0  0  0  0  0
  151.1562  143.2309  157.8503 N   0  0  0  0  0  0  0  0  0  0  0  0
  150.8296  140.7194  156.9384 N   0  0  0  0  0  0  0  0  0  0  0  0
  150.5953  140.1096  155.6331 C   0  0  0  0  0  0  0  0  0  0  0  0
  149.1237  140.2358  155.1960 C   0  0  1  0  0  0  0  0  0  0  0  0
  148.7705  141.5238  154.4768 C   0  0  0  0  0  0  0  0  0  0  0  0
  147.4717  141.1488  153.7693 C   0  0  0  0  0  0  0  0  0  0  0  0
  147.5612  139.7522  153.5008 O   0  0  0  0  0  0  0  0  0  0  0  0
  148.6995  139.2002  154.1554 C   0  0  0  0  0  0  0  0  0  0  0  0
  151.0865  140.9599  159.6527 H   0  0  0  0  0  0  0  0  0  0  0  0
  152.8401  141.0216  159.6092 H   0  0  0  0  0  0  0  0  0  0  0  0
  153.1759  143.4565  160.4168 H   0  0  0  0  0  0  0  0  0  0  0  0
  152.5169  145.8757  159.3393 H   0  0  0  0  0  0  0  0  0  0  0  0
  150.8315  145.1876  157.2496 H   0  0  0  0  0  0  0  0  0  0  0  0
  150.1160  141.3474  157.2790 H   0  0  0  0  0  0  0  0  0  0  0  0
  151.2593  140.5356  154.8789 H   0  0  0  0  0  0  0  0  0  0  0  0
  150.8613  139.0551  155.7098 H   0  0  0  0  0  0  0  0  0  0  0  0
  148.4758  140.1338  156.0684 H   0  0  0  0  0  0  0  0  0  0  0  0
  148.6545  142.3753  155.1479 H   0  0  0  0  0  0  0  0  0  0  0  0
  149.5373  141.7710  153.7413 H   0  0  0  0  0  0  0  0  0  0  0  0
  146.6173  141.3212  154.4249 H   0  0  0  0  0  0  0  0  0  0  0  0
  147.3175  141.7217  152.8549 H   0  0  0  0  0  0  0  0  0  0  0  0
  149.4846  139.0530  153.4125 H   0  0  0  0  0  0  0  0  0  0  0  0
  148.4699  138.2317  154.5999 H   0  0  0  0  0  0  0  0  0  0  0  0
  1  2  2  0  0  0  0
  2  3  1  0  0  0  0
  2  9  1  0  0  0  0
  3  4  1  0  0  0  0
  3 16  1  0  0  0  0
  3 17  1  0  0  0  0
  4  8  1  0  0  0  0
  4  5  1  0  0  0  0
  5  6  2  0  0  0  0
  5 18  1  0  0  0  0
  6  7  1  0  0  0  0
  6 19  1  0  0  0  0
  7  8  2  0  0  0  0
  7 20  1  0  0  0  0
  9 10  1  0  0  0  0
  9 21  1  0  0  0  0
 10 11  1  0  0  0  0
 10 22  1  0  0  0  0
 10 23  1  0  0  0  0
 11 15  1  0  0  0  0
 11 12  1  0  0  0  0
 11 24  1  0  0  0  0
 12 13  1  0  0  0  0
 12 25  1  0  0  0  0
 12 26  1  0  0  0  0
 13 14  1  0  0  0  0
 13 27  1  0  0  0  0
 13 28  1  0  0  0  0
 14 15  1  0  0  0  0
 15 29  1  0  0  0  0
 15 30  1  0  0  0  0
M  END
> <s_m_source_file>
AV-unprocessed.smi

> <i_m_source_file_index>
841

> <i_lp_mmshare_version>
43012

> <i_f3d_flags>
0

> <s_epik_input>
bjFbY0hdW2NIXVtjSF1uMVtDSDJdQyg9TylbTkhdW0NIMl1bQ0BASF0yW0NIMl1bQ0gyXU9bQ0gyXTI=

> <s_epik_cmdline>
J2VwaWtfcHl0aG9uJywgJy1waCcsICc3LjAnLCAnLXRuJywgJzgnLCAnLW1hJywgJzIwMCcsICctbWV0YWxfYmluZGluZycsICctaW1hZScsICc8aW5maWxlLm1hZT4nLCAnLW9tYWUnLCAnPG91dGZpbGUubWFlPic=

> <r_lp_tautomer_probability>
1

> <r_epik_Ionization_Penalty>
1.49823e-05

> <r_epik_Ionization_Penalty_Charging>
0

> <r_epik_Ionization_Penalty_Neutral>
1.49823e-05

> <r_epik_State_Penalty>
-0

> <r_epik_Charging_Adjusted_Penalty>
0

> <i_epik_Tot_Q>
0

> <i_epik_Tot_abs_Q>
0

> <r_epik_Metal_State_Penalty>
-0

> <b_epik_Metal_Only>
0

> <s_lp_Force_Field>
OPLS_2005

> <r_lp_Energy>
18.8738

> <b_lp_Chiralities_Consistent>
1

> <s_lp_Variant>
AV-unprocessed.smi:841-2

> <Gold.Version>
5.8.1

> <Gold.Id.Protein>
6NUR|6NUR_protein|mol2

> <Gold.PLP.Fitness>
37.0815

> <Gold.PLP.PLP>
-32.4776

> <Gold.PLP.part.hbond>
-1.0000

> <Gold.PLP.part.metal>
0.0000

> <Gold.PLP.part.buried>
-3.7034

> <Gold.PLP.part.nonpolar>
-28.9565

> <Gold.PLP.part.repulsive>
0.9428

> <Gold.PLP.ligand.clash>
0.0000

> <Gold.PLP.ligand.torsion>
0.7031

> <Gold.PLP.Chemscore.Hbond>
1.0000

> <Gold.PLP.Chemscore.CHOScore>
1.0000

> <Gold.PLP.Chemscore.Metal>
0.0000

> <Gold.Chemscore.Hbonds>
donor molecule, donor type, donor heavy atom, donor atom, acceptor molecule, acceptor atom, score
      P1  H  7997  8009       L1     1  1.00
      L1  C     7    20       P1  8028  1.00

> <Gold.PLP.Chemscore.Internal.Correction>
0.0100

> <Gold.Rescore>
     Score         DG    S(hbond)    S(metal)    S(lipo)     H(rot)  DE(clash)    DE(int)     intcor
     13.51     -14.20       0.99        0.00      83.08       1.68       0.01       0.68       ----

> <Gold.Chemscore.Fitness>
13.5067

> <Gold.Chemscore.DG>
-14.2023

> <Gold.Chemscore.ZeroCoef>
-5.4800

> <Gold.Chemscore.Hbond>
0.9867

> <Gold.Chemscore.Metal>
0.0000

> <Gold.Chemscore.Lipo>
83.0762

> <Gold.Chemscore.Internal_Hbond>
0.0000

> <Gold.Chemscore.DEClash>
0.0126

> <Gold.Chemscore.DEInternal>
0.6830

> <Gold.Chemscore.Rot>
1.6771

> <Gold.Chemscore.Internal.Correction>
   9.000000E+99

> <Gold.Chemscore.Hbonds>
donor molecule, donor type, donor heavy atom, donor atom, acceptor molecule, acceptor atom, score
      P1  H  7997  8009       L1     1  0.99

> <Gold.Chemscore.Hbond.Weighted>
-3.2957

> <Gold.Chemscore.Metal.Weighted>
-0.0000

> <Gold.Chemscore.Lipo.Weighted>
-9.7199

> <Gold.Chemscore.Internal_Hbond.Weighted>
0.0000

> <Gold.Chemscore.DEClash.Weighted>
0.0126

> <Gold.Chemscore.DEInternal.Weighted>
0.6830

> <Gold.Chemscore.Rot.Weighted>
4.2934

> <Gold.Chemscore.Internal.Correction.Weighted>
   9.000000E+99

> <Gold.Protein.RotatedTorsions>
[ 6907 6896 6895 6894 ] final -166.31 input  -60.11 | X-H torsion
[ 7974 7965 7964 7962 ] final -157.56 input  175.53 | X-H torsion
[ 8008 7997 7996 7995 ] final  163.72 input   59.86 | X-H torsion
[ 10167 10162 10161 10158 ] final  124.54 input  -65.29 | X-H torsion
[ 10718 10713 10712 10709 ] final  -28.62 input   66.30 | X-H torsion
[ 10763 10752 10751 10750 ] final  -71.29 input  -60.55 | X-H torsion
[ 11005 11000 10999 10996 ] final -111.60 input  -57.11 | X-H torsion

> <Gold.Protein.ActiveResidues>
 VAL166  LYS551  ARG553  GLY616  TRP617  ASP618  TYR619  PRO620  LYS621  CYS622 
 ASP623  PHE694  ASN695  SER759  ASP760  ASP761  ALA762  ILE779  LEU786  VAL792 
 PHE793  MET794  SER795  GLU796  ALA797  LYS798  CYS799  TRP800  GLU811  SER814 

> <Gold.Protein.RotatedAtoms>
  151.4416  133.3642  159.2782 H   0  0  0  0  0  0  0  0  0  0  0  0  # atno 6907 bound_to 6896
  150.9153  134.8572  159.7464 H   0  0  0  0  0  0  0  0  0  0  0  0  # atno 6908 bound_to 6896
  152.4954  134.4349  159.9576 H   0  0  0  0  0  0  0  0  0  0  0  0  # atno 6909 bound_to 6896
  144.7543  140.3951  143.6024 H   0  0  0  0  0  0  0  0  0  0  0  0  # atno 7974 bound_to 7965
  156.1935  140.1716  156.8045 H   0  0  0  0  0  0  0  0  0  0  0  0  # atno 8008 bound_to 7997
  154.5501  140.0719  156.8684 H   0  0  0  0  0  0  0  0  0  0  0  0  # atno 8009 bound_to 7997
  155.3046  140.3363  155.4248 H   0  0  0  0  0  0  0  0  0  0  0  0  # atno 8010 bound_to 7997
  139.5736  144.6952  151.3712 H   0  0  0  0  0  0  0  0  0  0  0  0  # atno 10167 bound_to 10162
  156.4229  130.4430  149.7171 H   0  0  0  0  0  0  0  0  0  0  0  0  # atno 10718 bound_to 10713
  154.4296  135.5967  153.6060 H   0  0  0  0  0  0  0  0  0  0  0  0  # atno 10763 bound_to 10752
  152.9798  135.5972  154.3855 H   0  0  0  0  0  0  0  0  0  0  0  0  # atno 10764 bound_to 10752
  154.3691  135.2841  155.2255 H   0  0  0  0  0  0  0  0  0  0  0  0  # atno 10765 bound_to 10752
  141.0724  133.9357  157.2457 H   0  0  0  0  0  0  0  0  0  0  0  0  # atno 11005 bound_to 11000
  145.6835  139.1623  143.2687 LP  0  0  0  0  0  0  0  0  0  0  0  0  # atno 17320 bound_to 7965
  146.1533  140.6894  142.9312 LP  0  0  0  0  0  0  0  0  0  0  0  0  # atno 17321 bound_to 7965
  140.7020  143.7609  150.7418 LP  0  0  0  0  0  0  0  0  0  0  0  0  # atno 17342 bound_to 10162
  140.1122  143.4689  152.2363 LP  0  0  0  0  0  0  0  0  0  0  0  0  # atno 17343 bound_to 10162
  156.4104  130.7719  151.2732 LP  0  0  0  0  0  0  0  0  0  0  0  0  # atno 17370 bound_to 10713
  157.7508  131.0213  150.3744 LP  0  0  0  0  0  0  0  0  0  0  0  0  # atno 17371 bound_to 10713
  139.9537  135.0170  156.9068 LP  0  0  0  0  0  0  0  0  0  0  0  0  # atno 17394 bound_to 11000
  140.5644  134.0503  155.7409 LP  0  0  0  0  0  0  0  0  0  0  0  0  # atno 17395 bound_to 11000

$$$$
