AV-unprocessed.smi:3245|AV-procd|sdf|12408|dock2
  -GOLD-   2272018283D 1   1.00000     0.00000
 Structure written by MMmdl.
 34 35  0  0  0  0  0  0  0  0  2 V2000
  154.3809  141.3564  162.2035 C   0  0  0  0  0  0  0  0  0  0  0  0
  153.7125  141.8897  160.9247 C   0  0  2  0  0  0  0  0  0  0  0  0
  152.6050  142.9306  161.2152 C   0  0  0  0  0  0  0  0  0  0  0  0
  152.0346  143.5029  160.0092 N   0  0  0  0  0  0  0  0  0  0  0  0
  152.6791  144.1756  158.9924 C   0  0  0  0  0  0  0  0  0  0  0  0
  151.7303  144.5364  158.0790 C   0  0  0  0  0  0  0  0  0  0  0  0
  150.5189  144.0390  158.6353 C   0  0  0  0  0  0  0  0  0  0  0  0
  150.7034  143.4243  159.7924 N   0  0  0  0  0  0  0  0  0  0  0  0
  153.1561  140.7453  160.2139 N   0  0  0  0  0  0  0  0  0  0  0  0
  152.7640  141.0775  158.8509 C   0  0  0  0  0  0  0  0  0  0  0  0
  152.3215  139.8093  158.0992 C   0  0  0  0  0  0  0  0  0  0  0  0
  151.4920  140.1211  156.9282 N   0  0  0  0  0  0  0  0  0  0  0  0
  150.3342  140.7868  156.9862 C   0  0  0  0  0  0  0  0  0  0  0  0
  149.7764  141.2483  157.9822 O   0  0  0  0  0  0  0  0  0  0  0  0
  149.7924  140.8844  155.5794 C   0  0  0  0  0  0  0  0  0  0  0  0
  150.8036  140.1954  154.8106 N   0  5  0  0  0  0  0  0  0  0  0  0
  151.7701  139.7691  155.6576 C   0  0  0  0  0  0  0  0  0  0  0  0
  152.7843  139.1407  155.3555 O   0  0  0  0  0  0  0  0  0  0  0  0
  154.8908  142.1509  162.7486 H   0  0  0  0  0  0  0  0  0  0  0  0
  155.1287  140.5979  161.9698 H   0  0  0  0  0  0  0  0  0  0  0  0
  153.6497  140.9074  162.8769 H   0  0  0  0  0  0  0  0  0  0  0  0
  154.4904  142.3440  160.3093 H   0  0  0  0  0  0  0  0  0  0  0  0
  151.7893  142.4907  161.7890 H   0  0  0  0  0  0  0  0  0  0  0  0
  153.0061  143.7445  161.8212 H   0  0  0  0  0  0  0  0  0  0  0  0
  153.7468  144.3379  159.0031 H   0  0  0  0  0  0  0  0  0  0  0  0
  151.8786  145.0753  157.1551 H   0  0  0  0  0  0  0  0  0  0  0  0
  149.5174  144.1077  158.2371 H   0  0  0  0  0  0  0  0  0  0  0  0
  153.8365  139.9995  160.1850 H   0  0  0  0  0  0  0  0  0  0  0  0
  151.9651  141.8179  158.8387 H   0  0  0  0  0  0  0  0  0  0  0  0
  153.6190  141.5201  158.3387 H   0  0  0  0  0  0  0  0  0  0  0  0
  153.2074  139.2691  157.7621 H   0  0  0  0  0  0  0  0  0  0  0  0
  151.8085  139.1247  158.7767 H   0  0  0  0  0  0  0  0  0  0  0  0
  148.8125  140.4091  155.5256 H   0  0  0  0  0  0  0  0  0  0  0  0
  149.6757  141.9316  155.2983 H   0  0  0  0  0  0  0  0  0  0  0  0
  1  2  1  0  0  0  0
  1 19  1  0  0  0  0
  1 20  1  0  0  0  0
  1 21  1  0  0  0  0
  2  3  1  0  0  0  0
  2  9  1  0  0  0  0
  2 22  1  0  0  0  0
  3  4  1  0  0  0  0
  3 23  1  0  0  0  0
  3 24  1  0  0  0  0
  4  8  1  0  0  0  0
  4  5  1  0  0  0  0
  5  6  2  0  0  0  0
  5 25  1  0  0  0  0
  6  7  1  0  0  0  0
  6 26  1  0  0  0  0
  7  8  2  0  0  0  0
  7 27  1  0  0  0  0
  9 10  1  0  0  0  0
  9 28  1  0  0  0  0
 10 11  1  0  0  0  0
 10 29  1  0  0  0  0
 10 30  1  0  0  0  0
 11 12  1  0  0  0  0
 11 31  1  0  0  0  0
 11 32  1  0  0  0  0
 12 17  1  0  0  0  0
 12 13  1  0  0  0  0
 13 14  2  0  0  0  0
 13 15  1  0  0  0  0
 15 16  1  0  0  0  0
 15 33  1  0  0  0  0
 15 34  1  0  0  0  0
 16 17  1  0  0  0  0
 17 18  2  0  0  0  0
M  CHG  1  16  -1
M  END
> <s_m_source_file>
AV-unprocessed.smi

> <i_m_source_file_index>
3245

> <i_lp_mmshare_version>
43012

> <i_f3d_flags>
0

> <s_epik_input>
bjFbY0hdW2NIXVtjSF1uMVtDSDJdW0NAQEhdKFtDSDNdKVtOSF1bQ0gyXVtDSDJdTjJDKD1PKVtDSDJdW05IXUMyPU8=

> <s_epik_cmdline>
J2VwaWtfcHl0aG9uJywgJy1waCcsICc3LjAnLCAnLXRuJywgJzgnLCAnLW1hJywgJzIwMCcsICctbWV0YWxfYmluZGluZycsICctaW1hZScsICc8aW5maWxlLm1hZT4nLCAnLW9tYWUnLCAnPG91dGZpbGUubWFlPic=

> <r_lp_tautomer_probability>
1

> <r_epik_Ionization_Penalty>
8.62027

> <r_epik_Ionization_Penalty_Charging>
6.28132

> <r_epik_Ionization_Penalty_Neutral>
2.33895

> <r_epik_State_Penalty>
8.57043

> <r_epik_Charging_Adjusted_Penalty>
14.8517

> <i_epik_Tot_Q>
-1

> <i_epik_Tot_abs_Q>
1

> <r_epik_Metal_State_Penalty>
4.56785

> <b_epik_Metal_Only>
1

> <s_lp_Force_Field>
OPLS_2005

> <r_lp_Energy>
21.0374

> <b_lp_Chiralities_Consistent>
1

> <s_lp_Variant>
AV-unprocessed.smi:3245-7

> <Gold.Version>
5.8.1

> <Gold.Id.Protein>
6NUR|6NUR_protein|mol2

> <Gold.PLP.Fitness>
50.6584

> <Gold.PLP.PLP>
-41.5132

> <Gold.PLP.part.hbond>
-2.2464

> <Gold.PLP.part.metal>
0.0000

> <Gold.PLP.part.buried>
-4.2088

> <Gold.PLP.part.nonpolar>
-35.6441

> <Gold.PLP.part.repulsive>
0.1830

> <Gold.PLP.ligand.clash>
0.0000

> <Gold.PLP.ligand.torsion>
0.1882

> <Gold.PLP.Chemscore.Hbond>
2.0000

> <Gold.PLP.Chemscore.CHOScore>
1.1094

> <Gold.PLP.Chemscore.Metal>
0.0000

> <Gold.Chemscore.Hbonds>
donor molecule, donor type, donor heavy atom, donor atom, acceptor molecule, acceptor atom, score
      P1  H  7989  7998       L1    16  1.00
      P1  H  7997  8010       L1    18  1.00
      L1  C     7    27       P1  8028  0.33
      L1  C     7    27       P1  8029  0.57

> <Gold.PLP.Chemscore.Internal.Correction>
0.1935

> <Gold.Rescore>
     Score         DG    S(hbond)    S(metal)    S(lipo)     H(rot)  DE(clash)    DE(int)     intcor
     14.10     -15.87       1.86        0.00      92.16       2.58       0.02       1.76       ----

> <Gold.Chemscore.Fitness>
14.1000

> <Gold.Chemscore.DG>
-15.8748

> <Gold.Chemscore.ZeroCoef>
-5.4800

> <Gold.Chemscore.Hbond>
1.8620

> <Gold.Chemscore.Metal>
0.0000

> <Gold.Chemscore.Lipo>
92.1646

> <Gold.Chemscore.Internal_Hbond>
0.0000

> <Gold.Chemscore.DEClash>
0.0156

> <Gold.Chemscore.DEInternal>
1.7593

> <Gold.Chemscore.Rot>
2.5811

> <Gold.Chemscore.Internal.Correction>
   9.000000E+99

> <Gold.Chemscore.Hbonds>
donor molecule, donor type, donor heavy atom, donor atom, acceptor molecule, acceptor atom, score
      P1  H  7989  7998       L1    16  0.50
      P1  H  7997  8010       L1    18  0.56

> <Gold.Chemscore.Hbond.Weighted>
-6.2191

> <Gold.Chemscore.Metal.Weighted>
-0.0000

> <Gold.Chemscore.Lipo.Weighted>
-10.7833

> <Gold.Chemscore.Internal_Hbond.Weighted>
0.0000

> <Gold.Chemscore.DEClash.Weighted>
0.0156

> <Gold.Chemscore.DEInternal.Weighted>
1.7593

> <Gold.Chemscore.Rot.Weighted>
6.6076

> <Gold.Chemscore.Internal.Correction.Weighted>
   9.000000E+99

> <Gold.Protein.RotatedTorsions>
[ 6907 6896 6895 6894 ] final  102.00 input  -60.11 | X-H torsion
[ 7974 7965 7964 7962 ] final   62.26 input  175.53 | X-H torsion
[ 8008 7997 7996 7995 ] final   88.01 input   59.86 | X-H torsion
[ 10167 10162 10161 10158 ] final  -45.25 input  -65.29 | X-H torsion
[ 10718 10713 10712 10709 ] final   41.19 input   66.30 | X-H torsion
[ 10763 10752 10751 10750 ] final -152.93 input  -60.55 | X-H torsion
[ 11005 11000 10999 10996 ] final  138.23 input  -57.11 | X-H torsion

> <Gold.Protein.ActiveResidues>
 VAL166  LYS551  ARG553  GLY616  TRP617  ASP618  TYR619  PRO620  LYS621  CYS622 
 ASP623  PHE694  ASN695  SER759  ASP760  ASP761  ALA762  ILE779  LEU786  VAL792 
 PHE793  MET794  SER795  GLU796  ALA797  LYS798  CYS799  TRP800  GLU811  SER814 

> <Gold.Protein.RotatedAtoms>
  152.5335  134.0041  159.7908 H   0  0  0  0  0  0  0  0  0  0  0  0  # atno 6907 bound_to 6896
  151.0255  133.5830  159.2673 H   0  0  0  0  0  0  0  0  0  0  0  0  # atno 6908 bound_to 6896
  151.2854  135.0733  159.9238 H   0  0  0  0  0  0  0  0  0  0  0  0  # atno 6909 bound_to 6896
  145.8754  139.3406  143.0737 H   0  0  0  0  0  0  0  0  0  0  0  0  # atno 7974 bound_to 7965
  155.9825  140.3376  155.6676 H   0  0  0  0  0  0  0  0  0  0  0  0  # atno 8008 bound_to 7997
  155.6529  140.0707  157.2598 H   0  0  0  0  0  0  0  0  0  0  0  0  # atno 8009 bound_to 7997
  154.4196  140.1722  156.1682 H   0  0  0  0  0  0  0  0  0  0  0  0  # atno 8010 bound_to 7997
  140.6865  143.2889  151.3613 H   0  0  0  0  0  0  0  0  0  0  0  0  # atno 10167 bound_to 10162
  157.3907  130.7805  149.7267 H   0  0  0  0  0  0  0  0  0  0  0  0  # atno 10718 bound_to 10713
  154.7961  135.3224  154.7662 H   0  0  0  0  0  0  0  0  0  0  0  0  # atno 10763 bound_to 10752
  153.8340  135.6877  153.4815 H   0  0  0  0  0  0  0  0  0  0  0  0  # atno 10764 bound_to 10752
  153.1654  135.4644  154.9771 H   0  0  0  0  0  0  0  0  0  0  0  0  # atno 10765 bound_to 10752
  140.0169  134.9414  157.0395 H   0  0  0  0  0  0  0  0  0  0  0  0  # atno 11005 bound_to 11000
  145.9087  140.9194  143.0465 LP  0  0  0  0  0  0  0  0  0  0  0  0  # atno 17320 bound_to 7965
  144.6726  140.1131  143.7454 LP  0  0  0  0  0  0  0  0  0  0  0  0  # atno 17321 bound_to 7965
  139.6228  144.0873  152.2407 LP  0  0  0  0  0  0  0  0  0  0  0  0  # atno 17342 bound_to 10162
  140.0322  144.6072  150.7478 LP  0  0  0  0  0  0  0  0  0  0  0  0  # atno 17343 bound_to 10162
  155.9798  130.4036  150.3568 LP  0  0  0  0  0  0  0  0  0  0  0  0  # atno 17370 bound_to 10713
  157.1683  131.0362  151.2807 LP  0  0  0  0  0  0  0  0  0  0  0  0  # atno 17371 bound_to 10713
  140.4455  134.1637  155.7177 LP  0  0  0  0  0  0  0  0  0  0  0  0  # atno 17394 bound_to 11000
  141.1749  133.8535  157.1454 LP  0  0  0  0  0  0  0  0  0  0  0  0  # atno 17395 bound_to 11000

$$$$
