#       Name:                AV-unprocessed.smi:765
#       Creating user name   scv26
#       Creation time:       Fri Mar 27 01:04:51 2020


#       File generated by GOLD software.
#

@<TRIPOS>MOLECULE
AV-unprocessed.smi:765
    43    44     1
SMALL
NO_CHARGES


@<TRIPOS>ATOM
      1 ****        -3.5163  -0.7910  -1.7635 C.3            1 S1                 0.0000
      2 ****        -3.0151  -0.3299  -0.3875 C.3            1 S1                 0.0000
      3 ****        -3.3504  -1.3601   0.7058 C.3            1 S1                 0.0000
      4 ****        -2.8345  -0.9116   2.0802 C.3            1 S1                 0.0000
      5 ****        -1.3247  -0.6271   2.0343 C.3            1 S1                 0.0000
      6 ****        -0.9576   0.4259   0.9652 C.3            1 S1                 0.0000
      7 ****        -1.5441   1.7289   1.3394 C.1            1 S1                 0.0000
      8 ****        -2.0042   2.7493   1.6333 N.1            1 S1                 0.0000
      9 ****         0.5039   0.4997   0.9174 N.am           1 S1                 0.0000
     10 ****         1.2482   1.3792   0.2257 C.2            1 S1                 0.0000
     11 ****         0.7675   2.2898  -0.4493 O.2            1 S1                 0.0000
     12 ****         2.7690   1.1758   0.3004 C.3            1 S1                 0.0000
     13 ****         3.5636   2.4502  -0.0397 C.3            1 S1                 0.0000
     14 ****         3.1683   0.0668  -0.5566 N.pl3          1 S1                 0.0000
     15 ****         3.0255  -0.0673  -1.9245 C.2            1 S1                 0.0000
     16 ****         3.5463  -1.2802  -2.2732 C.2            1 S1                 0.0000
     17 ****         3.9940  -1.8231  -1.0369 C.2            1 S1                 0.0000
     18 ****         3.7668  -1.0162  -0.0131 N.2            1 S1                 0.0000
     19 ****        -1.4996  -0.0444  -0.4086 C.3            1 S1                 0.0000
     20 ****        -3.0369  -1.7217  -2.0690 H              1 S1                 0.0000
     21 ****        -3.3078  -0.0424  -2.5285 H              1 S1                 0.0000
     22 ****        -4.5935  -0.9592  -1.7527 H              1 S1                 0.0000
     23 ****        -3.5341   0.5986  -0.1466 H              1 S1                 0.0000
     24 ****        -4.4283  -1.5178   0.7536 H              1 S1                 0.0000
     25 ****        -2.9091  -2.3248   0.4508 H              1 S1                 0.0000
     26 ****        -3.3730  -0.0201   2.4034 H              1 S1                 0.0000
     27 ****        -3.0435  -1.6823   2.8226 H              1 S1                 0.0000
     28 ****        -0.9876  -0.2952   3.0173 H              1 S1                 0.0000
     29 ****        -0.7968  -1.5605   1.8313 H              1 S1                 0.0000
     30 ****         0.9994  -0.2073   1.4409 H              1 S1                 0.0000
     31 ****         3.0068   0.9104   1.3327 H              1 S1                 0.0000
     32 ****         3.2790   3.2782   0.6104 H              1 S1                 0.0000
     33 ****         3.4036   2.7657  -1.0716 H              1 S1                 0.0000
     34 ****         4.6334   2.2854   0.0915 H              1 S1                 0.0000
     35 ****         2.5675   0.7028  -2.5281 H              1 S1                 0.0000
     36 ****         3.6000  -1.7129  -3.2611 H              1 S1                 0.0000
     37 ****         4.4738  -2.7733  -0.8538 H              1 S1                 0.0000
     38 ****        -0.9700  -0.9463  -0.7203 H              1 S1                 0.0000
     39 ****        -1.2897   0.7069  -1.1710 H              1 S1                 0.0000
     40 ****        -2.4018   3.6311   1.8872 LP             1 S1                 0.0000
     41 ****        -0.2247   2.4028  -0.5024 LP             1 S1                 0.0000
     42 ****         1.3693   2.9165  -0.9445 LP             1 S1                 0.0000
     43 ****         3.9887  -1.1729   0.9493 LP             1 S1                 0.0000
@<TRIPOS>BOND
    1    1    2 1     
    2    1   20 1     
    3    1   21 1     
    4    1   22 1     
    5    2   19 1     
    6    2    3 1     
    7    2   23 1     
    8    3    4 1     
    9    3   24 1     
   10    3   25 1     
   11    4    5 1     
   12    4   26 1     
   13    4   27 1     
   14    5    6 1     
   15    5   28 1     
   16    5   29 1     
   17    6    7 1     
   18    6    9 1     
   19    6   19 1     
   20    7    8 3     
   21    9   10 am    
   22    9   30 1     
   23   10   11 2     
   24   10   12 1     
   25   12   13 1     
   26   12   14 1     
   27   12   31 1     
   28   13   32 1     
   29   13   33 1     
   30   13   34 1     
   31   14   18 1     
   32   14   15 1     
   33   15   16 2     
   34   15   35 1     
   35   16   17 1     
   36   16   36 1     
   37   17   18 2     
   38   17   37 1     
   39   19   38 1     
   40   19   39 1     
   41    8   40 1     
   42   11   41 1     
   43   11   42 1     
   44   18   43 1     
@<TRIPOS>SUBSTRUCTURE
      1 S1             1
@<TRIPOS>SET
LONE_PAIRS      STATIC     ATOMS    <user>   **** ""
4 40 41 42 43
DONOR_HYDROGENS      STATIC     ATOMS    <user>   **** ""
1 30
ATOM$BLUE        STATIC     ATOMS    COLORGROUP SYSTEM
4 40 41 42 43
ATOM$RED        STATIC     ATOMS    COLORGROUP SYSTEM
1 30
