#       Name:                AV-unprocessed.smi:598
#       Creating user name   scv26
#       Creation time:       Thu Mar 26 23:53:34 2020


#       File generated by GOLD software.
#

@<TRIPOS>MOLECULE
AV-unprocessed.smi:598
    49    50     1
SMALL
NO_CHARGES


@<TRIPOS>ATOM
      1 ****        -4.3633  -0.1246   0.2379 C.3            1 S1                 0.0000
      2 ****        -3.7191  -1.3197  -0.4945 C.3            1 S1                 0.0000
      3 ****        -3.9894  -1.2673  -2.0118 C.3            1 S1                 0.0000
      4 ****        -3.1680  -0.1726  -2.7101 C.3            1 S1                 0.0000
      5 ****        -1.6684  -0.3487  -2.4366 C.3            1 S1                 0.0000
      6 ****        -1.3594  -0.3962  -0.9278 C.3            1 S1                 0.0000
      7 ****         0.0732  -0.6377  -0.7566 N.am           1 S1                 0.0000
      8 ****         0.9061   0.0728   0.0199 C.2            1 S1                 0.0000
      9 ****         0.5405   1.0175   0.7207 O.2            1 S1                 0.0000
     10 ****         2.3738  -0.3777   0.0130 C.3            1 S1                 0.0000
     11 ****         3.3054   0.6655   0.4746 N.am           1 S1                 0.0000
     12 ****         3.7284   0.5991   1.8170 C.2            1 S1                 0.0000
     13 ****         4.5751   1.5039   2.3464 C.2            1 S1                 0.0000
     14 ****         4.9982   1.4211   3.7271 N.pl3          1 S1                 1.0000
     15 ****         5.7928   2.2546   4.1498 O.2            1 S1                 0.0000
     16 ****         4.5529   0.5216   4.4336 O.2            1 S1                -1.0000
     17 ****         5.0489   2.5692   1.4841 C.2            1 S1                 0.0000
     18 ****         4.6461   2.6395   0.2000 C.2            1 S1                 0.0000
     19 ****         3.7249   1.6535  -0.3741 C.2            1 S1                 0.0000
     20 ****         3.3528   1.7125  -1.5462 O.2            1 S1                 0.0000
     21 ****        -2.2009  -1.4913  -0.2182 C.3            1 S1                 0.0000
     22 ****        -1.8922  -1.6160   1.2872 C.3            1 S1                 0.0000
     23 ****        -3.8941   0.8228  -0.0251 H              1 S1                 0.0000
     24 ****        -4.2983  -0.2355   1.3200 H              1 S1                 0.0000
     25 ****        -5.4224  -0.0442  -0.0081 H              1 S1                 0.0000
     26 ****        -4.2211  -2.2123  -0.1185 H              1 S1                 0.0000
     27 ****        -3.7409  -2.2333  -2.4535 H              1 S1                 0.0000
     28 ****        -5.0523  -1.1145  -2.2024 H              1 S1                 0.0000
     29 ****        -3.3523  -0.2014  -3.7844 H              1 S1                 0.0000
     30 ****        -3.4913   0.8121  -2.3719 H              1 S1                 0.0000
     31 ****        -1.3254  -1.2687  -2.9126 H              1 S1                 0.0000
     32 ****        -1.1139   0.4650  -2.9058 H              1 S1                 0.0000
     33 ****        -1.6207   0.5749  -0.5048 H              1 S1                 0.0000
     34 ****         0.4659  -1.4024  -1.2864 H              1 S1                 0.0000
     35 ****         2.4569  -1.2701   0.6351 H              1 S1                 0.0000
     36 ****         2.6474  -0.7050  -0.9919 H              1 S1                 0.0000
     37 ****         3.3144  -0.2271   2.3771 H              1 S1                 0.0000
     38 ****         5.7278   3.3195   1.8615 H              1 S1                 0.0000
     39 ****         5.0102   3.4425  -0.4242 H              1 S1                 0.0000
     40 ****        -1.9170  -2.4466  -0.6632 H              1 S1                 0.0000
     41 ****        -2.0134  -0.6627   1.8020 H              1 S1                 0.0000
     42 ****        -0.8693  -1.9511   1.4582 H              1 S1                 0.0000
     43 ****        -2.5504  -2.3421   1.7652 H              1 S1                 0.0000
     44 ****        -0.4215   1.2902   0.7301 LP             1 S1                 0.0000
     45 ****         1.2058   1.5118   1.2802 LP             1 S1                 0.0000
     46 ****         6.1346   2.9724   3.5431 LP             1 S1                 0.0000
     47 ****         6.0989   2.2163   5.1010 LP             1 S1                 0.0000
     48 ****         2.7234   1.0239  -1.9063 LP             1 S1                 0.0000
     49 ****         3.6800   2.4491  -2.1382 LP             1 S1                 0.0000
@<TRIPOS>BOND
    1    1    2 1     
    2    1   23 1     
    3    1   24 1     
    4    1   25 1     
    5    2   21 1     
    6    2    3 1     
    7    2   26 1     
    8    3    4 1     
    9    3   27 1     
   10    3   28 1     
   11    4    5 1     
   12    4   29 1     
   13    4   30 1     
   14    5    6 1     
   15    5   31 1     
   16    5   32 1     
   17    6    7 1     
   18    6   21 1     
   19    6   33 1     
   20    7    8 am    
   21    7   34 1     
   22    8    9 2     
   23    8   10 1     
   24   10   11 1     
   25   10   35 1     
   26   10   36 1     
   27   11   19 am    
   28   11   12 1     
   29   12   13 2     
   30   12   37 1     
   31   13   14 1     
   32   13   17 1     
   33   14   15 2     
   34   14   16 1     
   35   17   18 2     
   36   17   38 1     
   37   18   19 1     
   38   18   39 1     
   39   19   20 2     
   40   21   22 1     
   41   21   40 1     
   42   22   41 1     
   43   22   42 1     
   44   22   43 1     
   45    9   44 1     
   46    9   45 1     
   47   15   46 1     
   48   15   47 1     
   49   20   48 1     
   50   20   49 1     
@<TRIPOS>SUBSTRUCTURE
      1 S1             1
@<TRIPOS>SET
LONE_PAIRS      STATIC     ATOMS    <user>   **** ""
7 44 45 46 47 16 48 49
DONOR_HYDROGENS      STATIC     ATOMS    <user>   **** ""
1 34
ATOM$BLUE        STATIC     ATOMS    COLORGROUP SYSTEM
7 44 45 46 47 16 48 49
ATOM$RED        STATIC     ATOMS    COLORGROUP SYSTEM
1 34
