#       Name:                AV-unprocessed.smi:1174
#       Creating user name   scv26
#       Creation time:       Fri Mar 27 03:53:41 2020


#       File generated by GOLD software.
#

@<TRIPOS>MOLECULE
AV-unprocessed.smi:1174
    46    47     1
SMALL
NO_CHARGES


@<TRIPOS>ATOM
      1 ****        -2.9282  -1.7703   2.3601 C.3            1 S1                 0.0000
      2 ****        -2.3955  -1.1252   1.0737 C.3            1 S1                 0.0000
      3 ****        -3.0037  -1.7887  -0.1813 C.3            1 S1                 0.0000
      4 ****        -2.6378  -1.1075  -1.4109 N.pl3          1 S1                 0.0000
      5 ****        -1.6933  -1.4757  -2.3461 C.2            1 S1                 0.0000
      6 ****        -1.6837  -0.5135  -3.3145 C.2            1 S1                 0.0000
      7 ****        -2.6754   0.4106  -2.8814 C.2            1 S1                 0.0000
      8 ****        -3.2475   0.0503  -1.7439 N.2            1 S1                 0.0000
      9 ****        -0.9366  -1.2297   1.0602 N.am           1 S1                 0.0000
     10 ****        -0.0858  -0.2792   0.6403 C.2            1 S1                 0.0000
     11 ****        -0.4579   0.8262   0.2463 O.2            1 S1                 0.0000
     12 ****         1.4082  -0.6536   0.6417 C.3            1 S1                 0.0000
     13 ****         2.0063  -0.6468  -0.7867 C.3            1 S1                 0.0000
     14 ****         2.3553   0.7661  -1.2959 C.3            1 S1                 0.0000
     15 ****         3.1834   1.5369  -0.2539 C.3            1 S1                 0.0000
     16 ****         2.4395   1.5861   1.0172 N.am           1 S1                 0.0000
     17 ****         1.9312   2.6960   1.6117 C.2            1 S1                 0.0000
     18 ****         2.1319   3.8419   0.9535 N.am           1 S1                 0.0000
     19 ****         1.3168   2.6807   2.6771 O.2            1 S1                 0.0000
     20 ****         2.2526   0.2407   1.5844 C.3            1 S1                 0.0000
     21 ****        -4.0134  -1.6840   2.4210 H              1 S1                 0.0000
     22 ****        -2.5107  -1.2868   3.2441 H              1 S1                 0.0000
     23 ****        -2.6754  -2.8302   2.4083 H              1 S1                 0.0000
     24 ****        -2.6925  -0.0749   1.0949 H              1 S1                 0.0000
     25 ****        -2.6905  -2.8312  -0.2532 H              1 S1                 0.0000
     26 ****        -4.0924  -1.7969  -0.1117 H              1 S1                 0.0000
     27 ****        -1.1052  -2.3752  -2.2387 H              1 S1                 0.0000
     28 ****        -1.0613  -0.4738  -4.1958 H              1 S1                 0.0000
     29 ****        -2.9938   1.3268  -3.3564 H              1 S1                 0.0000
     30 ****        -0.5441  -2.1069   1.3694 H              1 S1                 0.0000
     31 ****         1.4785  -1.6760   1.0170 H              1 S1                 0.0000
     32 ****         2.9159  -1.2485  -0.7829 H              1 S1                 0.0000
     33 ****         1.3309  -1.1366  -1.4897 H              1 S1                 0.0000
     34 ****         2.9092   0.6931  -2.2321 H              1 S1                 0.0000
     35 ****         1.4451   1.3209  -1.5248 H              1 S1                 0.0000
     36 ****         4.1334   1.0272  -0.0873 H              1 S1                 0.0000
     37 ****         3.4486   2.5158  -0.6522 H              1 S1                 0.0000
     38 ****         1.7886   4.7095   1.3378 H              1 S1                 0.0000
     39 ****         2.6330   3.8332   0.0772 H              1 S1                 0.0000
     40 ****         1.7982   0.2620   2.5763 H              1 S1                 0.0000
     41 ****         3.2340  -0.2118   1.7323 H              1 S1                 0.0000
     42 ****        -3.9694   0.5282  -1.2434 LP             1 S1                 0.0000
     43 ****        -1.4327   1.0488   0.2292 LP             1 S1                 0.0000
     44 ****         0.2146   1.5014  -0.0568 LP             1 S1                 0.0000
     45 ****         1.1676   1.8155   3.1559 LP             1 S1                 0.0000
     46 ****         0.9664   3.5334   3.0645 LP             1 S1                 0.0000
@<TRIPOS>BOND
    1    1    2 1     
    2    1   21 1     
    3    1   22 1     
    4    1   23 1     
    5    2    3 1     
    6    2    9 1     
    7    2   24 1     
    8    3    4 1     
    9    3   25 1     
   10    3   26 1     
   11    4    8 1     
   12    4    5 1     
   13    5    6 2     
   14    5   27 1     
   15    6    7 1     
   16    6   28 1     
   17    7    8 2     
   18    7   29 1     
   19    9   10 am    
   20    9   30 1     
   21   10   11 2     
   22   10   12 1     
   23   12   20 1     
   24   12   13 1     
   25   12   31 1     
   26   13   14 1     
   27   13   32 1     
   28   13   33 1     
   29   14   15 1     
   30   14   34 1     
   31   14   35 1     
   32   15   16 1     
   33   15   36 1     
   34   15   37 1     
   35   16   17 am    
   36   16   20 1     
   37   17   18 am    
   38   17   19 2     
   39   18   38 1     
   40   18   39 1     
   41   20   40 1     
   42   20   41 1     
   43    8   42 1     
   44   11   43 1     
   45   11   44 1     
   46   19   45 1     
   47   19   46 1     
@<TRIPOS>SUBSTRUCTURE
      1 S1             1
@<TRIPOS>SET
LONE_PAIRS      STATIC     ATOMS    <user>   **** ""
5 42 43 44 45 46
DONOR_HYDROGENS      STATIC     ATOMS    <user>   **** ""
3 30 38 39
ATOM$BLUE        STATIC     ATOMS    COLORGROUP SYSTEM
5 42 43 44 45 46
ATOM$RED        STATIC     ATOMS    COLORGROUP SYSTEM
3 30 38 39
