AV-unprocessed.smi:281|AV-procd|sdf|2104|dock3
  -GOLD-   2262021393D 1   1.00000     0.00000
 Structure written by MMmdl.
 55 59  0  0  0  0  0  0  0  0  1 V2000
  148.6684  141.9370  154.3979 C   0  0  0  0  0  0  0  0  0  0  0  0
  149.0881  140.5843  154.9810 C   0  0  1  0  0  0  0  0  0  0  0  0
  148.2931  139.4186  154.3733 C   0  0  0  0  0  0  0  0  0  0  0  0
  148.7933  138.1643  154.9120 N   0  0  0  0  0  0  0  0  0  0  0  0
  148.0442  137.0888  154.5940 C   0  0  0  0  0  0  0  0  0  0  0  0
  148.4796  135.8837  155.0346 N   0  0  0  0  0  0  0  0  0  0  0  0
  147.7876  134.7779  154.7437 C   0  0  0  0  0  0  0  0  0  0  0  0
  146.6609  134.6587  154.0374 N   0  0  0  0  0  0  0  0  0  0  0  0
  146.2227  135.8717  153.5923 C   0  0  0  0  0  0  0  0  0  0  0  0
  146.8452  137.1295  153.8279 C   0  0  0  0  0  0  0  0  0  0  0  0
  146.1086  138.1434  153.2276 N   0  0  0  0  0  0  0  0  0  0  0  0
  145.1096  137.5198  152.6652 C   0  0  0  0  0  0  0  0  0  0  0  0
  145.1065  136.1518  152.8235 N   0  0  0  0  0  0  0  0  0  0  0  0
  144.1290  135.2133  152.2945 C   0  0  0  0  0  0  0  0  0  0  0  0
  144.6362  134.4304  151.0606 C   0  0  2  0  0  0  0  0  0  0  0  0
  144.6434  135.2907  149.9346 O   0  0  0  0  0  0  0  0  0  0  0  0
  143.8033  133.1958  150.7216 C   0  0  0  0  0  0  0  0  0  0  0  0
  144.8386  132.2214  150.1779 C   0  0  0  0  0  0  0  0  0  0  0  0
  145.9511  132.4555  151.0236 O   0  0  0  0  0  0  0  0  0  0  0  0
  146.0561  133.8578  151.2445 C   0  0  0  0  0  0  0  0  0  0  0  0
  150.2166  137.9818  154.6671 C   0  0  0  0  0  0  0  0  0  0  0  0
  151.0328  139.1783  155.2169 C   0  0  2  0  0  0  0  0  0  0  0  0
  152.4802  139.0852  154.7623 C   0  0  0  0  0  0  0  0  0  0  0  0
  153.0911  138.1253  155.7766 C   0  0  0  0  0  0  0  0  0  0  0  0
  152.3624  138.3271  156.9831 O   0  0  0  0  0  0  0  0  0  0  0  0
  151.2097  139.1372  156.7526 C   0  0  1  0  0  0  0  0  0  0  0  0
  151.5142  140.4972  157.4099 C   0  0  0  0  0  0  0  0  0  0  0  0
  150.4813  140.4023  154.7186 O   0  0  0  0  0  0  0  0  0  0  0  0
  147.6118  142.1334  154.5816 H   0  0  0  0  0  0  0  0  0  0  0  0
  148.8343  141.9708  153.3205 H   0  0  0  0  0  0  0  0  0  0  0  0
  149.2406  142.7482  154.8488 H   0  0  0  0  0  0  0  0  0  0  0  0
  148.9137  140.6046  156.0567 H   0  0  0  0  0  0  0  0  0  0  0  0
  147.2323  139.5251  154.6049 H   0  0  0  0  0  0  0  0  0  0  0  0
  148.3912  139.4237  153.2870 H   0  0  0  0  0  0  0  0  0  0  0  0
  148.1966  133.8558  155.1295 H   0  0  0  0  0  0  0  0  0  0  0  0
  144.3462  138.0446  152.1097 H   0  0  0  0  0  0  0  0  0  0  0  0
  143.8458  134.5233  153.0906 H   0  0  0  0  0  0  0  0  0  0  0  0
  143.2271  135.7717  152.0395 H   0  0  0  0  0  0  0  0  0  0  0  0
  145.3093  134.9934  149.3337 H   0  0  0  0  0  0  0  0  0  0  0  0
  143.3714  132.7710  151.6285 H   0  0  0  0  0  0  0  0  0  0  0  0
  142.9868  133.3903  150.0247 H   0  0  0  0  0  0  0  0  0  0  0  0
  144.5079  131.1835  150.2239 H   0  0  0  0  0  0  0  0  0  0  0  0
  145.0999  132.4589  149.1457 H   0  0  0  0  0  0  0  0  0  0  0  0
  146.7644  134.2821  150.5307 H   0  0  0  0  0  0  0  0  0  0  0  0
  146.4542  134.0381  152.2435 H   0  0  0  0  0  0  0  0  0  0  0  0
  150.5505  137.0466  155.1187 H   0  0  0  0  0  0  0  0  0  0  0  0
  150.3818  137.8922  153.5928 H   0  0  0  0  0  0  0  0  0  0  0  0
  152.5955  138.7470  153.7321 H   0  0  0  0  0  0  0  0  0  0  0  0
  152.9645  140.0592  154.8433 H   0  0  0  0  0  0  0  0  0  0  0  0
  152.9586  137.0913  155.4559 H   0  0  0  0  0  0  0  0  0  0  0  0
  154.1574  138.2991  155.9219 H   0  0  0  0  0  0  0  0  0  0  0  0
  150.3414  138.6934  157.2409 H   0  0  0  0  0  0  0  0  0  0  0  0
  150.6841  141.1949  157.3130 H   0  0  0  0  0  0  0  0  0  0  0  0
  152.3938  140.9700  156.9737 H   0  0  0  0  0  0  0  0  0  0  0  0
  151.7050  140.3724  158.4761 H   0  0  0  0  0  0  0  0  0  0  0  0
  1  2  1  0  0  0  0
  1 29  1  0  0  0  0
  1 30  1  0  0  0  0
  1 31  1  0  0  0  0
  2 28  1  0  0  0  0
  2  3  1  0  0  0  0
  2 32  1  0  0  0  0
  3  4  1  0  0  0  0
  3 33  1  0  0  0  0
  3 34  1  0  0  0  0
  4  5  1  0  0  0  0
  4 21  1  0  0  0  0
  5 10  1  0  0  0  0
  5  6  2  0  0  0  0
  6  7  1  0  0  0  0
  7  8  2  0  0  0  0
  7 35  1  0  0  0  0
  8  9  1  0  0  0  0
  9 13  1  0  0  0  0
  9 10  2  0  0  0  0
 10 11  1  0  0  0  0
 11 12  2  0  0  0  0
 12 13  1  0  0  0  0
 12 36  1  0  0  0  0
 13 14  1  0  0  0  0
 14 15  1  0  0  0  0
 14 37  1  0  0  0  0
 14 38  1  0  0  0  0
 15 20  1  0  0  0  0
 15 16  1  0  0  0  0
 15 17  1  0  0  0  0
 16 39  1  0  0  0  0
 17 18  1  0  0  0  0
 17 40  1  0  0  0  0
 17 41  1  0  0  0  0
 18 19  1  0  0  0  0
 18 42  1  0  0  0  0
 18 43  1  0  0  0  0
 19 20  1  0  0  0  0
 20 44  1  0  0  0  0
 20 45  1  0  0  0  0
 21 22  1  0  0  0  0
 21 46  1  0  0  0  0
 21 47  1  0  0  0  0
 22 26  1  0  0  0  0
 22 23  1  0  0  0  0
 22 28  1  0  0  0  0
 23 24  1  0  0  0  0
 23 48  1  0  0  0  0
 23 49  1  0  0  0  0
 24 25  1  0  0  0  0
 24 50  1  0  0  0  0
 24 51  1  0  0  0  0
 25 26  1  0  0  0  0
 26 27  1  0  0  0  0
 26 52  1  0  0  0  0
 27 53  1  0  0  0  0
 27 54  1  0  0  0  0
 27 55  1  0  0  0  0
M  END
> <s_m_source_file>
AV-unprocessed.smi

> <i_m_source_file_index>
281

> <i_lp_mmshare_version>
43012

> <i_f3d_flags>
0

> <s_epik_input>
W0NIM11bQ0BASF0xT1tDSDJdW0NIMl1bQ0BAXTEyW0NIMl1OKFtDSDJdW0NASF0oTzIpW0NIM10pYyhuW2NIXW4zKWMoYzM0KW5bY0hdbjRbQ0gyXVtDQEBdNShbT0hdKVtDSDJdW0NIMl1PW0NIMl01

> <s_epik_cmdline>
J2VwaWtfcHl0aG9uJywgJy1waCcsICc3LjAnLCAnLXRuJywgJzgnLCAnLW1hJywgJzIwMCcsICctbWV0YWxfYmluZGluZycsICctaW1hZScsICc8aW5maWxlLm1hZT4nLCAnLW9tYWUnLCAnPG91dGZpbGUubWFlPic=

> <r_lp_tautomer_probability>
1

> <r_epik_Ionization_Penalty>
0.00571331

> <r_epik_Ionization_Penalty_Charging>
0

> <r_epik_Ionization_Penalty_Neutral>
0.00571331

> <r_epik_State_Penalty>
0.00399586

> <r_epik_Charging_Adjusted_Penalty>
0.00399586

> <i_epik_Tot_Q>
0

> <i_epik_Tot_abs_Q>
0

> <r_epik_Metal_State_Penalty>
-0

> <b_epik_Metal_Only>
0

> <s_lp_Force_Field>
OPLS_2005

> <r_lp_Energy>
57.1517

> <b_lp_Chiralities_Consistent>
1

> <s_lp_Variant>
AV-unprocessed.smi:281-4

> <Gold.Version>
5.8.1

> <Gold.Id.Protein>
6NUR|6NUR_protein|mol2

> <Gold.PLP.Fitness>
45.0233

> <Gold.PLP.PLP>
-34.3099

> <Gold.PLP.part.hbond>
-2.0000

> <Gold.PLP.part.metal>
0.0000

> <Gold.PLP.part.buried>
-0.6468

> <Gold.PLP.part.nonpolar>
-31.8085

> <Gold.PLP.part.repulsive>
0.7385

> <Gold.PLP.ligand.clash>
0.0000

> <Gold.PLP.ligand.torsion>
0.5143

> <Gold.PLP.Chemscore.Hbond>
2.0000

> <Gold.PLP.Chemscore.CHOScore>
1.8723

> <Gold.PLP.Chemscore.Metal>
0.0000

> <Gold.Chemscore.Hbonds>
donor molecule, donor type, donor heavy atom, donor atom, acceptor molecule, acceptor atom, score
      L1  H    16    39       P1  7921  1.00
      P1  H  7989  7998       L1    28  1.00
      L1  C    12    36       P1 10171  1.00
      L1  C    12    36       P1 10175  0.93

> <Gold.PLP.Chemscore.Internal.Correction>
0.1252

> <Gold.Rescore>
     Score         DG    S(hbond)    S(metal)    S(lipo)     H(rot)  DE(clash)    DE(int)     intcor
     14.51     -16.80       1.87        0.00      89.12       2.09       0.28       2.01       ----

> <Gold.Chemscore.Fitness>
14.5116

> <Gold.Chemscore.DG>
-16.7962

> <Gold.Chemscore.ZeroCoef>
-5.4800

> <Gold.Chemscore.Hbond>
1.8700

> <Gold.Chemscore.Metal>
0.0000

> <Gold.Chemscore.Lipo>
89.1249

> <Gold.Chemscore.Internal_Hbond>
0.0000

> <Gold.Chemscore.DEClash>
0.2774

> <Gold.Chemscore.DEInternal>
2.0072

> <Gold.Chemscore.Rot>
2.0927

> <Gold.Chemscore.Internal.Correction>
   9.000000E+99

> <Gold.Chemscore.Hbonds>
donor molecule, donor type, donor heavy atom, donor atom, acceptor molecule, acceptor atom, score
      L1  H    16    39       P1  7921  0.98
      P1  H  7989  7998       L1    28  0.38

> <Gold.Chemscore.Hbond.Weighted>
-6.2459

> <Gold.Chemscore.Metal.Weighted>
-0.0000

> <Gold.Chemscore.Lipo.Weighted>
-10.4276

> <Gold.Chemscore.Internal_Hbond.Weighted>
0.0000

> <Gold.Chemscore.DEClash.Weighted>
0.2774

> <Gold.Chemscore.DEInternal.Weighted>
2.0072

> <Gold.Chemscore.Rot.Weighted>
5.3573

> <Gold.Chemscore.Internal.Correction.Weighted>
   9.000000E+99

> <Gold.Protein.RotatedTorsions>
[ 6907 6896 6895 6894 ] final   -3.26 input  -60.11 | X-H torsion
[ 7974 7965 7964 7962 ] final  136.35 input  175.53 | X-H torsion
[ 8008 7997 7996 7995 ] final   12.93 input   59.86 | X-H torsion
[ 10167 10162 10161 10158 ] final  -57.49 input  -65.29 | X-H torsion
[ 10718 10713 10712 10709 ] final  153.65 input   66.30 | X-H torsion
[ 10763 10752 10751 10750 ] final  -56.46 input  -60.55 | X-H torsion
[ 11005 11000 10999 10996 ] final -162.24 input  -57.11 | X-H torsion

> <Gold.Protein.ActiveResidues>
 VAL166  LYS551  ARG553  GLY616  TRP617  ASP618  TYR619  PRO620  LYS621  CYS622 
 ASP623  PHE694  ASN695  SER759  ASP760  ASP761  ALA762  ILE779  LEU786  VAL792 
 PHE793  MET794  SER795  GLU796  ALA797  LYS798  CYS799  TRP800  GLU811  SER814 

> <Gold.Protein.RotatedAtoms>
  151.5166  135.1066  159.9867 H   0  0  0  0  0  0  0  0  0  0  0  0  # atno 6907 bound_to 6896
  152.4638  133.7876  159.6895 H   0  0  0  0  0  0  0  0  0  0  0  0  # atno 6908 bound_to 6896
  150.8613  133.7576  159.3017 H   0  0  0  0  0  0  0  0  0  0  0  0  # atno 6909 bound_to 6896
  144.9574  139.4749  143.5496 H   0  0  0  0  0  0  0  0  0  0  0  0  # atno 7974 bound_to 7965
  154.8274  140.2894  155.5745 H   0  0  0  0  0  0  0  0  0  0  0  0  # atno 8008 bound_to 7997
  156.3003  140.2538  156.3123 H   0  0  0  0  0  0  0  0  0  0  0  0  # atno 8009 bound_to 7997
  154.9270  140.0384  157.2017 H   0  0  0  0  0  0  0  0  0  0  0  0  # atno 8010 bound_to 7997
  140.6255  143.2436  151.5375 H   0  0  0  0  0  0  0  0  0  0  0  0  # atno 10167 bound_to 10162
  157.2419  131.0761  151.1786 H   0  0  0  0  0  0  0  0  0  0  0  0  # atno 10718 bound_to 10713
  154.2070  135.6401  153.5104 H   0  0  0  0  0  0  0  0  0  0  0  0  # atno 10763 bound_to 10752
  152.9998  135.5465  154.6256 H   0  0  0  0  0  0  0  0  0  0  0  0  # atno 10764 bound_to 10752
  154.5683  135.2914  155.0826 H   0  0  0  0  0  0  0  0  0  0  0  0  # atno 10765 bound_to 10752
  140.6114  134.4845  157.5216 H   0  0  0  0  0  0  0  0  0  0  0  0  # atno 11005 bound_to 11000
  146.3341  139.8700  142.8841 LP  0  0  0  0  0  0  0  0  0  0  0  0  # atno 17320 bound_to 7965
  145.2752  141.0121  143.3749 LP  0  0  0  0  0  0  0  0  0  0  0  0  # atno 17321 bound_to 7965
  139.5476  144.2481  152.1471 LP  0  0  0  0  0  0  0  0  0  0  0  0  # atno 17342 bound_to 10162
  140.1711  144.4935  150.6579 LP  0  0  0  0  0  0  0  0  0  0  0  0  # atno 17343 bound_to 10162
  157.3369  130.7013  149.6358 LP  0  0  0  0  0  0  0  0  0  0  0  0  # atno 17370 bound_to 10713
  155.9669  130.4291  150.4818 LP  0  0  0  0  0  0  0  0  0  0  0  0  # atno 17371 bound_to 10713
  139.9190  134.8186  156.1271 LP  0  0  0  0  0  0  0  0  0  0  0  0  # atno 17394 bound_to 11000
  141.0805  133.6756  156.2326 LP  0  0  0  0  0  0  0  0  0  0  0  0  # atno 17395 bound_to 11000

$$$$
