AV-unprocessed.smi:281|AV-procd|sdf|2104|dock4
  -GOLD-   2262021393D 1   1.00000     0.00000
 Structure written by MMmdl.
 55 59  0  0  0  0  0  0  0  0  1 V2000
  148.3235  141.7274  154.1030 C   0  0  0  0  0  0  0  0  0  0  0  0
  148.7733  140.4404  154.8011 C   0  0  1  0  0  0  0  0  0  0  0  0
  148.0083  139.2080  154.2950 C   0  0  0  0  0  0  0  0  0  0  0  0
  148.5364  138.0171  154.9405 N   0  0  0  0  0  0  0  0  0  0  0  0
  147.8142  136.9005  154.7154 C   0  0  0  0  0  0  0  0  0  0  0  0
  148.1725  135.7875  155.3999 N   0  0  0  0  0  0  0  0  0  0  0  0
  147.5032  134.6458  155.2134 C   0  0  0  0  0  0  0  0  0  0  0  0
  146.4694  134.4060  154.4033 N   0  0  0  0  0  0  0  0  0  0  0  0
  146.1089  135.5260  153.7127 C   0  0  0  0  0  0  0  0  0  0  0  0
  146.7186  136.8081  153.8113 C   0  0  0  0  0  0  0  0  0  0  0  0
  146.0776  137.7047  152.9650 N   0  0  0  0  0  0  0  0  0  0  0  0
  145.1447  136.9919  152.3951 C   0  0  0  0  0  0  0  0  0  0  0  0
  145.0998  135.6695  152.7765 N   0  0  0  0  0  0  0  0  0  0  0  0
  144.1790  134.6519  152.2940 C   0  0  0  0  0  0  0  0  0  0  0  0
  144.5560  134.0948  150.9011 C   0  0  2  0  0  0  0  0  0  0  0  0
  144.2555  135.0666  149.9146 O   0  0  0  0  0  0  0  0  0  0  0  0
  143.8398  132.7961  150.5357 C   0  0  0  0  0  0  0  0  0  0  0  0
  144.8781  132.0520  149.7082 C   0  0  0  0  0  0  0  0  0  0  0  0
  146.0834  132.3523  150.3899 O   0  0  0  0  0  0  0  0  0  0  0  0
  146.0470  133.7214  150.7781 C   0  0  0  0  0  0  0  0  0  0  0  0
  149.9645  137.8484  154.7140 C   0  0  0  0  0  0  0  0  0  0  0  0
  150.7501  139.1070  155.1597 C   0  0  2  0  0  0  0  0  0  0  0  0
  152.2008  139.0099  154.7167 C   0  0  0  0  0  0  0  0  0  0  0  0
  152.8310  138.1558  155.8107 C   0  0  0  0  0  0  0  0  0  0  0  0
  152.0937  138.4432  156.9944 O   0  0  0  0  0  0  0  0  0  0  0  0
  150.9228  139.2026  156.6935 C   0  0  1  0  0  0  0  0  0  0  0  0
  151.1926  140.6210  157.2315 C   0  0  0  0  0  0  0  0  0  0  0  0
  150.1713  140.2700  154.5571 O   0  0  0  0  0  0  0  0  0  0  0  0
  147.2619  141.9135  154.2677 H   0  0  0  0  0  0  0  0  0  0  0  0
  148.4922  141.6722  153.0269 H   0  0  0  0  0  0  0  0  0  0  0  0
  148.8747  142.5879  154.4830 H   0  0  0  0  0  0  0  0  0  0  0  0
  148.5949  140.5491  155.8708 H   0  0  0  0  0  0  0  0  0  0  0  0
  146.9445  139.3085  154.5152 H   0  0  0  0  0  0  0  0  0  0  0  0
  148.1099  139.1218  153.2124 H   0  0  0  0  0  0  0  0  0  0  0  0
  147.8468  133.8026  155.7942 H   0  0  0  0  0  0  0  0  0  0  0  0
  144.4637  137.4137  151.6705 H   0  0  0  0  0  0  0  0  0  0  0  0
  144.1403  133.8447  153.0269 H   0  0  0  0  0  0  0  0  0  0  0  0
  143.1787  135.0865  152.2659 H   0  0  0  0  0  0  0  0  0  0  0  0
  144.9260  135.0367  149.2495 H   0  0  0  0  0  0  0  0  0  0  0  0
  143.6318  132.2139  151.4342 H   0  0  0  0  0  0  0  0  0  0  0  0
  142.8953  132.9441  150.0102 H   0  0  0  0  0  0  0  0  0  0  0  0
  144.6951  130.9781  149.6660 H   0  0  0  0  0  0  0  0  0  0  0  0
  144.9213  132.4389  148.6890 H   0  0  0  0  0  0  0  0  0  0  0  0
  146.5589  134.3224  150.0244 H   0  0  0  0  0  0  0  0  0  0  0  0
  146.5888  133.8462  151.7162 H   0  0  0  0  0  0  0  0  0  0  0  0
  150.3190  136.9638  155.2449 H   0  0  0  0  0  0  0  0  0  0  0  0
  150.1353  137.6706  153.6516 H   0  0  0  0  0  0  0  0  0  0  0  0
  152.3276  138.5871  153.7196 H   0  0  0  0  0  0  0  0  0  0  0  0
  152.6616  139.9985  154.7140 H   0  0  0  0  0  0  0  0  0  0  0  0
  152.7242  137.0951  155.5801 H   0  0  0  0  0  0  0  0  0  0  0  0
  153.8924  138.3670  155.9419 H   0  0  0  0  0  0  0  0  0  0  0  0
  150.0637  138.7817  157.2171 H   0  0  0  0  0  0  0  0  0  0  0  0
  150.3466  141.2877  157.0737 H   0  0  0  0  0  0  0  0  0  0  0  0
  152.0622  141.0754  156.7573 H   0  0  0  0  0  0  0  0  0  0  0  0
  151.3828  140.5931  158.3047 H   0  0  0  0  0  0  0  0  0  0  0  0
  1  2  1  0  0  0  0
  1 29  1  0  0  0  0
  1 30  1  0  0  0  0
  1 31  1  0  0  0  0
  2 28  1  0  0  0  0
  2  3  1  0  0  0  0
  2 32  1  0  0  0  0
  3  4  1  0  0  0  0
  3 33  1  0  0  0  0
  3 34  1  0  0  0  0
  4  5  1  0  0  0  0
  4 21  1  0  0  0  0
  5 10  1  0  0  0  0
  5  6  2  0  0  0  0
  6  7  1  0  0  0  0
  7  8  2  0  0  0  0
  7 35  1  0  0  0  0
  8  9  1  0  0  0  0
  9 13  1  0  0  0  0
  9 10  2  0  0  0  0
 10 11  1  0  0  0  0
 11 12  2  0  0  0  0
 12 13  1  0  0  0  0
 12 36  1  0  0  0  0
 13 14  1  0  0  0  0
 14 15  1  0  0  0  0
 14 37  1  0  0  0  0
 14 38  1  0  0  0  0
 15 20  1  0  0  0  0
 15 16  1  0  0  0  0
 15 17  1  0  0  0  0
 16 39  1  0  0  0  0
 17 18  1  0  0  0  0
 17 40  1  0  0  0  0
 17 41  1  0  0  0  0
 18 19  1  0  0  0  0
 18 42  1  0  0  0  0
 18 43  1  0  0  0  0
 19 20  1  0  0  0  0
 20 44  1  0  0  0  0
 20 45  1  0  0  0  0
 21 22  1  0  0  0  0
 21 46  1  0  0  0  0
 21 47  1  0  0  0  0
 22 26  1  0  0  0  0
 22 23  1  0  0  0  0
 22 28  1  0  0  0  0
 23 24  1  0  0  0  0
 23 48  1  0  0  0  0
 23 49  1  0  0  0  0
 24 25  1  0  0  0  0
 24 50  1  0  0  0  0
 24 51  1  0  0  0  0
 25 26  1  0  0  0  0
 26 27  1  0  0  0  0
 26 52  1  0  0  0  0
 27 53  1  0  0  0  0
 27 54  1  0  0  0  0
 27 55  1  0  0  0  0
M  END
> <s_m_source_file>
AV-unprocessed.smi

> <i_m_source_file_index>
281

> <i_lp_mmshare_version>
43012

> <i_f3d_flags>
0

> <s_epik_input>
W0NIM11bQ0BASF0xT1tDSDJdW0NIMl1bQ0BAXTEyW0NIMl1OKFtDSDJdW0NASF0oTzIpW0NIM10pYyhuW2NIXW4zKWMoYzM0KW5bY0hdbjRbQ0gyXVtDQEBdNShbT0hdKVtDSDJdW0NIMl1PW0NIMl01

> <s_epik_cmdline>
J2VwaWtfcHl0aG9uJywgJy1waCcsICc3LjAnLCAnLXRuJywgJzgnLCAnLW1hJywgJzIwMCcsICctbWV0YWxfYmluZGluZycsICctaW1hZScsICc8aW5maWxlLm1hZT4nLCAnLW9tYWUnLCAnPG91dGZpbGUubWFlPic=

> <r_lp_tautomer_probability>
1

> <r_epik_Ionization_Penalty>
0.00571331

> <r_epik_Ionization_Penalty_Charging>
0

> <r_epik_Ionization_Penalty_Neutral>
0.00571331

> <r_epik_State_Penalty>
0.00399586

> <r_epik_Charging_Adjusted_Penalty>
0.00399586

> <i_epik_Tot_Q>
0

> <i_epik_Tot_abs_Q>
0

> <r_epik_Metal_State_Penalty>
-0

> <b_epik_Metal_Only>
0

> <s_lp_Force_Field>
OPLS_2005

> <r_lp_Energy>
57.1517

> <b_lp_Chiralities_Consistent>
1

> <s_lp_Variant>
AV-unprocessed.smi:281-4

> <Gold.Version>
5.8.1

> <Gold.Id.Protein>
6NUR|6NUR_protein|mol2

> <Gold.PLP.Fitness>
44.5823

> <Gold.PLP.PLP>
-36.3658

> <Gold.PLP.part.hbond>
-2.1155

> <Gold.PLP.part.metal>
0.0000

> <Gold.PLP.part.buried>
-3.2578

> <Gold.PLP.part.nonpolar>
-31.5239

> <Gold.PLP.part.repulsive>
0.7459

> <Gold.PLP.ligand.clash>
0.0000

> <Gold.PLP.ligand.torsion>
0.4543

> <Gold.PLP.Chemscore.Hbond>
2.0000

> <Gold.PLP.Chemscore.CHOScore>
1.0000

> <Gold.PLP.Chemscore.Metal>
0.0000

> <Gold.Chemscore.Hbonds>
donor molecule, donor type, donor heavy atom, donor atom, acceptor molecule, acceptor atom, score
      L1  H    16    39       P1  7921  1.00
      P1  H  7989  7998       L1    28  1.00
      L1  C    12    36       P1 10171  1.00

> <Gold.PLP.Chemscore.Internal.Correction>
0.1252

> <Gold.Rescore>
     Score         DG    S(hbond)    S(metal)    S(lipo)     H(rot)  DE(clash)    DE(int)     intcor
     14.93     -17.21       1.87        0.00      92.62       2.09       0.35       1.93       ----

> <Gold.Chemscore.Fitness>
14.9264

> <Gold.Chemscore.DG>
-17.2062

> <Gold.Chemscore.ZeroCoef>
-5.4800

> <Gold.Chemscore.Hbond>
1.8705

> <Gold.Chemscore.Metal>
0.0000

> <Gold.Chemscore.Lipo>
92.6156

> <Gold.Chemscore.Internal_Hbond>
0.0000

> <Gold.Chemscore.DEClash>
0.3534

> <Gold.Chemscore.DEInternal>
1.9264

> <Gold.Chemscore.Rot>
2.0927

> <Gold.Chemscore.Internal.Correction>
   9.000000E+99

> <Gold.Chemscore.Hbonds>
donor molecule, donor type, donor heavy atom, donor atom, acceptor molecule, acceptor atom, score
      L1  H    16    39       P1  7921  0.93
      P1  H  7989  7998       L1    28  0.29

> <Gold.Chemscore.Hbond.Weighted>
-6.2475

> <Gold.Chemscore.Metal.Weighted>
-0.0000

> <Gold.Chemscore.Lipo.Weighted>
-10.8360

> <Gold.Chemscore.Internal_Hbond.Weighted>
0.0000

> <Gold.Chemscore.DEClash.Weighted>
0.3534

> <Gold.Chemscore.DEInternal.Weighted>
1.9264

> <Gold.Chemscore.Rot.Weighted>
5.3573

> <Gold.Chemscore.Internal.Correction.Weighted>
   9.000000E+99

> <Gold.Protein.RotatedTorsions>
[ 6907 6896 6895 6894 ] final   85.36 input  -60.11 | X-H torsion
[ 7974 7965 7964 7962 ] final   35.80 input  175.53 | X-H torsion
[ 8008 7997 7996 7995 ] final -171.16 input   59.86 | X-H torsion
[ 10167 10162 10161 10158 ] final -177.27 input  -65.29 | X-H torsion
[ 10718 10713 10712 10709 ] final   35.92 input   66.30 | X-H torsion
[ 10763 10752 10751 10750 ] final  -90.47 input  -60.55 | X-H torsion
[ 11005 11000 10999 10996 ] final  103.68 input  -57.11 | X-H torsion

> <Gold.Protein.ActiveResidues>
 VAL166  LYS551  ARG553  GLY616  TRP617  ASP618  TYR619  PRO620  LYS621  CYS622 
 ASP623  PHE694  ASN695  SER759  ASP760  ASP761  ALA762  ILE779  LEU786  VAL792 
 PHE793  MET794  SER795  GLU796  ALA797  LYS798  CYS799  TRP800  GLU811  SER814 

> <Gold.Protein.RotatedAtoms>
  152.5373  134.2598  159.8930 H   0  0  0  0  0  0  0  0  0  0  0  0  # atno 6907 bound_to 6896
  151.2558  133.4320  159.2621 H   0  0  0  0  0  0  0  0  0  0  0  0  # atno 6908 bound_to 6896
  151.0497  134.9679  159.8261 H   0  0  0  0  0  0  0  0  0  0  0  0  # atno 6909 bound_to 6896
  146.1257  139.6097  142.9260 H   0  0  0  0  0  0  0  0  0  0  0  0  # atno 7974 bound_to 7965
  155.9278  140.1086  157.1156 H   0  0  0  0  0  0  0  0  0  0  0  0  # atno 8008 bound_to 7997
  154.4065  140.1243  156.4829 H   0  0  0  0  0  0  0  0  0  0  0  0  # atno 8009 bound_to 7997
  155.7117  140.3471  155.4979 H   0  0  0  0  0  0  0  0  0  0  0  0  # atno 8010 bound_to 7997
  139.5488  144.2164  152.1039 H   0  0  0  0  0  0  0  0  0  0  0  0  # atno 10167 bound_to 10162
  157.3286  130.7486  149.6832 H   0  0  0  0  0  0  0  0  0  0  0  0  # atno 10718 bound_to 10713
  154.6661  135.5303  153.8079 H   0  0  0  0  0  0  0  0  0  0  0  0  # atno 10763 bound_to 10752
  153.0472  135.6517  154.0797 H   0  0  0  0  0  0  0  0  0  0  0  0  # atno 10764 bound_to 10752
  154.0701  135.2955  155.3289 H   0  0  0  0  0  0  0  0  0  0  0  0  # atno 10765 bound_to 10752
  139.8785  134.9272  156.5246 H   0  0  0  0  0  0  0  0  0  0  0  0  # atno 11005 bound_to 11000
  145.5370  141.0423  143.2351 LP  0  0  0  0  0  0  0  0  0  0  0  0  # atno 17320 bound_to 7965
  144.7640  139.6889  143.7222 LP  0  0  0  0  0  0  0  0  0  0  0  0  # atno 17321 bound_to 7965
  140.1655  144.4985  150.6608 LP  0  0  0  0  0  0  0  0  0  0  0  0  # atno 17342 bound_to 10162
  140.6745  143.2299  151.5542 LP  0  0  0  0  0  0  0  0  0  0  0  0  # atno 17343 bound_to 10162
  155.9693  130.4202  150.4411 LP  0  0  0  0  0  0  0  0  0  0  0  0  # atno 17370 bound_to 10713
  157.2439  131.0531  151.2420 LP  0  0  0  0  0  0  0  0  0  0  0  0  # atno 17371 bound_to 10713
  140.8425  133.8194  155.9089 LP  0  0  0  0  0  0  0  0  0  0  0  0  # atno 17394 bound_to 11000
  140.9223  134.2126  157.4918 LP  0  0  0  0  0  0  0  0  0  0  0  0  # atno 17395 bound_to 11000

$$$$
