#       Name:                AV-unprocessed.smi:1990
#       Creating user name   scv26
#       Creation time:       Fri Mar 27 10:26:56 2020


#       File generated by GOLD software.
#

@<TRIPOS>MOLECULE
AV-unprocessed.smi:1990
    52    53     1
SMALL
NO_CHARGES


@<TRIPOS>ATOM
      1 ****        -5.3149  -1.0435  -0.7553 C.3            1 S1                 0.0000
      2 ****        -4.8369   0.4167  -0.8500 C.3            1 S1                 0.0000
      3 ****        -3.3066   0.5548  -0.9745 C.3            1 S1                 0.0000
      4 ****        -2.6509   0.3106   0.3074 N.3            1 S1                 0.0000
      5 ****        -1.2532   0.1174   0.2558 C.ar           1 S1                 0.0000
      6 ****        -0.6987  -0.8396  -0.6262 C.ar           1 S1                 0.0000
      7 ****         0.6975  -1.0184  -0.6626 C.ar           1 S1                 0.0000
      8 ****         1.5110  -0.2409   0.1946 C.ar           1 S1                 0.0000
      9 ****         2.9300  -0.3096   0.2467 N.am           1 S1                 0.0000
     10 ****         3.7517  -1.2684  -0.2206 C.2            1 S1                 0.0000
     11 ****         3.3747  -2.3140  -0.7487 O.2            1 S1                 0.0000
     12 ****         5.2526  -1.0074  -0.0302 C.3            1 S1                 0.0000
     13 ****         6.0081  -2.2779   0.3945 C.3            1 S1                 0.0000
     14 ****         5.9825  -0.3332  -1.5959 S.o2           1 S1                 0.0000
     15 ****         5.0859   1.2603  -1.8236 C.3            1 S1                 0.0000
     16 ****         7.3992  -0.0300  -1.3428 O.2            1 S1                 0.0000
     17 ****         5.6240  -1.2210  -2.7126 O.2            1 S1                 0.0000
     18 ****         0.8677   0.6918   1.0321 C.ar           1 S1                 0.0000
     19 ****        -0.4695   0.8662   1.0698 N.ar           1 S1                 0.0000
     20 ****        -3.1934   1.1216   1.3940 C.3            1 S1                 0.0000
     21 ****        -4.7175   0.9341   1.4959 C.3            1 S1                 0.0000
     22 ****        -5.3395   1.8708   2.5368 C.3            1 S1                 0.0000
     23 ****        -5.3199   1.2147   0.2331 O.3            1 S1                 0.0000
     24 ****        -5.0487  -1.5954  -1.6570 H              1 S1                 0.0000
     25 ****        -6.3986  -1.0919  -0.6480 H              1 S1                 0.0000
     26 ****        -4.8703  -1.5714   0.0880 H              1 S1                 0.0000
     27 ****        -5.2806   0.8339  -1.7543 H              1 S1                 0.0000
     28 ****        -2.9472  -0.1143  -1.7551 H              1 S1                 0.0000
     29 ****        -3.0568   1.5673  -1.2945 H              1 S1                 0.0000
     30 ****        -1.3243  -1.4449  -1.2650 H              1 S1                 0.0000
     31 ****         1.1074  -1.7390  -1.3522 H              1 S1                 0.0000
     32 ****         3.3773   0.4549   0.7312 H              1 S1                 0.0000
     33 ****         5.3916  -0.2490   0.7412 H              1 S1                 0.0000
     34 ****         5.5762  -2.7140   1.2960 H              1 S1                 0.0000
     35 ****         7.0536  -2.0543   0.6073 H              1 S1                 0.0000
     36 ****         5.9887  -3.0371  -0.3884 H              1 S1                 0.0000
     37 ****         5.5188   1.7980  -2.6667 H              1 S1                 0.0000
     38 ****         5.1807   1.8663  -0.9231 H              1 S1                 0.0000
     39 ****         4.0330   1.0692  -2.0288 H              1 S1                 0.0000
     40 ****         1.4431   1.3194   1.6974 H              1 S1                 0.0000
     41 ****        -2.7333   0.8401   2.3421 H              1 S1                 0.0000
     42 ****        -2.9524   2.1701   1.2128 H              1 S1                 0.0000
     43 ****        -4.9408  -0.0916   1.7903 H              1 S1                 0.0000
     44 ****        -4.9178   1.6929   3.5262 H              1 S1                 0.0000
     45 ****        -6.4171   1.7192   2.6026 H              1 S1                 0.0000
     46 ****        -5.1651   2.9164   2.2811 H              1 S1                 0.0000
     47 ****        -2.9186  -0.6146   0.5763 LP             1 S1                 0.0000
     48 ****         2.3972  -2.4967  -0.8542 LP             1 S1                 0.0000
     49 ****         4.0458  -2.9810  -1.0723 LP             1 S1                 0.0000
     50 ****        -0.8765   1.5378   1.6889 LP             1 S1                 0.0000
     51 ****        -6.3047   1.0624   0.3171 LP             1 S1                 0.0000
     52 ****        -5.1487   2.1750   0.0129 LP             1 S1                 0.0000
@<TRIPOS>BOND
    1    1    2 1     
    2    1   24 1     
    3    1   25 1     
    4    1   26 1     
    5    2   23 1     
    6    2    3 1     
    7    2   27 1     
    8    3    4 1     
    9    3   28 1     
   10    3   29 1     
   11    4    5 1     
   12    4   20 1     
   13    5   19 ar    
   14    5    6 ar    
   15    6    7 ar    
   16    6   30 1     
   17    7    8 ar    
   18    7   31 1     
   19    8    9 1     
   20    8   18 ar    
   21    9   10 am    
   22    9   32 1     
   23   10   11 2     
   24   10   12 1     
   25   12   13 1     
   26   12   14 1     
   27   12   33 1     
   28   13   34 1     
   29   13   35 1     
   30   13   36 1     
   31   14   15 1     
   32   14   16 2     
   33   14   17 2     
   34   15   37 1     
   35   15   38 1     
   36   15   39 1     
   37   18   19 ar    
   38   18   40 1     
   39   20   21 1     
   40   20   41 1     
   41   20   42 1     
   42   21   22 1     
   43   21   23 1     
   44   21   43 1     
   45   22   44 1     
   46   22   45 1     
   47   22   46 1     
   48    4   47 1     
   49   11   48 1     
   50   11   49 1     
   51   19   50 1     
   52   23   51 1     
   53   23   52 1     
@<TRIPOS>SUBSTRUCTURE
      1 S1             1
@<TRIPOS>SET
LONE_PAIRS      STATIC     ATOMS    <user>   **** ""
8 47 48 49 16 17 50 51 52
DONOR_HYDROGENS      STATIC     ATOMS    <user>   **** ""
1 32
ATOM$BLUE        STATIC     ATOMS    COLORGROUP SYSTEM
8 47 48 49 16 17 50 51 52
ATOM$RED        STATIC     ATOMS    COLORGROUP SYSTEM
1 32
