#       Name:                AV-unprocessed.smi:2567
#       Creating user name   scv26
#       Creation time:       Fri Mar 27 14:11:10 2020


#       File generated by GOLD software.
#

@<TRIPOS>MOLECULE
AV-unprocessed.smi:2567
    38    39     1
SMALL
NO_CHARGES


@<TRIPOS>ATOM
      1 ****        -3.2614   1.9244  -1.2745 C.3            1 S1                 0.0000
      2 ****        -2.7856   0.4600  -1.2792 C.3            1 S1                 0.0000
      3 ****        -3.3799  -0.2461  -0.0421 C.3            1 S1                 0.0000
      4 ****        -3.2848  -0.2723  -2.5380 C.3            1 S1                 0.0000
      5 ****        -1.2608   0.4176  -1.2376 C.2            1 S1                 0.0000
      6 ****        -0.4390   0.9390  -2.1688 N.pl3          1 S1                -1.0000
      7 ****         0.8172   0.7320  -1.8333 N.2            1 S1                 0.0000
      8 ****         0.7677   0.0599  -0.6745 C.2            1 S1                 0.0000
      9 ****         1.9834  -0.3671   0.1209 C.3            1 S1                 0.0000
     10 ****         2.4124   0.7343   1.1099 C.3            1 S1                 0.0000
     11 ****         3.5882   0.2946   1.8855 N.4            1 S1                 1.0000
     12 ****         3.3426  -0.9948   2.5597 C.3            1 S1                 0.0000
     13 ****         2.8842  -2.0454   1.5348 C.3            1 S1                 0.0000
     14 ****         1.7333  -1.5697   0.8466 O.3            1 S1                 0.0000
     15 ****        -0.5019  -0.1284  -0.2892 N.2            1 S1                 0.0000
     16 ****        -4.3495   1.9888  -1.2958 H              1 S1                 0.0000
     17 ****        -2.8851   2.4671  -2.1424 H              1 S1                 0.0000
     18 ****        -2.9159   2.4501  -0.3835 H              1 S1                 0.0000
     19 ****        -3.0588   0.2332   0.8834 H              1 S1                 0.0000
     20 ****        -3.0738  -1.2920   0.0055 H              1 S1                 0.0000
     21 ****        -4.4701  -0.2263  -0.0584 H              1 S1                 0.0000
     22 ****        -4.3738  -0.2701  -2.5945 H              1 S1                 0.0000
     23 ****        -2.9548  -1.3116  -2.5475 H              1 S1                 0.0000
     24 ****        -2.9095   0.1997  -3.4467 H              1 S1                 0.0000
     25 ****         2.7884  -0.5517  -0.5930 H              1 S1                 0.0000
     26 ****         2.6585   1.6543   0.5787 H              1 S1                 0.0000
     27 ****         1.5966   0.9669   1.7962 H              1 S1                 0.0000
     28 ****         4.3667   0.1848   1.2514 H              1 S1                 0.0000
     29 ****         4.2529  -1.3198   3.0638 H              1 S1                 0.0000
     30 ****         2.5793  -0.8588   3.3269 H              1 S1                 0.0000
     31 ****         3.6802  -2.2710   0.8234 H              1 S1                 0.0000
     32 ****         2.6337  -2.9788   2.0393 H              1 S1                 0.0000
     33 ****         3.8188   0.9973   2.5733 H              1 S1                 0.0000
     34 ****        -0.7396   1.4146  -2.9955 LP             1 S1                 0.0000
     35 ****         1.6340   1.0156  -2.3357 LP             1 S1                 0.0000
     36 ****         1.4309  -2.2739   0.2042 LP             1 S1                 0.0000
     37 ****         1.0102  -1.3955   1.5150 LP             1 S1                 0.0000
     38 ****        -0.8160  -0.5864   0.5424 LP             1 S1                 0.0000
@<TRIPOS>BOND
    1    1    2 1     
    2    1   16 1     
    3    1   17 1     
    4    1   18 1     
    5    2    3 1     
    6    2    4 1     
    7    2    5 1     
    8    3   19 1     
    9    3   20 1     
   10    3   21 1     
   11    4   22 1     
   12    4   23 1     
   13    4   24 1     
   14    5   15 2     
   15    5    6 1     
   16    6    7 1     
   17    7    8 2     
   18    8    9 1     
   19    8   15 1     
   20    9   14 1     
   21    9   10 1     
   22    9   25 1     
   23   10   11 1     
   24   10   26 1     
   25   10   27 1     
   26   11   12 1     
   27   11   28 1     
   28   11   33 1     
   29   12   13 1     
   30   12   29 1     
   31   12   30 1     
   32   13   14 1     
   33   13   31 1     
   34   13   32 1     
   35    6   34 1     
   36    7   35 1     
   37   14   36 1     
   38   14   37 1     
   39   15   38 1     
@<TRIPOS>SUBSTRUCTURE
      1 S1             1
@<TRIPOS>SET
LONE_PAIRS      STATIC     ATOMS    <user>   **** ""
5 34 35 36 37 38
DONOR_HYDROGENS      STATIC     ATOMS    <user>   **** ""
2 28 33
ATOM$BLUE        STATIC     ATOMS    COLORGROUP SYSTEM
5 34 35 36 37 38
ATOM$RED        STATIC     ATOMS    COLORGROUP SYSTEM
2 28 33
