AV-unprocessed.smi:212|AV-procd|sdf|1628|dock5
  -GOLD-   2262019573D 1   1.00000     0.00000
 Structure written by MMmdl.
 65 68  0  0  0  0  0  0  0  0  2 V2000
  145.7668  136.7923  155.3639 C   0  0  0  0  0  0  0  0  0  0  0  0
  146.1843  135.3308  155.1107 C   0  0  1  0  0  0  0  0  0  0  0  0
  146.4926  135.0273  153.6282 C   0  0  0  0  0  0  0  0  0  0  0  0
  146.8223  133.5899  153.4345 N   0  3  1  0  0  0  0  0  0  0  0  0
  147.0604  133.2276  152.0118 C   0  0  0  0  0  0  0  0  0  0  0  0
  146.0626  132.1670  151.4895 C   0  0  0  0  0  0  0  0  0  0  0  0
  144.6325  132.7324  151.5093 C   0  0  0  0  0  0  0  0  0  0  0  0
  146.4201  131.6744  150.0748 C   0  0  0  0  0  0  0  0  0  0  0  0
  146.0661  131.0548  152.3624 O   0  0  0  0  0  0  0  0  0  0  0  0
  147.9036  133.1286  154.3437 C   0  0  0  0  0  0  0  0  0  0  0  0
  147.5637  133.4357  155.8145 C   0  0  0  0  0  0  0  0  0  0  0  0
  147.2559  134.8512  155.9932 N   0  0  0  0  0  0  0  0  0  0  0  0
  148.3605  135.6039  156.2318 C   0  0  0  0  0  0  0  0  0  0  0  0
  149.5453  135.3078  155.6358 N   0  0  0  0  0  0  0  0  0  0  0  0
  150.6315  136.0425  155.8943 C   0  0  0  0  0  0  0  0  0  0  0  0
  150.7533  137.0936  156.7073 N   0  0  0  0  0  0  0  0  0  0  0  0
  149.5687  137.3888  157.3145 C   0  0  0  0  0  0  0  0  0  0  0  0
  148.3378  136.6971  157.1397 C   0  0  0  0  0  0  0  0  0  0  0  0
  147.3507  137.2750  157.9278 N   0  0  0  0  0  0  0  0  0  0  0  0
  147.9625  138.2561  158.5336 C   0  0  0  0  0  0  0  0  0  0  0  0
  149.2924  138.4081  158.2087 N   0  0  0  0  0  0  0  0  0  0  0  0
  150.2081  139.4074  158.7277 C   0  0  0  0  0  0  0  0  0  0  0  0
  150.6741  140.4664  157.6918 C   0  0  2  0  0  0  0  0  0  0  0  0
  151.7397  139.8245  156.7764 C   0  0  0  0  0  0  0  0  0  0  0  0
  151.3377  139.8451  155.4220 O   0  0  0  0  0  0  0  0  0  0  0  0
  151.1736  141.8300  158.2615 C   0  0  1  0  0  0  0  0  0  0  0  0
  152.1560  141.7945  159.4185 C   0  0  0  0  0  0  0  0  0  0  0  0
  152.6252  143.2446  159.4530 C   0  0  0  0  0  0  0  0  0  0  0  0
  152.6368  143.6752  158.0947 O   0  0  0  0  0  0  0  0  0  0  0  0
  151.8618  142.7913  157.2874 C   0  0  0  0  0  0  0  0  0  0  0  0
  144.8639  137.0354  154.8032 H   0  0  0  0  0  0  0  0  0  0  0  0
  146.5322  137.5058  155.0606 H   0  0  0  0  0  0  0  0  0  0  0  0
  145.5505  136.9609  156.4193 H   0  0  0  0  0  0  0  0  0  0  0  0
  145.3137  134.7293  155.3763 H   0  0  0  0  0  0  0  0  0  0  0  0
  145.6277  135.2885  153.0185 H   0  0  0  0  0  0  0  0  0  0  0  0
  147.3183  135.6415  153.2691 H   0  0  0  0  0  0  0  0  0  0  0  0
  147.0354  134.1216  151.3858 H   0  0  0  0  0  0  0  0  0  0  0  0
  148.0697  132.8273  151.8999 H   0  0  0  0  0  0  0  0  0  0  0  0
  144.5412  133.5966  150.8502 H   0  0  0  0  0  0  0  0  0  0  0  0
  144.3432  133.0520  152.5114 H   0  0  0  0  0  0  0  0  0  0  0  0
  143.9046  131.9905  151.1781 H   0  0  0  0  0  0  0  0  0  0  0  0
  146.4414  132.5017  149.3646 H   0  0  0  0  0  0  0  0  0  0  0  0
  145.6905  130.9497  149.7112 H   0  0  0  0  0  0  0  0  0  0  0  0
  147.3969  131.1906  150.0472 H   0  0  0  0  0  0  0  0  0  0  0  0
  146.9625  130.7981  152.5215 H   0  0  0  0  0  0  0  0  0  0  0  0
  148.0493  132.0543  154.2245 H   0  0  0  0  0  0  0  0  0  0  0  0
  148.8418  133.6111  154.0649 H   0  0  0  0  0  0  0  0  0  0  0  0
  146.6954  132.8530  156.1241 H   0  0  0  0  0  0  0  0  0  0  0  0
  148.3854  133.1253  156.4615 H   0  0  0  0  0  0  0  0  0  0  0  0
  151.5312  135.7467  155.3753 H   0  0  0  0  0  0  0  0  0  0  0  0
  147.4530  138.9056  159.2308 H   0  0  0  0  0  0  0  0  0  0  0  0
  149.7501  139.8892  159.5917 H   0  0  0  0  0  0  0  0  0  0  0  0
  151.0749  138.8709  159.1161 H   0  0  0  0  0  0  0  0  0  0  0  0
  149.8151  140.6849  157.0559 H   0  0  0  0  0  0  0  0  0  0  0  0
  152.6990  140.3329  156.8789 H   0  0  0  0  0  0  0  0  0  0  0  0
  151.9019  138.7816  157.0501 H   0  0  0  0  0  0  0  0  0  0  0  0
  151.0585  140.7213  155.2040 H   0  0  0  0  0  0  0  0  0  0  0  0
  150.3047  142.3590  158.6557 H   0  0  0  0  0  0  0  0  0  0  0  0
  151.6998  141.4764  160.3564 H   0  0  0  0  0  0  0  0  0  0  0  0
  153.0090  141.1510  159.2240 H   0  0  0  0  0  0  0  0  0  0  0  0
  151.9157  143.8599  160.0078 H   0  0  0  0  0  0  0  0  0  0  0  0
  153.6055  143.3567  159.9166 H   0  0  0  0  0  0  0  0  0  0  0  0
  152.5471  142.2776  156.6159 H   0  0  0  0  0  0  0  0  0  0  0  0
  151.1452  143.3416  156.6771 H   0  0  0  0  0  0  0  0  0  0  0  0
  145.9992  133.0750  153.7126 H   0  0  0  0  0  0  0  0  0  0  0  0
  1  2  1  0  0  0  0
  1 31  1  0  0  0  0
  1 32  1  0  0  0  0
  1 33  1  0  0  0  0
  2 12  1  0  0  0  0
  2  3  1  0  0  0  0
  2 34  1  0  0  0  0
  3  4  1  0  0  0  0
  3 35  1  0  0  0  0
  3 36  1  0  0  0  0
  4  5  1  0  0  0  0
  4 10  1  0  0  0  0
  4 65  1  0  0  0  0
  5  6  1  0  0  0  0
  5 37  1  0  0  0  0
  5 38  1  0  0  0  0
  6  7  1  0  0  0  0
  6  8  1  0  0  0  0
  6  9  1  0  0  0  0
  7 39  1  0  0  0  0
  7 40  1  0  0  0  0
  7 41  1  0  0  0  0
  8 42  1  0  0  0  0
  8 43  1  0  0  0  0
  8 44  1  0  0  0  0
  9 45  1  0  0  0  0
 10 11  1  0  0  0  0
 10 46  1  0  0  0  0
 10 47  1  0  0  0  0
 11 12  1  0  0  0  0
 11 48  1  0  0  0  0
 11 49  1  0  0  0  0
 12 13  1  0  0  0  0
 13 18  1  0  0  0  0
 13 14  2  0  0  0  0
 14 15  1  0  0  0  0
 15 16  2  0  0  0  0
 15 50  1  0  0  0  0
 16 17  1  0  0  0  0
 17 21  1  0  0  0  0
 17 18  2  0  0  0  0
 18 19  1  0  0  0  0
 19 20  2  0  0  0  0
 20 21  1  0  0  0  0
 20 51  1  0  0  0  0
 21 22  1  0  0  0  0
 22 23  1  0  0  0  0
 22 52  1  0  0  0  0
 22 53  1  0  0  0  0
 23 24  1  0  0  0  0
 23 26  1  0  0  0  0
 23 54  1  0  0  0  0
 24 25  1  0  0  0  0
 24 55  1  0  0  0  0
 24 56  1  0  0  0  0
 25 57  1  0  0  0  0
 26 30  1  0  0  0  0
 26 27  1  0  0  0  0
 26 58  1  0  0  0  0
 27 28  1  0  0  0  0
 27 59  1  0  0  0  0
 27 60  1  0  0  0  0
 28 29  1  0  0  0  0
 28 61  1  0  0  0  0
 28 62  1  0  0  0  0
 29 30  1  0  0  0  0
 30 63  1  0  0  0  0
 30 64  1  0  0  0  0
M  CHG  1   4   1
M  END
> <s_m_source_file>
AV-unprocessed.smi

> <i_m_source_file_index>
212

> <i_lp_mmshare_version>
43012

> <i_f3d_flags>
0

> <s_epik_input>
W0NIM11bQ0BASF0xW0NIMl1OKFtDSDJdQyhbQ0gzXSkoW0NIM10pW09IXSlbQ0gyXVtDSDJdTjFjKG5bY0hdbjIpYyhjMjMpbltjSF1uM1tDSDJdW0NASF0oW0NIMl1bT0hdKVtDQEBIXTRbQ0gyXVtDSDJdT1tDSDJdNA==

> <s_epik_cmdline>
J2VwaWtfcHl0aG9uJywgJy1waCcsICc3LjAnLCAnLXRuJywgJzgnLCAnLW1hJywgJzIwMCcsICctbWV0YWxfYmluZGluZycsICctaW1hZScsICc8aW5maWxlLm1hZT4nLCAnLW9tYWUnLCAnPG91dGZpbGUubWFlPic=

> <r_lp_tautomer_probability>
1

> <r_epik_Ionization_Penalty>
0.00182193

> <r_epik_Ionization_Penalty_Charging>
0.00173996

> <r_epik_Ionization_Penalty_Neutral>
8.19718e-05

> <r_epik_State_Penalty>
-0

> <r_epik_Charging_Adjusted_Penalty>
0.00173996

> <i_epik_Tot_Q>
1

> <i_epik_Tot_abs_Q>
1

> <r_epik_Metal_State_Penalty>
-0

> <b_epik_Metal_Only>
0

> <s_lp_Force_Field>
OPLS_2005

> <r_lp_Energy>
60.5032

> <b_lp_Chiralities_Consistent>
1

> <s_lp_Variant>
AV-unprocessed.smi:212-12

> <Gold.Version>
5.8.1

> <Gold.Id.Protein>
6NUR|6NUR_protein|mol2

> <Gold.PLP.Fitness>
46.5591

> <Gold.PLP.PLP>
-41.6787

> <Gold.PLP.part.hbond>
-2.0000

> <Gold.PLP.part.metal>
0.0000

> <Gold.PLP.part.buried>
-6.8100

> <Gold.PLP.part.nonpolar>
-33.8826

> <Gold.PLP.part.repulsive>
0.7541

> <Gold.PLP.ligand.clash>
0.0000

> <Gold.PLP.ligand.torsion>
2.5198

> <Gold.PLP.Chemscore.Hbond>
2.0000

> <Gold.PLP.Chemscore.CHOScore>
0.9145

> <Gold.PLP.Chemscore.Metal>
0.0000

> <Gold.PLP.Chemscore.Internal.Correction>
1.1763

> <Gold.Rescore>
     Score         DG    S(hbond)    S(metal)    S(lipo)     H(rot)  DE(clash)    DE(int)     intcor
      9.55     -13.86       1.76        0.00     101.96       3.68       0.64       3.67       ----

> <Gold.Chemscore.Fitness>
9.5465

> <Gold.Chemscore.DG>
-13.8611

> <Gold.Chemscore.ZeroCoef>
-5.4800

> <Gold.Chemscore.Hbond>
1.7592

> <Gold.Chemscore.Metal>
0.0000

> <Gold.Chemscore.Lipo>
101.9591

> <Gold.Chemscore.Internal_Hbond>
0.0000

> <Gold.Chemscore.DEClash>
0.6419

> <Gold.Chemscore.DEInternal>
3.6727

> <Gold.Chemscore.Rot>
3.6812

> <Gold.Chemscore.Internal.Correction>
   9.000000E+99

> <Gold.Chemscore.Hbond.Weighted>
-5.8758

> <Gold.Chemscore.Metal.Weighted>
-0.0000

> <Gold.Chemscore.Lipo.Weighted>
-11.9292

> <Gold.Chemscore.Internal_Hbond.Weighted>
0.0000

> <Gold.Chemscore.DEClash.Weighted>
0.6419

> <Gold.Chemscore.DEInternal.Weighted>
3.6727

> <Gold.Chemscore.Rot.Weighted>
9.4239

> <Gold.Chemscore.Internal.Correction.Weighted>
   9.000000E+99

> <Gold.Protein.RotatedTorsions>
[ 6907 6896 6895 6894 ] final  149.08 input  -60.11 | X-H torsion
[ 7974 7965 7964 7962 ] final -129.26 input  175.53 | X-H torsion
[ 8008 7997 7996 7995 ] final  -74.01 input   59.86 | X-H torsion
[ 10167 10162 10161 10158 ] final  -49.42 input  -65.29 | X-H torsion
[ 10718 10713 10712 10709 ] final  137.39 input   66.30 | X-H torsion
[ 10763 10752 10751 10750 ] final -151.66 input  -60.55 | X-H torsion
[ 11005 11000 10999 10996 ] final  -65.90 input  -57.11 | X-H torsion

> <Gold.Protein.ActiveResidues>
 VAL166  LYS551  ARG553  GLY616  TRP617  ASP618  TYR619  PRO620  LYS621  CYS622 
 ASP623  PHE694  ASN695  SER759  ASP760  ASP761  ALA762  ILE779  LEU786  VAL792 
 PHE793  MET794  SER795  GLU796  ALA797  LYS798  CYS799  TRP800  GLU811  SER814 

> <Gold.Protein.RotatedAtoms>
  152.1328  133.4418  159.4728 H   0  0  0  0  0  0  0  0  0  0  0  0  # atno 6907 bound_to 6896
  150.6879  134.2400  159.4477 H   0  0  0  0  0  0  0  0  0  0  0  0  # atno 6908 bound_to 6896
  152.0285  134.9781  160.0622 H   0  0  0  0  0  0  0  0  0  0  0  0  # atno 6909 bound_to 6896
  144.9589  140.7426  143.4741 H   0  0  0  0  0  0  0  0  0  0  0  0  # atno 7974 bound_to 7965
  154.5295  140.0769  156.8318 H   0  0  0  0  0  0  0  0  0  0  0  0  # atno 8008 bound_to 7997
  155.3406  140.3407  155.4221 H   0  0  0  0  0  0  0  0  0  0  0  0  # atno 8009 bound_to 7997
  156.1766  140.1638  156.8338 H   0  0  0  0  0  0  0  0  0  0  0  0  # atno 8010 bound_to 7997
  140.6686  143.2698  151.4213 H   0  0  0  0  0  0  0  0  0  0  0  0  # atno 10167 bound_to 10162
  157.4366  131.1053  151.0190 H   0  0  0  0  0  0  0  0  0  0  0  0  # atno 10718 bound_to 10713
  154.8043  135.3254  154.7470 H   0  0  0  0  0  0  0  0  0  0  0  0  # atno 10763 bound_to 10752
  153.8131  135.6894  153.4842 H   0  0  0  0  0  0  0  0  0  0  0  0  # atno 10764 bound_to 10752
  153.1779  135.4598  154.9934 H   0  0  0  0  0  0  0  0  0  0  0  0  # atno 10765 bound_to 10752
  141.1467  133.6689  156.6057 H   0  0  0  0  0  0  0  0  0  0  0  0  # atno 11005 bound_to 11000
  145.2729  139.1947  143.4832 LP  0  0  0  0  0  0  0  0  0  0  0  0  # atno 17320 bound_to 7965
  146.3346  140.2679  142.8604 LP  0  0  0  0  0  0  0  0  0  0  0  0  # atno 17321 bound_to 7965
  139.5944  144.1429  152.2127 LP  0  0  0  0  0  0  0  0  0  0  0  0  # atno 17342 bound_to 10162
  140.0793  144.5714  150.7134 LP  0  0  0  0  0  0  0  0  0  0  0  0  # atno 17343 bound_to 10162
  157.1068  130.6005  149.5472 LP  0  0  0  0  0  0  0  0  0  0  0  0  # atno 17370 bound_to 10713
  155.9933  130.4993  150.7374 LP  0  0  0  0  0  0  0  0  0  0  0  0  # atno 17371 bound_to 10713
  140.3654  134.7652  157.4562 LP  0  0  0  0  0  0  0  0  0  0  0  0  # atno 17394 bound_to 11000
  140.0752  134.5807  155.8598 LP  0  0  0  0  0  0  0  0  0  0  0  0  # atno 17395 bound_to 11000

$$$$
