AV-unprocessed.smi:289|AV-procd|sdf|2213|dock9
  -GOLD-   2262022 43D 1   1.00000     0.00000
 Structure written by MMmdl.
 51 54  0  0  0  0  0  0  0  0  1 V2000
  154.0862  134.6320  160.8832 O   0  0  0  0  0  0  0  0  0  0  0  0
  154.4932  135.7801  160.6938 C   0  0  0  0  0  0  0  0  0  0  0  0
  153.9147  136.9288  161.5473 C   0  0  0  0  0  0  0  0  0  0  0  0
  153.4840  138.1035  160.7556 N   0  0  0  0  0  0  0  0  0  0  0  0
  152.6841  137.8936  159.6058 C   0  0  0  0  0  0  0  0  0  0  0  0
  152.3283  136.7625  159.2719 O   0  0  0  0  0  0  0  0  0  0  0  0
  152.3377  139.0938  158.8544 C   0  0  0  0  0  0  0  0  0  0  0  0
  151.6132  138.9871  157.7277 F   0  0  0  0  0  0  0  0  0  0  0  0
  152.7481  140.3123  159.2617 C   0  0  0  0  0  0  0  0  0  0  0  0
  153.4980  140.5113  160.4095 N   0  0  0  0  0  0  0  0  0  0  0  0
  154.0317  141.8771  160.8164 C   0  0  2  0  0  0  0  0  0  0  0  0
  153.3859  142.4577  162.0817 C   0  0  0  0  0  0  0  0  0  0  0  0
  152.3044  143.3836  161.5308 C   0  0  0  0  0  0  0  0  0  0  0  0
  152.4309  143.2707  160.0076 C   0  0  0  0  0  0  0  0  0  0  0  0
  153.7490  142.7826  159.7978 O   0  0  0  0  0  0  0  0  0  0  0  0
  153.9211  139.3890  161.1569 C   0  0  0  0  0  0  0  0  0  0  0  0
  154.6583  139.5262  162.1359 O   0  0  0  0  0  0  0  0  0  0  0  0
  155.4331  136.0645  159.7593 N   0  0  0  0  0  0  0  0  0  0  0  0
  156.0377  135.1032  158.8250 C   0  0  0  0  0  0  0  0  0  0  0  0
  155.6733  135.4976  157.3790 C   0  0  0  0  0  0  0  0  0  0  0  0
  156.1267  136.8755  157.1167 N   0  0  0  0  0  0  0  0  0  0  0  0
  157.0885  137.2414  156.2321 C   0  0  0  0  0  0  0  0  0  0  0  0
  157.6373  138.3431  156.2676 O   0  0  0  0  0  0  0  0  0  0  0  0
  157.4947  136.2944  155.1711 C   0  0  0  0  0  0  0  0  0  0  0  0
  158.5951  136.3009  154.3569 C   0  0  0  0  0  0  0  0  0  0  0  0
  158.4592  135.1907  153.4783 C   0  0  0  0  0  0  0  0  0  0  0  0
  157.2726  134.5985  153.8026 C   0  0  0  0  0  0  0  0  0  0  0  0
  156.6656  135.2670  154.8204 O   0  0  0  0  0  0  0  0  0  0  0  0
  155.5348  137.8299  158.0679 C   0  0  0  0  0  0  0  0  0  0  0  0
  155.9177  137.4284  159.5047 C   0  0  0  0  0  0  0  0  0  0  0  0
  153.0859  136.5396  162.1408 H   0  0  0  0  0  0  0  0  0  0  0  0
  154.6599  137.2322  162.2842 H   0  0  0  0  0  0  0  0  0  0  0  0
  152.4784  141.1511  158.6401 H   0  0  0  0  0  0  0  0  0  0  0  0
  155.1066  141.7416  160.9463 H   0  0  0  0  0  0  0  0  0  0  0  0
  153.0343  141.6880  162.7685 H   0  0  0  0  0  0  0  0  0  0  0  0
  154.1384  143.0473  162.6067 H   0  0  0  0  0  0  0  0  0  0  0  0
  151.3067  143.1048  161.8704 H   0  0  0  0  0  0  0  0  0  0  0  0
  152.4917  144.4079  161.8548 H   0  0  0  0  0  0  0  0  0  0  0  0
  151.7072  142.5597  159.6072 H   0  0  0  0  0  0  0  0  0  0  0  0
  152.2763  144.2248  159.5037 H   0  0  0  0  0  0  0  0  0  0  0  0
  157.1211  135.1183  158.9540 H   0  0  0  0  0  0  0  0  0  0  0  0
  155.7386  134.0713  158.9971 H   0  0  0  0  0  0  0  0  0  0  0  0
  156.1150  134.7568  156.7161 H   0  0  0  0  0  0  0  0  0  0  0  0
  154.5944  135.4390  157.2281 H   0  0  0  0  0  0  0  0  0  0  0  0
  159.4024  137.0179  154.3913 H   0  0  0  0  0  0  0  0  0  0  0  0
  159.1387  134.8718  152.7018 H   0  0  0  0  0  0  0  0  0  0  0  0
  156.7329  133.7428  153.4245 H   0  0  0  0  0  0  0  0  0  0  0  0
  155.8428  138.8594  157.8803 H   0  0  0  0  0  0  0  0  0  0  0  0
  154.4497  137.8205  157.9526 H   0  0  0  0  0  0  0  0  0  0  0  0
  155.5159  138.1602  160.2064 H   0  0  0  0  0  0  0  0  0  0  0  0
  157.0011  137.4571  159.6306 H   0  0  0  0  0  0  0  0  0  0  0  0
  1  2  2  0  0  0  0
  2  3  1  0  0  0  0
  2 18  1  0  0  0  0
  3  4  1  0  0  0  0
  3 31  1  0  0  0  0
  3 32  1  0  0  0  0
  4 16  1  0  0  0  0
  4  5  1  0  0  0  0
  5  6  2  0  0  0  0
  5  7  1  0  0  0  0
  7  8  1  0  0  0  0
  7  9  2  0  0  0  0
  9 10  1  0  0  0  0
  9 33  1  0  0  0  0
 10 11  1  0  0  0  0
 10 16  1  0  0  0  0
 11 15  1  0  0  0  0
 11 12  1  0  0  0  0
 11 34  1  0  0  0  0
 12 13  1  0  0  0  0
 12 35  1  0  0  0  0
 12 36  1  0  0  0  0
 13 14  1  0  0  0  0
 13 37  1  0  0  0  0
 13 38  1  0  0  0  0
 14 15  1  0  0  0  0
 14 39  1  0  0  0  0
 14 40  1  0  0  0  0
 16 17  2  0  0  0  0
 18 30  1  0  0  0  0
 18 19  1  0  0  0  0
 19 20  1  0  0  0  0
 19 41  1  0  0  0  0
 19 42  1  0  0  0  0
 20 21  1  0  0  0  0
 20 43  1  0  0  0  0
 20 44  1  0  0  0  0
 21 22  1  0  0  0  0
 21 29  1  0  0  0  0
 22 23  2  0  0  0  0
 22 24  1  0  0  0  0
 24 28  1  0  0  0  0
 24 25  2  0  0  0  0
 25 26  1  0  0  0  0
 25 45  1  0  0  0  0
 26 27  2  0  0  0  0
 26 46  1  0  0  0  0
 27 28  1  0  0  0  0
 27 47  1  0  0  0  0
 29 30  1  0  0  0  0
 29 48  1  0  0  0  0
 29 49  1  0  0  0  0
 30 50  1  0  0  0  0
 30 51  1  0  0  0  0
M  END
> <s_m_source_file>
AV-unprocessed.smi

> <i_m_source_file_index>
289

> <i_lp_mmshare_version>
43012

> <i_f3d_flags>
0

> <s_epik_input>
bzFbY0hdW2NIXVtjSF1jMUMoPU8pTihbQ0gyXVtDSDJdMilbQ0gyXVtDSDJdTjJDKD1PKVtDSDJdbjNjKD1PKWMoRilbY0hdbihjMz1PKVtDQEBIXTRbQ0gyXVtDSDJdW0NIMl1PNA==

> <s_epik_cmdline>
J2VwaWtfcHl0aG9uJywgJy1waCcsICc3LjAnLCAnLXRuJywgJzgnLCAnLW1hJywgJzIwMCcsICctbWV0YWxfYmluZGluZycsICctaW1hZScsICc8aW5maWxlLm1hZT4nLCAnLW9tYWUnLCAnPG91dGZpbGUubWFlPic=

> <r_lp_tautomer_probability>
1

> <r_epik_Ionization_Penalty>
6.38128e-09

> <r_epik_Ionization_Penalty_Charging>
4.20153e-09

> <r_epik_Ionization_Penalty_Neutral>
2.17976e-09

> <r_epik_State_Penalty>
-0

> <r_epik_Charging_Adjusted_Penalty>
4.20153e-09

> <i_epik_Tot_Q>
0

> <i_epik_Tot_abs_Q>
0

> <r_epik_Metal_State_Penalty>
-0

> <b_epik_Metal_Only>
0

> <s_epik_Chemistry_Notes>
This compound contains an acetal/aminal-like group ( X-CH(R)-Y where X, Y are N, S, or O) that may be acid/base labile, releasing an aldehyde.

> <s_lp_Force_Field>
OPLS_2005

> <r_lp_Energy>
70.009

> <b_lp_Chiralities_Consistent>
1

> <s_lp_Variant>
AV-unprocessed.smi:289-1

> <Gold.Version>
5.8.1

> <Gold.Id.Protein>
6NUR|6NUR_protein|mol2

> <Gold.PLP.Fitness>
50.6620

> <Gold.PLP.PLP>
-43.0124

> <Gold.PLP.part.hbond>
-3.6451

> <Gold.PLP.part.metal>
0.0000

> <Gold.PLP.part.buried>
-3.9458

> <Gold.PLP.part.nonpolar>
-35.3107

> <Gold.PLP.part.repulsive>
1.3718

> <Gold.PLP.ligand.clash>
0.0000

> <Gold.PLP.ligand.torsion>
0.6957

> <Gold.PLP.Chemscore.Hbond>
2.8320

> <Gold.PLP.Chemscore.CHOScore>
0.0000

> <Gold.PLP.Chemscore.Metal>
0.0000

> <Gold.Chemscore.Hbonds>
donor molecule, donor type, donor heavy atom, donor atom, acceptor molecule, acceptor atom, score
      P1  H  6896  6907       L1     6  0.93
      P1  H  7997  8009       L1    23  0.22
      P1  H 10752 10765       L1    28  1.00

> <Gold.PLP.Chemscore.Internal.Correction>
0.5450

> <Gold.Rescore>
     Score         DG    S(hbond)    S(metal)    S(lipo)     H(rot)  DE(clash)    DE(int)     intcor
     13.23     -20.07       2.63        0.00      86.03       1.66       1.10       5.74       ----

> <Gold.Chemscore.Fitness>
13.2289

> <Gold.Chemscore.DG>
-20.0723

> <Gold.Chemscore.ZeroCoef>
-5.4800

> <Gold.Chemscore.Hbond>
2.6260

> <Gold.Chemscore.Metal>
0.0000

> <Gold.Chemscore.Lipo>
86.0335

> <Gold.Chemscore.Internal_Hbond>
0.0000

> <Gold.Chemscore.DEClash>
1.1023

> <Gold.Chemscore.DEInternal>
5.7411

> <Gold.Chemscore.Rot>
1.6580

> <Gold.Chemscore.Internal.Correction>
   9.000000E+99

> <Gold.Chemscore.Hbonds>
donor molecule, donor type, donor heavy atom, donor atom, acceptor molecule, acceptor atom, score
      P1  H  6896  6907       L1     6  0.91
      P1  H  7997  8009       L1    23  0.21
      P1  H 10752 10765       L1    28  0.89

> <Gold.Chemscore.Hbond.Weighted>
-8.7710

> <Gold.Chemscore.Metal.Weighted>
-0.0000

> <Gold.Chemscore.Lipo.Weighted>
-10.0659

> <Gold.Chemscore.Internal_Hbond.Weighted>
0.0000

> <Gold.Chemscore.DEClash.Weighted>
1.1023

> <Gold.Chemscore.DEInternal.Weighted>
5.7411

> <Gold.Chemscore.Rot.Weighted>
4.2446

> <Gold.Chemscore.Internal.Correction.Weighted>
   9.000000E+99

> <Gold.Protein.RotatedTorsions>
[ 6907 6896 6895 6894 ] final   28.04 input  -60.11 | X-H torsion
[ 7974 7965 7964 7962 ] final  -52.80 input  175.53 | X-H torsion
[ 8008 7997 7996 7995 ] final    1.22 input   59.86 | X-H torsion
[ 10167 10162 10161 10158 ] final -165.55 input  -65.29 | X-H torsion
[ 10718 10713 10712 10709 ] final  172.68 input   66.30 | X-H torsion
[ 10763 10752 10751 10750 ] final  -29.75 input  -60.55 | X-H torsion
[ 11005 11000 10999 10996 ] final -148.60 input  -57.11 | X-H torsion

> <Gold.Protein.ActiveResidues>
 VAL166  LYS551  ARG553  GLY616  TRP617  ASP618  TYR619  PRO620  LYS621  CYS622 
 ASP623  PHE694  ASN695  SER759  ASP760  ASP761  ALA762  ILE779  LEU786  VAL792 
 PHE793  MET794  SER795  GLU796  ALA797  LYS798  CYS799  TRP800  GLU811  SER814 

> <Gold.Protein.RotatedAtoms>
  152.0112  134.9875  160.0567 H   0  0  0  0  0  0  0  0  0  0  0  0  # atno 6907 bound_to 6896
  152.1427  133.4469  159.4783 H   0  0  0  0  0  0  0  0  0  0  0  0  # atno 6908 bound_to 6896
  150.6867  134.2204  159.4437 H   0  0  0  0  0  0  0  0  0  0  0  0  # atno 6909 bound_to 6896
  145.9039  140.7971  142.9729 H   0  0  0  0  0  0  0  0  0  0  0  0  # atno 7974 bound_to 7965
  154.6771  140.2625  155.6946 H   0  0  0  0  0  0  0  0  0  0  0  0  # atno 8008 bound_to 7997
  156.2682  140.2817  156.1225 H   0  0  0  0  0  0  0  0  0  0  0  0  # atno 8009 bound_to 7997
  155.1084  140.0375  157.2707 H   0  0  0  0  0  0  0  0  0  0  0  0  # atno 8010 bound_to 7997
  139.6175  144.0691  152.1901 H   0  0  0  0  0  0  0  0  0  0  0  0  # atno 10167 bound_to 10162
  156.9754  131.0103  151.2895 H   0  0  0  0  0  0  0  0  0  0  0  0  # atno 10718 bound_to 10713
  153.7697  135.6913  153.4909 H   0  0  0  0  0  0  0  0  0  0  0  0  # atno 10763 bound_to 10752
  153.1883  135.4480  155.0115 H   0  0  0  0  0  0  0  0  0  0  0  0  # atno 10764 bound_to 10752
  154.8122  135.3383  154.7207 H   0  0  0  0  0  0  0  0  0  0  0  0  # atno 10765 bound_to 10752
  140.7596  134.3314  157.5105 H   0  0  0  0  0  0  0  0  0  0  0  0  # atno 11005 bound_to 11000
  144.6738  140.1720  143.7413 LP  0  0  0  0  0  0  0  0  0  0  0  0  # atno 17320 bound_to 7965
  145.8756  139.2295  143.1635 LP  0  0  0  0  0  0  0  0  0  0  0  0  # atno 17321 bound_to 7965
  140.0325  144.6070  150.7476 LP  0  0  0  0  0  0  0  0  0  0  0  0  # atno 17342 bound_to 10162
  140.7360  143.2748  151.3776 LP  0  0  0  0  0  0  0  0  0  0  0  0  # atno 17343 bound_to 10162
  157.5563  130.8216  149.8209 LP  0  0  0  0  0  0  0  0  0  0  0  0  # atno 17370 bound_to 10713
  156.0266  130.3778  150.1807 LP  0  0  0  0  0  0  0  0  0  0  0  0  # atno 17371 bound_to 10713
  139.8773  134.9193  156.3224 LP  0  0  0  0  0  0  0  0  0  0  0  0  # atno 17394 bound_to 11000
  140.9676  133.7348  156.0488 LP  0  0  0  0  0  0  0  0  0  0  0  0  # atno 17395 bound_to 11000

$$$$
