AV-unprocessed.smi:73|AV-procd|sdf|762|dock1
  -GOLD-   2262017103D 1   1.00000     0.00000
 Structure written by MMmdl.
 35 36  0  0  0  0  0  0  0  0  2 V2000
  150.7784  140.0886  155.9922 C   0  0  0  0  0  0  0  0  0  0  0  0
  149.8709  138.8481  155.9925 C   0  0  0  0  0  0  0  0  0  0  0  0
  148.4153  139.0996  155.9689 N   0  0  0  0  0  0  0  0  0  0  0  0
  147.7148  137.8442  156.2942 C   0  0  0  0  0  0  0  0  0  0  0  0
  147.5252  137.6206  157.7618 C   0  0  0  0  0  0  0  0  0  0  0  0
  146.9500  138.4455  158.6405 N   0  0  0  0  0  0  0  0  0  0  0  0
  147.0184  137.8029  159.8567 N   0  0  0  0  0  0  0  0  0  0  0  0
  147.6276  136.6389  159.6190 C   0  0  0  0  0  0  0  0  0  0  0  0
  147.9433  135.5649  160.6028 C   0  0  0  0  0  0  0  0  0  0  0  0
  147.9699  136.4635  158.3163 O   0  0  0  0  0  0  0  0  0  0  0  0
  147.9390  139.6209  154.6667 C   0  0  1  0  0  0  0  0  0  0  0  0
  146.3941  139.7915  154.5952 C   0  0  0  0  0  0  0  0  0  0  0  0
  146.1012  141.1898  154.2452 N   0  3  0  0  0  0  0  0  0  0  0  0
  147.2827  141.7043  153.5557 C   0  0  0  0  0  0  0  0  0  0  0  0
  148.4480  141.0279  154.2703 C   0  0  2  0  0  0  0  0  0  0  0  0
  149.5546  140.9594  153.3939 O   0  0  0  0  0  0  0  0  0  0  0  0
  148.6804  141.6221  155.1536 H   0  0  0  0  0  0  0  0  0  0  0  0
  151.7854  139.8138  156.3070 H   0  0  0  0  0  0  0  0  0  0  0  0
  150.4150  140.8429  156.6907 H   0  0  0  0  0  0  0  0  0  0  0  0
  150.8819  140.5478  155.0125 H   0  0  0  0  0  0  0  0  0  0  0  0
  150.1520  138.1729  155.1834 H   0  0  0  0  0  0  0  0  0  0  0  0
  150.1375  138.3120  156.9032 H   0  0  0  0  0  0  0  0  0  0  0  0
  146.7200  137.8111  155.8552 H   0  0  0  0  0  0  0  0  0  0  0  0
  148.2539  136.9947  155.8718 H   0  0  0  0  0  0  0  0  0  0  0  0
  148.1819  136.0013  161.5730 H   0  0  0  0  0  0  0  0  0  0  0  0
  148.7983  134.9793  160.2636 H   0  0  0  0  0  0  0  0  0  0  0  0
  147.0859  134.9016  160.7168 H   0  0  0  0  0  0  0  0  0  0  0  0
  148.2232  138.9186  153.8805 H   0  0  0  0  0  0  0  0  0  0  0  0
  145.9781  139.1346  153.8305 H   0  0  0  0  0  0  0  0  0  0  0  0
  145.8832  139.5771  155.5339 H   0  0  0  0  0  0  0  0  0  0  0  0
  145.2701  141.2683  153.6766 H   0  0  0  0  0  0  0  0  0  0  0  0
  147.2304  141.3952  152.5102 H   0  0  0  0  0  0  0  0  0  0  0  0
  147.3347  142.7929  153.5887 H   0  0  0  0  0  0  0  0  0  0  0  0
  149.4060  140.2597  152.7754 H   0  0  0  0  0  0  0  0  0  0  0  0
  145.9834  141.7119  155.1019 H   0  0  0  0  0  0  0  0  0  0  0  0
  1  2  1  0  0  0  0
  1 18  1  0  0  0  0
  1 19  1  0  0  0  0
  1 20  1  0  0  0  0
  2  3  1  0  0  0  0
  2 21  1  0  0  0  0
  2 22  1  0  0  0  0
  3  4  1  0  0  0  0
  3 11  1  0  0  0  0
  4  5  1  0  0  0  0
  4 23  1  0  0  0  0
  4 24  1  0  0  0  0
  5 10  1  0  0  0  0
  5  6  2  0  0  0  0
  6  7  1  0  0  0  0
  7  8  2  0  0  0  0
  8  9  1  0  0  0  0
  8 10  1  0  0  0  0
  9 25  1  0  0  0  0
  9 26  1  0  0  0  0
  9 27  1  0  0  0  0
 11 15  1  0  0  0  0
 11 12  1  0  0  0  0
 11 28  1  0  0  0  0
 12 13  1  0  0  0  0
 12 29  1  0  0  0  0
 12 30  1  0  0  0  0
 13 14  1  0  0  0  0
 13 31  1  0  0  0  0
 13 35  1  0  0  0  0
 14 15  1  0  0  0  0
 14 32  1  0  0  0  0
 14 33  1  0  0  0  0
 15 17  1  0  0  0  0
 15 16  1  0  0  0  0
 16 34  1  0  0  0  0
M  CHG  1  13   1
M  END
> <s_m_source_file>
AV-unprocessed.smi

> <i_m_source_file_index>
73

> <i_lp_mmshare_version>
43012

> <i_f3d_flags>
0

> <s_epik_input>
W09IXVtDQEBIXTFbQ0gyXVtOSF1bQ0gyXVtDQEhdMU4oW0NIMl1bQ0gzXSlbQ0gyXWMybm5jKG8yKVtDSDNd

> <s_epik_cmdline>
J2VwaWtfcHl0aG9uJywgJy1waCcsICc3LjAnLCAnLXRuJywgJzgnLCAnLW1hJywgJzIwMCcsICctbWV0YWxfYmluZGluZycsICctaW1hZScsICc8aW5maWxlLm1hZT4nLCAnLW9tYWUnLCAnPG91dGZpbGUubWFlPic=

> <r_lp_tautomer_probability>
1

> <r_epik_Ionization_Penalty>
0.00160433

> <r_epik_Ionization_Penalty_Charging>
0.000122314

> <r_epik_Ionization_Penalty_Neutral>
0.00148202

> <r_epik_State_Penalty>
-0

> <r_epik_Charging_Adjusted_Penalty>
0.000122314

> <i_epik_Tot_Q>
1

> <i_epik_Tot_abs_Q>
1

> <r_epik_Metal_State_Penalty>
-0

> <b_epik_Metal_Only>
0

> <s_lp_Force_Field>
OPLS_2005

> <r_lp_Energy>
41.961

> <b_lp_Chiralities_Consistent>
1

> <s_lp_Variant>
AV-unprocessed.smi:73-4

> <Gold.Version>
5.8.1

> <Gold.Id.Protein>
6NUR|6NUR_protein|mol2

> <Gold.PLP.Fitness>
33.5378

> <Gold.PLP.PLP>
-19.8779

> <Gold.PLP.part.hbond>
-5.9204

> <Gold.PLP.part.metal>
0.0000

> <Gold.PLP.part.buried>
-3.6762

> <Gold.PLP.part.nonpolar>
-10.4644

> <Gold.PLP.part.repulsive>
0.0000

> <Gold.PLP.ligand.clash>
0.0000

> <Gold.PLP.ligand.torsion>
0.4966

> <Gold.PLP.Chemscore.Hbond>
4.8554

> <Gold.PLP.Chemscore.CHOScore>
0.0000

> <Gold.PLP.Chemscore.Metal>
0.0000

> <Gold.Chemscore.Hbonds>
donor molecule, donor type, donor heavy atom, donor atom, acceptor molecule, acceptor atom, score
      L1  H    13    31       P1 10175  1.53
      L1  H    16    34       P1  7957  0.72
      P1  H  6934  6947       L1     7  0.93
      P1  H  7989  7998       L1    16  0.22
      P1  H  8011  8017       L1    16  1.00

> <Gold.PLP.Chemscore.Internal.Correction>
0.0868

> <Gold.Rescore>
     Score         DG    S(hbond)    S(metal)    S(lipo)     H(rot)  DE(clash)    DE(int)     intcor
     12.82     -13.50       3.02        0.00      37.20       2.51       0.07       0.62       ----

> <Gold.Chemscore.Fitness>
12.8173

> <Gold.Chemscore.DG>
-13.5021

> <Gold.Chemscore.ZeroCoef>
-5.4800

> <Gold.Chemscore.Hbond>
3.0187

> <Gold.Chemscore.Metal>
0.0000

> <Gold.Chemscore.Lipo>
37.2019

> <Gold.Chemscore.Internal_Hbond>
0.0000

> <Gold.Chemscore.DEClash>
0.0650

> <Gold.Chemscore.DEInternal>
0.6197

> <Gold.Chemscore.Rot>
2.5051

> <Gold.Chemscore.Internal.Correction>
   9.000000E+99

> <Gold.Chemscore.Hbonds>
donor molecule, donor type, donor heavy atom, donor atom, acceptor molecule, acceptor atom, score
      L1  H    13    31       P1 10175  0.29
      L1  H    16    34       P1  7957  0.72
      P1  H  6934  6947       L1     7  0.31
      P1  H  7989  7998       L1    16  0.05
      P1  H  8011  8017       L1    16  0.36

> <Gold.Chemscore.Hbond.Weighted>
-10.0825

> <Gold.Chemscore.Metal.Weighted>
-0.0000

> <Gold.Chemscore.Lipo.Weighted>
-4.3526

> <Gold.Chemscore.Internal_Hbond.Weighted>
0.0000

> <Gold.Chemscore.DEClash.Weighted>
0.0650

> <Gold.Chemscore.DEInternal.Weighted>
0.6197

> <Gold.Chemscore.Rot.Weighted>
6.4131

> <Gold.Chemscore.Internal.Correction.Weighted>
   9.000000E+99

> <Gold.Protein.RotatedTorsions>
[ 6907 6896 6895 6894 ] final  -87.91 input  -60.11 | X-H torsion
[ 7974 7965 7964 7962 ] final  103.91 input  175.53 | X-H torsion
[ 8008 7997 7996 7995 ] final  101.19 input   59.86 | X-H torsion
[ 10167 10162 10161 10158 ] final  -66.86 input  -65.29 | X-H torsion
[ 10718 10713 10712 10709 ] final   70.92 input   66.30 | X-H torsion
[ 10763 10752 10751 10750 ] final  -57.88 input  -60.55 | X-H torsion
[ 11005 11000 10999 10996 ] final  -68.70 input  -57.11 | X-H torsion

> <Gold.Protein.ActiveResidues>
 VAL166  LYS551  ARG553  GLY616  TRP617  ASP618  TYR619  PRO620  LYS621  CYS622 
 ASP623  PHE694  ASN695  SER759  ASP760  ASP761  ALA762  ILE779  LEU786  VAL792 
 PHE793  MET794  SER795  GLU796  ALA797  LYS798  CYS799  TRP800  GLU811  SER814 

> <Gold.Protein.RotatedAtoms>
  150.6867  134.2823  159.4631 H   0  0  0  0  0  0  0  0  0  0  0  0  # atno 6907 bound_to 6896
  152.0735  134.9515  160.0583 H   0  0  0  0  0  0  0  0  0  0  0  0  # atno 6908 bound_to 6896
  152.0895  133.4159  159.4574 H   0  0  0  0  0  0  0  0  0  0  0  0  # atno 6909 bound_to 6896
  145.3396  139.2465  143.3616 H   0  0  0  0  0  0  0  0  0  0  0  0  # atno 7974 bound_to 7965
  156.1275  140.3201  155.8299 H   0  0  0  0  0  0  0  0  0  0  0  0  # atno 8008 bound_to 7997
  155.4393  140.0524  157.3029 H   0  0  0  0  0  0  0  0  0  0  0  0  # atno 8009 bound_to 7997
  154.4874  140.2078  155.9638 H   0  0  0  0  0  0  0  0  0  0  0  0  # atno 8010 bound_to 7997
  140.5625  143.2313  151.6699 H   0  0  0  0  0  0  0  0  0  0  0  0  # atno 10167 bound_to 10162
  157.6425  130.9502  150.0717 H   0  0  0  0  0  0  0  0  0  0  0  0  # atno 10718 bound_to 10713
  154.2294  135.6363  153.5170 H   0  0  0  0  0  0  0  0  0  0  0  0  # atno 10763 bound_to 10752
  152.9952  135.5516  154.6029 H   0  0  0  0  0  0  0  0  0  0  0  0  # atno 10764 bound_to 10752
  154.5508  135.2901  155.0984 H   0  0  0  0  0  0  0  0  0  0  0  0  # atno 10765 bound_to 10752
  141.1538  133.6747  156.6487 H   0  0  0  0  0  0  0  0  0  0  0  0  # atno 11005 bound_to 11000
  146.3012  140.3991  142.8703 LP  0  0  0  0  0  0  0  0  0  0  0  0  # atno 17320 bound_to 7965
  144.8800  140.7388  143.5992 LP  0  0  0  0  0  0  0  0  0  0  0  0  # atno 17321 bound_to 7965
  139.5077  144.3637  152.0538 LP  0  0  0  0  0  0  0  0  0  0  0  0  # atno 17342 bound_to 10162
  140.2765  144.3907  150.6133 LP  0  0  0  0  0  0  0  0  0  0  0  0  # atno 17343 bound_to 10162
  156.1719  130.3647  149.9153 LP  0  0  0  0  0  0  0  0  0  0  0  0  # atno 17370 bound_to 10713
  156.7126  130.8976  151.3611 LP  0  0  0  0  0  0  0  0  0  0  0  0  # atno 17371 bound_to 10713
  140.3337  134.7907  157.4346 LP  0  0  0  0  0  0  0  0  0  0  0  0  # atno 17394 bound_to 11000
  140.0995  134.5492  155.8366 LP  0  0  0  0  0  0  0  0  0  0  0  0  # atno 17395 bound_to 11000

$$$$
