AV-unprocessed.smi:1406|AV-procd|sdf|5722|dock10
  -GOLD-   22720 5353D 1   1.00000     0.00000
 Structure written by MMmdl.
 41 43  0  0  0  0  0  0  0  0  2 V2000
  146.4532  127.4927  154.2759 C   0  0  0  0  0  0  0  0  0  0  0  0
  146.6705  128.3001  152.9802 C   0  0  1  0  0  0  0  0  0  0  0  0
  147.3239  129.6694  153.2271 C   0  0  0  0  0  0  0  0  0  0  0  0
  148.4834  129.7549  153.6333 O   0  0  0  0  0  0  0  0  0  0  0  0
  146.5699  130.7438  152.9453 N   0  0  0  0  0  0  0  0  0  0  0  0
  147.0418  132.1241  152.9861 C   0  0  2  0  0  0  0  0  0  0  0  0
  146.5850  132.8837  154.2249 C   0  0  0  0  0  0  0  0  0  0  0  0
  146.7644  134.3492  153.8150 C   0  0  0  0  0  0  0  0  0  0  0  0
  146.6351  134.4013  152.3378 N   0  3  2  0  0  0  0  0  0  0  0  0
  145.5852  135.3384  151.8556 C   0  0  0  0  0  0  0  0  0  0  0  0
  145.2342  135.0623  150.3861 C   0  0  0  0  0  0  0  0  0  0  0  0
  144.6625  133.6443  150.1989 C   0  0  0  0  0  0  0  0  0  0  0  0
  145.1036  132.6788  151.3150 C   0  0  0  0  0  0  0  0  0  0  0  0
  146.5289  133.0041  151.8290 C   0  0  2  0  0  0  0  0  0  0  0  0
  147.4423  127.5527  151.9939 N   0  0  0  0  0  0  0  0  0  0  0  0
  147.8807  127.9214  150.7886 C   0  0  0  0  0  0  0  0  0  0  0  0
  148.6147  127.0023  150.1776 N   0  0  0  0  0  0  0  0  0  0  0  0
  148.5909  126.0219  151.1284 C   0  0  0  0  0  0  0  0  0  0  0  0
  147.9132  126.3045  152.2407 N   0  0  0  0  0  0  0  0  0  0  0  0
  145.8260  128.0405  154.9803 H   0  0  0  0  0  0  0  0  0  0  0  0
  147.3936  127.2637  154.7791 H   0  0  0  0  0  0  0  0  0  0  0  0
  145.9545  126.5465  154.0642 H   0  0  0  0  0  0  0  0  0  0  0  0
  145.6872  128.4872  152.5455 H   0  0  0  0  0  0  0  0  0  0  0  0
  145.6246  130.5905  152.6250 H   0  0  0  0  0  0  0  0  0  0  0  0
  148.1339  132.1286  152.9771 H   0  0  0  0  0  0  0  0  0  0  0  0
  145.5315  132.6828  154.4260 H   0  0  0  0  0  0  0  0  0  0  0  0
  147.1541  132.6232  155.1179 H   0  0  0  0  0  0  0  0  0  0  0  0
  146.0586  135.0001  154.3327 H   0  0  0  0  0  0  0  0  0  0  0  0
  147.7678  134.6888  154.0744 H   0  0  0  0  0  0  0  0  0  0  0  0
  144.6838  135.2394  152.4632 H   0  0  0  0  0  0  0  0  0  0  0  0
  145.9391  136.3623  151.9805 H   0  0  0  0  0  0  0  0  0  0  0  0
  144.5233  135.8018  150.0162 H   0  0  0  0  0  0  0  0  0  0  0  0
  146.1340  135.1759  149.7796 H   0  0  0  0  0  0  0  0  0  0  0  0
  143.5728  133.6789  150.1723 H   0  0  0  0  0  0  0  0  0  0  0  0
  144.9767  133.2604  149.2276 H   0  0  0  0  0  0  0  0  0  0  0  0
  144.3980  132.7390  152.1448 H   0  0  0  0  0  0  0  0  0  0  0  0
  145.0407  131.6577  150.9392 H   0  0  0  0  0  0  0  0  0  0  0  0
  147.2112  132.9027  150.9837 H   0  0  0  0  0  0  0  0  0  0  0  0
  147.6673  128.8866  150.3531 H   0  0  0  0  0  0  0  0  0  0  0  0
  149.0957  125.0756  151.0013 H   0  0  0  0  0  0  0  0  0  0  0  0
  147.5161  134.7524  151.9895 H   0  0  0  0  0  0  0  0  0  0  0  0
  1  2  1  0  0  0  0
  1 20  1  0  0  0  0
  1 21  1  0  0  0  0
  1 22  1  0  0  0  0
  2  3  1  0  0  0  0
  2 15  1  0  0  0  0
  2 23  1  0  0  0  0
  3  4  2  0  0  0  0
  3  5  1  0  0  0  0
  5  6  1  0  0  0  0
  5 24  1  0  0  0  0
  6 14  1  0  0  0  0
  6  7  1  0  0  0  0
  6 25  1  0  0  0  0
  7  8  1  0  0  0  0
  7 26  1  0  0  0  0
  7 27  1  0  0  0  0
  8  9  1  0  0  0  0
  8 28  1  0  0  0  0
  8 29  1  0  0  0  0
  9 14  1  0  0  0  0
  9 10  1  0  0  0  0
  9 41  1  0  0  0  0
 10 11  1  0  0  0  0
 10 30  1  0  0  0  0
 10 31  1  0  0  0  0
 11 12  1  0  0  0  0
 11 32  1  0  0  0  0
 11 33  1  0  0  0  0
 12 13  1  0  0  0  0
 12 34  1  0  0  0  0
 12 35  1  0  0  0  0
 13 14  1  0  0  0  0
 13 36  1  0  0  0  0
 13 37  1  0  0  0  0
 14 38  1  0  0  0  0
 15 19  1  0  0  0  0
 15 16  1  0  0  0  0
 16 17  2  0  0  0  0
 16 39  1  0  0  0  0
 17 18  1  0  0  0  0
 18 19  2  0  0  0  0
 18 40  1  0  0  0  0
M  CHG  1   9   1
M  END
> <s_m_source_file>
AV-unprocessed.smi

> <i_m_source_file_index>
1406

> <i_lp_mmshare_version>
43012

> <i_f3d_flags>
0

> <s_epik_input>
bjFbY0hdbltjSF1uMVtDQEhdKFtDSDNdKUMoPU8pW05IXVtDQEhdKFtDSDJdW0NIMl0yKVtDQEBIXShOMjMpW0NIMl1bQ0gyXVtDSDJdW0NIMl0z

> <s_epik_cmdline>
J2VwaWtfcHl0aG9uJywgJy1waCcsICc3LjAnLCAnLXRuJywgJzgnLCAnLW1hJywgJzIwMCcsICctbWV0YWxfYmluZGluZycsICctaW1hZScsICc8aW5maWxlLm1hZT4nLCAnLW9tYWUnLCAnPG91dGZpbGUubWFlPic=

> <r_lp_tautomer_probability>
1

> <r_epik_Ionization_Penalty>
0.00197066

> <r_epik_Ionization_Penalty_Charging>
0.00196223

> <r_epik_Ionization_Penalty_Neutral>
8.43107e-06

> <r_epik_State_Penalty>
0.00133866

> <r_epik_Charging_Adjusted_Penalty>
0.00330089

> <i_epik_Tot_Q>
1

> <i_epik_Tot_abs_Q>
1

> <r_epik_Metal_State_Penalty>
-0

> <b_epik_Metal_Only>
0

> <s_lp_Force_Field>
OPLS_2005

> <r_lp_Energy>
45.0436

> <b_lp_Chiralities_Consistent>
1

> <s_lp_Variant>
AV-unprocessed.smi:1406-14

> <Gold.Version>
5.8.1

> <Gold.Id.Protein>
6NUR|6NUR_protein|mol2

> <Gold.PLP.Fitness>
38.7546

> <Gold.PLP.PLP>
-30.3493

> <Gold.PLP.part.hbond>
-1.6150

> <Gold.PLP.part.metal>
0.0000

> <Gold.PLP.part.buried>
-2.0987

> <Gold.PLP.part.nonpolar>
-26.2234

> <Gold.PLP.part.repulsive>
0.3562

> <Gold.PLP.ligand.clash>
0.0000

> <Gold.PLP.ligand.torsion>
0.3486

> <Gold.PLP.Chemscore.Hbond>
2.0000

> <Gold.PLP.Chemscore.CHOScore>
1.0000

> <Gold.PLP.Chemscore.Metal>
0.0000

> <Gold.Chemscore.Hbonds>
donor molecule, donor type, donor heavy atom, donor atom, acceptor molecule, acceptor atom, score
      L1  H     9    41       P1  7948  2.00
      L1  C    16    39       P1 10747  0.99

> <Gold.PLP.Chemscore.Internal.Correction>
0.1025

> <Gold.Rescore>
     Score         DG    S(hbond)    S(metal)    S(lipo)     H(rot)  DE(clash)    DE(int)     intcor
      7.72      -8.19       0.63        0.00      46.54       1.89       0.15       0.31       ----

> <Gold.Chemscore.Fitness>
7.7246

> <Gold.Chemscore.DG>
-8.1863

> <Gold.Chemscore.ZeroCoef>
-5.4800

> <Gold.Chemscore.Hbond>
0.6260

> <Gold.Chemscore.Metal>
0.0000

> <Gold.Chemscore.Lipo>
46.5401

> <Gold.Chemscore.Internal_Hbond>
0.0000

> <Gold.Chemscore.DEClash>
0.1528

> <Gold.Chemscore.DEInternal>
0.3090

> <Gold.Chemscore.Rot>
1.8865

> <Gold.Chemscore.Internal.Correction>
   9.000000E+99

> <Gold.Chemscore.Hbonds>
donor molecule, donor type, donor heavy atom, donor atom, acceptor molecule, acceptor atom, score
      L1  H     9    41       P1  7948  0.68

> <Gold.Chemscore.Hbond.Weighted>
-2.0907

> <Gold.Chemscore.Metal.Weighted>
-0.0000

> <Gold.Chemscore.Lipo.Weighted>
-5.4452

> <Gold.Chemscore.Internal_Hbond.Weighted>
0.0000

> <Gold.Chemscore.DEClash.Weighted>
0.1528

> <Gold.Chemscore.DEInternal.Weighted>
0.3090

> <Gold.Chemscore.Rot.Weighted>
4.8295

> <Gold.Chemscore.Internal.Correction.Weighted>
   9.000000E+99

> <Gold.Protein.RotatedTorsions>
[ 6907 6896 6895 6894 ] final  -44.53 input  -60.11 | X-H torsion
[ 7974 7965 7964 7962 ] final   24.96 input  175.53 | X-H torsion
[ 8008 7997 7996 7995 ] final    6.48 input   59.86 | X-H torsion
[ 10167 10162 10161 10158 ] final    6.27 input  -65.29 | X-H torsion
[ 10718 10713 10712 10709 ] final   69.97 input   66.30 | X-H torsion
[ 10763 10752 10751 10750 ] final  -26.29 input  -60.55 | X-H torsion
[ 11005 11000 10999 10996 ] final  -44.92 input  -57.11 | X-H torsion

> <Gold.Protein.ActiveResidues>
 VAL166  LYS551  ARG553  GLY616  TRP617  ASP618  TYR619  PRO620  LYS621  CYS622 
 ASP623  PHE694  ASN695  SER759  ASP760  ASP761  ALA762  ILE779  LEU786  VAL792 
 PHE793  MET794  SER795  GLU796  ALA797  LYS798  CYS799  TRP800  GLU811  SER814 

> <Gold.Protein.RotatedAtoms>
  150.9318  134.8732  159.7555 H   0  0  0  0  0  0  0  0  0  0  0  0  # atno 6907 bound_to 6896
  152.5041  134.4068  159.9445 H   0  0  0  0  0  0  0  0  0  0  0  0  # atno 6908 bound_to 6896
  151.4095  133.3692  159.2777 H   0  0  0  0  0  0  0  0  0  0  0  0  # atno 6909 bound_to 6896
  146.1912  139.7532  142.8830 H   0  0  0  0  0  0  0  0  0  0  0  0  # atno 7974 bound_to 7965
  154.7415  140.2750  155.6369 H   0  0  0  0  0  0  0  0  0  0  0  0  # atno 8008 bound_to 7997
  156.2875  140.2696  156.2070 H   0  0  0  0  0  0  0  0  0  0  0  0  # atno 8009 bound_to 7997
  155.0252  140.0371  157.2442 H   0  0  0  0  0  0  0  0  0  0  0  0  # atno 8010 bound_to 7997
  140.6437  143.7714  150.7466 H   0  0  0  0  0  0  0  0  0  0  0  0  # atno 10167 bound_to 10162
  157.6375  130.9453  150.0586 H   0  0  0  0  0  0  0  0  0  0  0  0  # atno 10718 bound_to 10713
  153.7135  135.6949  153.5031 H   0  0  0  0  0  0  0  0  0  0  0  0  # atno 10763 bound_to 10752
  153.2255  135.4355  155.0536 H   0  0  0  0  0  0  0  0  0  0  0  0  # atno 10764 bound_to 10752
  154.8307  135.3471  154.6671 H   0  0  0  0  0  0  0  0  0  0  0  0  # atno 10765 bound_to 10752
  141.0482  133.6753  156.2941 H   0  0  0  0  0  0  0  0  0  0  0  0  # atno 11005 bound_to 11000
  145.3786  141.0354  143.3190 LP  0  0  0  0  0  0  0  0  0  0  0  0  # atno 17320 bound_to 7965
  144.8491  139.5350  143.6865 LP  0  0  0  0  0  0  0  0  0  0  0  0  # atno 17321 bound_to 7965
  140.1350  143.4492  152.2230 LP  0  0  0  0  0  0  0  0  0  0  0  0  # atno 17342 bound_to 10162
  139.5647  144.7427  151.4057 LP  0  0  0  0  0  0  0  0  0  0  0  0  # atno 17343 bound_to 10162
  156.1626  130.3644  149.9278 LP  0  0  0  0  0  0  0  0  0  0  0  0  # atno 17370 bound_to 10713
  156.7272  130.9029  151.3623 LP  0  0  0  0  0  0  0  0  0  0  0  0  # atno 17371 bound_to 10713
  140.6106  134.5462  157.5533 LP  0  0  0  0  0  0  0  0  0  0  0  0  # atno 17394 bound_to 11000
  139.9329  134.7930  156.0882 LP  0  0  0  0  0  0  0  0  0  0  0  0  # atno 17395 bound_to 11000

$$$$
