AV-unprocessed.smi:3090|AV-procd|sdf|11777|dock6
  -GOLD-   2272017153D 1   1.00000     0.00000
 Structure written by MMmdl.
 21 21  0  0  0  0  0  0  0  0  1 V2000
  151.7927  138.9515  154.7400 C   0  0  0  0  0  0  0  0  0  0  0  0
  150.4820  139.5462  154.5909 N   0  0  0  0  0  0  0  0  0  0  0  0
  149.3378  138.9885  154.0626 C   0  0  0  0  0  0  0  0  0  0  0  0
  148.3506  139.9331  154.1277 C   0  0  0  0  0  0  0  0  0  0  0  0
  146.9116  139.8437  153.6916 C   0  0  1  0  0  0  0  0  0  0  0  0
  146.5835  140.9043  152.8161 O   0  0  0  0  0  0  0  0  0  0  0  0
  146.6549  138.5195  152.9522 C   0  0  0  0  0  0  0  0  0  0  0  0
  147.3870  138.4247  151.6795 N   0  0  0  0  0  0  0  0  0  0  0  0
  149.0046  141.0478  154.7269 C   0  0  0  0  0  0  0  0  0  0  0  0
  150.2776  140.8143  155.0013 N   0  0  0  0  0  0  0  0  0  0  0  0
  151.7848  137.9282  154.3637 H   0  0  0  0  0  0  0  0  0  0  0  0
  152.0759  138.9403  155.7929 H   0  0  0  0  0  0  0  0  0  0  0  0
  152.5259  139.5304  154.1776 H   0  0  0  0  0  0  0  0  0  0  0  0
  149.3187  137.9760  153.6865 H   0  0  0  0  0  0  0  0  0  0  0  0
  146.2532  139.9091  154.5590 H   0  0  0  0  0  0  0  0  0  0  0  0
  145.6428  140.9505  152.7406 H   0  0  0  0  0  0  0  0  0  0  0  0
  146.8944  137.6722  153.5959 H   0  0  0  0  0  0  0  0  0  0  0  0
  145.5886  138.4417  152.7367 H   0  0  0  0  0  0  0  0  0  0  0  0
  148.1535  139.0958  151.6588 H   0  0  0  0  0  0  0  0  0  0  0  0
  147.7970  137.4982  151.5722 H   0  0  0  0  0  0  0  0  0  0  0  0
  148.5920  142.0161  154.9688 H   0  0  0  0  0  0  0  0  0  0  0  0
  1  2  1  0  0  0  0
  1 11  1  0  0  0  0
  1 12  1  0  0  0  0
  1 13  1  0  0  0  0
  2 10  1  0  0  0  0
  2  3  1  0  0  0  0
  3  4  2  0  0  0  0
  3 14  1  0  0  0  0
  4  5  1  0  0  0  0
  4  9  1  0  0  0  0
  5  6  1  0  0  0  0
  5  7  1  0  0  0  0
  5 15  1  0  0  0  0
  6 16  1  0  0  0  0
  7  8  1  0  0  0  0
  7 17  1  0  0  0  0
  7 18  1  0  0  0  0
  8 19  1  0  0  0  0
  8 20  1  0  0  0  0
  9 10  2  0  0  0  0
  9 21  1  0  0  0  0
M  END
> <s_m_source_file>
AV-unprocessed.smi

> <i_m_source_file_index>
3090

> <i_lp_mmshare_version>
43012

> <i_f3d_flags>
0

> <s_epik_input>
W0NIM11uMVtjSF1jKFtjSF1uMSlbQ0BIXShbT0hdKVtDSDJdW05IMl0=

> <s_epik_cmdline>
J2VwaWtfcHl0aG9uJywgJy1waCcsICc3LjAnLCAnLXRuJywgJzgnLCAnLW1hJywgJzIwMCcsICctbWV0YWxfYmluZGluZycsICctaW1hZScsICc8aW5maWxlLm1hZT4nLCAnLW9tYWUnLCAnPG91dGZpbGUubWFlPic=

> <r_lp_tautomer_probability>
1

> <r_epik_Ionization_Penalty>
2.22426

> <r_epik_Ionization_Penalty_Charging>
0

> <r_epik_Ionization_Penalty_Neutral>
2.22426

> <r_epik_State_Penalty>
2.36938

> <r_epik_Charging_Adjusted_Penalty>
2.36938

> <i_epik_Tot_Q>
0

> <i_epik_Tot_abs_Q>
0

> <r_epik_Metal_State_Penalty>
2.36934

> <b_epik_Metal_Only>
0

> <s_lp_Force_Field>
OPLS_2005

> <r_lp_Energy>
8.04815

> <b_lp_Chiralities_Consistent>
1

> <s_lp_Variant>
AV-unprocessed.smi:3090-4

> <Gold.Version>
5.8.1

> <Gold.Id.Protein>
6NUR|6NUR_protein|mol2

> <Gold.PLP.Fitness>
34.7860

> <Gold.PLP.PLP>
-22.2335

> <Gold.PLP.part.hbond>
-5.0000

> <Gold.PLP.part.metal>
0.0000

> <Gold.PLP.part.buried>
0.3136

> <Gold.PLP.part.nonpolar>
-16.7441

> <Gold.PLP.part.repulsive>
0.0948

> <Gold.PLP.ligand.clash>
0.0000

> <Gold.PLP.ligand.torsion>
0.0917

> <Gold.PLP.Chemscore.Hbond>
2.9000

> <Gold.PLP.Chemscore.CHOScore>
1.3450

> <Gold.PLP.Chemscore.Metal>
0.0000

> <Gold.Chemscore.Hbonds>
donor molecule, donor type, donor heavy atom, donor atom, acceptor molecule, acceptor atom, score
      L1  H     6    16       P1 10175  0.90
      L1  H     8    19       P1  7957  1.00
      L1  H     8    20       P1  7948  1.00
      L1  C     3    14       P1  7948  1.00
      L1  C     9    21       P1  8028  0.35

> <Gold.PLP.Chemscore.Internal.Correction>
0.0009

> <Gold.Rescore>
     Score         DG    S(hbond)    S(metal)    S(lipo)     H(rot)  DE(clash)    DE(int)     intcor
     13.66     -13.80       2.58        0.00      39.13       1.90       0.02       0.13       ----

> <Gold.Chemscore.Fitness>
13.6572

> <Gold.Chemscore.DG>
-13.8016

> <Gold.Chemscore.ZeroCoef>
-5.4800

> <Gold.Chemscore.Hbond>
2.5801

> <Gold.Chemscore.Metal>
0.0000

> <Gold.Chemscore.Lipo>
39.1273

> <Gold.Chemscore.Internal_Hbond>
0.0000

> <Gold.Chemscore.DEClash>
0.0168

> <Gold.Chemscore.DEInternal>
0.1276

> <Gold.Chemscore.Rot>
1.9039

> <Gold.Chemscore.Internal.Correction>
   9.000000E+99

> <Gold.Chemscore.Hbonds>
donor molecule, donor type, donor heavy atom, donor atom, acceptor molecule, acceptor atom, score
      L1  H     6    16       P1 10175  0.17
      L1  H     8    19       P1  7957  0.92
      L1  H     8    20       P1  7948  0.98

> <Gold.Chemscore.Hbond.Weighted>
-8.6176

> <Gold.Chemscore.Metal.Weighted>
-0.0000

> <Gold.Chemscore.Lipo.Weighted>
-4.5779

> <Gold.Chemscore.Internal_Hbond.Weighted>
0.0000

> <Gold.Chemscore.DEClash.Weighted>
0.0168

> <Gold.Chemscore.DEInternal.Weighted>
0.1276

> <Gold.Chemscore.Rot.Weighted>
4.8739

> <Gold.Chemscore.Internal.Correction.Weighted>
   9.000000E+99

> <Gold.Protein.RotatedTorsions>
[ 6907 6896 6895 6894 ] final   73.11 input  -60.11 | X-H torsion
[ 7974 7965 7964 7962 ] final  132.66 input  175.53 | X-H torsion
[ 8008 7997 7996 7995 ] final  -38.74 input   59.86 | X-H torsion
[ 10167 10162 10161 10158 ] final -166.63 input  -65.29 | X-H torsion
[ 10718 10713 10712 10709 ] final  -24.10 input   66.30 | X-H torsion
[ 10763 10752 10751 10750 ] final   48.57 input  -60.55 | X-H torsion
[ 11005 11000 10999 10996 ] final  -59.55 input  -57.11 | X-H torsion

> <Gold.Protein.ActiveResidues>
 VAL166  LYS551  ARG553  GLY616  TRP617  ASP618  TYR619  PRO620  LYS621  CYS622 
 ASP623  PHE694  ASN695  SER759  ASP760  ASP761  ALA762  ILE779  LEU786  VAL792 
 PHE793  MET794  SER795  GLU796  ALA797  LYS798  CYS799  TRP800  GLU811  SER814 

> <Gold.Protein.RotatedAtoms>
  152.4905  134.4471  159.9562 H   0  0  0  0  0  0  0  0  0  0  0  0  # atno 6907 bound_to 6896
  151.4459  133.3624  159.2796 H   0  0  0  0  0  0  0  0  0  0  0  0  # atno 6908 bound_to 6896
  150.9055  134.8494  159.7450 H   0  0  0  0  0  0  0  0  0  0  0  0  # atno 6909 bound_to 6896
  144.9946  139.4373  143.5322 H   0  0  0  0  0  0  0  0  0  0  0  0  # atno 7974 bound_to 7965
  154.4032  140.1570  156.2750 H   0  0  0  0  0  0  0  0  0  0  0  0  # atno 8008 bound_to 7997
  155.8920  140.3438  155.5941 H   0  0  0  0  0  0  0  0  0  0  0  0  # atno 8009 bound_to 7997
  155.7548  140.0809  157.2175 H   0  0  0  0  0  0  0  0  0  0  0  0  # atno 8010 bound_to 7997
  139.6102  144.0830  152.1834 H   0  0  0  0  0  0  0  0  0  0  0  0  # atno 10167 bound_to 10162
  156.4822  130.4547  149.6805 H   0  0  0  0  0  0  0  0  0  0  0  0  # atno 10718 bound_to 10713
  152.9791  135.5940  154.3947 H   0  0  0  0  0  0  0  0  0  0  0  0  # atno 10763 bound_to 10752
  154.3598  135.2767  155.2328 H   0  0  0  0  0  0  0  0  0  0  0  0  # atno 10764 bound_to 10752
  154.4330  135.6032  153.6135 H   0  0  0  0  0  0  0  0  0  0  0  0  # atno 10765 bound_to 10752
  141.1253  133.6617  156.5089 H   0  0  0  0  0  0  0  0  0  0  0  0  # atno 11005 bound_to 11000
  146.3439  139.9297  142.8755 LP  0  0  0  0  0  0  0  0  0  0  0  0  # atno 17320 bound_to 7965
  145.2238  140.9946  143.4030 LP  0  0  0  0  0  0  0  0  0  0  0  0  # atno 17321 bound_to 7965
  140.0447  144.5980  150.7383 LP  0  0  0  0  0  0  0  0  0  0  0  0  # atno 17342 bound_to 10162
  140.7314  143.2693  151.3939 LP  0  0  0  0  0  0  0  0  0  0  0  0  # atno 17343 bound_to 10162
  156.3510  130.7432  151.2392 LP  0  0  0  0  0  0  0  0  0  0  0  0  # atno 17370 bound_to 10713
  157.7482  131.0377  150.4468 LP  0  0  0  0  0  0  0  0  0  0  0  0  # atno 17371 bound_to 10713
  140.4385  134.7037  157.4979 LP  0  0  0  0  0  0  0  0  0  0  0  0  # atno 17394 bound_to 11000
  140.0245  134.6497  155.9192 LP  0  0  0  0  0  0  0  0  0  0  0  0  # atno 17395 bound_to 11000

$$$$
