AV-unprocessed.smi:578|AV-procd|sdf|2986|dock2
  -GOLD-   2262023493D 1   1.00000     0.00000
 Structure written by MMmdl.
 32 33  0  0  0  0  0  0  0  0  2 V2000
  151.8488  144.9990  158.6267 C   0  0  0  0  0  0  0  0  0  0  0  0
  150.9603  143.9570  159.3291 C   0  0  1  0  0  0  0  0  0  0  0  0
  150.7970  142.6489  158.5290 C   0  0  0  0  0  0  0  0  0  0  0  0
  152.0117  141.8476  158.5968 N   0  0  0  0  0  0  0  0  0  0  0  0
  151.9617  140.7019  157.7908 C   0  0  0  0  0  0  0  0  0  0  0  0
  151.5858  140.8231  156.4392 C   0  0  0  0  0  0  0  0  0  0  0  0
  151.5433  139.6601  155.6477 C   0  0  0  0  0  0  0  0  0  0  0  0
  151.8428  138.4318  156.1182 N   0  0  0  0  0  0  0  0  0  0  0  0
  152.2034  138.3043  157.4182 C   0  0  0  0  0  0  0  0  0  0  0  0
  152.5308  136.9231  157.9200 C   0  0  0  0  0  0  0  0  0  0  0  0
  152.5287  136.7128  159.1540 O   0  0  0  0  0  0  0  0  0  0  0  0
  152.7955  136.0234  157.0906 O   0  5  0  0  0  0  0  0  0  0  0  0
  152.2750  139.4178  158.2891 C   0  0  0  0  0  0  0  0  0  0  0  0
  152.4199  141.5777  159.9678 C   0  0  0  0  0  0  0  0  0  0  0  0
  152.6139  142.9020  160.7279 C   0  0  2  0  0  0  0  0  0  0  0  0
  152.9435  142.6710  162.2059 C   0  0  0  0  0  0  0  0  0  0  0  0
  151.4128  143.6716  160.6559 O   0  0  0  0  0  0  0  0  0  0  0  0
  151.4159  145.2917  157.6702 H   0  0  0  0  0  0  0  0  0  0  0  0
  152.8508  144.6208  158.4256 H   0  0  0  0  0  0  0  0  0  0  0  0
  151.9456  145.8998  159.2333 H   0  0  0  0  0  0  0  0  0  0  0  0
  149.9724  144.4060  159.4351 H   0  0  0  0  0  0  0  0  0  0  0  0
  149.9659  142.0743  158.9406 H   0  0  0  0  0  0  0  0  0  0  0  0
  150.5484  142.8674  157.4895 H   0  0  0  0  0  0  0  0  0  0  0  0
  151.3369  141.7849  156.0154 H   0  0  0  0  0  0  0  0  0  0  0  0
  151.2609  139.7180  154.6070 H   0  0  0  0  0  0  0  0  0  0  0  0
  152.5635  139.2916  159.3226 H   0  0  0  0  0  0  0  0  0  0  0  0
  151.6630  140.9704  160.4663 H   0  0  0  0  0  0  0  0  0  0  0  0
  153.3473  141.0035  159.9688 H   0  0  0  0  0  0  0  0  0  0  0  0
  153.4360  143.4624  160.2821 H   0  0  0  0  0  0  0  0  0  0  0  0
  153.8600  142.0908  162.3168 H   0  0  0  0  0  0  0  0  0  0  0  0
  152.1412  142.1309  162.7092 H   0  0  0  0  0  0  0  0  0  0  0  0
  153.0852  143.6188  162.7257 H   0  0  0  0  0  0  0  0  0  0  0  0
  1  2  1  0  0  0  0
  1 18  1  0  0  0  0
  1 19  1  0  0  0  0
  1 20  1  0  0  0  0
  2 17  1  0  0  0  0
  2  3  1  0  0  0  0
  2 21  1  0  0  0  0
  3  4  1  0  0  0  0
  3 22  1  0  0  0  0
  3 23  1  0  0  0  0
  4  5  1  0  0  0  0
  4 14  1  0  0  0  0
  5 13  1  0  0  0  0
  5  6  2  0  0  0  0
  6  7  1  0  0  0  0
  6 24  1  0  0  0  0
  7  8  2  0  0  0  0
  7 25  1  0  0  0  0
  8  9  1  0  0  0  0
  9 10  1  0  0  0  0
  9 13  2  0  0  0  0
 10 11  2  0  0  0  0
 10 12  1  0  0  0  0
 13 26  1  0  0  0  0
 14 15  1  0  0  0  0
 14 27  1  0  0  0  0
 14 28  1  0  0  0  0
 15 16  1  0  0  0  0
 15 17  1  0  0  0  0
 15 29  1  0  0  0  0
 16 30  1  0  0  0  0
 16 31  1  0  0  0  0
 16 32  1  0  0  0  0
M  CHG  1  12  -1
M  END
> <s_m_source_file>
AV-unprocessed.smi

> <i_m_source_file_index>
578

> <i_lp_mmshare_version>
43012

> <i_f3d_flags>
0

> <s_epik_input>
W0NIM11bQ0BASF0xW0NIMl1OKFtDSDJdW0NASF0oTzEpW0NIM10pYzJbY0hdW2NIXW5jKFtjSF0yKUMoPU8pW09IXQ==

> <s_epik_cmdline>
J2VwaWtfcHl0aG9uJywgJy1waCcsICc3LjAnLCAnLXRuJywgJzgnLCAnLW1hJywgJzIwMCcsICctbWV0YWxfYmluZGluZycsICctaW1hZScsICc8aW5maWxlLm1hZT4nLCAnLW9tYWUnLCAnPG91dGZpbGUubWFlPic=

> <r_epik_Ionization_Penalty>
2.00764

> <r_epik_Ionization_Penalty_Charging>
0.000210348

> <r_epik_Ionization_Penalty_Neutral>
2.00743

> <r_epik_State_Penalty>
2.13668

> <r_epik_Charging_Adjusted_Penalty>
2.13689

> <i_epik_Tot_Q>
-1

> <i_epik_Tot_abs_Q>
1

> <r_epik_Metal_State_Penalty>
0.0208571

> <b_epik_Metal_Only>
0

> <s_lp_Force_Field>
OPLS_2005

> <r_lp_Energy>
23.987

> <b_lp_Chiralities_Consistent>
1

> <s_lp_Variant>
AV-unprocessed.smi:578-6

> <Gold.Version>
5.8.1

> <Gold.Id.Protein>
6NUR|6NUR_protein|mol2

> <Gold.PLP.Fitness>
45.4082

> <Gold.PLP.PLP>
-34.2963

> <Gold.PLP.part.hbond>
-2.1966

> <Gold.PLP.part.metal>
0.0000

> <Gold.PLP.part.buried>
-5.9690

> <Gold.PLP.part.nonpolar>
-26.3270

> <Gold.PLP.part.repulsive>
0.1086

> <Gold.PLP.ligand.clash>
0.3842

> <Gold.PLP.ligand.torsion>
0.2264

> <Gold.PLP.Chemscore.Hbond>
3.9520

> <Gold.PLP.Chemscore.CHOScore>
0.0000

> <Gold.PLP.Chemscore.Metal>
0.0000

> <Gold.Chemscore.Hbonds>
donor molecule, donor type, donor heavy atom, donor atom, acceptor molecule, acceptor atom, score
      P1  H  6896  6909       L1    11  1.92
      P1  H 10752 10765       L1    12  2.00

> <Gold.PLP.Chemscore.Internal.Correction>
0.0928

> <Gold.Rescore>
     Score         DG    S(hbond)    S(metal)    S(lipo)     H(rot)  DE(clash)    DE(int)     intcor
     19.77     -19.99       1.87        0.00      92.56       1.00       0.01       0.20       ----

> <Gold.Chemscore.Fitness>
19.7742

> <Gold.Chemscore.DG>
-19.9886

> <Gold.Chemscore.ZeroCoef>
-5.4800

> <Gold.Chemscore.Hbond>
1.8678

> <Gold.Chemscore.Metal>
0.0000

> <Gold.Chemscore.Lipo>
92.5650

> <Gold.Chemscore.Internal_Hbond>
0.0000

> <Gold.Chemscore.DEClash>
0.0149

> <Gold.Chemscore.DEInternal>
0.1995

> <Gold.Chemscore.Rot>
1.0000

> <Gold.Chemscore.Internal.Correction>
   9.000000E+99

> <Gold.Chemscore.Hbonds>
donor molecule, donor type, donor heavy atom, donor atom, acceptor molecule, acceptor atom, score
      P1  H  6896  6909       L1    11  0.91
      P1  H 10752 10765       L1    12  0.95

> <Gold.Chemscore.Hbond.Weighted>
-6.2385

> <Gold.Chemscore.Metal.Weighted>
-0.0000

> <Gold.Chemscore.Lipo.Weighted>
-10.8301

> <Gold.Chemscore.Internal_Hbond.Weighted>
0.0000

> <Gold.Chemscore.DEClash.Weighted>
0.0149

> <Gold.Chemscore.DEInternal.Weighted>
0.1995

> <Gold.Chemscore.Rot.Weighted>
2.5600

> <Gold.Chemscore.Internal.Correction.Weighted>
   9.000000E+99

> <Gold.Protein.RotatedTorsions>
[ 6907 6896 6895 6894 ] final  135.92 input  -60.11 | X-H torsion
[ 7974 7965 7964 7962 ] final   72.14 input  175.53 | X-H torsion
[ 8008 7997 7996 7995 ] final   57.37 input   59.86 | X-H torsion
[ 10167 10162 10161 10158 ] final  110.15 input  -65.29 | X-H torsion
[ 10718 10713 10712 10709 ] final -118.63 input   66.30 | X-H torsion
[ 10763 10752 10751 10750 ] final -129.58 input  -60.55 | X-H torsion
[ 11005 11000 10999 10996 ] final   24.72 input  -57.11 | X-H torsion

> <Gold.Protein.ActiveResidues>
 VAL166  LYS551  ARG553  GLY616  TRP617  ASP618  TYR619  PRO620  LYS621  CYS622 
 ASP623  PHE694  ASN695  SER759  ASP760  ASP761  ALA762  ILE779  LEU786  VAL792 
 PHE793  MET794  SER795  GLU796  ALA797  LYS798  CYS799  TRP800  GLU811  SER814 

> <Gold.Protein.RotatedAtoms>
  152.2951  133.5599  159.5582 H   0  0  0  0  0  0  0  0  0  0  0  0  # atno 6907 bound_to 6896
  150.7252  134.0373  159.3762 H   0  0  0  0  0  0  0  0  0  0  0  0  # atno 6908 bound_to 6896
  151.8276  135.0632  160.0483 H   0  0  0  0  0  0  0  0  0  0  0  0  # atno 6909 bound_to 6896
  145.7571  139.2784  143.1397 H   0  0  0  0  0  0  0  0  0  0  0  0  # atno 7974 bound_to 7965
  155.5326  140.3482  155.4429 H   0  0  0  0  0  0  0  0  0  0  0  0  # atno 8008 bound_to 7997
  156.0707  140.1362  156.9858 H   0  0  0  0  0  0  0  0  0  0  0  0  # atno 8009 bound_to 7997
  154.4527  140.0966  156.6640 H   0  0  0  0  0  0  0  0  0  0  0  0  # atno 8010 bound_to 7997
  139.6711  144.7125  151.1686 H   0  0  0  0  0  0  0  0  0  0  0  0  # atno 10167 bound_to 10162
  156.1120  130.6256  150.9315 H   0  0  0  0  0  0  0  0  0  0  0  0  # atno 10718 bound_to 10713
  154.8757  135.3890  154.3943 H   0  0  0  0  0  0  0  0  0  0  0  0  # atno 10763 bound_to 10752
  153.4675  135.7029  153.6018 H   0  0  0  0  0  0  0  0  0  0  0  0  # atno 10764 bound_to 10752
  153.4490  135.3838  155.2241 H   0  0  0  0  0  0  0  0  0  0  0  0  # atno 10765 bound_to 10752
  140.3556  134.2181  155.7676 H   0  0  0  0  0  0  0  0  0  0  0  0  # atno 11005 bound_to 11000
  146.0300  140.8267  142.9880 LP  0  0  0  0  0  0  0  0  0  0  0  0  # atno 17320 bound_to 7965
  144.6838  140.2755  143.7300 LP  0  0  0  0  0  0  0  0  0  0  0  0  # atno 17321 bound_to 7965
  140.7618  143.5843  150.8862 LP  0  0  0  0  0  0  0  0  0  0  0  0  # atno 17342 bound_to 10162
  139.9508  143.6274  152.3029 LP  0  0  0  0  0  0  0  0  0  0  0  0  # atno 17343 bound_to 10162
  157.6302  131.0922  150.8456 LP  0  0  0  0  0  0  0  0  0  0  0  0  # atno 17370 bound_to 10713
  156.8566  130.5098  149.5307 LP  0  0  0  0  0  0  0  0  0  0  0  0  # atno 17371 bound_to 10713
  141.1999  133.8000  157.0513 LP  0  0  0  0  0  0  0  0  0  0  0  0  # atno 17394 bound_to 11000
  140.0668  134.9725  157.1399 LP  0  0  0  0  0  0  0  0  0  0  0  0  # atno 17395 bound_to 11000

$$$$
