AV-unprocessed.smi:670|AV-procd|sdf|3265|dock7
  -GOLD-   22720 0213D 1   1.00000     0.00000
 Structure written by MMmdl.
 44 45  0  0  0  0  0  0  0  0  2 V2000
  153.3991  141.9688  160.4367 C   0  0  0  0  0  0  0  0  0  0  0  0
  152.7250  143.1386  159.7011 C   0  0  2  0  0  0  0  0  0  0  0  0
  152.4393  144.3000  160.6744 C   0  0  0  0  0  0  0  0  0  0  0  0
  151.7617  145.4831  159.9669 C   0  0  0  0  0  0  0  0  0  0  0  0
  150.4715  145.0390  159.2641 C   0  0  0  0  0  0  0  0  0  0  0  0
  150.7459  143.8887  158.2846 C   0  0  0  0  0  0  0  0  0  0  0  0
  151.4295  142.6945  158.9844 C   0  0  1  0  0  0  0  0  0  0  0  0
  151.7817  141.7180  158.0125 O   0  0  0  0  0  0  0  0  0  0  0  0
  150.7766  140.7467  157.7600 C   0  0  0  0  0  0  0  0  0  0  0  0
  151.2712  139.3829  158.2529 C   0  0  0  0  0  0  0  0  0  0  0  0
  150.1468  138.4881  158.4876 N   0  0  0  0  0  0  0  0  0  0  0  0
  150.2071  137.3621  159.2119 C   0  0  0  0  0  0  0  0  0  0  0  0
  151.2396  136.9714  159.7594 O   0  0  0  0  0  0  0  0  0  0  0  0
  148.8960  136.5659  159.3110 C   0  0  0  0  0  0  0  0  0  0  0  0
  148.6176  136.0218  160.6484 N   0  0  0  0  0  0  0  0  0  0  0  0
  148.4890  137.0424  161.6848 N   0  5  0  0  0  0  0  0  0  0  0  0
  148.2269  136.6599  162.9627 C   0  0  0  0  0  0  0  0  0  0  0  0
  148.0961  137.4618  163.8849 O   0  0  0  0  0  0  0  0  0  0  0  0
  148.1022  135.2383  163.2394 C   0  0  0  0  0  0  0  0  0  0  0  0
  148.2455  134.3168  162.2666 C   0  0  0  0  0  0  0  0  0  0  0  0
  148.5287  134.6812  160.8837 C   0  0  0  0  0  0  0  0  0  0  0  0
  148.6756  133.8441  159.9926 O   0  0  0  0  0  0  0  0  0  0  0  0
  152.7468  141.5566  161.2073 H   0  0  0  0  0  0  0  0  0  0  0  0
  154.3226  142.2897  160.9192 H   0  0  0  0  0  0  0  0  0  0  0  0
  153.6546  141.1613  159.7501 H   0  0  0  0  0  0  0  0  0  0  0  0
  153.4234  143.5005  158.9447 H   0  0  0  0  0  0  0  0  0  0  0  0
  151.8004  143.9508  161.4869 H   0  0  0  0  0  0  0  0  0  0  0  0
  153.3680  144.6368  161.1364 H   0  0  0  0  0  0  0  0  0  0  0  0
  151.5403  146.2705  160.6880 H   0  0  0  0  0  0  0  0  0  0  0  0
  152.4476  145.9150  159.2372 H   0  0  0  0  0  0  0  0  0  0  0  0
  149.7390  144.7208  160.0072 H   0  0  0  0  0  0  0  0  0  0  0  0
  150.0286  145.8821  158.7333 H   0  0  0  0  0  0  0  0  0  0  0  0
  149.8080  143.5794  157.8238 H   0  0  0  0  0  0  0  0  0  0  0  0
  151.3817  144.2483  157.4745 H   0  0  0  0  0  0  0  0  0  0  0  0
  150.7530  142.2649  159.7262 H   0  0  0  0  0  0  0  0  0  0  0  0
  149.8646  141.0206  158.2922 H   0  0  0  0  0  0  0  0  0  0  0  0
  150.5314  140.6941  156.6989 H   0  0  0  0  0  0  0  0  0  0  0  0
  151.9510  138.9410  157.5231 H   0  0  0  0  0  0  0  0  0  0  0  0
  151.8299  139.5080  159.1816 H   0  0  0  0  0  0  0  0  0  0  0  0
  149.2660  138.7345  158.0598 H   0  0  0  0  0  0  0  0  0  0  0  0
  148.0674  137.2052  159.0016 H   0  0  0  0  0  0  0  0  0  0  0  0
  148.9347  135.7620  158.5737 H   0  0  0  0  0  0  0  0  0  0  0  0
  147.8924  134.9142  164.2481 H   0  0  0  0  0  0  0  0  0  0  0  0
  148.1467  133.2713  162.5179 H   0  0  0  0  0  0  0  0  0  0  0  0
  1  2  1  0  0  0  0
  1 23  1  0  0  0  0
  1 24  1  0  0  0  0
  1 25  1  0  0  0  0
  2  7  1  0  0  0  0
  2  3  1  0  0  0  0
  2 26  1  0  0  0  0
  3  4  1  0  0  0  0
  3 27  1  0  0  0  0
  3 28  1  0  0  0  0
  4  5  1  0  0  0  0
  4 29  1  0  0  0  0
  4 30  1  0  0  0  0
  5  6  1  0  0  0  0
  5 31  1  0  0  0  0
  5 32  1  0  0  0  0
  6  7  1  0  0  0  0
  6 33  1  0  0  0  0
  6 34  1  0  0  0  0
  7  8  1  0  0  0  0
  7 35  1  0  0  0  0
  8  9  1  0  0  0  0
  9 10  1  0  0  0  0
  9 36  1  0  0  0  0
  9 37  1  0  0  0  0
 10 11  1  0  0  0  0
 10 38  1  0  0  0  0
 10 39  1  0  0  0  0
 11 12  1  0  0  0  0
 11 40  1  0  0  0  0
 12 13  2  0  0  0  0
 12 14  1  0  0  0  0
 14 41  1  0  0  0  0
 14 42  1  0  0  0  0
 14 15  1  0  0  0  0
 15 16  1  0  0  0  0
 15 21  1  0  0  0  0
 16 17  1  0  0  0  0
 17 18  2  0  0  0  0
 17 19  1  0  0  0  0
 19 43  1  0  0  0  0
 19 20  2  0  0  0  0
 20 44  1  0  0  0  0
 20 21  1  0  0  0  0
 21 22  2  0  0  0  0
M  CHG  1  16  -1
M  END
> <s_m_source_file>
AV-unprocessed.smi

> <i_m_source_file_index>
670

> <i_lp_mmshare_version>
43012

> <i_f3d_flags>
0

> <s_epik_input>
W0NIM11bQ0BASF0xW0NIMl1bQ0gyXVtDSDJdW0NIMl1bQ0BIXTFPW0NIMl1bQ0gyXVtOSF1DKD1PKVtDSDJdbjJbbkhdYyg9TylbY0hdW2NIXWMyPU8=

> <s_epik_cmdline>
J2VwaWtfcHl0aG9uJywgJy1waCcsICc3LjAnLCAnLXRuJywgJzgnLCAnLW1hJywgJzIwMCcsICctbWV0YWxfYmluZGluZycsICctaW1hZScsICc8aW5maWxlLm1hZT4nLCAnLW9tYWUnLCAnPG91dGZpbGUubWFlPic=

> <r_lp_tautomer_probability>
1

> <r_epik_Ionization_Penalty>
0.0975638

> <r_epik_Ionization_Penalty_Charging>
0.0975637

> <r_epik_Ionization_Penalty_Neutral>
2.78599e-08

> <r_epik_State_Penalty>
0.0343507

> <r_epik_Charging_Adjusted_Penalty>
0.131914

> <i_epik_Tot_Q>
-1

> <i_epik_Tot_abs_Q>
1

> <r_epik_Metal_State_Penalty>
0.0343507

> <b_epik_Metal_Only>
0

> <s_lp_Force_Field>
OPLS_2005

> <r_lp_Energy>
26.6339

> <b_lp_Chiralities_Consistent>
1

> <s_lp_Variant>
AV-unprocessed.smi:670-1

> <Gold.Version>
5.8.1

> <Gold.Id.Protein>
6NUR|6NUR_protein|mol2

> <Gold.PLP.Fitness>
57.5688

> <Gold.PLP.PLP>
-47.6322

> <Gold.PLP.part.hbond>
-3.9257

> <Gold.PLP.part.metal>
0.0000

> <Gold.PLP.part.buried>
-5.7858

> <Gold.PLP.part.nonpolar>
-39.7867

> <Gold.PLP.part.repulsive>
0.1768

> <Gold.PLP.ligand.clash>
0.0000

> <Gold.PLP.ligand.torsion>
1.2137

> <Gold.PLP.Chemscore.Hbond>
4.1040

> <Gold.PLP.Chemscore.CHOScore>
0.0000

> <Gold.PLP.Chemscore.Metal>
0.0000

> <Gold.Chemscore.Hbonds>
donor molecule, donor type, donor heavy atom, donor atom, acceptor molecule, acceptor atom, score
      P1  H  6896  6908       L1    13  0.85
      P1  H  6931  6943       L1    16  1.04

> <Gold.PLP.Chemscore.Internal.Correction>
0.0521

> <Gold.Rescore>
     Score         DG    S(hbond)    S(metal)    S(lipo)     H(rot)  DE(clash)    DE(int)     intcor
     16.07     -17.27       1.71        0.00     105.38       2.45       0.10       1.10       ----

> <Gold.Chemscore.Fitness>
16.0715

> <Gold.Chemscore.DG>
-17.2678

> <Gold.Chemscore.ZeroCoef>
-5.4800

> <Gold.Chemscore.Hbond>
1.7149

> <Gold.Chemscore.Metal>
0.0000

> <Gold.Chemscore.Lipo>
105.3793

> <Gold.Chemscore.Internal_Hbond>
0.0000

> <Gold.Chemscore.DEClash>
0.0960

> <Gold.Chemscore.DEInternal>
1.1003

> <Gold.Chemscore.Rot>
2.4490

> <Gold.Chemscore.Internal.Correction>
   9.000000E+99

> <Gold.Chemscore.Hbonds>
donor molecule, donor type, donor heavy atom, donor atom, acceptor molecule, acceptor atom, score
      P1  H  6896  6908       L1    13  0.37
      P1  H  6931  6943       L1    16  0.13
      P1  H  6934  6947       L1    16  0.01

> <Gold.Chemscore.Hbond.Weighted>
-5.7278

> <Gold.Chemscore.Metal.Weighted>
-0.0000

> <Gold.Chemscore.Lipo.Weighted>
-12.3294

> <Gold.Chemscore.Internal_Hbond.Weighted>
0.0000

> <Gold.Chemscore.DEClash.Weighted>
0.0960

> <Gold.Chemscore.DEInternal.Weighted>
1.1003

> <Gold.Chemscore.Rot.Weighted>
6.2694

> <Gold.Chemscore.Internal.Correction.Weighted>
   9.000000E+99

> <Gold.Protein.RotatedTorsions>
[ 6907 6896 6895 6894 ] final -156.52 input  -60.11 | X-H torsion
[ 7974 7965 7964 7962 ] final   48.14 input  175.53 | X-H torsion
[ 8008 7997 7996 7995 ] final   94.66 input   59.86 | X-H torsion
[ 10167 10162 10161 10158 ] final  -95.47 input  -65.29 | X-H torsion
[ 10718 10713 10712 10709 ] final  -30.63 input   66.30 | X-H torsion
[ 10763 10752 10751 10750 ] final  -30.98 input  -60.55 | X-H torsion
[ 11005 11000 10999 10996 ] final  -13.16 input  -57.11 | X-H torsion

> <Gold.Protein.ActiveResidues>
 VAL166  LYS551  ARG553  GLY616  TRP617  ASP618  TYR619  PRO620  LYS621  CYS622 
 ASP623  PHE694  ASN695  SER759  ASP760  ASP761  ALA762  ILE779  LEU786  VAL792 
 PHE793  MET794  SER795  GLU796  ALA797  LYS798  CYS799  TRP800  GLU811  SER814 

> <Gold.Protein.RotatedAtoms>
  151.2888  133.4175  159.2631 H   0  0  0  0  0  0  0  0  0  0  0  0  # atno 6907 bound_to 6896
  151.0295  134.9529  159.8114 H   0  0  0  0  0  0  0  0  0  0  0  0  # atno 6908 bound_to 6896
  152.5342  134.2849  159.9074 H   0  0  0  0  0  0  0  0  0  0  0  0  # atno 6909 bound_to 6896
  146.0232  139.4675  142.9884 H   0  0  0  0  0  0  0  0  0  0  0  0  # atno 7974 bound_to 7965
  156.0604  140.3297  155.7455 H   0  0  0  0  0  0  0  0  0  0  0  0  # atno 8008 bound_to 7997
  155.5464  140.0606  157.2877 H   0  0  0  0  0  0  0  0  0  0  0  0  # atno 8009 bound_to 7997
  154.4478  140.1902  156.0630 H   0  0  0  0  0  0  0  0  0  0  0  0  # atno 8010 bound_to 7997
  140.3038  143.3146  152.0221 H   0  0  0  0  0  0  0  0  0  0  0  0  # atno 10167 bound_to 10162
  156.3974  130.4384  149.7348 H   0  0  0  0  0  0  0  0  0  0  0  0  # atno 10718 bound_to 10713
  153.7899  135.6898  153.4873 H   0  0  0  0  0  0  0  0  0  0  0  0  # atno 10763 bound_to 10752
  153.1756  135.4526  154.9959 H   0  0  0  0  0  0  0  0  0  0  0  0  # atno 10764 bound_to 10752
  154.8048  135.3352  154.7396 H   0  0  0  0  0  0  0  0  0  0  0  0  # atno 10765 bound_to 10752
  140.7732  133.8422  155.9225 H   0  0  0  0  0  0  0  0  0  0  0  0  # atno 11005 bound_to 11000
  145.7160  141.0090  143.1428 LP  0  0  0  0  0  0  0  0  0  0  0  0  # atno 17320 bound_to 7965
  144.6998  139.8814  143.7447 LP  0  0  0  0  0  0  0  0  0  0  0  0  # atno 17321 bound_to 7965
  139.4909  144.6436  151.6825 LP  0  0  0  0  0  0  0  0  0  0  0  0  # atno 17342 bound_to 10162
  140.5628  144.0240  150.6178 LP  0  0  0  0  0  0  0  0  0  0  0  0  # atno 17343 bound_to 10162
  156.4378  130.7846  151.2867 LP  0  0  0  0  0  0  0  0  0  0  0  0  # atno 17370 bound_to 10713
  157.7502  131.0134  150.3424 LP  0  0  0  0  0  0  0  0  0  0  0  0  # atno 17371 bound_to 10713
  140.9554  134.1725  157.4696 LP  0  0  0  0  0  0  0  0  0  0  0  0  # atno 17394 bound_to 11000
  139.8753  134.9925  156.5598 LP  0  0  0  0  0  0  0  0  0  0  0  0  # atno 17395 bound_to 11000

$$$$
