AV-unprocessed.smi:193|AV-procd|sdf|1506|dock9
  -GOLD-   2262019333D 1   1.00000     0.00000
 Structure written by MMmdl.
 62 66  0  0  0  0  0  0  0  0  2 V2000
  145.0745  137.4705  154.9059 C   0  0  0  0  0  0  0  0  0  0  0  0
  146.3329  136.5928  154.9866 C   0  0  2  0  0  0  0  0  0  0  0  0
  147.5777  137.3728  154.5195 C   0  0  0  0  0  0  0  0  0  0  0  0
  148.7929  136.8999  155.1812 N   0  0  0  0  0  0  0  0  0  0  0  0
  149.7441  137.8541  155.2504 C   0  0  0  0  0  0  0  0  0  0  0  0
  150.9748  137.5463  154.7742 N   0  0  0  0  0  0  0  0  0  0  0  0
  151.9545  138.4544  154.8279 C   0  0  0  0  0  0  0  0  0  0  0  0
  151.9137  139.6998  155.3079 N   0  0  0  0  0  0  0  0  0  0  0  0
  150.6742  140.0088  155.7864 C   0  0  0  0  0  0  0  0  0  0  0  0
  149.5399  139.1506  155.7987 C   0  0  0  0  0  0  0  0  0  0  0  0
  148.4528  139.8035  156.3667 N   0  0  0  0  0  0  0  0  0  0  0  0
  148.9173  140.9859  156.6674 C   0  0  0  0  0  0  0  0  0  0  0  0
  150.2403  141.1965  156.3487 N   0  0  0  0  0  0  0  0  0  0  0  0
  151.0056  142.4136  156.5714 C   0  0  0  0  0  0  0  0  0  0  0  0
  151.2950  142.7091  158.0639 C   0  0  0  0  0  0  0  0  0  0  0  0
  150.0492  142.8658  158.7219 O   0  0  0  0  0  0  0  0  0  0  0  0
  152.0412  141.5245  158.7100 C   0  0  0  0  0  0  0  0  0  0  0  0
  152.5042  141.8408  160.1432 C   0  0  0  0  0  0  0  0  0  0  0  0
  153.3032  143.0174  160.1471 O   0  0  0  0  0  0  0  0  0  0  0  0
  152.5860  144.1698  159.7223 C   0  0  0  0  0  0  0  0  0  0  0  0
  152.1208  143.9988  158.2653 C   0  0  0  0  0  0  0  0  0  0  0  0
  149.3418  135.5887  154.8440 C   0  0  0  0  0  0  0  0  0  0  0  0
  148.3272  134.4432  154.9777 C   0  0  0  0  0  0  0  0  0  0  0  0
  147.3344  134.5135  153.8790 N   0  3  1  0  0  0  0  0  0  0  0  0
  147.0210  133.1895  153.2925 C   0  0  2  0  0  0  0  0  0  0  0  0
  147.8355  132.8571  152.0620 C   0  0  0  0  0  0  0  0  0  0  0  0
  146.3767  133.2298  151.9172 C   0  0  2  0  0  0  0  0  0  0  0  0
  145.9894  134.5136  151.2052 C   0  0  0  0  0  0  0  0  0  0  0  0
  146.1021  135.2734  154.2134 C   0  0  0  0  0  0  0  0  0  0  0  0
  144.8674  137.7772  153.8801 H   0  0  0  0  0  0  0  0  0  0  0  0
  145.1848  138.3743  155.5062 H   0  0  0  0  0  0  0  0  0  0  0  0
  144.1994  136.9374  155.2782 H   0  0  0  0  0  0  0  0  0  0  0  0
  146.4665  136.3552  156.0434 H   0  0  0  0  0  0  0  0  0  0  0  0
  147.6874  137.3154  153.4355 H   0  0  0  0  0  0  0  0  0  0  0  0
  147.4445  138.4300  154.7580 H   0  0  0  0  0  0  0  0  0  0  0  0
  152.9074  138.1384  154.4293 H   0  0  0  0  0  0  0  0  0  0  0  0
  148.3036  141.7455  157.1299 H   0  0  0  0  0  0  0  0  0  0  0  0
  151.9395  142.3355  156.0127 H   0  0  0  0  0  0  0  0  0  0  0  0
  150.4564  143.2441  156.1261 H   0  0  0  0  0  0  0  0  0  0  0  0
  149.4879  143.3970  158.1779 H   0  0  0  0  0  0  0  0  0  0  0  0
  151.4166  140.6300  158.7066 H   0  0  0  0  0  0  0  0  0  0  0  0
  152.9206  141.2839  158.1110 H   0  0  0  0  0  0  0  0  0  0  0  0
  151.6533  141.9615  160.8152 H   0  0  0  0  0  0  0  0  0  0  0  0
  153.0980  141.0137  160.5326 H   0  0  0  0  0  0  0  0  0  0  0  0
  151.7398  144.3508  160.3864 H   0  0  0  0  0  0  0  0  0  0  0  0
  153.2402  145.0381  159.8030 H   0  0  0  0  0  0  0  0  0  0  0  0
  153.0023  143.9631  157.6239 H   0  0  0  0  0  0  0  0  0  0  0  0
  151.5533  144.8779  157.9575 H   0  0  0  0  0  0  0  0  0  0  0  0
  149.7499  135.6020  153.8324 H   0  0  0  0  0  0  0  0  0  0  0  0
  150.1811  135.3883  155.5121 H   0  0  0  0  0  0  0  0  0  0  0  0
  148.8829  133.5075  154.9059 H   0  0  0  0  0  0  0  0  0  0  0  0
  147.8478  134.4269  155.9575 H   0  0  0  0  0  0  0  0  0  0  0  0
  146.7727  132.4017  154.0015 H   0  0  0  0  0  0  0  0  0  0  0  0
  148.5788  133.5788  151.7271 H   0  0  0  0  0  0  0  0  0  0  0  0
  148.0990  131.8137  151.9003 H   0  0  0  0  0  0  0  0  0  0  0  0
  145.6986  132.4061  151.7022 H   0  0  0  0  0  0  0  0  0  0  0  0
  146.7261  135.3005  151.3700 H   0  0  0  0  0  0  0  0  0  0  0  0
  145.0186  134.8615  151.5581 H   0  0  0  0  0  0  0  0  0  0  0  0
  145.9187  134.3343  150.1321 H   0  0  0  0  0  0  0  0  0  0  0  0
  145.4325  134.6376  154.7948 H   0  0  0  0  0  0  0  0  0  0  0  0
  145.5840  135.4851  153.2780 H   0  0  0  0  0  0  0  0  0  0  0  0
  147.7935  135.0315  153.1433 H   0  0  0  0  0  0  0  0  0  0  0  0
  1  2  1  0  0  0  0
  1 30  1  0  0  0  0
  1 31  1  0  0  0  0
  1 32  1  0  0  0  0
  2 29  1  0  0  0  0
  2  3  1  0  0  0  0
  2 33  1  0  0  0  0
  3  4  1  0  0  0  0
  3 34  1  0  0  0  0
  3 35  1  0  0  0  0
  4  5  1  0  0  0  0
  4 22  1  0  0  0  0
  5 10  1  0  0  0  0
  5  6  2  0  0  0  0
  6  7  1  0  0  0  0
  7  8  2  0  0  0  0
  7 36  1  0  0  0  0
  8  9  1  0  0  0  0
  9 13  1  0  0  0  0
  9 10  2  0  0  0  0
 10 11  1  0  0  0  0
 11 12  2  0  0  0  0
 12 13  1  0  0  0  0
 12 37  1  0  0  0  0
 13 14  1  0  0  0  0
 14 15  1  0  0  0  0
 14 38  1  0  0  0  0
 14 39  1  0  0  0  0
 15 21  1  0  0  0  0
 15 16  1  0  0  0  0
 15 17  1  0  0  0  0
 16 40  1  0  0  0  0
 17 18  1  0  0  0  0
 17 41  1  0  0  0  0
 17 42  1  0  0  0  0
 18 19  1  0  0  0  0
 18 43  1  0  0  0  0
 18 44  1  0  0  0  0
 19 20  1  0  0  0  0
 20 21  1  0  0  0  0
 20 45  1  0  0  0  0
 20 46  1  0  0  0  0
 21 47  1  0  0  0  0
 21 48  1  0  0  0  0
 22 23  1  0  0  0  0
 22 49  1  0  0  0  0
 22 50  1  0  0  0  0
 23 24  1  0  0  0  0
 23 51  1  0  0  0  0
 23 52  1  0  0  0  0
 24 25  1  0  0  0  0
 24 29  1  0  0  0  0
 24 62  1  0  0  0  0
 25 27  1  0  0  0  0
 25 26  1  0  0  0  0
 25 53  1  0  0  0  0
 26 27  1  0  0  0  0
 26 54  1  0  0  0  0
 26 55  1  0  0  0  0
 27 28  1  0  0  0  0
 27 56  1  0  0  0  0
 28 57  1  0  0  0  0
 28 58  1  0  0  0  0
 28 59  1  0  0  0  0
 29 60  1  0  0  0  0
 29 61  1  0  0  0  0
M  CHG  1  24   1
M  END
> <s_m_source_file>
AV-unprocessed.smi

> <i_m_source_file_index>
193

> <i_lp_mmshare_version>
43012

> <i_f3d_flags>
0

> <s_epik_input>
W0NIM11bQ0BASF0xW0NIMl1bQ0BIXTFOKFtDSDJdMilbQ0gyXVtDSDJdTihbQ0gyXVtDQEhdMltDSDNdKWMobltjSF1uMyljKGMzNCluW2NIXW40W0NIMl1DNShbT0hdKVtDSDJdW0NIMl1PW0NIMl1bQ0gyXTU=

> <s_epik_cmdline>
J2VwaWtfcHl0aG9uJywgJy1waCcsICc3LjAnLCAnLXRuJywgJzgnLCAnLW1hJywgJzIwMCcsICctbWV0YWxfYmluZGluZycsICctaW1hZScsICc8aW5maWxlLm1hZT4nLCAnLW9tYWUnLCAnPG91dGZpbGUubWFlPic=

> <r_lp_tautomer_probability>
1

> <r_epik_Ionization_Penalty>
0.0540825

> <r_epik_Ionization_Penalty_Charging>
0.0538476

> <r_epik_Ionization_Penalty_Neutral>
0.000234891

> <r_epik_State_Penalty>
0.0200719

> <r_epik_Charging_Adjusted_Penalty>
0.0739194

> <i_epik_Tot_Q>
1

> <i_epik_Tot_abs_Q>
1

> <r_epik_Metal_State_Penalty>
0.0199414

> <b_epik_Metal_Only>
0

> <s_lp_Force_Field>
OPLS_2005

> <r_lp_Energy>
59.2238

> <b_lp_Chiralities_Consistent>
1

> <s_lp_Variant>
AV-unprocessed.smi:193-11

> <Gold.Version>
5.8.1

> <Gold.Id.Protein>
6NUR|6NUR_protein|mol2

> <Gold.PLP.Fitness>
48.4565

> <Gold.PLP.PLP>
-40.1671

> <Gold.PLP.part.hbond>
-2.0000

> <Gold.PLP.part.metal>
0.0000

> <Gold.PLP.part.buried>
-4.2454

> <Gold.PLP.part.nonpolar>
-34.0919

> <Gold.PLP.part.repulsive>
0.3266

> <Gold.PLP.ligand.clash>
0.0000

> <Gold.PLP.ligand.torsion>
0.9245

> <Gold.PLP.Chemscore.Hbond>
2.8432

> <Gold.PLP.Chemscore.CHOScore>
0.0000

> <Gold.PLP.Chemscore.Metal>
0.0000

> <Gold.Chemscore.Hbonds>
donor molecule, donor type, donor heavy atom, donor atom, acceptor molecule, acceptor atom, score
      L1  H    24    62       P1  7948  1.76
      P1  H  7989  7998       L1     8  0.44

> <Gold.PLP.Chemscore.Internal.Correction>
1.6089

> <Gold.Rescore>
     Score         DG    S(hbond)    S(metal)    S(lipo)     H(rot)  DE(clash)    DE(int)     intcor
     12.77     -14.96       1.00        0.00     100.60       2.20       0.28       1.90       ----

> <Gold.Chemscore.Fitness>
12.7728

> <Gold.Chemscore.DG>
-14.9571

> <Gold.Chemscore.ZeroCoef>
-5.4800

> <Gold.Chemscore.Hbond>
1.0011

> <Gold.Chemscore.Metal>
0.0000

> <Gold.Chemscore.Lipo>
100.5971

> <Gold.Chemscore.Internal_Hbond>
0.0000

> <Gold.Chemscore.DEClash>
0.2809

> <Gold.Chemscore.DEInternal>
1.9034

> <Gold.Chemscore.Rot>
2.2018

> <Gold.Chemscore.Internal.Correction>
   9.000000E+99

> <Gold.Chemscore.Hbonds>
donor molecule, donor type, donor heavy atom, donor atom, acceptor molecule, acceptor atom, score
      L1  H    24    62       P1  7948  0.85
      P1  H  7989  7998       L1     8  0.02

> <Gold.Chemscore.Hbond.Weighted>
-3.3438

> <Gold.Chemscore.Metal.Weighted>
-0.0000

> <Gold.Chemscore.Lipo.Weighted>
-11.7699

> <Gold.Chemscore.Internal_Hbond.Weighted>
0.0000

> <Gold.Chemscore.DEClash.Weighted>
0.2809

> <Gold.Chemscore.DEInternal.Weighted>
1.9034

> <Gold.Chemscore.Rot.Weighted>
5.6366

> <Gold.Chemscore.Internal.Correction.Weighted>
   9.000000E+99

> <Gold.Protein.RotatedTorsions>
[ 6907 6896 6895 6894 ] final  107.17 input  -60.11 | X-H torsion
[ 7974 7965 7964 7962 ] final  -43.85 input  175.53 | X-H torsion
[ 8008 7997 7996 7995 ] final  159.52 input   59.86 | X-H torsion
[ 10167 10162 10161 10158 ] final -129.74 input  -65.29 | X-H torsion
[ 10718 10713 10712 10709 ] final  -92.40 input   66.30 | X-H torsion
[ 10763 10752 10751 10750 ] final  -80.71 input  -60.55 | X-H torsion
[ 11005 11000 10999 10996 ] final   58.19 input  -57.11 | X-H torsion

> <Gold.Protein.ActiveResidues>
 VAL166  LYS551  ARG553  GLY616  TRP617  ASP618  TYR619  PRO620  LYS621  CYS622 
 ASP623  PHE694  ASN695  SER759  ASP760  ASP761  ALA762  ILE779  LEU786  VAL792 
 PHE793  MET794  SER795  GLU796  ALA797  LYS798  CYS799  TRP800  GLU811  SER814 

> <Gold.Protein.RotatedAtoms>
  152.5165  133.9273  159.7563 H   0  0  0  0  0  0  0  0  0  0  0  0  # atno 6907 bound_to 6896
  150.9632  133.6415  159.2757 H   0  0  0  0  0  0  0  0  0  0  0  0  # atno 6908 bound_to 6896
  151.3652  135.0917  159.9500 H   0  0  0  0  0  0  0  0  0  0  0  0  # atno 6909 bound_to 6896
  145.9978  140.7109  142.9285 H   0  0  0  0  0  0  0  0  0  0  0  0  # atno 7974 bound_to 7965
  156.2233  140.1829  156.7424 H   0  0  0  0  0  0  0  0  0  0  0  0  # atno 8008 bound_to 7997
  154.5900  140.0652  156.9254 H   0  0  0  0  0  0  0  0  0  0  0  0  # atno 8009 bound_to 7997
  155.2352  140.3318  155.4301 H   0  0  0  0  0  0  0  0  0  0  0  0  # atno 8010 bound_to 7997
  139.9366  143.6211  152.2515 H   0  0  0  0  0  0  0  0  0  0  0  0  # atno 10167 bound_to 10162
  156.0002  130.4985  150.5620 H   0  0  0  0  0  0  0  0  0  0  0  0  # atno 10718 bound_to 10713
  154.5545  135.5651  153.6952 H   0  0  0  0  0  0  0  0  0  0  0  0  # atno 10763 bound_to 10752
  152.9999  135.6259  154.2328 H   0  0  0  0  0  0  0  0  0  0  0  0  # atno 10764 bound_to 10752
  154.2264  135.2867  155.2886 H   0  0  0  0  0  0  0  0  0  0  0  0  # atno 10765 bound_to 10752
  140.0396  134.5892  155.9399 H   0  0  0  0  0  0  0  0  0  0  0  0  # atno 11005 bound_to 11000
  144.6909  140.3181  143.7237 LP  0  0  0  0  0  0  0  0  0  0  0  0  # atno 17320 bound_to 7965
  145.7533  139.1801  143.2309 LP  0  0  0  0  0  0  0  0  0  0  0  0  # atno 17321 bound_to 7965
  139.6738  144.7659  151.1733 LP  0  0  0  0  0  0  0  0  0  0  0  0  # atno 17342 bound_to 10162
  140.7623  143.5825  150.8880 LP  0  0  0  0  0  0  0  0  0  0  0  0  # atno 17343 bound_to 10162
  157.3528  131.0736  151.1700 LP  0  0  0  0  0  0  0  0  0  0  0  0  # atno 17370 bound_to 10713
  157.2511  130.6614  149.5932 LP  0  0  0  0  0  0  0  0  0  0  0  0  # atno 17371 bound_to 10713
  141.1876  133.6560  156.5288 LP  0  0  0  0  0  0  0  0  0  0  0  0  # atno 17394 bound_to 11000
  140.4090  134.7289  157.4825 LP  0  0  0  0  0  0  0  0  0  0  0  0  # atno 17395 bound_to 11000

$$$$
