AV-unprocessed.smi:1322|AV-procd|sdf|5463|dock8
  -GOLD-   22720 5 33D 1   1.00000     0.00000
 Structure written by MMmdl.
 32 33  0  0  0  0  0  0  0  0  1 V2000
  149.2949  140.5277  157.8146 C   0  0  0  0  0  0  0  0  0  0  0  0
  149.9091  141.5868  156.8796 C   0  0  2  0  0  0  0  0  0  0  0  0
  151.2541  141.1437  156.2682 C   0  0  0  0  0  0  0  0  0  0  0  0
  151.1576  139.9038  155.5189 N   0  0  0  0  0  0  0  0  0  0  0  0
  151.6838  138.6681  155.8324 C   0  0  0  0  0  0  0  0  0  0  0  0
  151.3405  137.8128  154.8250 C   0  0  0  0  0  0  0  0  0  0  0  0
  150.5989  138.6298  153.9263 C   0  0  0  0  0  0  0  0  0  0  0  0
  150.4934  139.8811  154.3432 N   0  0  0  0  0  0  0  0  0  0  0  0
  150.1052  142.8448  157.5951 N   0  0  0  0  0  0  0  0  0  0  0  0
  150.7187  142.9817  158.7807 C   0  0  0  0  0  0  0  0  0  0  0  0
  151.2118  142.0379  159.3996 O   0  0  0  0  0  0  0  0  0  0  0  0
  150.7719  144.4071  159.3465 C   0  0  0  0  0  0  0  0  0  0  0  0
  151.8048  145.3226  158.6669 C   0  0  0  0  0  0  0  0  0  0  0  0
  152.2094  145.8265  160.0556 C   0  0  0  0  0  0  0  0  0  0  0  0
  151.5846  144.5586  160.6455 C   0  0  0  0  0  0  0  0  0  0  0  0
  149.0822  139.6007  157.2821 H   0  0  0  0  0  0  0  0  0  0  0  0
  148.3532  140.8739  158.2414 H   0  0  0  0  0  0  0  0  0  0  0  0
  149.9672  140.2913  158.6399 H   0  0  0  0  0  0  0  0  0  0  0  0
  149.2112  141.7630  156.0588 H   0  0  0  0  0  0  0  0  0  0  0  0
  151.6398  141.9159  155.6006 H   0  0  0  0  0  0  0  0  0  0  0  0
  151.9999  141.0121  157.0536 H   0  0  0  0  0  0  0  0  0  0  0  0
  152.2505  138.5018  156.7368 H   0  0  0  0  0  0  0  0  0  0  0  0
  151.5831  136.7638  154.7415 H   0  0  0  0  0  0  0  0  0  0  0  0
  150.1384  138.3531  152.9894 H   0  0  0  0  0  0  0  0  0  0  0  0
  149.7316  143.6762  157.1609 H   0  0  0  0  0  0  0  0  0  0  0  0
  149.7920  144.8824  159.4220 H   0  0  0  0  0  0  0  0  0  0  0  0
  152.6113  144.7893  158.1603 H   0  0  0  0  0  0  0  0  0  0  0  0
  151.3717  146.0906  158.0254 H   0  0  0  0  0  0  0  0  0  0  0  0
  153.2846  145.9196  160.2109 H   0  0  0  0  0  0  0  0  0  0  0  0
  151.6773  146.7335  160.3469 H   0  0  0  0  0  0  0  0  0  0  0  0
  150.9806  144.7357  161.5358 H   0  0  0  0  0  0  0  0  0  0  0  0
  152.3187  143.7690  160.8153 H   0  0  0  0  0  0  0  0  0  0  0  0
  1  2  1  0  0  0  0
  1 16  1  0  0  0  0
  1 17  1  0  0  0  0
  1 18  1  0  0  0  0
  2  3  1  0  0  0  0
  2  9  1  0  0  0  0
  2 19  1  0  0  0  0
  3  4  1  0  0  0  0
  3 20  1  0  0  0  0
  3 21  1  0  0  0  0
  4  8  1  0  0  0  0
  4  5  1  0  0  0  0
  5  6  2  0  0  0  0
  5 22  1  0  0  0  0
  6  7  1  0  0  0  0
  6 23  1  0  0  0  0
  7  8  2  0  0  0  0
  7 24  1  0  0  0  0
  9 10  1  0  0  0  0
  9 25  1  0  0  0  0
 10 11  2  0  0  0  0
 10 12  1  0  0  0  0
 12 15  1  0  0  0  0
 12 13  1  0  0  0  0
 12 26  1  0  0  0  0
 13 14  1  0  0  0  0
 13 27  1  0  0  0  0
 13 28  1  0  0  0  0
 14 15  1  0  0  0  0
 14 29  1  0  0  0  0
 14 30  1  0  0  0  0
 15 31  1  0  0  0  0
 15 32  1  0  0  0  0
M  END
> <s_m_source_file>
AV-unprocessed.smi

> <i_m_source_file_index>
1322

> <i_lp_mmshare_version>
43012

> <i_f3d_flags>
0

> <s_epik_input>
W0NIMl0xW0NIMl1bQ0gyXVtDSF0xQyg9TylbTkhdW0NASF0oW0NIM10pW0NIMl1uMltjSF1bY0hdW2NIXW4y

> <s_epik_cmdline>
J2VwaWtfcHl0aG9uJywgJy1waCcsICc3LjAnLCAnLXRuJywgJzgnLCAnLW1hJywgJzIwMCcsICctbWV0YWxfYmluZGluZycsICctaW1hZScsICc8aW5maWxlLm1hZT4nLCAnLW9tYWUnLCAnPG91dGZpbGUubWFlPic=

> <r_lp_tautomer_probability>
1

> <r_epik_Ionization_Penalty>
0.000326653

> <r_epik_Ionization_Penalty_Charging>
0

> <r_epik_Ionization_Penalty_Neutral>
0.000326653

> <r_epik_State_Penalty>
-0

> <r_epik_Charging_Adjusted_Penalty>
0

> <i_epik_Tot_Q>
0

> <i_epik_Tot_abs_Q>
0

> <r_epik_Metal_State_Penalty>
-0

> <b_epik_Metal_Only>
0

> <s_lp_Force_Field>
OPLS_2005

> <r_lp_Energy>
10.8536

> <b_lp_Chiralities_Consistent>
1

> <s_lp_Variant>
AV-unprocessed.smi:1322-1

> <Gold.Version>
5.8.1

> <Gold.Id.Protein>
6NUR|6NUR_protein|mol2

> <Gold.PLP.Fitness>
43.4525

> <Gold.PLP.PLP>
-33.2796

> <Gold.PLP.part.hbond>
-2.8220

> <Gold.PLP.part.metal>
0.0000

> <Gold.PLP.part.buried>
-6.0194

> <Gold.PLP.part.nonpolar>
-23.8843

> <Gold.PLP.part.repulsive>
0.1491

> <Gold.PLP.ligand.clash>
0.0000

> <Gold.PLP.ligand.torsion>
0.4444

> <Gold.PLP.Chemscore.Hbond>
1.9500

> <Gold.PLP.Chemscore.CHOScore>
1.5981

> <Gold.PLP.Chemscore.Metal>
0.0000

> <Gold.Chemscore.Hbonds>
donor molecule, donor type, donor heavy atom, donor atom, acceptor molecule, acceptor atom, score
      L1  H     9    25       P1  8028  1.00
      P1  H  7989  7998       L1     8  0.80
      L1  C     7    24       P1  7948  0.76
      L1  C     7    24       P1  7957  0.87

> <Gold.PLP.Chemscore.Internal.Correction>
0.4176

> <Gold.Rescore>
     Score         DG    S(hbond)    S(metal)    S(lipo)     H(rot)  DE(clash)    DE(int)     intcor
     15.81     -17.50       1.96        0.00      80.78       1.55       0.10       1.59       ----

> <Gold.Chemscore.Fitness>
15.8115

> <Gold.Chemscore.DG>
-17.5019

> <Gold.Chemscore.ZeroCoef>
-5.4800

> <Gold.Chemscore.Hbond>
1.9556

> <Gold.Chemscore.Metal>
0.0000

> <Gold.Chemscore.Lipo>
80.7755

> <Gold.Chemscore.Internal_Hbond>
0.0000

> <Gold.Chemscore.DEClash>
0.0997

> <Gold.Chemscore.DEInternal>
1.5907

> <Gold.Chemscore.Rot>
1.5471

> <Gold.Chemscore.Internal.Correction>
   9.000000E+99

> <Gold.Chemscore.Hbonds>
donor molecule, donor type, donor heavy atom, donor atom, acceptor molecule, acceptor atom, score
      L1  H     9    25       P1  8028  0.86
      P1  H  7989  7998       L1     8  0.08

> <Gold.Chemscore.Hbond.Weighted>
-6.5318

> <Gold.Chemscore.Metal.Weighted>
-0.0000

> <Gold.Chemscore.Lipo.Weighted>
-9.4507

> <Gold.Chemscore.Internal_Hbond.Weighted>
0.0000

> <Gold.Chemscore.DEClash.Weighted>
0.0997

> <Gold.Chemscore.DEInternal.Weighted>
1.5907

> <Gold.Chemscore.Rot.Weighted>
3.9606

> <Gold.Chemscore.Internal.Correction.Weighted>
   9.000000E+99

> <Gold.Protein.RotatedTorsions>
[ 6907 6896 6895 6894 ] final   42.11 input  -60.11 | X-H torsion
[ 7974 7965 7964 7962 ] final -115.80 input  175.53 | X-H torsion
[ 8008 7997 7996 7995 ] final  141.41 input   59.86 | X-H torsion
[ 10167 10162 10161 10158 ] final  154.41 input  -65.29 | X-H torsion
[ 10718 10713 10712 10709 ] final -125.25 input   66.30 | X-H torsion
[ 10763 10752 10751 10750 ] final  -71.81 input  -60.55 | X-H torsion
[ 11005 11000 10999 10996 ] final  -14.81 input  -57.11 | X-H torsion

> <Gold.Protein.ActiveResidues>
 VAL166  LYS551  ARG553  GLY616  TRP617  ASP618  TYR619  PRO620  LYS621  CYS622 
 ASP623  PHE694  ASN695  SER759  ASP760  ASP761  ALA762  ILE779  LEU786  VAL792 
 PHE793  MET794  SER795  GLU796  ALA797  LYS798  CYS799  TRP800  GLU811  SER814 

> <Gold.Protein.RotatedAtoms>
  152.2038  134.8564  160.0504 H   0  0  0  0  0  0  0  0  0  0  0  0  # atno 6907 bound_to 6896
  151.9408  133.3632  159.3972 H   0  0  0  0  0  0  0  0  0  0  0  0  # atno 6908 bound_to 6896
  150.6960  134.4366  159.5317 H   0  0  0  0  0  0  0  0  0  0  0  0  # atno 6909 bound_to 6896
  145.1042  140.8571  143.3908 H   0  0  0  0  0  0  0  0  0  0  0  0  # atno 7974 bound_to 7965
  156.2966  140.2316  156.4559 H   0  0  0  0  0  0  0  0  0  0  0  0  # atno 8008 bound_to 7997
  154.8060  140.0445  157.1329 H   0  0  0  0  0  0  0  0  0  0  0  0  # atno 8009 bound_to 7997
  154.9478  140.3038  155.5093 H   0  0  0  0  0  0  0  0  0  0  0  0  # atno 8010 bound_to 7997
  139.4823  144.5189  151.7907 H   0  0  0  0  0  0  0  0  0  0  0  0  # atno 10167 bound_to 10162
  156.1659  130.6634  151.0114 H   0  0  0  0  0  0  0  0  0  0  0  0  # atno 10718 bound_to 10713
  154.4369  135.5950  153.6104 H   0  0  0  0  0  0  0  0  0  0  0  0  # atno 10763 bound_to 10752
  152.9802  135.5988  154.3770 H   0  0  0  0  0  0  0  0  0  0  0  0  # atno 10764 bound_to 10752
  154.3615  135.2841  155.2296 H   0  0  0  0  0  0  0  0  0  0  0  0  # atno 10765 bound_to 10752
  140.7902  133.8293  155.9373 H   0  0  0  0  0  0  0  0  0  0  0  0  # atno 11005 bound_to 11000
  145.0921  139.2883  143.5730 LP  0  0  0  0  0  0  0  0  0  0  0  0  # atno 17320 bound_to 7965
  146.3529  140.0461  142.8639 LP  0  0  0  0  0  0  0  0  0  0  0  0  # atno 17321 bound_to 7965
  140.4701  144.1599  150.5917 LP  0  0  0  0  0  0  0  0  0  0  0  0  # atno 17342 bound_to 10162
  140.4392  143.2534  151.9496 LP  0  0  0  0  0  0  0  0  0  0  0  0  # atno 17343 bound_to 10162
  157.6767  131.0848  150.7475 LP  0  0  0  0  0  0  0  0  0  0  0  0  # atno 17370 bound_to 10713
  156.7536  130.4776  149.5451 LP  0  0  0  0  0  0  0  0  0  0  0  0  # atno 17371 bound_to 10713
  140.9396  134.1917  157.4807 LP  0  0  0  0  0  0  0  0  0  0  0  0  # atno 17394 bound_to 11000
  139.8732  134.9866  156.5334 LP  0  0  0  0  0  0  0  0  0  0  0  0  # atno 17395 bound_to 11000

$$$$
