AV-unprocessed.smi:1445|AV-procd|sdf|5887|dock9
  -GOLD-   22720 5563D 1   1.00000     0.00000
 Structure written by MMmdl.
 46 47  0  0  0  0  0  0  0  0  2 V2000
  150.6416  144.8851  160.3938 C   0  0  0  0  0  0  0  0  0  0  0  0
  150.9270  144.0481  159.2779 O   0  0  0  0  0  0  0  0  0  0  0  0
  151.8643  143.0438  159.4292 C   0  0  0  0  0  0  0  0  0  0  0  0
  152.4029  142.8458  160.6586 N   0  0  0  0  0  0  0  0  0  0  0  0
  153.3126  141.8622  160.8113 C   0  0  0  0  0  0  0  0  0  0  0  0
  153.7271  141.0273  159.7580 C   0  0  0  0  0  0  0  0  0  0  0  0
  153.1703  141.2303  158.4819 C   0  0  0  0  0  0  0  0  0  0  0  0
  152.2222  142.2675  158.3013 C   0  0  0  0  0  0  0  0  0  0  0  0
  151.5821  142.5588  157.0632 N   0  0  0  0  0  0  0  0  0  0  0  0
  151.7717  142.0022  155.8544 C   0  0  0  0  0  0  0  0  0  0  0  0
  152.5826  141.1145  155.5920 O   0  0  0  0  0  0  0  0  0  0  0  0
  150.9628  142.5506  154.9366 N   0  0  0  0  0  0  0  0  0  0  0  0
  150.9043  142.1540  153.5344 C   0  0  0  0  0  0  0  0  0  0  0  0
  149.6562  142.7233  152.8313 C   0  0  0  0  0  0  0  0  0  0  0  0
  148.4269  142.5655  153.6482 N   0  3  1  0  0  0  0  0  0  0  0  0
  147.2176  143.0715  152.9491 C   0  0  0  0  0  0  0  0  0  0  0  0
  145.9922  143.0475  153.8764 C   0  0  0  0  0  0  0  0  0  0  0  0
  145.7534  141.6395  154.4403 C   0  0  0  0  0  0  0  0  0  0  0  0
  147.0242  141.0805  155.1069 C   0  0  2  0  0  0  0  0  0  0  0  0
  147.3191  141.7302  156.4705 C   0  0  0  0  0  0  0  0  0  0  0  0
  148.2265  141.1762  154.1447 C   0  0  0  0  0  0  0  0  0  0  0  0
  149.8843  145.6164  160.1123 H   0  0  0  0  0  0  0  0  0  0  0  0
  151.5270  145.4342  160.7172 H   0  0  0  0  0  0  0  0  0  0  0  0
  150.2495  144.3108  161.2345 H   0  0  0  0  0  0  0  0  0  0  0  0
  153.7181  141.7334  161.8038 H   0  0  0  0  0  0  0  0  0  0  0  0
  154.4528  140.2455  159.9261 H   0  0  0  0  0  0  0  0  0  0  0  0
  153.4753  140.5780  157.6795 H   0  0  0  0  0  0  0  0  0  0  0  0
  150.9193  143.3197  157.0984 H   0  0  0  0  0  0  0  0  0  0  0  0
  150.3289  143.2785  155.2339 H   0  0  0  0  0  0  0  0  0  0  0  0
  151.8238  142.4696  153.0408 H   0  0  0  0  0  0  0  0  0  0  0  0
  150.8892  141.0645  153.4918 H   0  0  0  0  0  0  0  0  0  0  0  0
  149.8323  143.7837  152.6448 H   0  0  0  0  0  0  0  0  0  0  0  0
  149.5045  142.2614  151.8545 H   0  0  0  0  0  0  0  0  0  0  0  0
  147.3858  144.0943  152.6098 H   0  0  0  0  0  0  0  0  0  0  0  0
  147.0306  142.4685  152.0589 H   0  0  0  0  0  0  0  0  0  0  0  0
  146.1347  143.7570  154.6920 H   0  0  0  0  0  0  0  0  0  0  0  0
  145.1087  143.3826  153.3323 H   0  0  0  0  0  0  0  0  0  0  0  0
  144.9215  141.6487  155.1455 H   0  0  0  0  0  0  0  0  0  0  0  0
  145.4553  140.9770  153.6264 H   0  0  0  0  0  0  0  0  0  0  0  0
  146.8470  140.0223  155.3041 H   0  0  0  0  0  0  0  0  0  0  0  0
  147.5314  142.7952  156.3782 H   0  0  0  0  0  0  0  0  0  0  0  0
  148.1821  141.2634  156.9464 H   0  0  0  0  0  0  0  0  0  0  0  0
  146.4728  141.6181  157.1489 H   0  0  0  0  0  0  0  0  0  0  0  0
  148.0683  140.5147  153.2914 H   0  0  0  0  0  0  0  0  0  0  0  0
  149.1196  140.8134  154.6518 H   0  0  0  0  0  0  0  0  0  0  0  0
  148.5472  143.1543  154.4599 H   0  0  0  0  0  0  0  0  0  0  0  0
  1  2  1  0  0  0  0
  1 22  1  0  0  0  0
  1 23  1  0  0  0  0
  1 24  1  0  0  0  0
  2  3  1  0  0  0  0
  3  8  1  0  0  0  0
  3  4  2  0  0  0  0
  4  5  1  0  0  0  0
  5  6  2  0  0  0  0
  5 25  1  0  0  0  0
  6  7  1  0  0  0  0
  6 26  1  0  0  0  0
  7  8  2  0  0  0  0
  7 27  1  0  0  0  0
  8  9  1  0  0  0  0
  9 10  1  0  0  0  0
  9 28  1  0  0  0  0
 10 11  2  0  0  0  0
 10 12  1  0  0  0  0
 12 13  1  0  0  0  0
 12 29  1  0  0  0  0
 13 14  1  0  0  0  0
 13 30  1  0  0  0  0
 13 31  1  0  0  0  0
 14 15  1  0  0  0  0
 14 32  1  0  0  0  0
 14 33  1  0  0  0  0
 15 21  1  0  0  0  0
 15 16  1  0  0  0  0
 15 46  1  0  0  0  0
 16 17  1  0  0  0  0
 16 34  1  0  0  0  0
 16 35  1  0  0  0  0
 17 18  1  0  0  0  0
 17 36  1  0  0  0  0
 17 37  1  0  0  0  0
 18 19  1  0  0  0  0
 18 38  1  0  0  0  0
 18 39  1  0  0  0  0
 19 20  1  0  0  0  0
 19 21  1  0  0  0  0
 19 40  1  0  0  0  0
 20 41  1  0  0  0  0
 20 42  1  0  0  0  0
 20 43  1  0  0  0  0
 21 44  1  0  0  0  0
 21 45  1  0  0  0  0
M  CHG  1  15   1
M  END
> <s_m_source_file>
AV-unprocessed.smi

> <i_m_source_file_index>
1445

> <i_lp_mmshare_version>
43012

> <i_f3d_flags>
0

> <s_epik_input>
W0NIM11PYzFuW2NIXVtjSF1bY0hdYzFbTkhdQyg9TylbTkhdW0NIMl1bQ0gyXU4yW0NIMl1bQ0gyXVtDSDJdW0NAQEhdKFtDSDNdKVtDSDJdMg==

> <s_epik_cmdline>
J2VwaWtfcHl0aG9uJywgJy1waCcsICc3LjAnLCAnLXRuJywgJzgnLCAnLW1hJywgJzIwMCcsICctbWV0YWxfYmluZGluZycsICctaW1hZScsICc8aW5maWxlLm1hZT4nLCAnLW9tYWUnLCAnPG91dGZpbGUubWFlPic=

> <r_lp_tautomer_probability>
1

> <r_epik_Ionization_Penalty>
0.00179544

> <r_epik_Ionization_Penalty_Charging>
0.00171832

> <r_epik_Ionization_Penalty_Neutral>
7.71118e-05

> <r_epik_State_Penalty>
0.0011618

> <r_epik_Charging_Adjusted_Penalty>
0.00288012

> <i_epik_Tot_Q>
1

> <i_epik_Tot_abs_Q>
1

> <r_epik_Metal_State_Penalty>
-0

> <b_epik_Metal_Only>
0

> <s_lp_Force_Field>
OPLS_2005

> <r_lp_Energy>
21.8859

> <b_lp_Chiralities_Consistent>
1

> <s_lp_Variant>
AV-unprocessed.smi:1445-3

> <Gold.Version>
5.8.1

> <Gold.Id.Protein>
6NUR|6NUR_protein|mol2

> <Gold.PLP.Fitness>
50.1803

> <Gold.PLP.PLP>
-41.4969

> <Gold.PLP.part.hbond>
-2.0000

> <Gold.PLP.part.metal>
0.0000

> <Gold.PLP.part.buried>
-6.5637

> <Gold.PLP.part.nonpolar>
-32.3265

> <Gold.PLP.part.repulsive>
0.3848

> <Gold.PLP.ligand.clash>
0.0000

> <Gold.PLP.ligand.torsion>
0.1812

> <Gold.PLP.Chemscore.Hbond>
3.0000

> <Gold.PLP.Chemscore.CHOScore>
0.0000

> <Gold.PLP.Chemscore.Metal>
0.0000

> <Gold.Chemscore.Hbonds>
donor molecule, donor type, donor heavy atom, donor atom, acceptor molecule, acceptor atom, score
      L1  H    12    29       P1  8028  0.89
      L1  H    15    46       P1  8028  2.00
      P1  H  7989  7998       L1    11  0.04

> <Gold.PLP.Chemscore.Internal.Correction>
0.0457

> <Gold.Rescore>
     Score         DG    S(hbond)    S(metal)    S(lipo)     H(rot)  DE(clash)    DE(int)     intcor
     14.27     -16.03       1.50        0.00      84.68       1.71       0.43       1.33       ----

> <Gold.Chemscore.Fitness>
14.2683

> <Gold.Chemscore.DG>
-16.0299

> <Gold.Chemscore.ZeroCoef>
-5.4800

> <Gold.Chemscore.Hbond>
1.5034

> <Gold.Chemscore.Metal>
0.0000

> <Gold.Chemscore.Lipo>
84.6845

> <Gold.Chemscore.Internal_Hbond>
0.0000

> <Gold.Chemscore.DEClash>
0.4312

> <Gold.Chemscore.DEInternal>
1.3304

> <Gold.Chemscore.Rot>
1.7107

> <Gold.Chemscore.Internal.Correction>
   9.000000E+99

> <Gold.Chemscore.Hbonds>
donor molecule, donor type, donor heavy atom, donor atom, acceptor molecule, acceptor atom, score
      L1  H    12    29       P1  8028  0.87
      L1  H    15    46       P1  8028  0.98

> <Gold.Chemscore.Hbond.Weighted>
-5.0212

> <Gold.Chemscore.Metal.Weighted>
-0.0000

> <Gold.Chemscore.Lipo.Weighted>
-9.9081

> <Gold.Chemscore.Internal_Hbond.Weighted>
0.0000

> <Gold.Chemscore.DEClash.Weighted>
0.4312

> <Gold.Chemscore.DEInternal.Weighted>
1.3304

> <Gold.Chemscore.Rot.Weighted>
4.3794

> <Gold.Chemscore.Internal.Correction.Weighted>
   9.000000E+99

> <Gold.Protein.RotatedTorsions>
[ 6907 6896 6895 6894 ] final -177.26 input  -60.11 | X-H torsion
[ 7974 7965 7964 7962 ] final  -95.12 input  175.53 | X-H torsion
[ 8008 7997 7996 7995 ] final  165.47 input   59.86 | X-H torsion
[ 10167 10162 10161 10158 ] final  -36.84 input  -65.29 | X-H torsion
[ 10718 10713 10712 10709 ] final   -7.52 input   66.30 | X-H torsion
[ 10763 10752 10751 10750 ] final  166.02 input  -60.55 | X-H torsion
[ 11005 11000 10999 10996 ] final  154.44 input  -57.11 | X-H torsion

> <Gold.Protein.ActiveResidues>
 VAL166  LYS551  ARG553  GLY616  TRP617  ASP618  TYR619  PRO620  LYS621  CYS622 
 ASP623  PHE694  ASN695  SER759  ASP760  ASP761  ALA762  ILE779  LEU786  VAL792 
 PHE793  MET794  SER795  GLU796  ALA797  LYS798  CYS799  TRP800  GLU811  SER814 

> <Gold.Protein.RotatedAtoms>
  151.6181  133.3341  159.3081 H   0  0  0  0  0  0  0  0  0  0  0  0  # atno 6907 bound_to 6896
  150.8120  134.7284  159.6708 H   0  0  0  0  0  0  0  0  0  0  0  0  # atno 6908 bound_to 6896
  152.4217  134.5948  160.0035 H   0  0  0  0  0  0  0  0  0  0  0  0  # atno 6909 bound_to 6896
  145.3643  140.9496  143.2483 H   0  0  0  0  0  0  0  0  0  0  0  0  # atno 7974 bound_to 7965
  156.1798  140.1669  156.8295 H   0  0  0  0  0  0  0  0  0  0  0  0  # atno 8008 bound_to 7997
  154.5347  140.0749  156.8440 H   0  0  0  0  0  0  0  0  0  0  0  0  # atno 8009 bound_to 7997
  155.3335  140.3380  155.4241 H   0  0  0  0  0  0  0  0  0  0  0  0  # atno 8010 bound_to 7997
  140.7133  143.3381  151.2417 H   0  0  0  0  0  0  0  0  0  0  0  0  # atno 10167 bound_to 10162
  156.7161  130.5136  149.5880 H   0  0  0  0  0  0  0  0  0  0  0  0  # atno 10718 bound_to 10713
  154.3328  135.2754  155.2463 H   0  0  0  0  0  0  0  0  0  0  0  0  # atno 10763 bound_to 10752
  154.4767  135.5869  153.6364 H   0  0  0  0  0  0  0  0  0  0  0  0  # atno 10764 bound_to 10752
  152.9865  135.6101  154.3522 H   0  0  0  0  0  0  0  0  0  0  0  0  # atno 10765 bound_to 10752
  140.1489  134.8688  157.2429 H   0  0  0  0  0  0  0  0  0  0  0  0  # atno 11005 bound_to 11000
  144.8623  139.5159  143.6806 LP  0  0  0  0  0  0  0  0  0  0  0  0  # atno 17320 bound_to 7965
  146.2913  139.7149  142.9158 LP  0  0  0  0  0  0  0  0  0  0  0  0  # atno 17321 bound_to 7965
  139.6882  143.9738  152.2845 LP  0  0  0  0  0  0  0  0  0  0  0  0  # atno 17342 bound_to 10162
  139.9390  144.6693  150.8285 LP  0  0  0  0  0  0  0  0  0  0  0  0  # atno 17343 bound_to 10162
  156.1627  130.6385  151.0739 LP  0  0  0  0  0  0  0  0  0  0  0  0  # atno 17370 bound_to 10713
  157.6917  131.0808  150.7088 LP  0  0  0  0  0  0  0  0  0  0  0  0  # atno 17371 bound_to 10713
  140.2629  134.3550  155.7400 LP  0  0  0  0  0  0  0  0  0  0  0  0  # atno 17394 bound_to 11000
  141.2196  133.7379  156.9107 LP  0  0  0  0  0  0  0  0  0  0  0  0  # atno 17395 bound_to 11000

$$$$
