AV-unprocessed.smi:515|AV-procd|sdf|2780|dock1
  -GOLD-   2262023253D 1   1.00000     0.00000
 Structure written by MMmdl.
 47 49  0  0  0  0  0  0  0  0  1 V2000
  147.2567  142.0042  154.1358 C   0  0  0  0  0  0  0  0  0  0  0  0
  147.6437  141.6570  155.5735 C   0  0  0  0  0  0  0  0  0  0  0  0
  147.4581  140.2673  155.7863 O   0  0  0  0  0  0  0  0  0  0  0  0
  147.8762  139.8638  157.0798 C   0  0  0  0  0  0  0  0  0  0  0  0
  148.1460  138.3515  157.1134 C   0  0  0  0  0  0  0  0  0  0  0  0
  149.1998  137.9827  158.0551 N   0  0  0  0  0  0  0  0  0  0  0  0
  149.1492  137.0696  159.0623 C   0  0  0  0  0  0  0  0  0  0  0  0
  147.9260  136.2655  159.3954 C   0  0  0  0  0  0  0  0  0  0  0  0
  147.9611  135.6369  160.7151 N   0  0  0  0  0  0  0  0  0  0  0  0
  147.7058  136.5982  161.7875 C   0  0  0  0  0  0  0  0  0  0  0  0
  147.6616  135.9335  163.1749 C   0  0  0  0  0  0  0  0  0  0  0  0
  146.7084  134.8763  163.1779 O   0  0  0  0  0  0  0  0  0  0  0  0
  146.9797  133.8923  162.1861 C   0  0  0  0  0  0  0  0  0  0  0  0
  146.9854  134.5565  160.7995 C   0  0  0  0  0  0  0  0  0  0  0  0
  150.2853  136.9600  159.7594 N   0  0  0  0  0  0  0  0  0  0  0  0
  151.1243  137.8807  159.1512 C   0  0  0  0  0  0  0  0  0  0  0  0
  150.4858  138.5167  158.1378 C   0  0  0  0  0  0  0  0  0  0  0  0
  151.1256  139.5726  157.3422 C   0  0  0  0  0  0  0  0  0  0  0  0
  150.5574  140.1775  156.4356 O   0  0  0  0  0  0  0  0  0  0  0  0
  152.4035  139.8205  157.7188 N   0  0  0  0  0  0  0  0  0  0  0  0
  153.1065  139.2150  158.7244 C   0  0  0  0  0  0  0  0  0  0  0  0
  154.2655  139.5580  158.9569 O   0  0  0  0  0  0  0  0  0  0  0  0
  152.4718  138.2356  159.4455 N   0  0  0  0  0  0  0  0  0  0  0  0
  153.1708  137.5577  160.5386 C   0  0  0  0  0  0  0  0  0  0  0  0
  152.8904  140.5393  157.2035 H   0  0  0  0  0  0  0  0  0  0  0  0
  147.3819  143.0700  153.9449 H   0  0  0  0  0  0  0  0  0  0  0  0
  146.2150  141.7498  153.9402 H   0  0  0  0  0  0  0  0  0  0  0  0
  147.8795  141.4624  153.4239 H   0  0  0  0  0  0  0  0  0  0  0  0
  148.6851  141.9299  155.7507 H   0  0  0  0  0  0  0  0  0  0  0  0
  147.0292  142.2290  156.2703 H   0  0  0  0  0  0  0  0  0  0  0  0
  148.7719  140.4172  157.3615 H   0  0  0  0  0  0  0  0  0  0  0  0
  147.1054  140.1088  157.8116 H   0  0  0  0  0  0  0  0  0  0  0  0
  147.2369  137.8134  157.3822 H   0  0  0  0  0  0  0  0  0  0  0  0
  148.4035  138.0113  156.1126 H   0  0  0  0  0  0  0  0  0  0  0  0
  147.0544  136.9178  159.3218 H   0  0  0  0  0  0  0  0  0  0  0  0
  147.7828  135.5113  158.6227 H   0  0  0  0  0  0  0  0  0  0  0  0
  148.4752  137.3702  161.7918 H   0  0  0  0  0  0  0  0  0  0  0  0
  146.7564  137.1051  161.6085 H   0  0  0  0  0  0  0  0  0  0  0  0
  148.6409  135.5454  163.4504 H   0  0  0  0  0  0  0  0  0  0  0  0
  147.3849  136.6640  163.9350 H   0  0  0  0  0  0  0  0  0  0  0  0
  147.9371  133.4103  162.3896 H   0  0  0  0  0  0  0  0  0  0  0  0
  146.2137  133.1182  162.2331 H   0  0  0  0  0  0  0  0  0  0  0  0
  145.9874  134.9405  160.5818 H   0  0  0  0  0  0  0  0  0  0  0  0
  147.2023  133.8034  160.0412 H   0  0  0  0  0  0  0  0  0  0  0  0
  154.1603  137.2223  160.2242 H   0  0  0  0  0  0  0  0  0  0  0  0
  152.6341  136.6773  160.8921 H   0  0  0  0  0  0  0  0  0  0  0  0
  153.2932  138.2352  161.3845 H   0  0  0  0  0  0  0  0  0  0  0  0
  1  2  1  0  0  0  0
  1 26  1  0  0  0  0
  1 27  1  0  0  0  0
  1 28  1  0  0  0  0
  2  3  1  0  0  0  0
  2 29  1  0  0  0  0
  2 30  1  0  0  0  0
  3  4  1  0  0  0  0
  4  5  1  0  0  0  0
  4 31  1  0  0  0  0
  4 32  1  0  0  0  0
  5  6  1  0  0  0  0
  5 33  1  0  0  0  0
  5 34  1  0  0  0  0
  6 17  1  0  0  0  0
  6  7  1  0  0  0  0
  7  8  1  0  0  0  0
  7 15  2  0  0  0  0
  8  9  1  0  0  0  0
  8 35  1  0  0  0  0
  8 36  1  0  0  0  0
  9 14  1  0  0  0  0
  9 10  1  0  0  0  0
 10 11  1  0  0  0  0
 10 37  1  0  0  0  0
 10 38  1  0  0  0  0
 11 12  1  0  0  0  0
 11 39  1  0  0  0  0
 11 40  1  0  0  0  0
 12 13  1  0  0  0  0
 13 14  1  0  0  0  0
 13 41  1  0  0  0  0
 13 42  1  0  0  0  0
 14 43  1  0  0  0  0
 14 44  1  0  0  0  0
 15 16  1  0  0  0  0
 16 23  1  0  0  0  0
 16 17  2  0  0  0  0
 17 18  1  0  0  0  0
 18 19  2  0  0  0  0
 18 20  1  0  0  0  0
 20 25  1  0  0  0  0
 20 21  1  0  0  0  0
 21 22  2  0  0  0  0
 21 23  1  0  0  0  0
 23 24  1  0  0  0  0
 24 45  1  0  0  0  0
 24 46  1  0  0  0  0
 24 47  1  0  0  0  0
M  END
> <s_m_source_file>
AV-unprocessed.smi

> <i_m_source_file_index>
515

> <i_lp_mmshare_version>
43012

> <i_f3d_flags>
0

> <s_epik_input>
W0NIM11uMWMoPU8pW25IXWMoPU8pYyhjMTIpbihbQ0gyXVtDSDJdT1tDSDJdW0NIM10pYyhuMilbQ0gyXU4zW0NIMl1bQ0gyXU9bQ0gyXVtDSDJdMw==

> <s_epik_cmdline>
J2VwaWtfcHl0aG9uJywgJy1waCcsICc3LjAnLCAnLXRuJywgJzgnLCAnLW1hJywgJzIwMCcsICctbWV0YWxfYmluZGluZycsICctaW1hZScsICc8aW5maWxlLm1hZT4nLCAnLW9tYWUnLCAnPG91dGZpbGUubWFlPic=

> <r_epik_Ionization_Penalty>
0.0971954

> <r_epik_Ionization_Penalty_Charging>
0.000195337

> <r_epik_Ionization_Penalty_Neutral>
0.0970001

> <r_epik_State_Penalty>
0.0871068

> <r_epik_Charging_Adjusted_Penalty>
0.0873021

> <i_epik_Tot_Q>
0

> <i_epik_Tot_abs_Q>
0

> <r_epik_Metal_State_Penalty>
0.234549

> <b_epik_Metal_Only>
0

> <s_lp_Force_Field>
OPLS_2005

> <r_lp_Energy>
38.6843

> <b_lp_Chiralities_Consistent>
1

> <s_lp_Variant>
AV-unprocessed.smi:515-1

> <Gold.Version>
5.8.1

> <Gold.Id.Protein>
6NUR|6NUR_protein|mol2

> <Gold.PLP.Fitness>
41.3435

> <Gold.PLP.PLP>
-36.6947

> <Gold.PLP.part.hbond>
-2.6608

> <Gold.PLP.part.metal>
0.0000

> <Gold.PLP.part.buried>
-6.4543

> <Gold.PLP.part.nonpolar>
-27.3627

> <Gold.PLP.part.repulsive>
0.1114

> <Gold.PLP.ligand.clash>
0.0000

> <Gold.PLP.ligand.torsion>
0.6957

> <Gold.PLP.Chemscore.Hbond>
2.0000

> <Gold.PLP.Chemscore.CHOScore>
0.0000

> <Gold.PLP.Chemscore.Metal>
0.0000

> <Gold.Chemscore.Hbonds>
donor molecule, donor type, donor heavy atom, donor atom, acceptor molecule, acceptor atom, score
      P1  H  6896  6908       L1    15  0.83
      P1  H  7997  8009       L1    22  1.00

> <Gold.PLP.Chemscore.Internal.Correction>
0.0402

> <Gold.Rescore>
     Score         DG    S(hbond)    S(metal)    S(lipo)     H(rot)  DE(clash)    DE(int)     intcor
     10.94     -12.95       1.87        0.00      57.35       2.15       0.10       1.91       ----

> <Gold.Chemscore.Fitness>
10.9395

> <Gold.Chemscore.DG>
-12.9485

> <Gold.Chemscore.ZeroCoef>
-5.4800

> <Gold.Chemscore.Hbond>
1.8718

> <Gold.Chemscore.Metal>
0.0000

> <Gold.Chemscore.Lipo>
57.3506

> <Gold.Chemscore.Internal_Hbond>
0.0000

> <Gold.Chemscore.DEClash>
0.0988

> <Gold.Chemscore.DEInternal>
1.9101

> <Gold.Chemscore.Rot>
2.1458

> <Gold.Chemscore.Internal.Correction>
   9.000000E+99

> <Gold.Chemscore.Hbonds>
donor molecule, donor type, donor heavy atom, donor atom, acceptor molecule, acceptor atom, score
      P1  H  6896  6908       L1    15  0.56
      P1  H  7997  8009       L1    22  0.55

> <Gold.Chemscore.Hbond.Weighted>
-6.2516

> <Gold.Chemscore.Metal.Weighted>
-0.0000

> <Gold.Chemscore.Lipo.Weighted>
-6.7100

> <Gold.Chemscore.Internal_Hbond.Weighted>
0.0000

> <Gold.Chemscore.DEClash.Weighted>
0.0988

> <Gold.Chemscore.DEInternal.Weighted>
1.9101

> <Gold.Chemscore.Rot.Weighted>
5.4932

> <Gold.Chemscore.Internal.Correction.Weighted>
   9.000000E+99

> <Gold.Protein.RotatedTorsions>
[ 6907 6896 6895 6894 ] final -162.46 input  -60.11 | X-H torsion
[ 7974 7965 7964 7962 ] final   32.05 input  175.53 | X-H torsion
[ 8008 7997 7996 7995 ] final  125.43 input   59.86 | X-H torsion
[ 10167 10162 10161 10158 ] final  176.83 input  -65.29 | X-H torsion
[ 10718 10713 10712 10709 ] final   85.69 input   66.30 | X-H torsion
[ 10763 10752 10751 10750 ] final  171.03 input  -60.55 | X-H torsion
[ 11005 11000 10999 10996 ] final -168.08 input  -57.11 | X-H torsion

> <Gold.Protein.ActiveResidues>
 VAL166  LYS551  ARG553  GLY616  TRP617  ASP618  TYR619  PRO620  LYS621  CYS622 
 ASP623  PHE694  ASN695  SER759  ASP760  ASP761  ALA762  ILE779  LEU786  VAL792 
 PHE793  MET794  SER795  GLU796  ALA797  LYS798  CYS799  TRP800  GLU811  SER814 

> <Gold.Protein.RotatedAtoms>
  151.3807  133.3822  159.2709 H   0  0  0  0  0  0  0  0  0  0  0  0  # atno 6907 bound_to 6896
  150.9580  134.8973  159.7723 H   0  0  0  0  0  0  0  0  0  0  0  0  # atno 6908 bound_to 6896
  152.5138  134.3765  159.9388 H   0  0  0  0  0  0  0  0  0  0  0  0  # atno 6909 bound_to 6896
  146.1511  139.6576  142.9098 H   0  0  0  0  0  0  0  0  0  0  0  0  # atno 7974 bound_to 7965
  156.2834  140.2716  156.1948 H   0  0  0  0  0  0  0  0  0  0  0  0  # atno 8008 bound_to 7997
  155.0421  140.0386  157.2531 H   0  0  0  0  0  0  0  0  0  0  0  0  # atno 8009 bound_to 7997
  154.7265  140.2698  155.6499 H   0  0  0  0  0  0  0  0  0  0  0  0  # atno 8010 bound_to 7997
  139.5229  144.2870  152.0497 H   0  0  0  0  0  0  0  0  0  0  0  0  # atno 10167 bound_to 10162
  157.6918  131.0185  150.2861 H   0  0  0  0  0  0  0  0  0  0  0  0  # atno 10718 bound_to 10713
  154.4060  135.2755  155.2066 H   0  0  0  0  0  0  0  0  0  0  0  0  # atno 10763 bound_to 10752
  154.4072  135.6031  153.5935 H   0  0  0  0  0  0  0  0  0  0  0  0  # atno 10764 bound_to 10752
  152.9831  135.5940  154.4335 H   0  0  0  0  0  0  0  0  0  0  0  0  # atno 10765 bound_to 10752
  140.5460  134.5475  157.5111 H   0  0  0  0  0  0  0  0  0  0  0  0  # atno 11005 bound_to 11000
  145.4821  141.0438  143.2640 LP  0  0  0  0  0  0  0  0  0  0  0  0  # atno 17320 bound_to 7965
  144.7905  139.6338  143.7115 LP  0  0  0  0  0  0  0  0  0  0  0  0  # atno 17321 bound_to 7965
  140.2322  144.4356  150.6295 LP  0  0  0  0  0  0  0  0  0  0  0  0  # atno 17342 bound_to 10162
  140.6347  143.2193  151.6420 LP  0  0  0  0  0  0  0  0  0  0  0  0  # atno 17343 bound_to 10162
  156.3400  130.3814  149.7417 LP  0  0  0  0  0  0  0  0  0  0  0  0  # atno 17370 bound_to 10713
  156.4930  130.8093  151.3102 LP  0  0  0  0  0  0  0  0  0  0  0  0  # atno 17371 bound_to 10713
  139.9479  134.7669  156.0517 LP  0  0  0  0  0  0  0  0  0  0  0  0  # atno 17394 bound_to 11000
  141.1199  133.6616  156.3189 LP  0  0  0  0  0  0  0  0  0  0  0  0  # atno 17395 bound_to 11000

$$$$
