#       Name:                AV-unprocessed.smi:3321
#       Creating user name   scv26
#       Creation time:       Fri Mar 27 19:11:03 2020


#       File generated by GOLD software.
#

@<TRIPOS>MOLECULE
AV-unprocessed.smi:3321
    44    45     1
SMALL
NO_CHARGES


@<TRIPOS>ATOM
      1 ****        -0.7072  -1.2704  -3.0548 C.3            1 S1                 0.0000
      2 ****        -0.2945  -0.7084  -1.6847 C.3            1 S1                 0.0000
      3 ****         1.1659  -0.8816  -1.5009 N.4            1 S1                 1.0000
      4 ****         1.7707  -0.0208  -0.4616 C.3            1 S1                 0.0000
      5 ****         3.2789  -0.2810  -0.3395 C.3            1 S1                 0.0000
      6 ****         3.8961   0.5833   0.6481 N.pl3          1 S1                 0.0000
      7 ****         4.7742   1.6276   0.4468 C.2            1 S1                 0.0000
      8 ****         5.0835   2.1400   1.6741 C.2            1 S1                 0.0000
      9 ****         4.3402   1.3292   2.5767 C.2            1 S1                 0.0000
     10 ****         3.6322   0.3969   1.9593 N.2            1 S1                 0.0000
     11 ****        -1.0974  -1.4016  -0.5631 C.2            1 S1                 0.0000
     12 ****        -0.5915  -2.3810  -0.0118 O.2            1 S1                 0.0000
     13 ****        -2.3211  -0.9324  -0.2116 N.am           1 S1                 0.0000
     14 ****        -3.0007   0.2383  -0.7829 C.3            1 S1                 0.0000
     15 ****        -2.9577   1.3781   0.2505 C.3            1 S1                 0.0000
     16 ****        -3.6020   0.9330   1.5783 C.3            1 S1                 0.0000
     17 ****        -3.0431  -0.4189   2.0644 C.3            1 S1                 0.0000
     18 ****        -3.0674  -1.4666   0.9356 C.3            1 S1                 0.0000
     19 ****        -1.7762  -1.1499  -3.2347 H              1 S1                 0.0000
     20 ****        -0.4775  -2.3339  -3.1360 H              1 S1                 0.0000
     21 ****        -0.1825  -0.7568  -3.8609 H              1 S1                 0.0000
     22 ****        -0.4748   0.3658  -1.6753 H              1 S1                 0.0000
     23 ****         1.3452  -1.8495  -1.2737 H              1 S1                 0.0000
     24 ****         1.5941   1.0256  -0.7142 H              1 S1                 0.0000
     25 ****         1.2833  -0.2065   0.4964 H              1 S1                 0.0000
     26 ****         3.4674  -1.3181  -0.0577 H              1 S1                 0.0000
     27 ****         3.7716  -0.1173  -1.2990 H              1 S1                 0.0000
     28 ****         5.1016   1.9176  -0.5409 H              1 S1                 0.0000
     29 ****         5.7414   2.9675   1.8946 H              1 S1                 0.0000
     30 ****         4.2948   1.3901   3.6542 H              1 S1                 0.0000
     31 ****        -2.5931   0.5689  -1.7358 H              1 S1                 0.0000
     32 ****        -4.0381  -0.0210  -0.9997 H              1 S1                 0.0000
     33 ****        -1.9227   1.6754   0.4252 H              1 S1                 0.0000
     34 ****        -3.4725   2.2579  -0.1366 H              1 S1                 0.0000
     35 ****        -3.4589   1.6975   2.3423 H              1 S1                 0.0000
     36 ****        -4.6792   0.8392   1.4351 H              1 S1                 0.0000
     37 ****        -2.0183  -0.2855   2.4136 H              1 S1                 0.0000
     38 ****        -3.6176  -0.7747   2.9200 H              1 S1                 0.0000
     39 ****        -4.0960  -1.6751   0.6375 H              1 S1                 0.0000
     40 ****        -2.6698  -2.4144   1.3006 H              1 S1                 0.0000
     41 ****         1.6186  -0.6659  -2.3775 H              1 S1                 0.0000
     42 ****         3.0354  -0.2915   2.3715 LP             1 S1                 0.0000
     43 ****         0.3119  -2.7030  -0.2950 LP             1 S1                 0.0000
     44 ****        -1.0845  -2.8537   0.7186 LP             1 S1                 0.0000
@<TRIPOS>BOND
    1    1    2 1     
    2    1   19 1     
    3    1   20 1     
    4    1   21 1     
    5    2    3 1     
    6    2   11 1     
    7    2   22 1     
    8    3    4 1     
    9    3   23 1     
   10    3   41 1     
   11    4    5 1     
   12    4   24 1     
   13    4   25 1     
   14    5    6 1     
   15    5   26 1     
   16    5   27 1     
   17    6   10 1     
   18    6    7 1     
   19    7    8 2     
   20    7   28 1     
   21    8    9 1     
   22    8   29 1     
   23    9   10 2     
   24    9   30 1     
   25   11   12 2     
   26   11   13 am    
   27   13   18 1     
   28   13   14 1     
   29   14   15 1     
   30   14   31 1     
   31   14   32 1     
   32   15   16 1     
   33   15   33 1     
   34   15   34 1     
   35   16   17 1     
   36   16   35 1     
   37   16   36 1     
   38   17   18 1     
   39   17   37 1     
   40   17   38 1     
   41   18   39 1     
   42   18   40 1     
   43   10   42 1     
   44   12   43 1     
   45   12   44 1     
@<TRIPOS>SUBSTRUCTURE
      1 S1             1
@<TRIPOS>SET
LONE_PAIRS      STATIC     ATOMS    <user>   **** ""
3 42 43 44
DONOR_HYDROGENS      STATIC     ATOMS    <user>   **** ""
2 23 41
ATOM$BLUE        STATIC     ATOMS    COLORGROUP SYSTEM
3 42 43 44
ATOM$RED        STATIC     ATOMS    COLORGROUP SYSTEM
2 23 41
