AV-unprocessed.smi:283|AV-procd|sdf|2127|dock6
  -GOLD-   2262021433D 1   1.00000     0.00000
 Structure written by MMmdl.
 48 51  0  0  0  0  0  0  0  0  1 V2000
  147.1703  140.3767  153.3977 C   0  0  0  0  0  0  0  0  0  0  0  0
  147.8832  139.2735  154.2013 C   0  0  2  0  0  0  0  0  0  0  0  0
  146.9282  138.4878  154.9823 N   0  0  0  0  0  0  0  0  0  0  0  0
  146.7796  137.1574  154.7959 C   0  0  0  0  0  0  0  0  0  0  0  0
  147.3247  136.2575  155.6549 N   0  0  0  0  0  0  0  0  0  0  0  0
  147.1573  134.9486  155.4458 C   0  0  0  0  0  0  0  0  0  0  0  0
  146.4929  134.3399  154.4617 N   0  0  0  0  0  0  0  0  0  0  0  0
  145.9384  135.2379  153.5966 C   0  0  0  0  0  0  0  0  0  0  0  0
  146.0349  136.6542  153.6980 C   0  0  0  0  0  0  0  0  0  0  0  0
  145.3463  137.2498  152.6497 N   0  0  0  0  0  0  0  0  0  0  0  0
  144.8724  136.2407  151.9703 C   0  0  0  0  0  0  0  0  0  0  0  0
  145.1788  134.9933  152.4680 N   0  0  0  0  0  0  0  0  0  0  0  0
  144.7717  133.6681  151.8953 C   0  0  1  0  0  0  0  0  0  0  0  0
  144.0051  133.8723  150.7440 O   0  0  0  0  0  0  0  0  0  0  0  0
  144.6334  133.2749  149.6099 C   0  0  2  0  0  0  0  0  0  0  0  0
  143.5614  132.8007  148.6176 C   0  0  0  0  0  0  0  0  0  0  0  0
  143.3249  133.8021  147.6515 O   0  0  0  0  0  0  0  0  0  0  0  0
  145.4424  132.1361  150.2330 C   0  0  1  0  0  0  0  0  0  0  0  0
  146.4747  131.6538  149.3943 O   0  0  0  0  0  0  0  0  0  0  0  0
  145.9667  132.7743  151.5110 C   0  0  1  0  0  0  0  0  0  0  0  0
  147.1735  133.4940  151.3056 O   0  0  0  0  0  0  0  0  0  0  0  0
  148.9840  139.8885  155.0644 C   0  0  0  0  0  0  0  0  0  0  0  0
  150.3088  139.3984  154.9771 C   0  0  0  0  0  0  0  0  0  0  0  0
  151.3320  139.9473  155.7727 C   0  0  0  0  0  0  0  0  0  0  0  0
  151.0416  140.9896  156.6707 C   0  0  0  0  0  0  0  0  0  0  0  0
  149.7262  141.4774  156.7752 C   0  0  0  0  0  0  0  0  0  0  0  0
  148.6970  140.9315  155.9819 C   0  0  0  0  0  0  0  0  0  0  0  0
  147.0967  141.5600  156.1683 Cl  0  0  0  0  0  0  0  0  0  0  0  0
  144.1384  133.2193  152.6617 H   0  0  0  0  0  0  0  0  0  0  0  0
  145.3131  133.9891  149.1421 H   0  0  0  0  0  0  0  0  0  0  0  0
  144.7759  131.3107  150.4882 H   0  0  0  0  0  0  0  0  0  0  0  0
  146.1370  132.0340  152.2934 H   0  0  0  0  0  0  0  0  0  0  0  0
  147.8793  140.9298  152.7810 H   0  0  0  0  0  0  0  0  0  0  0  0
  146.6789  141.0914  154.0585 H   0  0  0  0  0  0  0  0  0  0  0  0
  146.4117  139.9692  152.7300 H   0  0  0  0  0  0  0  0  0  0  0  0
  148.3610  138.5868  153.5035 H   0  0  0  0  0  0  0  0  0  0  0  0
  146.3343  139.0187  155.6026 H   0  0  0  0  0  0  0  0  0  0  0  0
  147.6215  134.2958  156.1702 H   0  0  0  0  0  0  0  0  0  0  0  0
  144.2790  136.3798  151.0784 H   0  0  0  0  0  0  0  0  0  0  0  0
  143.9047  131.9108  148.0893 H   0  0  0  0  0  0  0  0  0  0  0  0
  142.6345  132.5375  149.1283 H   0  0  0  0  0  0  0  0  0  0  0  0
  144.1302  134.2762  147.5095 H   0  0  0  0  0  0  0  0  0  0  0  0
  147.1886  131.3641  149.9425 H   0  0  0  0  0  0  0  0  0  0  0  0
  147.1302  134.2985  151.7996 H   0  0  0  0  0  0  0  0  0  0  0  0
  150.5519  138.5916  154.3016 H   0  0  0  0  0  0  0  0  0  0  0  0
  152.3396  139.5663  155.6949 H   0  0  0  0  0  0  0  0  0  0  0  0
  151.8251  141.4110  157.2830 H   0  0  0  0  0  0  0  0  0  0  0  0
  149.5056  142.2733  157.4715 H   0  0  0  0  0  0  0  0  0  0  0  0
  1  2  1  0  0  0  0
  1 33  1  0  0  0  0
  1 34  1  0  0  0  0
  1 35  1  0  0  0  0
  2  3  1  0  0  0  0
  2 22  1  0  0  0  0
  2 36  1  0  0  0  0
  3  4  1  0  0  0  0
  3 37  1  0  0  0  0
  4  9  1  0  0  0  0
  4  5  2  0  0  0  0
  5  6  1  0  0  0  0
  6  7  2  0  0  0  0
  6 38  1  0  0  0  0
  7  8  1  0  0  0  0
  8 12  1  0  0  0  0
  8  9  2  0  0  0  0
  9 10  1  0  0  0  0
 10 11  2  0  0  0  0
 11 12  1  0  0  0  0
 11 39  1  0  0  0  0
 12 13  1  0  0  0  0
 13 29  1  0  0  0  0
 13 20  1  0  0  0  0
 13 14  1  0  0  0  0
 14 15  1  0  0  0  0
 15 30  1  0  0  0  0
 15 16  1  0  0  0  0
 15 18  1  0  0  0  0
 16 17  1  0  0  0  0
 16 40  1  0  0  0  0
 16 41  1  0  0  0  0
 17 42  1  0  0  0  0
 18 31  1  0  0  0  0
 18 19  1  0  0  0  0
 18 20  1  0  0  0  0
 19 43  1  0  0  0  0
 20 32  1  0  0  0  0
 20 21  1  0  0  0  0
 21 44  1  0  0  0  0
 22 27  1  0  0  0  0
 22 23  2  0  0  0  0
 23 24  1  0  0  0  0
 23 45  1  0  0  0  0
 24 25  2  0  0  0  0
 24 46  1  0  0  0  0
 25 26  1  0  0  0  0
 25 47  1  0  0  0  0
 26 27  2  0  0  0  0
 26 48  1  0  0  0  0
 27 28  1  0  0  0  0
M  END
> <s_m_source_file>
AV-unprocessed.smi

> <i_m_source_file_index>
283

> <i_lp_mmshare_version>
43012

> <i_f3d_flags>
0

> <s_epik_input>
Q2xjMVtjSF1bY0hdW2NIXVtjSF1jMVtDQEhdKFtDSDNdKVtOSF1jKG5bY0hdbjIpYyhjMjMpbltjSF1uM1tDQEBIXTRPW0NASF0oW0NIMl1bT0hdKVtDQEBIXShbT0hdKVtDQEhdNFtPSF0=

> <s_epik_cmdline>
J2VwaWtfcHl0aG9uJywgJy1waCcsICc3LjAnLCAnLXRuJywgJzgnLCAnLW1hJywgJzIwMCcsICctbWV0YWxfYmluZGluZycsICctaW1hZScsICc8aW5maWxlLm1hZT4nLCAnLW9tYWUnLCAnPG91dGZpbGUubWFlPic=

> <r_lp_tautomer_probability>
1

> <r_epik_Ionization_Penalty>
0.000266407

> <r_epik_Ionization_Penalty_Charging>
0

> <r_epik_Ionization_Penalty_Neutral>
0.000266407

> <r_epik_State_Penalty>
-0

> <r_epik_Charging_Adjusted_Penalty>
0

> <i_epik_Tot_Q>
0

> <i_epik_Tot_abs_Q>
0

> <r_epik_Metal_State_Penalty>
-0

> <b_epik_Metal_Only>
0

> <s_epik_Chemistry_Notes>
This compound contains an acetal/aminal-like group ( X-CH(R)-Y where X, Y are N, S, or O) that may be acid/base labile, releasing an aldehyde.

> <s_lp_Force_Field>
OPLS_2005

> <r_lp_Energy>
51.5446

> <b_lp_Chiralities_Consistent>
1

> <s_lp_Variant>
AV-unprocessed.smi:283-3

> <Gold.Version>
5.8.1

> <Gold.Id.Protein>
6NUR|6NUR_protein|mol2

> <Gold.PLP.Fitness>
49.8468

> <Gold.PLP.PLP>
-40.5865

> <Gold.PLP.part.hbond>
-5.2883

> <Gold.PLP.part.metal>
0.0000

> <Gold.PLP.part.buried>
-0.4676

> <Gold.PLP.part.nonpolar>
-34.5470

> <Gold.PLP.part.repulsive>
0.5179

> <Gold.PLP.ligand.clash>
0.0000

> <Gold.PLP.ligand.torsion>
1.2374

> <Gold.PLP.Chemscore.Hbond>
2.9750

> <Gold.PLP.Chemscore.CHOScore>
0.9133

> <Gold.PLP.Chemscore.Metal>
0.0000

> <Gold.Chemscore.Hbonds>
donor molecule, donor type, donor heavy atom, donor atom, acceptor molecule, acceptor atom, score
      L1  H    17    42       P1  7921  0.98
      L1  H    19    43       P1 10747  1.00
      P1  H 10192 10197       L1    17  1.00
      L1  C    11    39       P1 10171  0.86

> <Gold.PLP.Chemscore.Internal.Correction>
0.0703

> <Gold.Rescore>
     Score         DG    S(hbond)    S(metal)    S(lipo)     H(rot)  DE(clash)    DE(int)     intcor
     12.37     -14.95       2.86        0.00      88.94       4.10       1.20       1.38       ----

> <Gold.Chemscore.Fitness>
12.3670

> <Gold.Chemscore.DG>
-14.9514

> <Gold.Chemscore.ZeroCoef>
-5.4800

> <Gold.Chemscore.Hbond>
2.8602

> <Gold.Chemscore.Metal>
0.0000

> <Gold.Chemscore.Lipo>
88.9436

> <Gold.Chemscore.Internal_Hbond>
0.0000

> <Gold.Chemscore.DEClash>
1.2050

> <Gold.Chemscore.DEInternal>
1.3795

> <Gold.Chemscore.Rot>
4.0968

> <Gold.Chemscore.Internal.Correction>
   9.000000E+99

> <Gold.Chemscore.Hbonds>
donor molecule, donor type, donor heavy atom, donor atom, acceptor molecule, acceptor atom, score
      L1  H    17    42       P1  7921  0.91
      L1  H    19    43       P1 10747  0.97
      P1  H 10192 10197       L1    17  0.30

> <Gold.Chemscore.Hbond.Weighted>
-9.5529

> <Gold.Chemscore.Metal.Weighted>
-0.0000

> <Gold.Chemscore.Lipo.Weighted>
-10.4064

> <Gold.Chemscore.Internal_Hbond.Weighted>
0.0000

> <Gold.Chemscore.DEClash.Weighted>
1.2050

> <Gold.Chemscore.DEInternal.Weighted>
1.3795

> <Gold.Chemscore.Rot.Weighted>
10.4879

> <Gold.Chemscore.Internal.Correction.Weighted>
   9.000000E+99

> <Gold.Protein.RotatedTorsions>
[ 6907 6896 6895 6894 ] final   48.63 input  -60.11 | X-H torsion
[ 7974 7965 7964 7962 ] final -133.11 input  175.53 | X-H torsion
[ 8008 7997 7996 7995 ] final  -23.43 input   59.86 | X-H torsion
[ 10167 10162 10161 10158 ] final   -3.62 input  -65.29 | X-H torsion
[ 10718 10713 10712 10709 ] final  -63.39 input   66.30 | X-H torsion
[ 10763 10752 10751 10750 ] final -178.36 input  -60.55 | X-H torsion
[ 11005 11000 10999 10996 ] final -125.08 input  -57.11 | X-H torsion

> <Gold.Protein.ActiveResidues>
 VAL166  LYS551  ARG553  GLY616  TRP617  ASP618  TYR619  PRO620  LYS621  CYS622 
 ASP623  PHE694  ASN695  SER759  ASP760  ASP761  ALA762  ILE779  LEU786  VAL792 
 PHE793  MET794  SER795  GLU796  ALA797  LYS798  CYS799  TRP800  GLU811  SER814 

> <Gold.Protein.RotatedAtoms>
  152.2816  134.7822  160.0395 H   0  0  0  0  0  0  0  0  0  0  0  0  # atno 6907 bound_to 6896
  151.8399  133.3416  159.3648 H   0  0  0  0  0  0  0  0  0  0  0  0  # atno 6908 bound_to 6896
  150.7192  134.5330  159.5754 H   0  0  0  0  0  0  0  0  0  0  0  0  # atno 6909 bound_to 6896
  144.9223  140.7029  143.4957 H   0  0  0  0  0  0  0  0  0  0  0  0  # atno 7974 bound_to 7965
  154.4586  140.1981  156.0309 H   0  0  0  0  0  0  0  0  0  0  0  0  # atno 8008 bound_to 7997
  156.0795  140.3273  155.7648 H   0  0  0  0  0  0  0  0  0  0  0  0  # atno 8009 bound_to 7997
  155.5134  140.0563  157.2910 H   0  0  0  0  0  0  0  0  0  0  0  0  # atno 8010 bound_to 7997
  140.6897  143.6519  150.8342 H   0  0  0  0  0  0  0  0  0  0  0  0  # atno 10167 bound_to 10162
  156.0794  130.4220  150.1270 H   0  0  0  0  0  0  0  0  0  0  0  0  # atno 10718 bound_to 10713
  154.5486  135.2811  155.1029 H   0  0  0  0  0  0  0  0  0  0  0  0  # atno 10763 bound_to 10752
  154.2484  135.6344  153.5235 H   0  0  0  0  0  0  0  0  0  0  0  0  # atno 10764 bound_to 10752
  152.9997  135.5577  154.6046 H   0  0  0  0  0  0  0  0  0  0  0  0  # atno 10765 bound_to 10752
  140.9791  134.0699  157.3786 H   0  0  0  0  0  0  0  0  0  0  0  0  # atno 11005 bound_to 11000
  145.3276  139.1769  143.4554 LP  0  0  0  0  0  0  0  0  0  0  0  0  # atno 17320 bound_to 7965
  146.3210  140.3301  142.8640 LP  0  0  0  0  0  0  0  0  0  0  0  0  # atno 17321 bound_to 7965
  140.0230  143.5522  152.2792 LP  0  0  0  0  0  0  0  0  0  0  0  0  # atno 17342 bound_to 10162
  139.6287  144.7641  151.2582 LP  0  0  0  0  0  0  0  0  0  0  0  0  # atno 17343 bound_to 10162
  156.9304  130.9712  151.3534 LP  0  0  0  0  0  0  0  0  0  0  0  0  # atno 17370 bound_to 10713
  157.5904  130.8440  149.8651 LP  0  0  0  0  0  0  0  0  0  0  0  0  # atno 17371 bound_to 10713
  139.8942  135.0135  156.6941 LP  0  0  0  0  0  0  0  0  0  0  0  0  # atno 17394 bound_to 11000
  140.7214  133.9137  155.8149 LP  0  0  0  0  0  0  0  0  0  0  0  0  # atno 17395 bound_to 11000

$$$$
