#       Name:                AV-unprocessed.smi:1643
#       Creating user name   scv26
#       Creation time:       Fri Mar 27 07:26:23 2020


#       File generated by GOLD software.
#

@<TRIPOS>MOLECULE
AV-unprocessed.smi:1643
    59    61     1
SMALL
NO_CHARGES


@<TRIPOS>ATOM
      1 ****        -5.1853   1.7620  -2.5023 C.3            1 S1                 0.0000
      2 ****        -5.0706   0.5342  -1.5955 C.2            1 S1                 0.0000
      3 ****        -5.6174   0.5715  -0.4929 O.2            1 S1                 0.0000
      4 ****        -4.3741  -0.5431  -2.0308 N.am           1 S1                 0.0000
      5 ****        -4.1706  -1.7334  -1.1974 C.3            1 S1                 0.0000
      6 ****        -2.8633  -1.6118  -0.3974 C.3            1 S1                 0.0000
      7 ****        -1.6052  -1.3556  -1.2540 C.3            1 S1                 0.0000
      8 ****        -1.5794  -0.0302  -1.8887 N.3            1 S1                 0.0000
      9 ****        -0.2225   0.5093  -2.0055 C.3            1 S1                 0.0000
     10 ****         0.4152   0.9769  -0.6807 C.3            1 S1                 0.0000
     11 ****        -0.2481   2.1499  -0.2505 O.3            1 S1                 0.0000
     12 ****         1.9138   1.2861  -0.8547 C.3            1 S1                 0.0000
     13 ****         2.5465   1.6712   0.3938 N.pl3          1 S1                 0.0000
     14 ****         2.8114   2.9196   0.8247 C.2            1 S1                 0.0000
     15 ****         3.3984   3.0411   2.0122 N.2            1 S1                 0.0000
     16 ****         3.5336   1.7169   2.3939 C.ar           1 S1                 0.0000
     17 ****         4.0870   1.1502   3.5629 C.ar           1 S1                 0.0000
     18 ****         4.1231  -0.2512   3.7421 C.ar           1 S1                 0.0000
     19 ****         4.7324  -0.8181   5.0124 C.3            1 S1                 0.0000
     20 ****         3.5962  -1.1093   2.7435 C.ar           1 S1                 0.0000
     21 ****         3.6271  -2.6181   2.9121 C.3            1 S1                 0.0000
     22 ****         3.0369  -0.5596   1.5711 C.ar           1 S1                 0.0000
     23 ****         3.0105   0.8359   1.4031 C.ar           1 S1                 0.0000
     24 ****        -2.2200  -0.0376  -3.2127 C.3            1 S1                 0.0000
     25 ****        -3.6548  -0.6040  -3.3082 C.3            1 S1                 0.0000
     26 ****        -4.2002   2.1377  -2.7780 H              1 S1                 0.0000
     27 ****        -5.7154   2.5669  -1.9923 H              1 S1                 0.0000
     28 ****        -5.7395   1.5215  -3.4096 H              1 S1                 0.0000
     29 ****        -5.0084  -1.8837  -0.5147 H              1 S1                 0.0000
     30 ****        -4.1457  -2.6354  -1.8097 H              1 S1                 0.0000
     31 ****        -2.9602  -0.8151   0.3417 H              1 S1                 0.0000
     32 ****        -2.7200  -2.5296   0.1732 H              1 S1                 0.0000
     33 ****        -0.7504  -1.4734  -0.5906 H              1 S1                 0.0000
     34 ****        -1.4863  -2.1383  -2.0047 H              1 S1                 0.0000
     35 ****         0.4161  -0.2429  -2.4713 H              1 S1                 0.0000
     36 ****        -0.2212   1.3592  -2.6900 H              1 S1                 0.0000
     37 ****         0.3039   0.2234   0.0979 H              1 S1                 0.0000
     38 ****         0.1048   2.4027   0.5888 H              1 S1                 0.0000
     39 ****         2.4365   0.4104  -1.2418 H              1 S1                 0.0000
     40 ****         2.0601   2.0839  -1.5846 H              1 S1                 0.0000
     41 ****         2.5544   3.7880   0.2355 H              1 S1                 0.0000
     42 ****         4.4874   1.8043   4.3236 H              1 S1                 0.0000
     43 ****         5.5660  -1.4792   4.7748 H              1 S1                 0.0000
     44 ****         3.9883  -1.3850   5.5725 H              1 S1                 0.0000
     45 ****         5.1083  -0.0269   5.6614 H              1 S1                 0.0000
     46 ****         3.1455  -3.1219   2.0732 H              1 S1                 0.0000
     47 ****         3.1056  -2.9136   3.8229 H              1 S1                 0.0000
     48 ****         4.6563  -2.9733   2.9701 H              1 S1                 0.0000
     49 ****         2.6316  -1.2007   0.8022 H              1 S1                 0.0000
     50 ****        -2.2502   0.9894  -3.5783 H              1 S1                 0.0000
     51 ****        -1.5905  -0.5769  -3.9221 H              1 S1                 0.0000
     52 ****        -3.5921  -1.6393  -3.6443 H              1 S1                 0.0000
     53 ****        -4.2054  -0.1035  -4.1051 H              1 S1                 0.0000
     54 ****        -6.1195   1.3891  -0.2112 LP             1 S1                 0.0000
     55 ****        -5.5594  -0.2159   0.1209 LP             1 S1                 0.0000
     56 ****        -2.1038   0.5666  -1.2814 LP             1 S1                 0.0000
     57 ****        -1.2282   1.9710  -0.1644 LP             1 S1                 0.0000
     58 ****        -0.1002   2.8836  -0.9136 LP             1 S1                 0.0000
     59 ****         3.6704   3.8702   2.5006 LP             1 S1                 0.0000
@<TRIPOS>BOND
    1    1    2 1     
    2    1   26 1     
    3    1   27 1     
    4    1   28 1     
    5    2    3 2     
    6    2    4 am    
    7    4   25 1     
    8    4    5 1     
    9    5    6 1     
   10    5   29 1     
   11    5   30 1     
   12    6    7 1     
   13    6   31 1     
   14    6   32 1     
   15    7    8 1     
   16    7   33 1     
   17    7   34 1     
   18    8    9 1     
   19    8   24 1     
   20    9   10 1     
   21    9   35 1     
   22    9   36 1     
   23   10   11 1     
   24   10   12 1     
   25   10   37 1     
   26   11   38 1     
   27   12   13 1     
   28   12   39 1     
   29   12   40 1     
   30   13   23 1     
   31   13   14 1     
   32   14   15 2     
   33   14   41 1     
   34   15   16 1     
   35   16   23 ar    
   36   16   17 ar    
   37   17   18 ar    
   38   17   42 1     
   39   18   19 1     
   40   18   20 ar    
   41   19   43 1     
   42   19   44 1     
   43   19   45 1     
   44   20   21 1     
   45   20   22 ar    
   46   21   46 1     
   47   21   47 1     
   48   21   48 1     
   49   22   23 ar    
   50   22   49 1     
   51   24   25 1     
   52   24   50 1     
   53   24   51 1     
   54   25   52 1     
   55   25   53 1     
   56    3   54 1     
   57    3   55 1     
   58    8   56 1     
   59   11   57 1     
   60   11   58 1     
   61   15   59 1     
@<TRIPOS>SUBSTRUCTURE
      1 S1             1
@<TRIPOS>SET
LONE_PAIRS      STATIC     ATOMS    <user>   **** ""
6 54 55 56 57 58 59
DONOR_HYDROGENS      STATIC     ATOMS    <user>   **** ""
1 38
ATOM$BLUE        STATIC     ATOMS    COLORGROUP SYSTEM
6 54 55 56 57 58 59
ATOM$RED        STATIC     ATOMS    COLORGROUP SYSTEM
1 38
