#       Name:                AV-unprocessed.smi:2607
#       Creating user name   scv26
#       Creation time:       Fri Mar 27 14:21:11 2020


#       File generated by GOLD software.
#

@<TRIPOS>MOLECULE
AV-unprocessed.smi:2607
    28    29     1
SMALL
NO_CHARGES


@<TRIPOS>ATOM
      1 ****        -1.9974  -0.3594  -0.7346 C.3            1 S1                 0.0000
      2 ****        -0.4627  -0.4624  -0.6174 C.3            1 S1                 0.0000
      3 ****         0.0397   0.2559   0.6513 C.ar           1 S1                 0.0000
      4 ****         0.6258  -0.4343   1.7450 C.ar           1 S1                 0.0000
      5 ****         1.0524   0.2060   2.8569 N.ar           1 S1                 0.0000
      6 ****         0.8918   1.5462   2.8835 C.ar           1 S1                 0.0000
      7 ****         0.3059   2.2429   1.8076 C.ar           1 S1                 0.0000
      8 ****        -0.1211   1.6035   0.6976 N.ar           1 S1                 0.0000
      9 ****        -0.0788  -1.8686  -0.6818 N.pl3          1 S1                -1.0000
     10 ****         0.7393  -2.0600  -1.7425 C.2            1 S1                 0.0000
     11 ****         1.2794  -3.1051  -2.0977 O.2            1 S1                 0.0000
     12 ****         0.9084  -0.9200  -2.4163 N.am           1 S1                 0.0000
     13 ****         0.2265   0.0810  -1.8688 C.2            1 S1                 0.0000
     14 ****         0.1429   1.2331  -2.2947 O.2            1 S1                 0.0000
     15 ****        -2.3282   0.6793  -0.7651 H              1 S1                 0.0000
     16 ****        -2.4876  -0.8327   0.1168 H              1 S1                 0.0000
     17 ****        -2.3685  -0.8443  -1.6390 H              1 S1                 0.0000
     18 ****         0.7578  -1.5058   1.7466 H              1 S1                 0.0000
     19 ****         1.2299   2.0654   3.7679 H              1 S1                 0.0000
     20 ****         0.1787   3.3148   1.8379 H              1 S1                 0.0000
     21 ****         1.4658  -0.8358  -3.2531 H              1 S1                 0.0000
     22 ****         1.4662  -0.2884   3.6213 LP             1 S1                 0.0000
     23 ****        -0.5395   2.1030  -0.0610 LP             1 S1                 0.0000
     24 ****        -0.3738  -2.5789  -0.0428 LP             1 S1                 0.0000
     25 ****         1.1317  -3.9462  -1.5774 LP             1 S1                 0.0000
     26 ****         1.8666  -3.1145  -2.9071 LP             1 S1                 0.0000
     27 ****        -0.4151   1.9063  -1.8095 LP             1 S1                 0.0000
     28 ****         0.6330   1.4957  -3.1259 LP             1 S1                 0.0000
@<TRIPOS>BOND
    1    1    2 1     
    2    1   15 1     
    3    1   16 1     
    4    1   17 1     
    5    2   13 1     
    6    2    3 1     
    7    2    9 1     
    8    3    8 ar    
    9    3    4 ar    
   10    4    5 ar    
   11    4   18 1     
   12    5    6 ar    
   13    6    7 ar    
   14    6   19 1     
   15    7    8 ar    
   16    7   20 1     
   17    9   10 1     
   18   10   11 2     
   19   10   12 am    
   20   12   13 am    
   21   12   21 1     
   22   13   14 2     
   23    5   22 1     
   24    8   23 1     
   25    9   24 1     
   26   11   25 1     
   27   11   26 1     
   28   14   27 1     
   29   14   28 1     
@<TRIPOS>SUBSTRUCTURE
      1 S1             1
@<TRIPOS>SET
LONE_PAIRS      STATIC     ATOMS    <user>   **** ""
7 22 23 24 25 26 27 28
DONOR_HYDROGENS      STATIC     ATOMS    <user>   **** ""
1 21
ATOM$BLUE        STATIC     ATOMS    COLORGROUP SYSTEM
7 22 23 24 25 26 27 28
ATOM$RED        STATIC     ATOMS    COLORGROUP SYSTEM
1 21
