AV-unprocessed.smi:3263|AV-procd|sdf|12491|dock2
  -GOLD-   2272018393D 1   1.00000     0.00000
 Structure written by MMmdl.
 42 44  0  0  0  0  0  0  0  0  2 V2000
  151.2783  139.2204  158.4036 O   0  0  0  0  0  0  0  0  0  0  0  0
  151.7046  139.9906  157.5428 C   0  0  0  0  0  0  0  0  0  0  0  0
  152.4720  141.2617  157.9298 C   0  0  0  0  0  0  0  0  0  0  0  0
  151.6211  142.3075  158.6877 C   0  0  1  0  0  0  0  0  0  0  0  0
  152.4316  143.2344  159.6273 C   0  0  0  0  0  0  0  0  0  0  0  0
  152.0508  144.6450  159.1437 C   0  0  2  0  0  0  0  0  0  0  0  0
  150.5824  144.9342  159.5055 C   0  0  0  0  0  0  0  0  0  0  0  0
  149.8080  144.0411  158.5181 C   0  0  0  0  0  0  0  0  0  0  0  0
  150.9368  143.3284  157.7486 C   0  0  1  0  0  0  0  0  0  0  0  0
  151.9743  144.4414  157.6364 C   0  0  0  0  0  0  0  0  0  0  0  0
  151.5319  139.7827  156.2283 N   0  0  0  0  0  0  0  0  0  0  0  0
  150.8288  138.6448  155.6472 C   0  0  0  0  0  0  0  0  0  0  0  0
  150.7898  138.7245  154.1113 C   0  0  0  0  0  0  0  0  0  0  0  0
  149.6088  139.5308  153.6076 C   0  0  0  0  0  0  0  0  0  0  0  0
  149.4539  140.9019  153.9072 C   0  0  0  0  0  0  0  0  0  0  0  0
  148.3283  141.5926  153.4115 C   0  0  0  0  0  0  0  0  0  0  0  0
  147.3821  140.8989  152.6289 C   0  0  0  0  0  0  0  0  0  0  0  0
  147.5857  139.5297  152.3618 C   0  0  0  0  0  0  0  0  0  0  0  0
  148.6764  138.9028  152.8552 N   0  3  0  0  0  0  0  0  0  0  0  0
  153.3431  140.9752  158.5197 H   0  0  0  0  0  0  0  0  0  0  0  0
  152.8583  141.7178  157.0171 H   0  0  0  0  0  0  0  0  0  0  0  0
  150.8567  141.7763  159.2576 H   0  0  0  0  0  0  0  0  0  0  0  0
  152.1869  143.0756  160.6781 H   0  0  0  0  0  0  0  0  0  0  0  0
  153.5048  143.0777  159.5118 H   0  0  0  0  0  0  0  0  0  0  0  0
  152.7441  145.4209  159.4699 H   0  0  0  0  0  0  0  0  0  0  0  0
  150.3599  144.6944  160.5459 H   0  0  0  0  0  0  0  0  0  0  0  0
  150.3397  145.9852  159.3439 H   0  0  0  0  0  0  0  0  0  0  0  0
  149.1382  143.3433  159.0219 H   0  0  0  0  0  0  0  0  0  0  0  0
  149.2056  144.6506  157.8433 H   0  0  0  0  0  0  0  0  0  0  0  0
  150.6081  142.9076  156.7977 H   0  0  0  0  0  0  0  0  0  0  0  0
  151.6113  145.3197  157.0993 H   0  0  0  0  0  0  0  0  0  0  0  0
  152.9174  144.1179  157.1934 H   0  0  0  0  0  0  0  0  0  0  0  0
  151.9168  140.4611  155.5865 H   0  0  0  0  0  0  0  0  0  0  0  0
  151.3409  137.7352  155.9622 H   0  0  0  0  0  0  0  0  0  0  0  0
  149.8169  138.5882  156.0528 H   0  0  0  0  0  0  0  0  0  0  0  0
  151.7079  139.1746  153.7314 H   0  0  0  0  0  0  0  0  0  0  0  0
  150.7416  137.7214  153.6853 H   0  0  0  0  0  0  0  0  0  0  0  0
  150.1865  141.4190  154.5099 H   0  0  0  0  0  0  0  0  0  0  0  0
  148.1921  142.6418  153.6293 H   0  0  0  0  0  0  0  0  0  0  0  0
  146.5135  141.4096  152.2395 H   0  0  0  0  0  0  0  0  0  0  0  0
  146.9144  138.9217  151.7729 H   0  0  0  0  0  0  0  0  0  0  0  0
  148.8030  137.9116  152.6495 H   0  0  0  0  0  0  0  0  0  0  0  0
  1  2  2  0  0  0  0
  2  3  1  0  0  0  0
  2 11  1  0  0  0  0
  3  4  1  0  0  0  0
  3 20  1  0  0  0  0
  3 21  1  0  0  0  0
  4  9  1  0  0  0  0
  4  5  1  0  0  0  0
  4 22  1  0  0  0  0
  5  6  1  0  0  0  0
  5 23  1  0  0  0  0
  5 24  1  0  0  0  0
  6 10  1  0  0  0  0
  6  7  1  0  0  0  0
  6 25  1  0  0  0  0
  7  8  1  0  0  0  0
  7 26  1  0  0  0  0
  7 27  1  0  0  0  0
  8  9  1  0  0  0  0
  8 28  1  0  0  0  0
  8 29  1  0  0  0  0
  9 10  1  0  0  0  0
  9 30  1  0  0  0  0
 10 31  1  0  0  0  0
 10 32  1  0  0  0  0
 11 12  1  0  0  0  0
 11 33  1  0  0  0  0
 12 13  1  0  0  0  0
 12 34  1  0  0  0  0
 12 35  1  0  0  0  0
 13 14  1  0  0  0  0
 13 36  1  0  0  0  0
 13 37  1  0  0  0  0
 14 19  1  0  0  0  0
 14 15  2  0  0  0  0
 15 16  1  0  0  0  0
 15 38  1  0  0  0  0
 16 17  2  0  0  0  0
 16 39  1  0  0  0  0
 17 18  1  0  0  0  0
 17 40  1  0  0  0  0
 18 19  2  0  0  0  0
 18 41  1  0  0  0  0
 19 42  1  0  0  0  0
M  CHG  1  19   1
M  END
> <s_m_source_file>
AV-unprocessed.smi

> <i_m_source_file_index>
3263

> <i_lp_mmshare_version>
43012

> <i_f3d_flags>
0

> <s_epik_input>
W0NIMl0xW0NIMl1bQ0BASF0oW0NIMl0yKVtDQEBIXShbQ0gyXVtDQEhdMTIpW0NIMl1DKD1PKVtOSF1bQ0gyXVtDSDJdYzNbY0hdW2NIXVtjSF1bY0hdbjM=

> <s_epik_cmdline>
J2VwaWtfcHl0aG9uJywgJy1waCcsICc3LjAnLCAnLXRuJywgJzgnLCAnLW1hJywgJzIwMCcsICctbWV0YWxfYmluZGluZycsICctaW1hZScsICc8aW5maWxlLm1hZT4nLCAnLW9tYWUnLCAnPG91dGZpbGUubWFlPic=

> <r_epik_Ionization_Penalty>
1.83579

> <r_epik_Ionization_Penalty_Charging>
1.83579

> <r_epik_Ionization_Penalty_Neutral>
2.47288e-08

> <r_epik_State_Penalty>
1.95213

> <r_epik_Charging_Adjusted_Penalty>
3.78793

> <i_epik_Tot_Q>
1

> <i_epik_Tot_abs_Q>
1

> <r_epik_Metal_State_Penalty>
1.97847

> <b_epik_Metal_Only>
0

> <s_lp_Force_Field>
OPLS_2005

> <r_lp_Energy>
52.562

> <b_lp_Chiralities_Consistent>
1

> <s_lp_Variant>
AV-unprocessed.smi:3263-6

> <Gold.Version>
5.8.1

> <Gold.Id.Protein>
6NUR|6NUR_protein|mol2

> <Gold.PLP.Fitness>
48.5511

> <Gold.PLP.PLP>
-43.5915

> <Gold.PLP.part.hbond>
-2.0000

> <Gold.PLP.part.metal>
0.0000

> <Gold.PLP.part.buried>
-3.3996

> <Gold.PLP.part.nonpolar>
-38.4729

> <Gold.PLP.part.repulsive>
0.1450

> <Gold.PLP.ligand.clash>
0.0000

> <Gold.PLP.ligand.torsion>
0.5552

> <Gold.PLP.Chemscore.Hbond>
2.0000

> <Gold.PLP.Chemscore.CHOScore>
0.0000

> <Gold.PLP.Chemscore.Metal>
0.0000

> <Gold.Chemscore.Hbonds>
donor molecule, donor type, donor heavy atom, donor atom, acceptor molecule, acceptor atom, score
      L1  H    19    42       P1  7948  2.00

> <Gold.PLP.Chemscore.Internal.Correction>
0.0700

> <Gold.Rescore>
     Score         DG    S(hbond)    S(metal)    S(lipo)     H(rot)  DE(clash)    DE(int)     intcor
     19.48     -20.08       0.99        0.00     130.66       1.56       0.14       0.46       ----

> <Gold.Chemscore.Fitness>
19.4832

> <Gold.Chemscore.DG>
-20.0826

> <Gold.Chemscore.ZeroCoef>
-5.4800

> <Gold.Chemscore.Hbond>
0.9938

> <Gold.Chemscore.Metal>
0.0000

> <Gold.Chemscore.Lipo>
130.6594

> <Gold.Chemscore.Internal_Hbond>
0.0000

> <Gold.Chemscore.DEClash>
0.1434

> <Gold.Chemscore.DEInternal>
0.4559

> <Gold.Chemscore.Rot>
1.5640

> <Gold.Chemscore.Internal.Correction>
   9.000000E+99

> <Gold.Chemscore.Hbonds>
donor molecule, donor type, donor heavy atom, donor atom, acceptor molecule, acceptor atom, score
      L1  H    19    42       P1  7948  1.00

> <Gold.Chemscore.Hbond.Weighted>
-3.3192

> <Gold.Chemscore.Metal.Weighted>
-0.0000

> <Gold.Chemscore.Lipo.Weighted>
-15.2871

> <Gold.Chemscore.Internal_Hbond.Weighted>
0.0000

> <Gold.Chemscore.DEClash.Weighted>
0.1434

> <Gold.Chemscore.DEInternal.Weighted>
0.4559

> <Gold.Chemscore.Rot.Weighted>
4.0038

> <Gold.Chemscore.Internal.Correction.Weighted>
   9.000000E+99

> <Gold.Protein.RotatedTorsions>
[ 6907 6896 6895 6894 ] final   17.61 input  -60.11 | X-H torsion
[ 7974 7965 7964 7962 ] final  162.61 input  175.53 | X-H torsion
[ 8008 7997 7996 7995 ] final  -11.97 input   59.86 | X-H torsion
[ 10167 10162 10161 10158 ] final  -13.55 input  -65.29 | X-H torsion
[ 10718 10713 10712 10709 ] final  -10.17 input   66.30 | X-H torsion
[ 10763 10752 10751 10750 ] final -118.64 input  -60.55 | X-H torsion
[ 11005 11000 10999 10996 ] final -167.90 input  -57.11 | X-H torsion

> <Gold.Protein.ActiveResidues>
 VAL166  LYS551  ARG553  GLY616  TRP617  ASP618  TYR619  PRO620  LYS621  CYS622 
 ASP623  PHE694  ASN695  SER759  ASP760  ASP761  ALA762  ILE779  LEU786  VAL792 
 PHE793  MET794  SER795  GLU796  ALA797  LYS798  CYS799  TRP800  GLU811  SER814 

> <Gold.Protein.RotatedAtoms>
  151.8524  135.0553  160.0460 H   0  0  0  0  0  0  0  0  0  0  0  0  # atno 6907 bound_to 6896
  152.2726  133.5392  159.5457 H   0  0  0  0  0  0  0  0  0  0  0  0  # atno 6908 bound_to 6896
  150.7158  134.0592  159.3867 H   0  0  0  0  0  0  0  0  0  0  0  0  # atno 6909 bound_to 6896
  144.7628  139.8064  143.6326 H   0  0  0  0  0  0  0  0  0  0  0  0  # atno 7974 bound_to 7965
  154.5418  140.2288  155.8629 H   0  0  0  0  0  0  0  0  0  0  0  0  # atno 8008 bound_to 7997
  156.1865  140.3087  155.9211 H   0  0  0  0  0  0  0  0  0  0  0  0  # atno 8009 bound_to 7997
  155.3243  140.0442  157.3031 H   0  0  0  0  0  0  0  0  0  0  0  0  # atno 8010 bound_to 7997
  140.7184  143.5414  150.9405 H   0  0  0  0  0  0  0  0  0  0  0  0  # atno 10167 bound_to 10162
  156.6774  130.5027  149.5981 H   0  0  0  0  0  0  0  0  0  0  0  0  # atno 10718 bound_to 10713
  154.8593  135.4266  154.2171 H   0  0  0  0  0  0  0  0  0  0  0  0  # atno 10763 bound_to 10752
  153.3184  135.6980  153.7058 H   0  0  0  0  0  0  0  0  0  0  0  0  # atno 10764 bound_to 10752
  153.6123  135.3517  155.2956 H   0  0  0  0  0  0  0  0  0  0  0  0  # atno 10765 bound_to 10752
  140.5480  134.5456  157.5116 H   0  0  0  0  0  0  0  0  0  0  0  0  # atno 11005 bound_to 11000
  146.1708  139.4858  142.9929 LP  0  0  0  0  0  0  0  0  0  0  0  0  # atno 17320 bound_to 7965
  145.6564  141.0251  143.1733 LP  0  0  0  0  0  0  0  0  0  0  0  0  # atno 17321 bound_to 7965
  139.9137  143.6689  152.3110 LP  0  0  0  0  0  0  0  0  0  0  0  0  # atno 17342 bound_to 10162
  139.7082  144.7624  151.1158 LP  0  0  0  0  0  0  0  0  0  0  0  0  # atno 17343 bound_to 10162
  156.1893  130.6549  151.1042 LP  0  0  0  0  0  0  0  0  0  0  0  0  # atno 17370 bound_to 10713
  157.7056  131.0758  150.6679 LP  0  0  0  0  0  0  0  0  0  0  0  0  # atno 17371 bound_to 10713
  139.9470  134.7685  156.0539 LP  0  0  0  0  0  0  0  0  0  0  0  0  # atno 17394 bound_to 11000
  141.1188  133.6619  156.3162 LP  0  0  0  0  0  0  0  0  0  0  0  0  # atno 17395 bound_to 11000

$$$$
