AV-unprocessed.smi:1703|AV-procd|sdf|6877|dock7
  -GOLD-   22720 8 83D 1   1.00000     0.00000
 Structure written by MMmdl.
 50 52  0  0  0  0  0  0  0  0  3 V2000
  148.6695  132.1981  154.1092 C   0  0  0  0  0  0  0  0  0  0  0  0
  148.5625  133.7269  154.1179 C   0  0  2  0  0  0  0  0  0  0  0  0
  149.8224  134.3946  154.7005 C   0  0  0  0  0  0  0  0  0  0  0  0
  149.6520  135.8656  154.7591 N   0  3  2  0  0  0  0  0  0  0  0  0
  150.8705  136.5584  155.2513 C   0  0  0  0  0  0  0  0  0  0  0  0
  150.7606  138.0940  155.1603 C   0  0  2  0  0  0  0  0  0  0  0  0
  152.0523  138.6317  154.9552 O   0  0  0  0  0  0  0  0  0  0  0  0
  150.1634  138.7239  156.4391 C   0  0  0  0  0  0  0  0  0  0  0  0
  150.1883  140.1931  156.3976 N   0  0  0  0  0  0  0  0  0  0  0  0
  149.5494  141.0543  155.5540 C   0  0  0  0  0  0  0  0  0  0  0  0
  148.6394  140.6936  154.4271 C   0  0  0  0  0  0  0  0  0  0  0  0
  149.1188  141.1537  153.1835 O   0  0  0  0  0  0  0  0  0  0  0  0
  149.8997  142.3177  155.9245 N   0  3  0  0  0  0  0  0  0  0  0  0
  150.7648  142.2667  157.0181 C   0  0  0  0  0  0  0  0  0  0  0  0
  151.3806  143.2850  157.7388 C   0  0  0  0  0  0  0  0  0  0  0  0
  152.2124  142.8904  158.8069 C   0  0  0  0  0  0  0  0  0  0  0  0
  152.4034  141.5301  159.1245 C   0  0  0  0  0  0  0  0  0  0  0  0
  151.7723  140.5061  158.3876 C   0  0  0  0  0  0  0  0  0  0  0  0
  150.9537  140.9039  157.3301 C   0  0  0  0  0  0  0  0  0  0  0  0
  148.4218  136.2127  155.5129 C   0  0  0  0  0  0  0  0  0  0  0  0
  147.1997  135.4946  154.9091 C   0  0  2  0  0  0  0  0  0  0  0  0
  145.9183  135.7638  155.7057 C   0  0  0  0  0  0  0  0  0  0  0  0
  147.4377  134.0912  154.9104 O   0  0  0  0  0  0  0  0  0  0  0  0
  149.5141  131.8669  153.5040 H   0  0  0  0  0  0  0  0  0  0  0  0
  147.7676  131.7468  153.6949 H   0  0  0  0  0  0  0  0  0  0  0  0
  148.8050  131.8049  155.1170 H   0  0  0  0  0  0  0  0  0  0  0  0
  148.4058  134.0682  153.0930 H   0  0  0  0  0  0  0  0  0  0  0  0
  150.0261  134.0118  155.7021 H   0  0  0  0  0  0  0  0  0  0  0  0
  150.6858  134.1486  154.0808 H   0  0  0  0  0  0  0  0  0  0  0  0
  151.0658  136.2477  156.2783 H   0  0  0  0  0  0  0  0  0  0  0  0
  151.7352  136.2390  154.6673 H   0  0  0  0  0  0  0  0  0  0  0  0
  150.1561  138.3804  154.2997 H   0  0  0  0  0  0  0  0  0  0  0  0
  152.6282  138.3079  155.6317 H   0  0  0  0  0  0  0  0  0  0  0  0
  149.1458  138.3815  156.6277 H   0  0  0  0  0  0  0  0  0  0  0  0
  150.7319  138.4303  157.3232 H   0  0  0  0  0  0  0  0  0  0  0  0
  148.5155  139.6113  154.3876 H   0  0  0  0  0  0  0  0  0  0  0  0
  147.6532  141.1226  154.6066 H   0  0  0  0  0  0  0  0  0  0  0  0
  149.3561  140.4063  152.6559 H   0  0  0  0  0  0  0  0  0  0  0  0
  151.2353  144.3282  157.4980 H   0  0  0  0  0  0  0  0  0  0  0  0
  152.7146  143.6461  159.3938 H   0  0  0  0  0  0  0  0  0  0  0  0
  153.0495  141.2673  159.9499 H   0  0  0  0  0  0  0  0  0  0  0  0
  151.9322  139.4693  158.6414 H   0  0  0  0  0  0  0  0  0  0  0  0
  148.5438  135.9300  156.5598 H   0  0  0  0  0  0  0  0  0  0  0  0
  148.2531  137.2888  155.4916 H   0  0  0  0  0  0  0  0  0  0  0  0
  147.0454  135.8310  153.8823 H   0  0  0  0  0  0  0  0  0  0  0  0
  145.6828  136.8281  155.7236 H   0  0  0  0  0  0  0  0  0  0  0  0
  146.0145  135.4234  156.7372 H   0  0  0  0  0  0  0  0  0  0  0  0
  145.0685  135.2444  155.2622 H   0  0  0  0  0  0  0  0  0  0  0  0
  149.5141  136.1723  153.8061 H   0  0  0  0  0  0  0  0  0  0  0  0
  149.5709  143.1533  155.4574 H   0  0  0  0  0  0  0  0  0  0  0  0
  1  2  1  0  0  0  0
  1 24  1  0  0  0  0
  1 25  1  0  0  0  0
  1 26  1  0  0  0  0
  2 23  1  0  0  0  0
  2  3  1  0  0  0  0
  2 27  1  0  0  0  0
  3  4  1  0  0  0  0
  3 28  1  0  0  0  0
  3 29  1  0  0  0  0
  4  5  1  0  0  0  0
  4 20  1  0  0  0  0
  4 49  1  0  0  0  0
  5  6  1  0  0  0  0
  5 30  1  0  0  0  0
  5 31  1  0  0  0  0
  6  7  1  0  0  0  0
  6  8  1  0  0  0  0
  6 32  1  0  0  0  0
  7 33  1  0  0  0  0
  8  9  1  0  0  0  0
  8 34  1  0  0  0  0
  8 35  1  0  0  0  0
  9 19  1  0  0  0  0
  9 10  1  0  0  0  0
 10 11  1  0  0  0  0
 10 13  2  0  0  0  0
 11 12  1  0  0  0  0
 11 36  1  0  0  0  0
 11 37  1  0  0  0  0
 12 38  1  0  0  0  0
 13 14  1  0  0  0  0
 13 50  1  0  0  0  0
 14 19  2  0  0  0  0
 14 15  1  0  0  0  0
 15 16  2  0  0  0  0
 15 39  1  0  0  0  0
 16 17  1  0  0  0  0
 16 40  1  0  0  0  0
 17 18  2  0  0  0  0
 17 41  1  0  0  0  0
 18 19  1  0  0  0  0
 18 42  1  0  0  0  0
 20 21  1  0  0  0  0
 20 43  1  0  0  0  0
 20 44  1  0  0  0  0
 21 22  1  0  0  0  0
 21 23  1  0  0  0  0
 21 45  1  0  0  0  0
 22 46  1  0  0  0  0
 22 47  1  0  0  0  0
 22 48  1  0  0  0  0
M  CHG  1   4   1
M  CHG  1  13   1
M  END
> <s_m_source_file>
AV-unprocessed.smi

> <i_m_source_file_index>
1703

> <i_lp_mmshare_version>
43012

> <i_f3d_flags>
0

> <s_epik_input>
W0NIM11bQ0BASF0xW0NIMl1OKFtDSDJdW0NASF0oTzEpW0NIM10pW0NIMl1bQ0BIXShbT0hdKVtDSDJdbihjKG4yKVtDSDJdW09IXSljKGMyMylbY0hdW2NIXVtjSF1bY0hdMw==

> <s_epik_cmdline>
J2VwaWtfcHl0aG9uJywgJy1waCcsICc3LjAnLCAnLXRuJywgJzgnLCAnLW1hJywgJzIwMCcsICctbWV0YWxfYmluZGluZycsICctaW1hZScsICc8aW5maWxlLm1hZT4nLCAnLW9tYWUnLCAnPG91dGZpbGUubWFlPic=

> <r_epik_Ionization_Penalty>
2.22579

> <r_epik_Ionization_Penalty_Charging>
2.22492

> <r_epik_Ionization_Penalty_Neutral>
0.000870007

> <r_epik_State_Penalty>
2.3141

> <r_epik_Charging_Adjusted_Penalty>
4.53902

> <i_epik_Tot_Q>
2

> <i_epik_Tot_abs_Q>
2

> <r_epik_Metal_State_Penalty>
6.36517

> <b_epik_Metal_Only>
0

> <s_lp_Force_Field>
OPLS_2005

> <r_lp_Energy>
31.942

> <b_lp_Chiralities_Consistent>
1

> <s_lp_Variant>
AV-unprocessed.smi:1703-25

> <Gold.Version>
5.8.1

> <Gold.Id.Protein>
6NUR|6NUR_protein|mol2

> <Gold.PLP.Fitness>
55.1457

> <Gold.PLP.PLP>
-38.3754

> <Gold.PLP.part.hbond>
-4.5474

> <Gold.PLP.part.metal>
0.0000

> <Gold.PLP.part.buried>
-5.6870

> <Gold.PLP.part.nonpolar>
-29.8415

> <Gold.PLP.part.repulsive>
0.2340

> <Gold.PLP.ligand.clash>
0.0000

> <Gold.PLP.ligand.torsion>
0.4203

> <Gold.PLP.Chemscore.Hbond>
5.8480

> <Gold.PLP.Chemscore.CHOScore>
0.0000

> <Gold.PLP.Chemscore.Metal>
0.0000

> <Gold.Chemscore.Hbonds>
donor molecule, donor type, donor heavy atom, donor atom, acceptor molecule, acceptor atom, score
      L1  H     4    49       P1  7948  2.00
      L1  H    12    38       P1  7957  0.78
      L1  H    13    50       P1  8028  1.86
      P1  H  8011  8017       L1    12  1.00

> <Gold.PLP.Chemscore.Internal.Correction>
0.0668

> <Gold.Rescore>
     Score         DG    S(hbond)    S(metal)    S(lipo)     H(rot)  DE(clash)    DE(int)     intcor
     18.90     -19.42       3.18        0.00      94.90       3.04       0.08       0.45       ----

> <Gold.Chemscore.Fitness>
18.8957

> <Gold.Chemscore.DG>
-19.4242

> <Gold.Chemscore.ZeroCoef>
-5.4800

> <Gold.Chemscore.Hbond>
3.1789

> <Gold.Chemscore.Metal>
0.0000

> <Gold.Chemscore.Lipo>
94.9011

> <Gold.Chemscore.Internal_Hbond>
0.0000

> <Gold.Chemscore.DEClash>
0.0780

> <Gold.Chemscore.DEInternal>
0.4505

> <Gold.Chemscore.Rot>
3.0378

> <Gold.Chemscore.Internal.Correction>
   9.000000E+99

> <Gold.Chemscore.Hbonds>
donor molecule, donor type, donor heavy atom, donor atom, acceptor molecule, acceptor atom, score
      L1  H     4    49       P1  7948  0.58
      L1  H    12    38       P1  7957  0.75
      L1  H    13    50       P1  8028  0.91
      P1  H  8011  8017       L1    12  0.34

> <Gold.Chemscore.Hbond.Weighted>
-10.6175

> <Gold.Chemscore.Metal.Weighted>
-0.0000

> <Gold.Chemscore.Lipo.Weighted>
-11.1034

> <Gold.Chemscore.Internal_Hbond.Weighted>
0.0000

> <Gold.Chemscore.DEClash.Weighted>
0.0780

> <Gold.Chemscore.DEInternal.Weighted>
0.4505

> <Gold.Chemscore.Rot.Weighted>
7.7767

> <Gold.Chemscore.Internal.Correction.Weighted>
   9.000000E+99

> <Gold.Protein.RotatedTorsions>
[ 6907 6896 6895 6894 ] final    7.18 input  -60.11 | X-H torsion
[ 7974 7965 7964 7962 ] final   97.38 input  175.53 | X-H torsion
[ 8008 7997 7996 7995 ] final   57.30 input   59.86 | X-H torsion
[ 10167 10162 10161 10158 ] final -142.57 input  -65.29 | X-H torsion
[ 10718 10713 10712 10709 ] final   96.23 input   66.30 | X-H torsion
[ 10763 10752 10751 10750 ] final  172.81 input  -60.55 | X-H torsion
[ 11005 11000 10999 10996 ] final  -83.27 input  -57.11 | X-H torsion

> <Gold.Protein.ActiveResidues>
 VAL166  LYS551  ARG553  GLY616  TRP617  ASP618  TYR619  PRO620  LYS621  CYS622 
 ASP623  PHE694  ASN695  SER759  ASP760  ASP761  ALA762  ILE779  LEU786  VAL792 
 PHE793  MET794  SER795  GLU796  ALA797  LYS798  CYS799  TRP800  GLU811  SER814 

> <Gold.Protein.RotatedAtoms>
  151.6857  135.0954  160.0224 H   0  0  0  0  0  0  0  0  0  0  0  0  # atno 6907 bound_to 6896
  152.3809  133.6540  159.6169 H   0  0  0  0  0  0  0  0  0  0  0  0  # atno 6908 bound_to 6896
  150.7746  133.9032  159.3389 H   0  0  0  0  0  0  0  0  0  0  0  0  # atno 6909 bound_to 6896
  145.4262  139.2315  143.3169 H   0  0  0  0  0  0  0  0  0  0  0  0  # atno 7974 bound_to 7965
  155.5316  140.3482  155.4427 H   0  0  0  0  0  0  0  0  0  0  0  0  # atno 8008 bound_to 7997
  156.0714  140.1364  156.9850 H   0  0  0  0  0  0  0  0  0  0  0  0  # atno 8009 bound_to 7997
  154.4530  140.0965  156.6650 H   0  0  0  0  0  0  0  0  0  0  0  0  # atno 8010 bound_to 7997
  139.8076  143.7747  152.2662 H   0  0  0  0  0  0  0  0  0  0  0  0  # atno 10167 bound_to 10162
  157.6929  131.0571  150.4460 H   0  0  0  0  0  0  0  0  0  0  0  0  # atno 10718 bound_to 10713
  154.4312  135.2760  155.1911 H   0  0  0  0  0  0  0  0  0  0  0  0  # atno 10763 bound_to 10752
  154.3816  135.6086  153.5797 H   0  0  0  0  0  0  0  0  0  0  0  0  # atno 10764 bound_to 10752
  152.9836  135.5881  154.4624 H   0  0  0  0  0  0  0  0  0  0  0  0  # atno 10765 bound_to 10752
  141.1659  133.7286  156.8696 H   0  0  0  0  0  0  0  0  0  0  0  0  # atno 11005 bound_to 11000
  146.2631  140.4993  142.8845 LP  0  0  0  0  0  0  0  0  0  0  0  0  # atno 17320 bound_to 7965
  144.8212  140.6553  143.6351 LP  0  0  0  0  0  0  0  0  0  0  0  0  # atno 17321 bound_to 7965
  139.7886  144.7418  150.9986 LP  0  0  0  0  0  0  0  0  0  0  0  0  # atno 17342 bound_to 10162
  140.7819  143.4465  151.0474 LP  0  0  0  0  0  0  0  0  0  0  0  0  # atno 17343 bound_to 10162
  156.4815  130.4075  149.6459 LP  0  0  0  0  0  0  0  0  0  0  0  0  # atno 17370 bound_to 10713
  156.3503  130.7428  151.2387 LP  0  0  0  0  0  0  0  0  0  0  0  0  # atno 17371 bound_to 10713
  140.1791  134.9046  157.2927 LP  0  0  0  0  0  0  0  0  0  0  0  0  # atno 17394 bound_to 11000
  140.2415  134.3790  155.7478 LP  0  0  0  0  0  0  0  0  0  0  0  0  # atno 17395 bound_to 11000

$$$$
