AV-unprocessed.smi:283|AV-procd|sdf|2148|dock5
  -GOLD-   2262021483D 1   1.00000     0.00000
 Structure written by MMmdl.
 48 51  0  0  0  0  0  0  0  0  1 V2000
  148.1248  132.9043  158.3515 C   0  0  0  0  0  0  0  0  0  0  0  0
  147.3316  134.2079  158.5535 C   0  0  1  0  0  0  0  0  0  0  0  0
  146.0064  134.1199  157.9408 N   0  0  0  0  0  0  0  0  0  0  0  0
  145.7548  134.6243  156.7123 C   0  0  0  0  0  0  0  0  0  0  0  0
  145.2132  135.8598  156.5513 N   0  0  0  0  0  0  0  0  0  0  0  0
  144.9764  136.3309  155.3235 C   0  0  0  0  0  0  0  0  0  0  0  0
  145.1939  135.7397  154.1467 N   0  0  0  0  0  0  0  0  0  0  0  0
  145.7253  134.4924  154.3030 C   0  0  0  0  0  0  0  0  0  0  0  0
  146.0412  133.8728  155.5435 C   0  0  0  0  0  0  0  0  0  0  0  0
  146.5916  132.6191  155.3155 N   0  0  0  0  0  0  0  0  0  0  0  0
  146.6057  132.5132  154.0141 C   0  0  0  0  0  0  0  0  0  0  0  0
  146.0646  133.5793  153.3251 N   0  0  0  0  0  0  0  0  0  0  0  0
  145.9520  133.7833  151.8426 C   0  0  1  0  0  0  0  0  0  0  0  0
  146.7122  132.7987  151.2017 O   0  0  0  0  0  0  0  0  0  0  0  0
  145.8752  131.7640  150.6932 C   0  0  1  0  0  0  0  0  0  0  0  0
  145.6930  130.6580  151.7574 C   0  0  0  0  0  0  0  0  0  0  0  0
  146.6715  129.6503  151.6083 O   0  0  0  0  0  0  0  0  0  0  0  0
  144.6113  132.5359  150.2911 C   0  0  1  0  0  0  0  0  0  0  0  0
  143.4547  131.7232  150.2491 O   0  0  0  0  0  0  0  0  0  0  0  0
  144.4957  133.6189  151.3579 C   0  0  2  0  0  0  0  0  0  0  0  0
  144.0003  134.8094  150.7781 O   0  0  0  0  0  0  0  0  0  0  0  0
  147.2708  134.5579  160.0398 C   0  0  0  0  0  0  0  0  0  0  0  0
  146.6426  133.6753  160.9504 C   0  0  0  0  0  0  0  0  0  0  0  0
  146.5836  133.9811  162.3231 C   0  0  0  0  0  0  0  0  0  0  0  0
  147.1590  135.1707  162.8038 C   0  0  0  0  0  0  0  0  0  0  0  0
  147.7979  136.0498  161.9104 C   0  0  0  0  0  0  0  0  0  0  0  0
  147.8601  135.7493  160.5349 C   0  0  0  0  0  0  0  0  0  0  0  0
  148.6745  136.8598  159.4886 Cl  0  0  0  0  0  0  0  0  0  0  0  0
  146.3769  134.7743  151.6767 H   0  0  0  0  0  0  0  0  0  0  0  0
  146.3612  131.3353  149.8158 H   0  0  0  0  0  0  0  0  0  0  0  0
  144.7749  132.9828  149.3087 H   0  0  0  0  0  0  0  0  0  0  0  0
  143.8556  133.2917  152.1787 H   0  0  0  0  0  0  0  0  0  0  0  0
  149.1295  132.9909  158.7663 H   0  0  0  0  0  0  0  0  0  0  0  0
  148.2325  132.6530  157.2964 H   0  0  0  0  0  0  0  0  0  0  0  0
  147.6348  132.0634  158.8432 H   0  0  0  0  0  0  0  0  0  0  0  0
  147.8587  135.0175  158.0505 H   0  0  0  0  0  0  0  0  0  0  0  0
  145.3177  133.6017  158.4666 H   0  0  0  0  0  0  0  0  0  0  0  0
  144.5499  137.3221  155.2770 H   0  0  0  0  0  0  0  0  0  0  0  0
  147.0141  131.6423  153.5234 H   0  0  0  0  0  0  0  0  0  0  0  0
  145.8221  131.0780  152.7545 H   0  0  0  0  0  0  0  0  0  0  0  0
  144.6962  130.2179  151.7188 H   0  0  0  0  0  0  0  0  0  0  0  0
  147.5183  130.0629  151.5316 H   0  0  0  0  0  0  0  0  0  0  0  0
  143.1614  131.5725  151.1348 H   0  0  0  0  0  0  0  0  0  0  0  0
  143.1888  134.6133  150.3361 H   0  0  0  0  0  0  0  0  0  0  0  0
  146.2031  132.7513  160.6045 H   0  0  0  0  0  0  0  0  0  0  0  0
  146.0992  133.3008  163.0078 H   0  0  0  0  0  0  0  0  0  0  0  0
  147.1154  135.4066  163.8567 H   0  0  0  0  0  0  0  0  0  0  0  0
  148.2459  136.9588  162.2843 H   0  0  0  0  0  0  0  0  0  0  0  0
  1  2  1  0  0  0  0
  1 33  1  0  0  0  0
  1 34  1  0  0  0  0
  1 35  1  0  0  0  0
  2  3  1  0  0  0  0
  2 22  1  0  0  0  0
  2 36  1  0  0  0  0
  3  4  1  0  0  0  0
  3 37  1  0  0  0  0
  4  9  1  0  0  0  0
  4  5  2  0  0  0  0
  5  6  1  0  0  0  0
  6  7  2  0  0  0  0
  6 38  1  0  0  0  0
  7  8  1  0  0  0  0
  8 12  1  0  0  0  0
  8  9  2  0  0  0  0
  9 10  1  0  0  0  0
 10 11  2  0  0  0  0
 11 12  1  0  0  0  0
 11 39  1  0  0  0  0
 12 13  1  0  0  0  0
 13 29  1  0  0  0  0
 13 20  1  0  0  0  0
 13 14  1  0  0  0  0
 14 15  1  0  0  0  0
 15 30  1  0  0  0  0
 15 16  1  0  0  0  0
 15 18  1  0  0  0  0
 16 17  1  0  0  0  0
 16 40  1  0  0  0  0
 16 41  1  0  0  0  0
 17 42  1  0  0  0  0
 18 31  1  0  0  0  0
 18 19  1  0  0  0  0
 18 20  1  0  0  0  0
 19 43  1  0  0  0  0
 20 32  1  0  0  0  0
 20 21  1  0  0  0  0
 21 44  1  0  0  0  0
 22 27  1  0  0  0  0
 22 23  2  0  0  0  0
 23 24  1  0  0  0  0
 23 45  1  0  0  0  0
 24 25  2  0  0  0  0
 24 46  1  0  0  0  0
 25 26  1  0  0  0  0
 25 47  1  0  0  0  0
 26 27  2  0  0  0  0
 26 48  1  0  0  0  0
 27 28  1  0  0  0  0
M  END
> <s_m_source_file>
AV-unprocessed.smi

> <i_m_source_file_index>
283

> <i_lp_mmshare_version>
43012

> <i_f3d_flags>
0

> <s_epik_input>
Q2xjMVtjSF1bY0hdW2NIXVtjSF1jMVtDQEhdKFtDSDNdKVtOSF1jKG5bY0hdbjIpYyhjMjMpbltjSF1uM1tDQEBIXTRPW0NASF0oW0NIMl1bT0hdKVtDQEBIXShbT0hdKVtDQEhdNFtPSF0=

> <s_epik_cmdline>
J2VwaWtfcHl0aG9uJywgJy1waCcsICc3LjAnLCAnLXRuJywgJzgnLCAnLW1hJywgJzIwMCcsICctbWV0YWxfYmluZGluZycsICctaW1hZScsICc8aW5maWxlLm1hZT4nLCAnLW9tYWUnLCAnPG91dGZpbGUubWFlPic=

> <r_lp_tautomer_probability>
1

> <r_epik_Ionization_Penalty>
0.000266407

> <r_epik_Ionization_Penalty_Charging>
0

> <r_epik_Ionization_Penalty_Neutral>
0.000266407

> <r_epik_State_Penalty>
-0

> <r_epik_Charging_Adjusted_Penalty>
0

> <i_epik_Tot_Q>
0

> <i_epik_Tot_abs_Q>
0

> <r_epik_Metal_State_Penalty>
-0

> <b_epik_Metal_Only>
0

> <s_epik_Chemistry_Notes>
This compound contains an acetal/aminal-like group ( X-CH(R)-Y where X, Y are N, S, or O) that may be acid/base labile, releasing an aldehyde.

> <s_lp_Force_Field>
OPLS_2005

> <r_lp_Energy>
43.8521

> <b_lp_Chiralities_Consistent>
1

> <s_lp_Variant>
AV-unprocessed.smi:283-24

> <Gold.Version>
5.8.1

> <Gold.Id.Protein>
6NUR|6NUR_protein|mol2

> <Gold.PLP.Fitness>
46.0146

> <Gold.PLP.PLP>
-40.4939

> <Gold.PLP.part.hbond>
-4.0000

> <Gold.PLP.part.metal>
0.0000

> <Gold.PLP.part.buried>
-8.0641

> <Gold.PLP.part.nonpolar>
-29.1327

> <Gold.PLP.part.repulsive>
0.3002

> <Gold.PLP.ligand.clash>
0.0000

> <Gold.PLP.ligand.torsion>
1.7577

> <Gold.PLP.Chemscore.Hbond>
2.9673

> <Gold.PLP.Chemscore.CHOScore>
0.0000

> <Gold.PLP.Chemscore.Metal>
0.0000

> <Gold.Chemscore.Hbonds>
donor molecule, donor type, donor heavy atom, donor atom, acceptor molecule, acceptor atom, score
      L1  H    17    42       P1 10747  0.86
      L1  H    21    44       P1 10186  0.28
      P1  H 10785 10796       L1    19  0.58

> <Gold.PLP.Chemscore.Internal.Correction>
0.1344

> <Gold.Rescore>
     Score         DG    S(hbond)    S(metal)    S(lipo)     H(rot)  DE(clash)    DE(int)     intcor
     11.87     -14.17       2.79        0.00      84.29       4.10       0.00       2.30       ----

> <Gold.Chemscore.Fitness>
11.8717

> <Gold.Chemscore.DG>
-14.1680

> <Gold.Chemscore.ZeroCoef>
-5.4800

> <Gold.Chemscore.Hbond>
2.7885

> <Gold.Chemscore.Metal>
0.0000

> <Gold.Chemscore.Lipo>
84.2932

> <Gold.Chemscore.Internal_Hbond>
0.0000

> <Gold.Chemscore.DEClash>
0.0000

> <Gold.Chemscore.DEInternal>
2.2963

> <Gold.Chemscore.Rot>
4.0968

> <Gold.Chemscore.Internal.Correction>
   9.000000E+99

> <Gold.Chemscore.Hbonds>
donor molecule, donor type, donor heavy atom, donor atom, acceptor molecule, acceptor atom, score
      L1  H    17    42       P1 10747  0.81
      L1  H    21    44       P1 10186  0.17
      P1  H 10785 10796       L1    19  0.52

> <Gold.Chemscore.Hbond.Weighted>
-9.3137

> <Gold.Chemscore.Metal.Weighted>
-0.0000

> <Gold.Chemscore.Lipo.Weighted>
-9.8623

> <Gold.Chemscore.Internal_Hbond.Weighted>
0.0000

> <Gold.Chemscore.DEClash.Weighted>
0.0000

> <Gold.Chemscore.DEInternal.Weighted>
2.2963

> <Gold.Chemscore.Rot.Weighted>
10.4879

> <Gold.Chemscore.Internal.Correction.Weighted>
   9.000000E+99

> <Gold.Protein.RotatedTorsions>
[ 6907 6896 6895 6894 ] final  -50.27 input  -60.11 | X-H torsion
[ 7974 7965 7964 7962 ] final   -1.33 input  175.53 | X-H torsion
[ 8008 7997 7996 7995 ] final   21.41 input   59.86 | X-H torsion
[ 10167 10162 10161 10158 ] final    3.04 input  -65.29 | X-H torsion
[ 10718 10713 10712 10709 ] final -139.96 input   66.30 | X-H torsion
[ 10763 10752 10751 10750 ] final    6.64 input  -60.55 | X-H torsion
[ 11005 11000 10999 10996 ] final -115.69 input  -57.11 | X-H torsion

> <Gold.Protein.ActiveResidues>
 VAL166  LYS551  ARG553  GLY616  TRP617  ASP618  TYR619  PRO620  LYS621  CYS622 
 ASP623  PHE694  ASN695  SER759  ASP760  ASP761  ALA762  ILE779  LEU786  VAL792 
 PHE793  MET794  SER795  GLU796  ALA797  LYS798  CYS799  TRP800  GLU811  SER814 

> <Gold.Protein.RotatedAtoms>
  150.8724  134.8100  159.7164 H   0  0  0  0  0  0  0  0  0  0  0  0  # atno 6907 bound_to 6896
  152.4723  134.4926  159.9710 H   0  0  0  0  0  0  0  0  0  0  0  0  # atno 6908 bound_to 6896
  151.5013  133.3465  159.2905 H   0  0  0  0  0  0  0  0  0  0  0  0  # atno 6909 bound_to 6896
  146.2418  140.1404  142.8335 H   0  0  0  0  0  0  0  0  0  0  0  0  # atno 7974 bound_to 7965
  154.9502  140.3064  155.5078 H   0  0  0  0  0  0  0  0  0  0  0  0  # atno 8008 bound_to 7997
  156.2988  140.2320  156.4517 H   0  0  0  0  0  0  0  0  0  0  0  0  # atno 8009 bound_to 7997
  154.8061  140.0431  157.1297 H   0  0  0  0  0  0  0  0  0  0  0  0  # atno 8010 bound_to 7997
  140.6606  143.7315  150.7731 H   0  0  0  0  0  0  0  0  0  0  0  0  # atno 10167 bound_to 10162
  156.3168  130.7512  151.1601 H   0  0  0  0  0  0  0  0  0  0  0  0  # atno 10718 bound_to 10713
  153.2454  135.6908  153.7737 H   0  0  0  0  0  0  0  0  0  0  0  0  # atno 10763 bound_to 10752
  153.6852  135.3322  155.3189 H   0  0  0  0  0  0  0  0  0  0  0  0  # atno 10764 bound_to 10752
  154.8372  135.4532  154.1391 H   0  0  0  0  0  0  0  0  0  0  0  0  # atno 10765 bound_to 10752
  141.0471  133.9745  157.2899 H   0  0  0  0  0  0  0  0  0  0  0  0  # atno 11005 bound_to 11000
  145.0252  140.8826  143.5143 LP  0  0  0  0  0  0  0  0  0  0  0  0  # atno 17320 bound_to 7965
  145.1459  139.2544  143.5466 LP  0  0  0  0  0  0  0  0  0  0  0  0  # atno 17321 bound_to 7965
  140.0982  143.4812  152.2440 LP  0  0  0  0  0  0  0  0  0  0  0  0  # atno 17342 bound_to 10162
  139.5838  144.7522  151.3571 LP  0  0  0  0  0  0  0  0  0  0  0  0  # atno 17343 bound_to 10162
  157.7403  131.0518  150.5174 LP  0  0  0  0  0  0  0  0  0  0  0  0  # atno 17370 bound_to 10713
  156.5321  130.4187  149.6196 LP  0  0  0  0  0  0  0  0  0  0  0  0  # atno 17371 bound_to 10713
  139.9320  135.0199  156.8433 LP  0  0  0  0  0  0  0  0  0  0  0  0  # atno 17394 bound_to 11000
  140.6126  134.0068  155.7583 LP  0  0  0  0  0  0  0  0  0  0  0  0  # atno 17395 bound_to 11000

$$$$
