AV-unprocessed.smi:1261|AV-procd|sdf|5301|dock4
  -GOLD-   22720 4423D 1   1.00000     0.00000
 Structure written by MMmdl.
 49 50  0  0  0  0  0  0  0  0  3 V2000
  152.0248  144.4901  157.4829 C   0  0  0  0  0  0  0  0  0  0  0  0
  151.2137  143.9994  158.6951 C   0  0  2  0  0  0  0  0  0  0  0  0
  152.0789  143.7884  159.9515 C   0  0  0  0  0  0  0  0  0  0  0  0
  152.9430  142.5195  159.8417 C   0  0  1  0  0  0  0  0  0  0  0  0
  153.7519  142.2813  161.1250 C   0  0  0  0  0  0  0  0  0  0  0  0
  152.0621  141.3029  159.4981 C   0  0  0  0  0  0  0  0  0  0  0  0
  151.2790  141.5318  158.2563 N   0  3  1  0  0  0  0  0  0  0  0  0
  150.5506  140.3134  157.8197 C   0  0  0  0  0  0  0  0  0  0  0  0
  151.4878  139.1136  157.6005 C   0  0  0  0  0  0  0  0  0  0  0  0
  151.2932  138.0228  158.6661 C   0  0  0  0  0  0  0  0  0  0  0  0
  149.8867  137.8477  159.0060 N   0  0  0  0  0  0  0  0  0  0  0  0
  149.1683  136.7382  158.7759 C   0  0  0  0  0  0  0  0  0  0  0  0
  149.6361  135.7217  158.2619 O   0  0  0  0  0  0  0  0  0  0  0  0
  147.6993  136.7809  159.2091 C   0  0  0  0  0  0  0  0  0  0  0  0
  147.5138  136.2515  160.5658 N   0  0  0  0  0  0  0  0  0  0  0  0
  147.7786  137.2307  161.6171 N   0  5  0  0  0  0  0  0  0  0  0  0
  147.6159  136.8676  162.9170 C   0  0  0  0  0  0  0  0  0  0  0  0
  147.8067  137.6402  163.8533 O   0  0  0  0  0  0  0  0  0  0  0  0
  147.1993  135.5041  163.1994 C   0  0  0  0  0  0  0  0  0  0  0  0
  146.9718  134.6185  162.2095 C   0  0  0  0  0  0  0  0  0  0  0  0
  147.1232  134.9665  160.8017 C   0  0  0  0  0  0  0  0  0  0  0  0
  146.9129  134.1629  159.8933 O   0  0  0  0  0  0  0  0  0  0  0  0
  150.4024  142.7281  158.3763 C   0  0  0  0  0  0  0  0  0  0  0  0
  152.7466  143.7467  157.1452 H   0  0  0  0  0  0  0  0  0  0  0  0
  152.5737  145.4015  157.7218 H   0  0  0  0  0  0  0  0  0  0  0  0
  151.3689  144.7157  156.6417 H   0  0  0  0  0  0  0  0  0  0  0  0
  150.5004  144.7922  158.9252 H   0  0  0  0  0  0  0  0  0  0  0  0
  152.7069  144.6625  160.1282 H   0  0  0  0  0  0  0  0  0  0  0  0
  151.4260  143.7037  160.8215 H   0  0  0  0  0  0  0  0  0  0  0  0
  153.6595  142.6588  159.0313 H   0  0  0  0  0  0  0  0  0  0  0  0
  153.0983  142.1260  161.9842 H   0  0  0  0  0  0  0  0  0  0  0  0
  154.3960  143.1326  161.3473 H   0  0  0  0  0  0  0  0  0  0  0  0
  154.3905  141.4026  161.0300 H   0  0  0  0  0  0  0  0  0  0  0  0
  152.7000  140.4273  159.3701 H   0  0  0  0  0  0  0  0  0  0  0  0
  151.3806  141.0805  160.3211 H   0  0  0  0  0  0  0  0  0  0  0  0
  149.8277  140.0347  158.5877 H   0  0  0  0  0  0  0  0  0  0  0  0
  149.9745  140.5267  156.9180 H   0  0  0  0  0  0  0  0  0  0  0  0
  151.3209  138.6808  156.6144 H   0  0  0  0  0  0  0  0  0  0  0  0
  152.5241  139.4535  157.6174 H   0  0  0  0  0  0  0  0  0  0  0  0
  151.6707  137.0688  158.2973 H   0  0  0  0  0  0  0  0  0  0  0  0
  151.8663  138.2566  159.5649 H   0  0  0  0  0  0  0  0  0  0  0  0
  149.4093  138.6370  159.4182 H   0  0  0  0  0  0  0  0  0  0  0  0
  147.3371  137.8086  159.1482 H   0  0  0  0  0  0  0  0  0  0  0  0
  147.0954  136.2200  158.4929 H   0  0  0  0  0  0  0  0  0  0  0  0
  147.0710  135.1940  164.2262 H   0  0  0  0  0  0  0  0  0  0  0  0
  146.6647  133.6155  162.4661 H   0  0  0  0  0  0  0  0  0  0  0  0
  149.6683  142.5523  159.1642 H   0  0  0  0  0  0  0  0  0  0  0  0
  149.8368  142.8866  157.4588 H   0  0  0  0  0  0  0  0  0  0  0  0
  151.9543  141.7334  157.5327 H   0  0  0  0  0  0  0  0  0  0  0  0
  1  2  1  0  0  0  0
  1 24  1  0  0  0  0
  1 25  1  0  0  0  0
  1 26  1  0  0  0  0
  2 23  1  0  0  0  0
  2  3  1  0  0  0  0
  2 27  1  0  0  0  0
  3  4  1  0  0  0  0
  3 28  1  0  0  0  0
  3 29  1  0  0  0  0
  4  5  1  0  0  0  0
  4  6  1  0  0  0  0
  4 30  1  0  0  0  0
  5 31  1  0  0  0  0
  5 32  1  0  0  0  0
  5 33  1  0  0  0  0
  6  7  1  0  0  0  0
  6 34  1  0  0  0  0
  6 35  1  0  0  0  0
  7  8  1  0  0  0  0
  7 23  1  0  0  0  0
  7 49  1  0  0  0  0
  8  9  1  0  0  0  0
  8 36  1  0  0  0  0
  8 37  1  0  0  0  0
  9 10  1  0  0  0  0
  9 38  1  0  0  0  0
  9 39  1  0  0  0  0
 10 11  1  0  0  0  0
 10 40  1  0  0  0  0
 10 41  1  0  0  0  0
 11 12  1  0  0  0  0
 11 42  1  0  0  0  0
 12 13  2  0  0  0  0
 12 14  1  0  0  0  0
 14 43  1  0  0  0  0
 14 44  1  0  0  0  0
 14 15  1  0  0  0  0
 15 16  1  0  0  0  0
 15 21  1  0  0  0  0
 16 17  1  0  0  0  0
 17 18  2  0  0  0  0
 17 19  1  0  0  0  0
 19 45  1  0  0  0  0
 19 20  2  0  0  0  0
 20 46  1  0  0  0  0
 20 21  1  0  0  0  0
 21 22  2  0  0  0  0
 23 47  1  0  0  0  0
 23 48  1  0  0  0  0
M  CHG  1   7   1
M  CHG  1  16  -1
M  END
> <s_m_source_file>
AV-unprocessed.smi

> <i_m_source_file_index>
1261

> <i_lp_mmshare_version>
43012

> <i_f3d_flags>
0

> <s_epik_input>
W0NIM11bQ0BASF0xW0NIMl1bQ0BASF0oW0NIM10pW0NIMl1OKFtDSDJdMSlbQ0gyXVtDSDJdW0NIMl1bTkhdQyg9TylbQ0gyXW4yW25IXWMoPU8pW2NIXVtjSF1jMj1P

> <s_epik_cmdline>
J2VwaWtfcHl0aG9uJywgJy1waCcsICc3LjAnLCAnLXRuJywgJzgnLCAnLW1hJywgJzIwMCcsICctbWV0YWxfYmluZGluZycsICctaW1hZScsICc8aW5maWxlLm1hZT4nLCAnLW9tYWUnLCAnPG91dGZpbGUubWFlPic=

> <r_lp_tautomer_probability>
1

> <r_epik_Ionization_Penalty>
0.0955723

> <r_epik_Ionization_Penalty_Charging>
0.0955723

> <r_epik_Ionization_Penalty_Neutral>
2.68632e-08

> <r_epik_State_Penalty>
0.0334406

> <r_epik_Charging_Adjusted_Penalty>
0.129013

> <i_epik_Tot_Q>
0

> <i_epik_Tot_abs_Q>
2

> <r_epik_Metal_State_Penalty>
0.0334406

> <b_epik_Metal_Only>
0

> <s_lp_Force_Field>
OPLS_2005

> <r_lp_Energy>
33.9758

> <b_lp_Chiralities_Consistent>
1

> <s_lp_Variant>
AV-unprocessed.smi:1261-1

> <Gold.Version>
5.8.1

> <Gold.Id.Protein>
6NUR|6NUR_protein|mol2

> <Gold.PLP.Fitness>
56.7820

> <Gold.PLP.PLP>
-46.9047

> <Gold.PLP.part.hbond>
-4.0727

> <Gold.PLP.part.metal>
0.0000

> <Gold.PLP.part.buried>
-5.0945

> <Gold.PLP.part.nonpolar>
-38.5027

> <Gold.PLP.part.repulsive>
0.3698

> <Gold.PLP.ligand.clash>
0.0000

> <Gold.PLP.ligand.torsion>
1.1613

> <Gold.PLP.Chemscore.Hbond>
4.0246

> <Gold.PLP.Chemscore.CHOScore>
0.0000

> <Gold.PLP.Chemscore.Metal>
0.0000

> <Gold.Chemscore.Hbonds>
donor molecule, donor type, donor heavy atom, donor atom, acceptor molecule, acceptor atom, score
      P1  H  6896  6909       L1    13  0.87
      P1  H  6931  6943       L1    16  1.50
      P1  H  6934  6947       L1    16  1.38

> <Gold.PLP.Chemscore.Internal.Correction>
0.1260

> <Gold.Rescore>
     Score         DG    S(hbond)    S(metal)    S(lipo)     H(rot)  DE(clash)    DE(int)     intcor
     15.77     -16.85       1.67        0.00     104.17       2.49       0.03       1.05       ----

> <Gold.Chemscore.Fitness>
15.7745

> <Gold.Chemscore.DG>
-16.8450

> <Gold.Chemscore.ZeroCoef>
-5.4800

> <Gold.Chemscore.Hbond>
1.6651

> <Gold.Chemscore.Metal>
0.0000

> <Gold.Chemscore.Lipo>
104.1682

> <Gold.Chemscore.Internal_Hbond>
0.0000

> <Gold.Chemscore.DEClash>
0.0253

> <Gold.Chemscore.DEInternal>
1.0452

> <Gold.Chemscore.Rot>
2.4938

> <Gold.Chemscore.Internal.Correction>
   9.000000E+99

> <Gold.Chemscore.Hbonds>
donor molecule, donor type, donor heavy atom, donor atom, acceptor molecule, acceptor atom, score
      P1  H  6896  6909       L1    13  0.78
      P1  H  6931  6943       L1    16  0.09
      P1  H  6934  6947       L1    16  0.43

> <Gold.Chemscore.Hbond.Weighted>
-5.5614

> <Gold.Chemscore.Metal.Weighted>
-0.0000

> <Gold.Chemscore.Lipo.Weighted>
-12.1877

> <Gold.Chemscore.Internal_Hbond.Weighted>
0.0000

> <Gold.Chemscore.DEClash.Weighted>
0.0253

> <Gold.Chemscore.DEInternal.Weighted>
1.0452

> <Gold.Chemscore.Rot.Weighted>
6.3840

> <Gold.Chemscore.Internal.Correction.Weighted>
   9.000000E+99

> <Gold.Protein.RotatedTorsions>
[ 6907 6896 6895 6894 ] final   34.90 input  -60.11 | X-H torsion
[ 7974 7965 7964 7962 ] final   73.23 input  175.53 | X-H torsion
[ 8008 7997 7996 7995 ] final   89.73 input   59.86 | X-H torsion
[ 10167 10162 10161 10158 ] final  -93.14 input  -65.29 | X-H torsion
[ 10718 10713 10712 10709 ] final   52.41 input   66.30 | X-H torsion
[ 10763 10752 10751 10750 ] final  -70.26 input  -60.55 | X-H torsion
[ 11005 11000 10999 10996 ] final  -30.48 input  -57.11 | X-H torsion

> <Gold.Protein.ActiveResidues>
 VAL166  LYS551  ARG553  GLY616  TRP617  ASP618  TYR619  PRO620  LYS621  CYS622 
 ASP623  PHE694  ASN695  SER759  ASP760  ASP761  ALA762  ILE779  LEU786  VAL792 
 PHE793  MET794  SER795  GLU796  ALA797  LYS798  CYS799  TRP800  GLU811  SER814 

> <Gold.Protein.RotatedAtoms>
  152.1087  134.9290  160.0567 H   0  0  0  0  0  0  0  0  0  0  0  0  # atno 6907 bound_to 6896
  152.0476  133.4000  159.4371 H   0  0  0  0  0  0  0  0  0  0  0  0  # atno 6908 bound_to 6896
  150.6842  134.3265  159.4852 H   0  0  0  0  0  0  0  0  0  0  0  0  # atno 6909 bound_to 6896
  145.7435  139.2730  143.1473 H   0  0  0  0  0  0  0  0  0  0  0  0  # atno 7974 bound_to 7965
  156.0034  140.3357  155.6868 H   0  0  0  0  0  0  0  0  0  0  0  0  # atno 8008 bound_to 7997
  155.6258  140.0680  157.2682 H   0  0  0  0  0  0  0  0  0  0  0  0  # atno 8009 bound_to 7997
  154.4257  140.1768  156.1407 H   0  0  0  0  0  0  0  0  0  0  0  0  # atno 8010 bound_to 7997
  140.3276  143.3013  151.9977 H   0  0  0  0  0  0  0  0  0  0  0  0  # atno 10167 bound_to 10162
  157.5072  130.8477  149.8389 H   0  0  0  0  0  0  0  0  0  0  0  0  # atno 10718 bound_to 10713
  154.4152  135.5999  153.5976 H   0  0  0  0  0  0  0  0  0  0  0  0  # atno 10763 bound_to 10752
  152.9791  135.5939  154.4022 H   0  0  0  0  0  0  0  0  0  0  0  0  # atno 10764 bound_to 10752
  154.3840  135.2841  155.2173 H   0  0  0  0  0  0  0  0  0  0  0  0  # atno 10765 bound_to 10752
  140.9386  133.7293  156.1042 H   0  0  0  0  0  0  0  0  0  0  0  0  # atno 11005 bound_to 11000
  146.0425  140.8150  142.9821 LP  0  0  0  0  0  0  0  0  0  0  0  0  # atno 17320 bound_to 7965
  144.6865  140.2932  143.7275 LP  0  0  0  0  0  0  0  0  0  0  0  0  # atno 17321 bound_to 7965
  139.4862  144.6261  151.7162 LP  0  0  0  0  0  0  0  0  0  0  0  0  # atno 17342 bound_to 10162
  140.5426  144.0554  150.6094 LP  0  0  0  0  0  0  0  0  0  0  0  0  # atno 17343 bound_to 10162
  156.0266  130.3777  150.1806 LP  0  0  0  0  0  0  0  0  0  0  0  0  # atno 17370 bound_to 10713
  156.9996  130.9918  151.3394 LP  0  0  0  0  0  0  0  0  0  0  0  0  # atno 17371 bound_to 10713
  140.7765  134.3774  157.5497 LP  0  0  0  0  0  0  0  0  0  0  0  0  # atno 17394 bound_to 11000
  139.8814  134.9055  156.2901 LP  0  0  0  0  0  0  0  0  0  0  0  0  # atno 17395 bound_to 11000

$$$$
