AV-unprocessed.smi:1789|AV-procd|sdf|7215|dock2
  -GOLD-   22720 8453D 1   1.00000     0.00000
 Structure written by MMmdl.
 34 35  0  0  0  0  0  0  0  0  1 V2000
  152.3460  135.9037  157.3094 C   0  0  0  0  0  0  0  0  0  0  0  0
  151.2923  135.2431  156.4885 C   0  0  0  0  0  0  0  0  0  0  0  0
  150.6997  135.5659  155.3003 C   0  0  0  0  0  0  0  0  0  0  0  0
  149.7852  134.4984  155.0986 C   0  0  0  0  0  0  0  0  0  0  0  0
  148.9591  134.4561  153.9466 N   0  0  0  0  0  0  0  0  0  0  0  0
  148.0535  133.5178  153.6223 C   0  0  0  0  0  0  0  0  0  0  0  0
  147.7868  132.5247  154.3000 O   0  0  0  0  0  0  0  0  0  0  0  0
  147.4668  133.7936  152.4485 N   0  0  0  0  0  0  0  0  0  0  0  0
  146.4506  132.9707  151.7998 C   0  0  2  0  0  0  0  0  0  0  0  0
  146.6942  132.9103  150.2785 C   0  0  0  0  0  0  0  0  0  0  0  0
  145.5961  132.1060  149.5614 C   0  0  0  0  0  0  0  0  0  0  0  0
  144.1835  132.6309  149.8803 C   0  0  2  0  0  0  0  0  0  0  0  0
  143.9848  133.8905  149.2690 O   0  0  0  0  0  0  0  0  0  0  0  0
  143.9478  132.7363  151.3989 C   0  0  0  0  0  0  0  0  0  0  0  0
  145.0533  133.5403  152.1056 C   0  0  0  0  0  0  0  0  0  0  0  0
  149.8143  133.6064  156.0769 N   0  0  0  0  0  0  0  0  0  0  0  0
  150.7798  134.0797  156.9730 O   0  0  0  0  0  0  0  0  0  0  0  0
  152.8463  136.6890  156.7426 H   0  0  0  0  0  0  0  0  0  0  0  0
  153.1002  135.1824  157.6248 H   0  0  0  0  0  0  0  0  0  0  0  0
  151.9131  136.3538  158.2028 H   0  0  0  0  0  0  0  0  0  0  0  0
  150.8932  136.4264  154.6774 H   0  0  0  0  0  0  0  0  0  0  0  0
  149.0767  135.2178  153.2952 H   0  0  0  0  0  0  0  0  0  0  0  0
  147.7499  134.6308  151.9603 H   0  0  0  0  0  0  0  0  0  0  0  0
  146.4992  131.9581  152.2057 H   0  0  0  0  0  0  0  0  0  0  0  0
  146.7308  133.9209  149.8692 H   0  0  0  0  0  0  0  0  0  0  0  0
  147.6660  132.4610  150.0705 H   0  0  0  0  0  0  0  0  0  0  0  0
  145.7689  132.1138  148.4845 H   0  0  0  0  0  0  0  0  0  0  0  0
  145.6653  131.0628  149.8718 H   0  0  0  0  0  0  0  0  0  0  0  0
  143.4467  131.9511  149.4512 H   0  0  0  0  0  0  0  0  0  0  0  0
  144.8106  134.1883  148.9189 H   0  0  0  0  0  0  0  0  0  0  0  0
  142.9727  133.1808  151.6016 H   0  0  0  0  0  0  0  0  0  0  0  0
  143.9167  131.7322  151.8236 H   0  0  0  0  0  0  0  0  0  0  0  0
  144.8759  133.5350  153.1818 H   0  0  0  0  0  0  0  0  0  0  0  0
  145.0015  134.5837  151.7912 H   0  0  0  0  0  0  0  0  0  0  0  0
  1  2  1  0  0  0  0
  1 18  1  0  0  0  0
  1 19  1  0  0  0  0
  1 20  1  0  0  0  0
  2 17  1  0  0  0  0
  2  3  2  0  0  0  0
  3  4  1  0  0  0  0
  3 21  1  0  0  0  0
  4  5  1  0  0  0  0
  4 16  2  0  0  0  0
  5  6  1  0  0  0  0
  5 22  1  0  0  0  0
  6  7  2  0  0  0  0
  6  8  1  0  0  0  0
  8  9  1  0  0  0  0
  8 23  1  0  0  0  0
  9 15  1  0  0  0  0
  9 10  1  0  0  0  0
  9 24  1  0  0  0  0
 10 11  1  0  0  0  0
 10 25  1  0  0  0  0
 10 26  1  0  0  0  0
 11 12  1  0  0  0  0
 11 27  1  0  0  0  0
 11 28  1  0  0  0  0
 12 13  1  0  0  0  0
 12 14  1  0  0  0  0
 12 29  1  0  0  0  0
 13 30  1  0  0  0  0
 14 15  1  0  0  0  0
 14 31  1  0  0  0  0
 14 32  1  0  0  0  0
 15 33  1  0  0  0  0
 15 34  1  0  0  0  0
 16 17  1  0  0  0  0
M  END
> <s_m_source_file>
AV-unprocessed.smi

> <i_m_source_file_index>
1789

> <i_lp_mmshare_version>
43012

> <i_f3d_flags>
0

> <s_epik_input>
W0NIM11jMVtjSF1jKG5vMSlbTkhdQyg9TylbTkhdW0NAQEhdMltDSDJdW0NIMl1bQ0BASF0oW09IXSlbQ0gyXVtDSDJdMg==

> <s_epik_cmdline>
J2VwaWtfcHl0aG9uJywgJy1waCcsICc3LjAnLCAnLXRuJywgJzgnLCAnLW1hJywgJzIwMCcsICctbWV0YWxfYmluZGluZycsICctaW1hZScsICc8aW5maWxlLm1hZT4nLCAnLW9tYWUnLCAnPG91dGZpbGUubWFlPic=

> <r_lp_tautomer_probability>
1

> <r_epik_Ionization_Penalty>
2.38512e-05

> <r_epik_Ionization_Penalty_Charging>
0

> <r_epik_Ionization_Penalty_Neutral>
2.38512e-05

> <r_epik_State_Penalty>
-0

> <r_epik_Charging_Adjusted_Penalty>
0

> <i_epik_Tot_Q>
0

> <i_epik_Tot_abs_Q>
0

> <r_epik_Metal_State_Penalty>
-0

> <b_epik_Metal_Only>
0

> <s_lp_Force_Field>
OPLS_2005

> <r_lp_Energy>
7.91579

> <b_lp_Chiralities_Consistent>
1

> <s_lp_Variant>
AV-unprocessed.smi:1789-2

> <Gold.Version>
5.8.1

> <Gold.Id.Protein>
6NUR|6NUR_protein|mol2

> <Gold.PLP.Fitness>
37.8562

> <Gold.PLP.PLP>
-28.7507

> <Gold.PLP.part.hbond>
-4.9545

> <Gold.PLP.part.metal>
0.0000

> <Gold.PLP.part.buried>
-2.4755

> <Gold.PLP.part.nonpolar>
-21.3541

> <Gold.PLP.part.repulsive>
0.0596

> <Gold.PLP.ligand.clash>
0.0000

> <Gold.PLP.ligand.torsion>
0.2974

> <Gold.PLP.Chemscore.Hbond>
3.2325

> <Gold.PLP.Chemscore.CHOScore>
0.0000

> <Gold.PLP.Chemscore.Metal>
0.0000

> <Gold.Chemscore.Hbonds>
donor molecule, donor type, donor heavy atom, donor atom, acceptor molecule, acceptor atom, score
      L1  H     5    22       P1  7948  1.00
      L1  H     8    23       P1  7948  0.99
      L1  H    13    30       P1  7921  1.00
      P1  H  6896  6909       L1    17  0.22

> <Gold.PLP.Chemscore.Internal.Correction>
0.0027

> <Gold.Rescore>
     Score         DG    S(hbond)    S(metal)    S(lipo)     H(rot)  DE(clash)    DE(int)     intcor
     16.42     -18.50       2.91        0.00      60.83       1.49       0.53       1.54       ----

> <Gold.Chemscore.Fitness>
16.4231

> <Gold.Chemscore.DG>
-18.4977

> <Gold.Chemscore.ZeroCoef>
-5.4800

> <Gold.Chemscore.Hbond>
2.9077

> <Gold.Chemscore.Metal>
0.0000

> <Gold.Chemscore.Lipo>
60.8303

> <Gold.Chemscore.Internal_Hbond>
0.0000

> <Gold.Chemscore.DEClash>
0.5325

> <Gold.Chemscore.DEInternal>
1.5421

> <Gold.Chemscore.Rot>
1.4887

> <Gold.Chemscore.Internal.Correction>
   9.000000E+99

> <Gold.Chemscore.Hbonds>
donor molecule, donor type, donor heavy atom, donor atom, acceptor molecule, acceptor atom, score
      L1  H     5    22       P1  7948  0.30
      L1  H     8    23       P1  7948  0.37
      L1  H    13    30       P1  7921  0.99
      P1  H  6896  6909       L1    17  0.21

> <Gold.Chemscore.Hbond.Weighted>
-9.7116

> <Gold.Chemscore.Metal.Weighted>
-0.0000

> <Gold.Chemscore.Lipo.Weighted>
-7.1171

> <Gold.Chemscore.Internal_Hbond.Weighted>
0.0000

> <Gold.Chemscore.DEClash.Weighted>
0.5325

> <Gold.Chemscore.DEInternal.Weighted>
1.5421

> <Gold.Chemscore.Rot.Weighted>
3.8111

> <Gold.Chemscore.Internal.Correction.Weighted>
   9.000000E+99

> <Gold.Protein.RotatedTorsions>
[ 6907 6896 6895 6894 ] final   -6.54 input  -60.11 | X-H torsion
[ 7974 7965 7964 7962 ] final   -1.55 input  175.53 | X-H torsion
[ 8008 7997 7996 7995 ] final -124.05 input   59.86 | X-H torsion
[ 10167 10162 10161 10158 ] final -119.56 input  -65.29 | X-H torsion
[ 10718 10713 10712 10709 ] final   23.04 input   66.30 | X-H torsion
[ 10763 10752 10751 10750 ] final  167.80 input  -60.55 | X-H torsion
[ 11005 11000 10999 10996 ] final  172.25 input  -57.11 | X-H torsion

> <Gold.Protein.ActiveResidues>
 VAL166  LYS551  ARG553  GLY616  TRP617  ASP618  TYR619  PRO620  LYS621  CYS622 
 ASP623  PHE694  ASN695  SER759  ASP760  ASP761  ALA762  ILE779  LEU786  VAL792 
 PHE793  MET794  SER795  GLU796  ALA797  LYS798  CYS799  TRP800  GLU811  SER814 

> <Gold.Protein.RotatedAtoms>
  151.4639  135.1040  159.9732 H   0  0  0  0  0  0  0  0  0  0  0  0  # atno 6907 bound_to 6896
  152.4842  133.8327  159.7122 H   0  0  0  0  0  0  0  0  0  0  0  0  # atno 6908 bound_to 6896
  150.8938  133.7147  159.2924 H   0  0  0  0  0  0  0  0  0  0  0  0  # atno 6909 bound_to 6896
  146.2415  140.1437  142.8335 H   0  0  0  0  0  0  0  0  0  0  0  0  # atno 7974 bound_to 7965
  155.1906  140.0413  157.2899 H   0  0  0  0  0  0  0  0  0  0  0  0  # atno 8008 bound_to 7997
  154.6141  140.2484  155.7603 H   0  0  0  0  0  0  0  0  0  0  0  0  # atno 8009 bound_to 7997
  156.2396  140.2908  156.0418 H   0  0  0  0  0  0  0  0  0  0  0  0  # atno 8010 bound_to 7997
  140.0453  143.5113  152.2109 H   0  0  0  0  0  0  0  0  0  0  0  0  # atno 10167 bound_to 10162
  157.1607  130.6715  149.6043 H   0  0  0  0  0  0  0  0  0  0  0  0  # atno 10718 bound_to 10713
  154.3592  135.2753  155.2329 H   0  0  0  0  0  0  0  0  0  0  0  0  # atno 10763 bound_to 10752
  154.4525  135.5927  153.6205 H   0  0  0  0  0  0  0  0  0  0  0  0  # atno 10764 bound_to 10752
  152.9844  135.6045  154.3810 H   0  0  0  0  0  0  0  0  0  0  0  0  # atno 10765 bound_to 10752
  140.3277  134.7384  157.4111 H   0  0  0  0  0  0  0  0  0  0  0  0  # atno 11005 bound_to 11000
  145.0225  140.8805  143.5158 LP  0  0  0  0  0  0  0  0  0  0  0  0  # atno 17320 bound_to 7965
  145.1488  139.2527  143.5451 LP  0  0  0  0  0  0  0  0  0  0  0  0  # atno 17321 bound_to 7965
  139.5987  144.7575  151.3223 LP  0  0  0  0  0  0  0  0  0  0  0  0  # atno 17342 bound_to 10162
  140.7241  143.7052  150.7813 LP  0  0  0  0  0  0  0  0  0  0  0  0  # atno 17343 bound_to 10162
  155.9754  130.4713  150.6459 LP  0  0  0  0  0  0  0  0  0  0  0  0  # atno 17370 bound_to 10713
  157.4135  131.0827  151.1198 LP  0  0  0  0  0  0  0  0  0  0  0  0  # atno 17371 bound_to 10713
  140.0887  134.5630  155.8466 LP  0  0  0  0  0  0  0  0  0  0  0  0  # atno 17394 bound_to 11000
  141.2071  133.6661  156.6285 LP  0  0  0  0  0  0  0  0  0  0  0  0  # atno 17395 bound_to 11000

$$$$
