AV-unprocessed.smi:1201|AV-procd|sdf|5027|dock2
  -GOLD-   22720 4 53D 1   1.00000     0.00000
 Structure written by MMmdl.
 31 32  0  0  0  0  0  0  0  0  1 V2000
  151.9240  130.8207  157.8222 C   0  0  0  0  0  0  0  0  0  0  0  0
  151.8069  132.2315  157.6739 O   0  0  0  0  0  0  0  0  0  0  0  0
  151.0080  132.7198  156.6605 C   0  0  0  0  0  0  0  0  0  0  0  0
  150.9110  134.1152  156.4916 C   0  0  0  0  0  0  0  0  0  0  0  0
  150.0974  134.6227  155.4606 C   0  0  0  0  0  0  0  0  0  0  0  0
  149.4088  133.7135  154.6219 C   0  0  0  0  0  0  0  0  0  0  0  0
  148.5447  134.0911  153.5577 N   0  0  0  0  0  0  0  0  0  0  0  0
  147.3729  133.5472  153.1866 C   0  0  0  0  0  0  0  0  0  0  0  0
  146.8152  132.6017  153.7429 O   0  0  0  0  0  0  0  0  0  0  0  0
  146.8628  134.1823  152.1224 N   0  0  0  0  0  0  0  0  0  0  0  0
  145.6085  133.8368  151.4668 C   0  0  0  0  0  0  0  0  0  0  0  0
  145.6327  132.5333  150.6918 C   0  0  0  0  0  0  0  0  0  0  0  0
  144.3975  132.0571  149.9639 C   0  0  0  0  0  0  0  0  0  0  0  0
  144.8865  131.3142  151.1833 C   0  0  0  0  0  0  0  0  0  0  0  0
  149.5655  132.3363  154.8817 C   0  0  0  0  0  0  0  0  0  0  0  0
  150.3432  131.8430  155.8681 N   0  0  0  0  0  0  0  0  0  0  0  0
  152.5899  130.5997  158.6562 H   0  0  0  0  0  0  0  0  0  0  0  0
  152.3484  130.3589  156.9296 H   0  0  0  0  0  0  0  0  0  0  0  0
  150.9585  130.3616  158.0392 H   0  0  0  0  0  0  0  0  0  0  0  0
  151.4482  134.7864  157.1452 H   0  0  0  0  0  0  0  0  0  0  0  0
  150.0126  135.6918  155.3476 H   0  0  0  0  0  0  0  0  0  0  0  0
  148.8358  134.9058  153.0375 H   0  0  0  0  0  0  0  0  0  0  0  0
  147.3834  134.9542  151.7320 H   0  0  0  0  0  0  0  0  0  0  0  0
  144.7964  133.8172  152.1959 H   0  0  0  0  0  0  0  0  0  0  0  0
  145.3713  134.6400  150.7692 H   0  0  0  0  0  0  0  0  0  0  0  0
  146.5753  132.3467  150.1803 H   0  0  0  0  0  0  0  0  0  0  0  0
  143.4873  132.6446  150.0680 H   0  0  0  0  0  0  0  0  0  0  0  0
  144.5378  131.5824  148.9949 H   0  0  0  0  0  0  0  0  0  0  0  0
  145.3549  130.3444  151.0288 H   0  0  0  0  0  0  0  0  0  0  0  0
  144.3032  131.4093  152.0971 H   0  0  0  0  0  0  0  0  0  0  0  0
  149.0523  131.6030  154.2765 H   0  0  0  0  0  0  0  0  0  0  0  0
  1  2  1  0  0  0  0
  1 17  1  0  0  0  0
  1 18  1  0  0  0  0
  1 19  1  0  0  0  0
  2  3  1  0  0  0  0
  3 16  1  0  0  0  0
  3  4  2  0  0  0  0
  4  5  1  0  0  0  0
  4 20  1  0  0  0  0
  5  6  2  0  0  0  0
  5 21  1  0  0  0  0
  6  7  1  0  0  0  0
  6 15  1  0  0  0  0
  7  8  1  0  0  0  0
  7 22  1  0  0  0  0
  8  9  2  0  0  0  0
  8 10  1  0  0  0  0
 10 11  1  0  0  0  0
 10 23  1  0  0  0  0
 11 12  1  0  0  0  0
 11 24  1  0  0  0  0
 11 25  1  0  0  0  0
 12 14  1  0  0  0  0
 12 13  1  0  0  0  0
 12 26  1  0  0  0  0
 13 14  1  0  0  0  0
 13 27  1  0  0  0  0
 13 28  1  0  0  0  0
 14 29  1  0  0  0  0
 14 30  1  0  0  0  0
 15 16  2  0  0  0  0
 15 31  1  0  0  0  0
M  END
> <s_m_source_file>
AV-unprocessed.smi

> <i_m_source_file_index>
1201

> <i_lp_mmshare_version>
43012

> <i_f3d_flags>
0

> <s_epik_input>
W0NIM11PYzFbY0hdW2NIXWMoW2NIXW4xKVtOSF1DKD1PKVtOSF1bQ0gyXVtDSF0yW0NIMl1bQ0gyXTI=

> <s_epik_cmdline>
J2VwaWtfcHl0aG9uJywgJy1waCcsICc3LjAnLCAnLXRuJywgJzgnLCAnLW1hJywgJzIwMCcsICctbWV0YWxfYmluZGluZycsICctaW1hZScsICc8aW5maWxlLm1hZT4nLCAnLW9tYWUnLCAnPG91dGZpbGUubWFlPic=

> <r_lp_tautomer_probability>
1

> <r_epik_Ionization_Penalty>
9.92182e-05

> <r_epik_Ionization_Penalty_Charging>
0

> <r_epik_Ionization_Penalty_Neutral>
9.92182e-05

> <r_epik_State_Penalty>
-0

> <r_epik_Charging_Adjusted_Penalty>
0

> <i_epik_Tot_Q>
0

> <i_epik_Tot_abs_Q>
0

> <r_epik_Metal_State_Penalty>
-0

> <b_epik_Metal_Only>
0

> <s_lp_Force_Field>
OPLS_2005

> <r_lp_Energy>
14.9196

> <b_lp_Chiralities_Consistent>
1

> <s_lp_Variant>
AV-unprocessed.smi:1201-1

> <Gold.Version>
5.8.1

> <Gold.Id.Protein>
6NUR|6NUR_protein|mol2

> <Gold.PLP.Fitness>
35.4461

> <Gold.PLP.PLP>
-27.3744

> <Gold.PLP.part.hbond>
-3.0000

> <Gold.PLP.part.metal>
0.0000

> <Gold.PLP.part.buried>
-4.4486

> <Gold.PLP.part.nonpolar>
-20.7640

> <Gold.PLP.part.repulsive>
0.1205

> <Gold.PLP.ligand.clash>
0.0000

> <Gold.PLP.ligand.torsion>
0.6975

> <Gold.PLP.Chemscore.Hbond>
2.9760

> <Gold.PLP.Chemscore.CHOScore>
0.0000

> <Gold.PLP.Chemscore.Metal>
0.0000

> <Gold.Chemscore.Hbonds>
donor molecule, donor type, donor heavy atom, donor atom, acceptor molecule, acceptor atom, score
      L1  H     7    22       P1  7948  0.95
      L1  H    10    23       P1  7948  0.99
      P1  H  6896  6909       L1     2  1.00

> <Gold.PLP.Chemscore.Internal.Correction>
0.5387

> <Gold.Rescore>
     Score         DG    S(hbond)    S(metal)    S(lipo)     H(rot)  DE(clash)    DE(int)     intcor
     15.12     -16.85       2.55        0.00      56.17       1.45       0.00       1.73       ----

> <Gold.Chemscore.Fitness>
15.1154

> <Gold.Chemscore.DG>
-16.8498

> <Gold.Chemscore.ZeroCoef>
-5.4800

> <Gold.Chemscore.Hbond>
2.5478

> <Gold.Chemscore.Metal>
0.0000

> <Gold.Chemscore.Lipo>
56.1652

> <Gold.Chemscore.Internal_Hbond>
0.0000

> <Gold.Chemscore.DEClash>
0.0000

> <Gold.Chemscore.DEInternal>
1.7345

> <Gold.Chemscore.Rot>
1.4497

> <Gold.Chemscore.Internal.Correction>
   9.000000E+99

> <Gold.Chemscore.Hbonds>
donor molecule, donor type, donor heavy atom, donor atom, acceptor molecule, acceptor atom, score
      L1  H     7    22       P1  7948  0.22
      L1  H    10    23       P1  7948  0.72
      P1  H  6896  6909       L1     2  0.83

> <Gold.Chemscore.Hbond.Weighted>
-8.5097

> <Gold.Chemscore.Metal.Weighted>
-0.0000

> <Gold.Chemscore.Lipo.Weighted>
-6.5713

> <Gold.Chemscore.Internal_Hbond.Weighted>
0.0000

> <Gold.Chemscore.DEClash.Weighted>
0.0000

> <Gold.Chemscore.DEInternal.Weighted>
1.7345

> <Gold.Chemscore.Rot.Weighted>
3.7111

> <Gold.Chemscore.Internal.Correction.Weighted>
   9.000000E+99

> <Gold.Protein.RotatedTorsions>
[ 6907 6896 6895 6894 ] final  -73.30 input  -60.11 | X-H torsion
[ 7974 7965 7964 7962 ] final   -4.94 input  175.53 | X-H torsion
[ 8008 7997 7996 7995 ] final  177.51 input   59.86 | X-H torsion
[ 10167 10162 10161 10158 ] final  172.13 input  -65.29 | X-H torsion
[ 10718 10713 10712 10709 ] final  -69.45 input   66.30 | X-H torsion
[ 10763 10752 10751 10750 ] final  171.78 input  -60.55 | X-H torsion
[ 11005 11000 10999 10996 ] final  -54.60 input  -57.11 | X-H torsion

> <Gold.Protein.ActiveResidues>
 VAL166  LYS551  ARG553  GLY616  TRP617  ASP618  TYR619  PRO620  LYS621  CYS622 
 ASP623  PHE694  ASN695  SER759  ASP760  ASP761  ALA762  ILE779  LEU786  VAL792 
 PHE793  MET794  SER795  GLU796  ALA797  LYS798  CYS799  TRP800  GLU811  SER814 

> <Gold.Protein.RotatedAtoms>
  150.7135  134.5036  159.5573 H   0  0  0  0  0  0  0  0  0  0  0  0  # atno 6907 bound_to 6896
  152.2628  134.8013  160.0437 H   0  0  0  0  0  0  0  0  0  0  0  0  # atno 6908 bound_to 6896
  151.8720  133.3442  159.3775 H   0  0  0  0  0  0  0  0  0  0  0  0  # atno 6909 bound_to 6896
  146.2363  140.1946  142.8333 H   0  0  0  0  0  0  0  0  0  0  0  0  # atno 7974 bound_to 7965
  156.0649  140.1356  156.9898 H   0  0  0  0  0  0  0  0  0  0  0  0  # atno 8008 bound_to 7997
  154.4501  140.0984  156.6643 H   0  0  0  0  0  0  0  0  0  0  0  0  # atno 8009 bound_to 7997
  155.5320  140.3459  155.4430 H   0  0  0  0  0  0  0  0  0  0  0  0  # atno 8010 bound_to 7997
  139.5067  144.3408  152.0020 H   0  0  0  0  0  0  0  0  0  0  0  0  # atno 10167 bound_to 10162
  156.0455  130.4313  150.2149 H   0  0  0  0  0  0  0  0  0  0  0  0  # atno 10718 bound_to 10713
  154.4167  135.2757  155.2002 H   0  0  0  0  0  0  0  0  0  0  0  0  # atno 10763 bound_to 10752
  154.3965  135.6054  153.5876 H   0  0  0  0  0  0  0  0  0  0  0  0  # atno 10764 bound_to 10752
  152.9832  135.5916  154.4457 H   0  0  0  0  0  0  0  0  0  0  0  0  # atno 10765 bound_to 10752
  141.1033  133.6615  156.4344 H   0  0  0  0  0  0  0  0  0  0  0  0  # atno 11005 bound_to 11000
  144.9830  140.8477  143.5385 LP  0  0  0  0  0  0  0  0  0  0  0  0  # atno 17320 bound_to 7965
  145.1942  139.2285  143.5227 LP  0  0  0  0  0  0  0  0  0  0  0  0  # atno 17321 bound_to 7965
  140.2846  144.3821  150.6108 LP  0  0  0  0  0  0  0  0  0  0  0  0  # atno 17342 bound_to 10162
  140.5992  143.2167  151.7105 LP  0  0  0  0  0  0  0  0  0  0  0  0  # atno 17343 bound_to 10162
  157.0239  130.9987  151.3332 LP  0  0  0  0  0  0  0  0  0  0  0  0  # atno 17370 bound_to 10713
  157.5325  130.8067  149.7933 LP  0  0  0  0  0  0  0  0  0  0  0  0  # atno 17371 bound_to 10713
  140.4966  134.6525  157.5232 LP  0  0  0  0  0  0  0  0  0  0  0  0  # atno 17394 bound_to 11000
  139.9893  134.7010  155.9717 LP  0  0  0  0  0  0  0  0  0  0  0  0  # atno 17395 bound_to 11000

$$$$
