AV-unprocessed.smi:224|AV-procd|sdf|1721|dock6
  -GOLD-   2262020203D 1   1.00000     0.00000
 Structure written by MMmdl.
 56 59  0  0  0  0  0  0  0  0  2 V2000
  145.7347  135.2597  151.0833 C   0  0  0  0  0  0  0  0  0  0  0  0
  145.6141  133.7358  150.9518 C   0  0  2  0  0  0  0  0  0  0  0  0
  145.3672  133.4381  149.5919 O   0  0  0  0  0  0  0  0  0  0  0  0
  144.4652  133.1758  151.8155 C   0  0  0  0  0  0  0  0  0  0  0  0
  144.8770  132.9315  153.2279 N   0  3  1  0  0  0  0  0  0  0  0  0
  145.8788  131.8303  153.3105 C   0  0  0  0  0  0  0  0  0  0  0  0
  146.2874  131.5215  154.7600 C   0  0  0  0  0  0  0  0  0  0  0  0
  146.7246  132.7301  155.4490 N   0  0  0  0  0  0  0  0  0  0  0  0
  148.0335  133.0971  155.4005 C   0  0  0  0  0  0  0  0  0  0  0  0
  148.9683  132.2100  154.9665 N   0  0  0  0  0  0  0  0  0  0  0  0
  150.2567  132.5577  154.9040 C   0  0  0  0  0  0  0  0  0  0  0  0
  150.8221  133.7213  155.2278 N   0  0  0  0  0  0  0  0  0  0  0  0
  149.8954  134.6133  155.6801 C   0  0  0  0  0  0  0  0  0  0  0  0
  148.4939  134.3869  155.7947 C   0  0  0  0  0  0  0  0  0  0  0  0
  147.8745  135.5244  156.2995 N   0  0  0  0  0  0  0  0  0  0  0  0
  148.8500  136.3758  156.4624 C   0  0  0  0  0  0  0  0  0  0  0  0
  150.1000  135.9080  156.1251 N   0  0  0  0  0  0  0  0  0  0  0  0
  151.3557  136.6394  156.2107 C   0  0  0  0  0  0  0  0  0  0  0  0
  151.5805  137.6295  155.0420 C   0  0  2  0  0  0  0  0  0  0  0  0
  151.7895  136.8915  153.8513 O   0  0  0  0  0  0  0  0  0  0  0  0
  152.7840  138.5460  155.2756 C   0  0  0  0  0  0  0  0  0  0  0  0
  152.1530  139.9084  155.5365 C   0  0  0  0  0  0  0  0  0  0  0  0
  151.0187  139.8916  154.6889 O   0  0  0  0  0  0  0  0  0  0  0  0
  150.4132  138.6148  154.8301 C   0  0  0  0  0  0  0  0  0  0  0  0
  145.7401  133.8042  155.4165 C   0  0  0  0  0  0  0  0  0  0  0  0
  145.3156  134.1568  153.9719 C   0  0  2  0  0  0  0  0  0  0  0  0
  144.2195  135.2403  154.0504 C   0  0  0  0  0  0  0  0  0  0  0  0
  145.9370  135.5487  152.1149 H   0  0  0  0  0  0  0  0  0  0  0  0
  144.8178  135.7616  150.7713 H   0  0  0  0  0  0  0  0  0  0  0  0
  146.5501  135.6443  150.4696 H   0  0  0  0  0  0  0  0  0  0  0  0
  146.5694  133.2937  151.2320 H   0  0  0  0  0  0  0  0  0  0  0  0
  145.8210  134.0657  149.0510 H   0  0  0  0  0  0  0  0  0  0  0  0
  143.6166  133.8617  151.8066 H   0  0  0  0  0  0  0  0  0  0  0  0
  144.1043  132.2731  151.3294 H   0  0  0  0  0  0  0  0  0  0  0  0
  145.4861  130.9204  152.8590 H   0  0  0  0  0  0  0  0  0  0  0  0
  146.7596  132.1067  152.7297 H   0  0  0  0  0  0  0  0  0  0  0  0
  145.4343  131.1120  155.3020 H   0  0  0  0  0  0  0  0  0  0  0  0
  147.0601  130.7521  154.7887 H   0  0  0  0  0  0  0  0  0  0  0  0
  150.9314  131.7950  154.5437 H   0  0  0  0  0  0  0  0  0  0  0  0
  148.6846  137.3735  156.8429 H   0  0  0  0  0  0  0  0  0  0  0  0
  151.3773  137.1744  157.1610 H   0  0  0  0  0  0  0  0  0  0  0  0
  152.1687  135.9138  156.2526 H   0  0  0  0  0  0  0  0  0  0  0  0
  151.0601  137.0489  153.2711 H   0  0  0  0  0  0  0  0  0  0  0  0
  153.4244  138.2227  156.0969 H   0  0  0  0  0  0  0  0  0  0  0  0
  153.4076  138.6105  154.3824 H   0  0  0  0  0  0  0  0  0  0  0  0
  151.8364  140.0023  156.5766 H   0  0  0  0  0  0  0  0  0  0  0  0
  152.8222  140.7362  155.3007 H   0  0  0  0  0  0  0  0  0  0  0  0
  149.7852  138.3729  153.9716 H   0  0  0  0  0  0  0  0  0  0  0  0
  149.7679  138.6555  155.7078 H   0  0  0  0  0  0  0  0  0  0  0  0
  144.8704  133.4770  155.9879 H   0  0  0  0  0  0  0  0  0  0  0  0
  146.1069  134.6988  155.9175 H   0  0  0  0  0  0  0  0  0  0  0  0
  146.1806  134.5742  153.4533 H   0  0  0  0  0  0  0  0  0  0  0  0
  144.5100  136.0331  154.7404 H   0  0  0  0  0  0  0  0  0  0  0  0
  143.2762  134.8265  154.4086 H   0  0  0  0  0  0  0  0  0  0  0  0
  144.0357  135.7306  153.0959 H   0  0  0  0  0  0  0  0  0  0  0  0
  144.0515  132.6085  153.7111 H   0  0  0  0  0  0  0  0  0  0  0  0
  1  2  1  0  0  0  0
  1 28  1  0  0  0  0
  1 29  1  0  0  0  0
  1 30  1  0  0  0  0
  2  3  1  0  0  0  0
  2  4  1  0  0  0  0
  2 31  1  0  0  0  0
  3 32  1  0  0  0  0
  4  5  1  0  0  0  0
  4 33  1  0  0  0  0
  4 34  1  0  0  0  0
  5 26  1  0  0  0  0
  5  6  1  0  0  0  0
  5 56  1  0  0  0  0
  6  7  1  0  0  0  0
  6 35  1  0  0  0  0
  6 36  1  0  0  0  0
  7  8  1  0  0  0  0
  7 37  1  0  0  0  0
  7 38  1  0  0  0  0
  8  9  1  0  0  0  0
  8 25  1  0  0  0  0
  9 14  1  0  0  0  0
  9 10  2  0  0  0  0
 10 11  1  0  0  0  0
 11 12  2  0  0  0  0
 11 39  1  0  0  0  0
 12 13  1  0  0  0  0
 13 17  1  0  0  0  0
 13 14  2  0  0  0  0
 14 15  1  0  0  0  0
 15 16  2  0  0  0  0
 16 17  1  0  0  0  0
 16 40  1  0  0  0  0
 17 18  1  0  0  0  0
 18 19  1  0  0  0  0
 18 41  1  0  0  0  0
 18 42  1  0  0  0  0
 19 24  1  0  0  0  0
 19 20  1  0  0  0  0
 19 21  1  0  0  0  0
 20 43  1  0  0  0  0
 21 22  1  0  0  0  0
 21 44  1  0  0  0  0
 21 45  1  0  0  0  0
 22 23  1  0  0  0  0
 22 46  1  0  0  0  0
 22 47  1  0  0  0  0
 23 24  1  0  0  0  0
 24 48  1  0  0  0  0
 24 49  1  0  0  0  0
 25 26  1  0  0  0  0
 25 50  1  0  0  0  0
 25 51  1  0  0  0  0
 26 27  1  0  0  0  0
 26 52  1  0  0  0  0
 27 53  1  0  0  0  0
 27 54  1  0  0  0  0
 27 55  1  0  0  0  0
M  CHG  1   5   1
M  END
> <s_m_source_file>
AV-unprocessed.smi

> <i_m_source_file_index>
224

> <i_lp_mmshare_version>
43012

> <i_f3d_flags>
0

> <s_epik_input>
W0NIM11bQ0BIXShbT0hdKVtDSDJdTjFbQ0gyXVtDSDJdTihbQ0gyXVtDQEhdMVtDSDNdKWMobltjSF1uMiljKGMyMyluW2NIXW4zW0NIMl1bQ0BAXTQoW09IXSlbQ0gyXVtDSDJdT1tDSDJdNA==

> <s_epik_cmdline>
J2VwaWtfcHl0aG9uJywgJy1waCcsICc3LjAnLCAnLXRuJywgJzgnLCAnLW1hJywgJzIwMCcsICctbWV0YWxfYmluZGluZycsICctaW1hZScsICc8aW5maWxlLm1hZT4nLCAnLW9tYWUnLCAnPG91dGZpbGUubWFlPic=

> <r_lp_tautomer_probability>
1

> <r_epik_Ionization_Penalty>
0.00516958

> <r_epik_Ionization_Penalty_Charging>
0.00509693

> <r_epik_Ionization_Penalty_Neutral>
7.26542e-05

> <r_epik_State_Penalty>
-0

> <r_epik_Charging_Adjusted_Penalty>
0.00509693

> <i_epik_Tot_Q>
1

> <i_epik_Tot_abs_Q>
1

> <r_epik_Metal_State_Penalty>
-0

> <b_epik_Metal_Only>
0

> <s_lp_Force_Field>
OPLS_2005

> <r_lp_Energy>
50.3432

> <b_lp_Chiralities_Consistent>
1

> <s_lp_Variant>
AV-unprocessed.smi:224-15

> <Gold.Version>
5.8.1

> <Gold.Id.Protein>
6NUR|6NUR_protein|mol2

> <Gold.PLP.Fitness>
45.4003

> <Gold.PLP.PLP>
-31.2508

> <Gold.PLP.part.hbond>
-4.9691

> <Gold.PLP.part.metal>
0.0000

> <Gold.PLP.part.buried>
-2.5003

> <Gold.PLP.part.nonpolar>
-22.1561

> <Gold.PLP.part.repulsive>
0.1890

> <Gold.PLP.ligand.clash>
0.0000

> <Gold.PLP.ligand.torsion>
1.0892

> <Gold.PLP.Chemscore.Hbond>
5.2152

> <Gold.PLP.Chemscore.CHOScore>
0.0000

> <Gold.PLP.Chemscore.Metal>
0.0000

> <Gold.Chemscore.Hbonds>
donor molecule, donor type, donor heavy atom, donor atom, acceptor molecule, acceptor atom, score
      L1  H     3    32       P1  7921  1.00
      L1  H     5    56       P1 10957  2.00
      L1  H    20    43       P1  7949  0.24
      P1  H  7989  7998       L1    23  0.85
      P1  H 10752 10763       L1    20  1.00

> <Gold.PLP.Chemscore.Internal.Correction>
0.6823

> <Gold.Rescore>
     Score         DG    S(hbond)    S(metal)    S(lipo)     H(rot)  DE(clash)    DE(int)     intcor
     12.62     -15.27       3.31        0.00      62.62       3.36       0.13       2.51       ----

> <Gold.Chemscore.Fitness>
12.6202

> <Gold.Chemscore.DG>
-15.2661

> <Gold.Chemscore.ZeroCoef>
-5.4800

> <Gold.Chemscore.Hbond>
3.3124

> <Gold.Chemscore.Metal>
0.0000

> <Gold.Chemscore.Lipo>
62.6247

> <Gold.Chemscore.Internal_Hbond>
0.0000

> <Gold.Chemscore.DEClash>
0.1312

> <Gold.Chemscore.DEInternal>
2.5147

> <Gold.Chemscore.Rot>
3.3611

> <Gold.Chemscore.Internal.Correction>
   9.000000E+99

> <Gold.Chemscore.Hbonds>
donor molecule, donor type, donor heavy atom, donor atom, acceptor molecule, acceptor atom, score
      L1  H     3    32       P1  7921  0.38
      L1  H     5    56       P1 10957  0.55
      L1  H    20    43       P1  7949  0.08
      P1  H  7989  7998       L1    23  0.15
      P1  H 10752 10763       L1    20  0.85

> <Gold.Chemscore.Hbond.Weighted>
-11.0635

> <Gold.Chemscore.Metal.Weighted>
-0.0000

> <Gold.Chemscore.Lipo.Weighted>
-7.3271

> <Gold.Chemscore.Internal_Hbond.Weighted>
0.0000

> <Gold.Chemscore.DEClash.Weighted>
0.1312

> <Gold.Chemscore.DEInternal.Weighted>
2.5147

> <Gold.Chemscore.Rot.Weighted>
8.6045

> <Gold.Chemscore.Internal.Correction.Weighted>
   9.000000E+99

> <Gold.Protein.RotatedTorsions>
[ 6907 6896 6895 6894 ] final  -33.86 input  -60.11 | X-H torsion
[ 7974 7965 7964 7962 ] final    9.24 input  175.53 | X-H torsion
[ 8008 7997 7996 7995 ] final   75.05 input   59.86 | X-H torsion
[ 10167 10162 10161 10158 ] final -156.74 input  -65.29 | X-H torsion
[ 10718 10713 10712 10709 ] final  -23.14 input   66.30 | X-H torsion
[ 10763 10752 10751 10750 ] final   23.55 input  -60.55 | X-H torsion
[ 11005 11000 10999 10996 ] final -166.81 input  -57.11 | X-H torsion

> <Gold.Protein.ActiveResidues>
 VAL166  LYS551  ARG553  GLY616  TRP617  ASP618  TYR619  PRO620  LYS621  CYS622 
 ASP623  PHE694  ASN695  SER759  ASP760  ASP761  ALA762  ILE779  LEU786  VAL792 
 PHE793  MET794  SER795  GLU796  ALA797  LYS798  CYS799  TRP800  GLU811  SER814 

> <Gold.Protein.RotatedAtoms>
  151.0601  134.9731  159.8255 H   0  0  0  0  0  0  0  0  0  0  0  0  # atno 6907 bound_to 6896
  152.5394  134.2428  159.8878 H   0  0  0  0  0  0  0  0  0  0  0  0  # atno 6908 bound_to 6896
  151.2447  133.4338  159.2642 H   0  0  0  0  0  0  0  0  0  0  0  0  # atno 6909 bound_to 6896
  146.2406  139.9814  142.8436 H   0  0  0  0  0  0  0  0  0  0  0  0  # atno 7974 bound_to 7965
  155.8073  140.3474  155.5437 H   0  0  0  0  0  0  0  0  0  0  0  0  # atno 8008 bound_to 7997
  155.8477  140.0951  157.1715 H   0  0  0  0  0  0  0  0  0  0  0  0  # atno 8009 bound_to 7997
  154.4007  140.1382  156.3793 H   0  0  0  0  0  0  0  0  0  0  0  0  # atno 8010 bound_to 7997
  139.6826  143.9555  152.2344 H   0  0  0  0  0  0  0  0  0  0  0  0  # atno 10167 bound_to 10162
  156.4951  130.4575  149.6733 H   0  0  0  0  0  0  0  0  0  0  0  0  # atno 10718 bound_to 10713
  153.0830  135.6624  154.0006 H   0  0  0  0  0  0  0  0  0  0  0  0  # atno 10763 bound_to 10752
  153.9623  135.2973  155.3434 H   0  0  0  0  0  0  0  0  0  0  0  0  # atno 10764 bound_to 10752
  154.7233  135.5155  153.8918 H   0  0  0  0  0  0  0  0  0  0  0  0  # atno 10765 bound_to 10752
  140.5603  134.5340  157.5142 H   0  0  0  0  0  0  0  0  0  0  0  0  # atno 11005 bound_to 11000
  145.1589  140.9662  143.4389 LP  0  0  0  0  0  0  0  0  0  0  0  0  # atno 17320 bound_to 7965
  145.0135  139.3488  143.6108 LP  0  0  0  0  0  0  0  0  0  0  0  0  # atno 17321 bound_to 7965
  139.9350  144.6718  150.8324 LP  0  0  0  0  0  0  0  0  0  0  0  0  # atno 17342 bound_to 10162
  140.7657  143.3283  151.2467 LP  0  0  0  0  0  0  0  0  0  0  0  0  # atno 17343 bound_to 10162
  156.3388  130.7371  151.2312 LP  0  0  0  0  0  0  0  0  0  0  0  0  # atno 17370 bound_to 10713
  157.7469  131.0409  150.4622 LP  0  0  0  0  0  0  0  0  0  0  0  0  # atno 17371 bound_to 10713
  139.9411  134.7785  156.0676 LP  0  0  0  0  0  0  0  0  0  0  0  0  # atno 17394 bound_to 11000
  141.1118  133.6640  156.2998 LP  0  0  0  0  0  0  0  0  0  0  0  0  # atno 17395 bound_to 11000

$$$$
