#       Name:                AV-unprocessed.smi:1703
#       Creating user name   scv26
#       Creation time:       Fri Mar 27 08:07:42 2020


#       File generated by GOLD software.
#

@<TRIPOS>MOLECULE
AV-unprocessed.smi:1703
    56    58     1
SMALL
NO_CHARGES


@<TRIPOS>ATOM
      1 ****        -0.2681   4.2409  -1.7142 C.3            1 S1                 0.0000
      2 ****        -0.5694   3.5542  -0.3776 C.3            1 S1                 0.0000
      3 ****        -0.2430   2.0502  -0.4143 C.3            1 S1                 0.0000
      4 ****        -0.6334   1.4045   0.8624 N.4            1 S1                 1.0000
      5 ****        -0.2679  -0.0327   0.9373 C.3            1 S1                 0.0000
      6 ****         1.2323  -0.2541   1.2331 C.3            1 S1                 0.0000
      7 ****         1.5242   0.2236   2.5305 O.3            1 S1                 0.0000
      8 ****         1.6616  -1.7341   1.1826 C.3            1 S1                 0.0000
      9 ****         1.4014  -2.3672  -0.1215 N.pl3          1 S1                 0.0000
     10 ****         2.0898  -2.2676  -1.2964 C.2            1 S1                 0.0000
     11 ****         3.3101  -1.4482  -1.5597 C.3            1 S1                 0.0000
     12 ****         2.9948  -0.1283  -1.9447 O.3            1 S1                 0.0000
     13 ****         1.4467  -3.0475  -2.2097 N.pl3          1 S1                 1.0000
     14 ****         0.3396  -3.6549  -1.6174 C.ar           1 S1                 0.0000
     15 ****        -0.6091  -4.5254  -2.1449 C.ar           1 S1                 0.0000
     16 ****        -1.6240  -4.9618  -1.2688 C.ar           1 S1                 0.0000
     17 ****        -1.6693  -4.5322   0.0730 C.ar           1 S1                 0.0000
     18 ****        -0.7018  -3.6492   0.5965 C.ar           1 S1                 0.0000
     19 ****         0.3019  -3.2233  -0.2750 C.ar           1 S1                 0.0000
     20 ****        -2.0710   1.6377   1.1370 C.3            1 S1                 0.0000
     21 ****        -2.4026   3.1428   1.1231 C.3            1 S1                 0.0000
     22 ****        -1.8848   3.8969   2.3610 C.3            1 S1                 0.0000
     23 ****        -1.9552   3.7334  -0.0969 O.3            1 S1                 0.0000
     24 ****         0.7853   4.1431  -1.9780 H              1 S1                 0.0000
     25 ****        -0.5007   5.3051  -1.6664 H              1 S1                 0.0000
     26 ****        -0.8573   3.8081  -2.5230 H              1 S1                 0.0000
     27 ****         0.0286   4.0399   0.3936 H              1 S1                 0.0000
     28 ****        -0.7685   1.5699  -1.2414 H              1 S1                 0.0000
     29 ****         0.8227   1.9188  -0.5983 H              1 S1                 0.0000
     30 ****        -0.8494  -0.5233   1.7195 H              1 S1                 0.0000
     31 ****        -0.5594  -0.5091   0.0008 H              1 S1                 0.0000
     32 ****         1.8470   0.3032   0.5283 H              1 S1                 0.0000
     33 ****         1.4394   1.1646   2.5385 H              1 S1                 0.0000
     34 ****         2.7322  -1.8183   1.3736 H              1 S1                 0.0000
     35 ****         1.1754  -2.3080   1.9706 H              1 S1                 0.0000
     36 ****         3.9383  -1.4232  -0.6694 H              1 S1                 0.0000
     37 ****         3.8962  -1.9169  -2.3508 H              1 S1                 0.0000
     38 ****         3.8013   0.3347  -2.1153 H              1 S1                 0.0000
     39 ****        -0.5773  -4.8550  -3.1732 H              1 S1                 0.0000
     40 ****        -2.3829  -5.6392  -1.6332 H              1 S1                 0.0000
     41 ****        -2.4628  -4.8872   0.7146 H              1 S1                 0.0000
     42 ****        -0.7547  -3.3292   1.6263 H              1 S1                 0.0000
     43 ****        -2.6654   1.1228   0.3802 H              1 S1                 0.0000
     44 ****        -2.3458   1.2073   2.1009 H              1 S1                 0.0000
     45 ****        -3.4885   3.2435   1.1254 H              1 S1                 0.0000
     46 ****        -2.3533   3.5159   3.2688 H              1 S1                 0.0000
     47 ****        -2.1161   4.9600   2.2931 H              1 S1                 0.0000
     48 ****        -0.8071   3.7966   2.4875 H              1 S1                 0.0000
     49 ****        -0.1273   1.8709   1.6016 H              1 S1                 0.0000
     50 ****         1.7461  -3.1529  -3.1707 H              1 S1                 0.0000
     51 ****         2.4588  -0.0308   2.7790 LP             1 S1                 0.0000
     52 ****         0.8843  -0.1762   3.1868 LP             1 S1                 0.0000
     53 ****         2.4934   0.3271  -1.2091 LP             1 S1                 0.0000
     54 ****         2.4328  -0.1431  -2.7717 LP             1 S1                 0.0000
     55 ****        -2.4788   3.3303  -0.8475 LP             1 S1                 0.0000
     56 ****        -2.1386   4.7154  -0.0522 LP             1 S1                 0.0000
@<TRIPOS>BOND
    1    1    2 1     
    2    1   24 1     
    3    1   25 1     
    4    1   26 1     
    5    2   23 1     
    6    2    3 1     
    7    2   27 1     
    8    3    4 1     
    9    3   28 1     
   10    3   29 1     
   11    4    5 1     
   12    4   20 1     
   13    4   49 1     
   14    5    6 1     
   15    5   30 1     
   16    5   31 1     
   17    6    7 1     
   18    6    8 1     
   19    6   32 1     
   20    7   33 1     
   21    8    9 1     
   22    8   34 1     
   23    8   35 1     
   24    9   19 1     
   25    9   10 1     
   26   10   11 1     
   27   10   13 2     
   28   11   12 1     
   29   11   36 1     
   30   11   37 1     
   31   12   38 1     
   32   13   14 1     
   33   13   50 1     
   34   14   19 ar    
   35   14   15 ar    
   36   15   16 ar    
   37   15   39 1     
   38   16   17 ar    
   39   16   40 1     
   40   17   18 ar    
   41   17   41 1     
   42   18   19 ar    
   43   18   42 1     
   44   20   21 1     
   45   20   43 1     
   46   20   44 1     
   47   21   22 1     
   48   21   23 1     
   49   21   45 1     
   50   22   46 1     
   51   22   47 1     
   52   22   48 1     
   53    7   51 1     
   54    7   52 1     
   55   12   53 1     
   56   12   54 1     
   57   23   55 1     
   58   23   56 1     
@<TRIPOS>SUBSTRUCTURE
      1 S1             1
@<TRIPOS>SET
LONE_PAIRS      STATIC     ATOMS    <user>   **** ""
6 51 52 53 54 55 56
DONOR_HYDROGENS      STATIC     ATOMS    <user>   **** ""
4 49 33 38 50
ATOM$BLUE        STATIC     ATOMS    COLORGROUP SYSTEM
6 51 52 53 54 55 56
ATOM$RED        STATIC     ATOMS    COLORGROUP SYSTEM
4 49 33 38 50
