AV-unprocessed.smi:1203|AV-procd|sdf|5036|dock7
  -GOLD-   22720 4 63D 1   1.00000     0.00000
 Structure written by MMmdl.
 40 41  0  0  0  0  0  0  0  0  2 V2000
  153.9919  138.5674  161.1663 C   0  0  0  0  0  0  0  0  0  0  0  0
  155.0064  140.0274  160.6907 S   0  0  0  0  0  0  0  0  0  0  0  0
  155.8965  140.3473  161.8169 O   0  0  0  0  0  0  0  0  0  0  0  0
  155.5676  139.7971  159.3506 O   0  0  0  0  0  0  0  0  0  0  0  0
  153.8384  141.3048  160.5738 N   0  0  0  0  0  0  0  0  0  0  0  0
  153.3947  142.0678  161.7377 C   0  0  0  0  0  0  0  0  0  0  0  0
  152.5780  143.2126  161.1450 C   0  0  0  0  0  0  0  0  0  0  0  0
  151.9762  142.6166  159.8752 C   0  0  0  0  0  0  0  0  0  0  0  0
  153.0208  141.5922  159.3824 C   0  0  2  0  0  0  0  0  0  0  0  0
  152.3604  140.3706  158.7264 C   0  0  0  0  0  0  0  0  0  0  0  0
  153.0402  139.5459  158.1144 O   0  0  0  0  0  0  0  0  0  0  0  0
  151.0289  140.2670  158.8646 N   0  0  0  0  0  0  0  0  0  0  0  0
  150.2008  139.1840  158.3399 C   0  0  0  0  0  0  0  0  0  0  0  0
  150.4528  138.9251  156.8413 C   0  0  0  0  0  0  0  0  0  0  0  0
  149.6637  139.8420  155.9221 C   0  0  0  0  0  0  0  0  0  0  0  0
  148.8833  140.8920  156.4544 C   0  0  0  0  0  0  0  0  0  0  0  0
  148.1860  141.7488  155.5775 C   0  0  0  0  0  0  0  0  0  0  0  0
  148.2826  141.5342  154.1875 C   0  0  0  0  0  0  0  0  0  0  0  0
  149.0352  140.5167  153.7146 N   0  3  0  0  0  0  0  0  0  0  0  0
  149.7179  139.6747  154.5210 C   0  0  0  0  0  0  0  0  0  0  0  0
  154.6490  137.7159  161.3411 H   0  0  0  0  0  0  0  0  0  0  0  0
  153.2943  138.3181  160.3690 H   0  0  0  0  0  0  0  0  0  0  0  0
  153.4395  138.7876  162.0794 H   0  0  0  0  0  0  0  0  0  0  0  0
  152.7773  141.4285  162.3695 H   0  0  0  0  0  0  0  0  0  0  0  0
  154.2424  142.4259  162.3224 H   0  0  0  0  0  0  0  0  0  0  0  0
  151.8235  143.5939  161.8335 H   0  0  0  0  0  0  0  0  0  0  0  0
  153.2414  144.0385  160.8843 H   0  0  0  0  0  0  0  0  0  0  0  0
  151.0233  142.1464  160.1233 H   0  0  0  0  0  0  0  0  0  0  0  0
  151.7717  143.3840  159.1281 H   0  0  0  0  0  0  0  0  0  0  0  0
  153.6735  142.0790  158.6560 H   0  0  0  0  0  0  0  0  0  0  0  0
  150.5501  141.0017  159.3657 H   0  0  0  0  0  0  0  0  0  0  0  0
  150.4286  138.2815  158.9072 H   0  0  0  0  0  0  0  0  0  0  0  0
  149.1437  139.3907  158.5150 H   0  0  0  0  0  0  0  0  0  0  0  0
  151.5167  139.0333  156.6257 H   0  0  0  0  0  0  0  0  0  0  0  0
  150.2007  137.8914  156.6019 H   0  0  0  0  0  0  0  0  0  0  0  0
  148.8285  141.0477  157.5222 H   0  0  0  0  0  0  0  0  0  0  0  0
  147.5885  142.5607  155.9658 H   0  0  0  0  0  0  0  0  0  0  0  0
  147.7844  142.1409  153.4453 H   0  0  0  0  0  0  0  0  0  0  0  0
  150.2916  138.9063  154.0232 H   0  0  0  0  0  0  0  0  0  0  0  0
  149.0915  140.3789  152.7052 H   0  0  0  0  0  0  0  0  0  0  0  0
  1  2  1  0  0  0  0
  1 21  1  0  0  0  0
  1 22  1  0  0  0  0
  1 23  1  0  0  0  0
  2  3  2  0  0  0  0
  2  4  2  0  0  0  0
  2  5  1  0  0  0  0
  5  9  1  0  0  0  0
  5  6  1  0  0  0  0
  6  7  1  0  0  0  0
  6 24  1  0  0  0  0
  6 25  1  0  0  0  0
  7  8  1  0  0  0  0
  7 26  1  0  0  0  0
  7 27  1  0  0  0  0
  8  9  1  0  0  0  0
  8 28  1  0  0  0  0
  8 29  1  0  0  0  0
  9 10  1  0  0  0  0
  9 30  1  0  0  0  0
 10 11  2  0  0  0  0
 10 12  1  0  0  0  0
 12 13  1  0  0  0  0
 12 31  1  0  0  0  0
 13 14  1  0  0  0  0
 13 32  1  0  0  0  0
 13 33  1  0  0  0  0
 14 15  1  0  0  0  0
 14 34  1  0  0  0  0
 14 35  1  0  0  0  0
 15 20  1  0  0  0  0
 15 16  2  0  0  0  0
 16 17  1  0  0  0  0
 16 36  1  0  0  0  0
 17 18  2  0  0  0  0
 17 37  1  0  0  0  0
 18 19  1  0  0  0  0
 18 38  1  0  0  0  0
 19 20  2  0  0  0  0
 19 40  1  0  0  0  0
 20 39  1  0  0  0  0
M  CHG  1  19   1
M  END
> <s_m_source_file>
AV-unprocessed.smi

> <i_m_source_file_index>
1203

> <i_lp_mmshare_version>
43012

> <i_f3d_flags>
0

> <s_epik_input>
W0NIM11TKD1PKSg9TylOMVtDSDJdW0NIMl1bQ0gyXVtDQEhdMUMoPU8pW05IXVtDSDJdW0NIMl1jMltjSF1bY0hdW2NIXW5bY0hdMg==

> <s_epik_cmdline>
J2VwaWtfcHl0aG9uJywgJy1waCcsICc3LjAnLCAnLXRuJywgJzgnLCAnLW1hJywgJzIwMCcsICctbWV0YWxfYmluZGluZycsICctaW1hZScsICc8aW5maWxlLm1hZT4nLCAnLW9tYWUnLCAnPG91dGZpbGUubWFlPic=

> <r_epik_Ionization_Penalty>
2.2835

> <r_epik_Ionization_Penalty_Charging>
2.2835

> <r_epik_Ionization_Penalty_Neutral>
1.4017e-07

> <r_epik_State_Penalty>
2.43297

> <r_epik_Charging_Adjusted_Penalty>
4.71647

> <i_epik_Tot_Q>
1

> <i_epik_Tot_abs_Q>
1

> <r_epik_Metal_State_Penalty>
2.44558

> <b_epik_Metal_Only>
0

> <s_lp_Force_Field>
OPLS_2005

> <r_lp_Energy>
15.5637

> <b_lp_Chiralities_Consistent>
1

> <s_lp_Variant>
AV-unprocessed.smi:1203-4

> <Gold.Version>
5.8.1

> <Gold.Id.Protein>
6NUR|6NUR_protein|mol2

> <Gold.PLP.Fitness>
42.9976

> <Gold.PLP.PLP>
-38.5578

> <Gold.PLP.part.hbond>
-3.1228

> <Gold.PLP.part.metal>
0.0000

> <Gold.PLP.part.buried>
-5.5444

> <Gold.PLP.part.nonpolar>
-30.7057

> <Gold.PLP.part.repulsive>
1.1990

> <Gold.PLP.ligand.clash>
0.8155

> <Gold.PLP.ligand.torsion>
1.4071

> <Gold.PLP.Chemscore.Hbond>
2.0000

> <Gold.PLP.Chemscore.CHOScore>
0.0000

> <Gold.PLP.Chemscore.Metal>
0.0000

> <Gold.Chemscore.Hbonds>
donor molecule, donor type, donor heavy atom, donor atom, acceptor molecule, acceptor atom, score
      L1  H    19    40       P1  7957  1.00
      P1  H  7997  8009       L1    11  1.00

> <Gold.PLP.Chemscore.Internal.Correction>
2.0695

> <Gold.Rescore>
     Score         DG    S(hbond)    S(metal)    S(lipo)     H(rot)  DE(clash)    DE(int)     intcor
     12.74     -17.57       1.96        0.00      84.62       1.70       1.47       3.36       ----

> <Gold.Chemscore.Fitness>
12.7387

> <Gold.Chemscore.DG>
-17.5671

> <Gold.Chemscore.ZeroCoef>
-5.4800

> <Gold.Chemscore.Hbond>
1.9585

> <Gold.Chemscore.Metal>
0.0000

> <Gold.Chemscore.Lipo>
84.6233

> <Gold.Chemscore.Internal_Hbond>
0.0000

> <Gold.Chemscore.DEClash>
1.4659

> <Gold.Chemscore.DEInternal>
3.3625

> <Gold.Chemscore.Rot>
1.7012

> <Gold.Chemscore.Internal.Correction>
   9.000000E+99

> <Gold.Chemscore.Hbonds>
donor molecule, donor type, donor heavy atom, donor atom, acceptor molecule, acceptor atom, score
      L1  H    19    40       P1  7957  1.00
      P1  H  7997  8009       L1    11  0.94

> <Gold.Chemscore.Hbond.Weighted>
-6.5414

> <Gold.Chemscore.Metal.Weighted>
-0.0000

> <Gold.Chemscore.Lipo.Weighted>
-9.9009

> <Gold.Chemscore.Internal_Hbond.Weighted>
0.0000

> <Gold.Chemscore.DEClash.Weighted>
1.4659

> <Gold.Chemscore.DEInternal.Weighted>
3.3625

> <Gold.Chemscore.Rot.Weighted>
4.3551

> <Gold.Chemscore.Internal.Correction.Weighted>
   9.000000E+99

> <Gold.Protein.RotatedTorsions>
[ 6907 6896 6895 6894 ] final   67.48 input  -60.11 | X-H torsion
[ 7974 7965 7964 7962 ] final  -55.05 input  175.53 | X-H torsion
[ 8008 7997 7996 7995 ] final  143.36 input   59.86 | X-H torsion
[ 10167 10162 10161 10158 ] final  -11.63 input  -65.29 | X-H torsion
[ 10718 10713 10712 10709 ] final  -55.51 input   66.30 | X-H torsion
[ 10763 10752 10751 10750 ] final  -71.64 input  -60.55 | X-H torsion
[ 11005 11000 10999 10996 ] final   89.43 input  -57.11 | X-H torsion

> <Gold.Protein.ActiveResidues>
 VAL166  LYS551  ARG553  GLY616  TRP617  ASP618  TYR619  PRO620  LYS621  CYS622 
 ASP623  PHE694  ASN695  SER759  ASP760  ASP761  ALA762  ILE779  LEU786  VAL792 
 PHE793  MET794  SER795  GLU796  ALA797  LYS798  CYS799  TRP800  GLU811  SER814 

> <Gold.Protein.RotatedAtoms>
  152.4554  134.5302  159.9808 H   0  0  0  0  0  0  0  0  0  0  0  0  # atno 6907 bound_to 6896
  151.5364  133.3434  159.2935 H   0  0  0  0  0  0  0  0  0  0  0  0  # atno 6908 bound_to 6896
  150.8497  134.7849  159.7062 H   0  0  0  0  0  0  0  0  0  0  0  0  # atno 6909 bound_to 6896
  145.8786  140.8161  142.9851 H   0  0  0  0  0  0  0  0  0  0  0  0  # atno 7974 bound_to 7965
  156.2931  140.2264  156.4878 H   0  0  0  0  0  0  0  0  0  0  0  0  # atno 8008 bound_to 7997
  154.7797  140.0461  157.1138 H   0  0  0  0  0  0  0  0  0  0  0  0  # atno 8009 bound_to 7997
  154.9774  140.3074  155.4965 H   0  0  0  0  0  0  0  0  0  0  0  0  # atno 8010 bound_to 7997
  140.7143  143.5619  150.9186 H   0  0  0  0  0  0  0  0  0  0  0  0  # atno 10167 bound_to 10162
  156.1363  130.4156  150.0180 H   0  0  0  0  0  0  0  0  0  0  0  0  # atno 10718 bound_to 10713
  154.4346  135.5955  153.6090 H   0  0  0  0  0  0  0  0  0  0  0  0  # atno 10763 bound_to 10752
  152.9801  135.5983  154.3797 H   0  0  0  0  0  0  0  0  0  0  0  0  # atno 10764 bound_to 10752
  154.3640  135.2841  155.2283 H   0  0  0  0  0  0  0  0  0  0  0  0  # atno 10765 bound_to 10752
  139.8875  134.8551  156.3141 H   0  0  0  0  0  0  0  0  0  0  0  0  # atno 11005 bound_to 11000
  144.6727  140.1349  143.7441 LP  0  0  0  0  0  0  0  0  0  0  0  0  # atno 17320 bound_to 7965
  145.9050  139.2453  143.1471 LP  0  0  0  0  0  0  0  0  0  0  0  0  # atno 17321 bound_to 7965
  139.9345  143.6454  152.3068 LP  0  0  0  0  0  0  0  0  0  0  0  0  # atno 17342 bound_to 10162
  139.6917  144.7646  151.1427 LP  0  0  0  0  0  0  0  0  0  0  0  0  # atno 17343 bound_to 10162
  156.8078  130.9314  151.3645 LP  0  0  0  0  0  0  0  0  0  0  0  0  # atno 17370 bound_to 10713
  157.6535  130.8904  149.9681 LP  0  0  0  0  0  0  0  0  0  0  0  0  # atno 17371 bound_to 10713
  140.9830  133.7255  156.0700 LP  0  0  0  0  0  0  0  0  0  0  0  0  # atno 17394 bound_to 11000
  140.7724  134.3817  157.5505 LP  0  0  0  0  0  0  0  0  0  0  0  0  # atno 17395 bound_to 11000

$$$$
