AV-unprocessed.smi:571|AV-procd|sdf|2964|dock3
  -GOLD-   2262023473D 1   1.00000     0.00000
 Structure written by MMmdl.
 44 45  0  0  0  0  0  0  0  0  2 V2000
  148.1717  136.5786  156.3667 C   0  0  0  0  0  0  0  0  0  0  0  0
  148.1840  136.3923  154.8434 C   0  0  1  0  0  0  0  0  0  0  0  0
  146.7808  136.6208  154.2371 C   0  0  0  0  0  0  0  0  0  0  0  0
  146.5657  135.8810  152.9668 N   0  3  0  0  0  0  0  0  0  0  0  0
  145.4602  136.4471  152.1518 C   0  0  0  0  0  0  0  0  0  0  0  0
  145.3753  135.7554  150.7807 C   0  0  0  0  0  0  0  0  0  0  0  0
  145.2180  134.2373  150.9376 C   0  0  0  0  0  0  0  0  0  0  0  0
  146.3465  133.6804  151.8154 C   0  0  0  0  0  0  0  0  0  0  0  0
  146.4082  134.4156  153.1644 C   0  0  0  0  0  0  0  0  0  0  0  0
  149.1667  137.3061  154.2617 N   0  0  0  0  0  0  0  0  0  0  0  0
  150.5022  137.1463  154.2633 C   0  0  0  0  0  0  0  0  0  0  0  0
  151.0530  136.1592  154.7486 O   0  0  0  0  0  0  0  0  0  0  0  0
  151.3693  138.2380  153.6130 C   0  0  0  0  0  0  0  0  0  0  0  0
  151.0596  139.6154  154.0368 N   0  0  0  0  0  0  0  0  0  0  0  0
  149.8892  140.1974  153.5102 C   0  0  0  0  0  0  0  0  0  0  0  0
  149.5117  141.4456  153.8287 C   0  0  0  0  0  0  0  0  0  0  0  0
  150.3428  142.1988  154.7379 C   0  0  0  0  0  0  0  0  0  0  0  0
  151.4615  141.6499  155.2514 C   0  0  0  0  0  0  0  0  0  0  0  0
  151.8740  140.2832  154.9117 C   0  0  0  0  0  0  0  0  0  0  0  0
  152.8839  139.7665  155.3900 O   0  0  0  0  0  0  0  0  0  0  0  0
  147.4724  135.8892  156.8404 H   0  0  0  0  0  0  0  0  0  0  0  0
  147.8785  137.5920  156.6434 H   0  0  0  0  0  0  0  0  0  0  0  0
  149.1574  136.3900  156.7937 H   0  0  0  0  0  0  0  0  0  0  0  0
  148.4934  135.3634  154.6558 H   0  0  0  0  0  0  0  0  0  0  0  0
  146.0017  136.3544  154.9529 H   0  0  0  0  0  0  0  0  0  0  0  0
  146.6672  137.6901  154.0520 H   0  0  0  0  0  0  0  0  0  0  0  0
  144.5169  136.3412  152.6901 H   0  0  0  0  0  0  0  0  0  0  0  0
  145.6226  137.5150  152.0004 H   0  0  0  0  0  0  0  0  0  0  0  0
  144.5390  136.1596  150.2097 H   0  0  0  0  0  0  0  0  0  0  0  0
  146.2766  135.9725  150.2057 H   0  0  0  0  0  0  0  0  0  0  0  0
  144.2521  134.0113  151.3912 H   0  0  0  0  0  0  0  0  0  0  0  0
  145.2259  133.7538  149.9602 H   0  0  0  0  0  0  0  0  0  0  0  0
  146.1979  132.6125  151.9787 H   0  0  0  0  0  0  0  0  0  0  0  0
  147.3009  133.7849  151.2976 H   0  0  0  0  0  0  0  0  0  0  0  0
  147.2415  134.0212  153.7450 H   0  0  0  0  0  0  0  0  0  0  0  0
  145.5024  134.2194  153.7401 H   0  0  0  0  0  0  0  0  0  0  0  0
  148.8010  138.1490  153.8419 H   0  0  0  0  0  0  0  0  0  0  0  0
  152.4177  138.0074  153.8098 H   0  0  0  0  0  0  0  0  0  0  0  0
  151.2642  138.1502  152.5307 H   0  0  0  0  0  0  0  0  0  0  0  0
  149.3227  139.5664  152.8406 H   0  0  0  0  0  0  0  0  0  0  0  0
  148.6106  141.8754  153.4165 H   0  0  0  0  0  0  0  0  0  0  0  0
  150.0669  143.2077  155.0072 H   0  0  0  0  0  0  0  0  0  0  0  0
  152.0710  142.2291  155.9296 H   0  0  0  0  0  0  0  0  0  0  0  0
  147.4066  136.0118  152.4225 H   0  0  0  0  0  0  0  0  0  0  0  0
  1  2  1  0  0  0  0
  1 21  1  0  0  0  0
  1 22  1  0  0  0  0
  1 23  1  0  0  0  0
  2  3  1  0  0  0  0
  2 10  1  0  0  0  0
  2 24  1  0  0  0  0
  3  4  1  0  0  0  0
  3 25  1  0  0  0  0
  3 26  1  0  0  0  0
  4  9  1  0  0  0  0
  4  5  1  0  0  0  0
  4 44  1  0  0  0  0
  5  6  1  0  0  0  0
  5 27  1  0  0  0  0
  5 28  1  0  0  0  0
  6  7  1  0  0  0  0
  6 29  1  0  0  0  0
  6 30  1  0  0  0  0
  7  8  1  0  0  0  0
  7 31  1  0  0  0  0
  7 32  1  0  0  0  0
  8  9  1  0  0  0  0
  8 33  1  0  0  0  0
  8 34  1  0  0  0  0
  9 35  1  0  0  0  0
  9 36  1  0  0  0  0
 10 11  1  0  0  0  0
 10 37  1  0  0  0  0
 11 12  2  0  0  0  0
 11 13  1  0  0  0  0
 13 14  1  0  0  0  0
 13 38  1  0  0  0  0
 13 39  1  0  0  0  0
 14 19  1  0  0  0  0
 14 15  1  0  0  0  0
 15 16  2  0  0  0  0
 15 40  1  0  0  0  0
 16 17  1  0  0  0  0
 16 41  1  0  0  0  0
 17 18  2  0  0  0  0
 17 42  1  0  0  0  0
 18 19  1  0  0  0  0
 18 43  1  0  0  0  0
 19 20  2  0  0  0  0
M  CHG  1   4   1
M  END
> <s_m_source_file>
AV-unprocessed.smi

> <i_m_source_file_index>
571

> <i_lp_mmshare_version>
43012

> <i_f3d_flags>
0

> <s_epik_input>
W0NIMl0xW0NIMl1bQ0gyXVtDSDJdW0NIMl1OMVtDSDJdW0NAQEhdKFtDSDNdKVtOSF1DKD1PKVtDSDJdbjJbY0hdW2NIXVtjSF1bY0hdYzI9Tw==

> <s_epik_cmdline>
J2VwaWtfcHl0aG9uJywgJy1waCcsICc3LjAnLCAnLXRuJywgJzgnLCAnLW1hJywgJzIwMCcsICctbWV0YWxfYmluZGluZycsICctaW1hZScsICc8aW5maWxlLm1hZT4nLCAnLW9tYWUnLCAnPG91dGZpbGUubWFlPic=

> <r_lp_tautomer_probability>
1

> <r_epik_Ionization_Penalty>
0.00237248

> <r_epik_Ionization_Penalty_Charging>
0.0023724

> <r_epik_Ionization_Penalty_Neutral>
8.2065e-08

> <r_epik_State_Penalty>
0.00163922

> <r_epik_Charging_Adjusted_Penalty>
0.00401161

> <i_epik_Tot_Q>
1

> <i_epik_Tot_abs_Q>
1

> <r_epik_Metal_State_Penalty>
-0

> <b_epik_Metal_Only>
0

> <s_lp_Force_Field>
OPLS_2005

> <r_lp_Energy>
32.4052

> <b_lp_Chiralities_Consistent>
1

> <s_lp_Variant>
AV-unprocessed.smi:571-2

> <Gold.Version>
5.8.1

> <Gold.Id.Protein>
6NUR|6NUR_protein|mol2

> <Gold.PLP.Fitness>
50.0280

> <Gold.PLP.PLP>
-37.3920

> <Gold.PLP.part.hbond>
-4.0000

> <Gold.PLP.part.metal>
0.0000

> <Gold.PLP.part.buried>
-1.2024

> <Gold.PLP.part.nonpolar>
-31.2785

> <Gold.PLP.part.repulsive>
0.1367

> <Gold.PLP.ligand.clash>
0.0000

> <Gold.PLP.ligand.torsion>
0.9892

> <Gold.PLP.Chemscore.Hbond>
4.0000

> <Gold.PLP.Chemscore.CHOScore>
0.8292

> <Gold.PLP.Chemscore.Metal>
0.0000

> <Gold.Chemscore.Hbonds>
donor molecule, donor type, donor heavy atom, donor atom, acceptor molecule, acceptor atom, score
      L1  H     4    44       P1  7948  2.00
      P1  H  7997  8009       L1    20  1.00
      P1  H 10752 10765       L1    12  0.96
      L1  C    15    40       P1  7957  0.21

> <Gold.PLP.Chemscore.Internal.Correction>
0.1266

> <Gold.Rescore>
     Score         DG    S(hbond)    S(metal)    S(lipo)     H(rot)  DE(clash)    DE(int)     intcor
     16.11     -18.54       2.97        0.00      67.27       1.84       0.05       2.38       ----

> <Gold.Chemscore.Fitness>
16.1062

> <Gold.Chemscore.DG>
-18.5432

> <Gold.Chemscore.ZeroCoef>
-5.4800

> <Gold.Chemscore.Hbond>
2.9659

> <Gold.Chemscore.Metal>
0.0000

> <Gold.Chemscore.Lipo>
67.2727

> <Gold.Chemscore.Internal_Hbond>
0.0000

> <Gold.Chemscore.DEClash>
0.0525

> <Gold.Chemscore.DEInternal>
2.3846

> <Gold.Chemscore.Rot>
1.8413

> <Gold.Chemscore.Internal.Correction>
   9.000000E+99

> <Gold.Chemscore.Hbonds>
donor molecule, donor type, donor heavy atom, donor atom, acceptor molecule, acceptor atom, score
      L1  H     4    44       P1  7948  1.00
      P1  H  7997  8009       L1    20  1.00
      P1  H 10752 10765       L1    12  0.85

> <Gold.Chemscore.Hbond.Weighted>
-9.9060

> <Gold.Chemscore.Metal.Weighted>
-0.0000

> <Gold.Chemscore.Lipo.Weighted>
-7.8709

> <Gold.Chemscore.Internal_Hbond.Weighted>
0.0000

> <Gold.Chemscore.DEClash.Weighted>
0.0525

> <Gold.Chemscore.DEInternal.Weighted>
2.3846

> <Gold.Chemscore.Rot.Weighted>
4.7137

> <Gold.Chemscore.Internal.Correction.Weighted>
   9.000000E+99

> <Gold.Protein.RotatedTorsions>
[ 6907 6896 6895 6894 ] final  107.82 input  -60.11 | X-H torsion
[ 7974 7965 7964 7962 ] final -156.10 input  175.53 | X-H torsion
[ 8008 7997 7996 7995 ] final -148.04 input   59.86 | X-H torsion
[ 10167 10162 10161 10158 ] final -141.54 input  -65.29 | X-H torsion
[ 10718 10713 10712 10709 ] final   18.10 input   66.30 | X-H torsion
[ 10763 10752 10751 10750 ] final -164.77 input  -60.55 | X-H torsion
[ 11005 11000 10999 10996 ] final   65.89 input  -57.11 | X-H torsion

> <Gold.Protein.ActiveResidues>
 VAL166  LYS551  ARG553  GLY616  TRP617  ASP618  TYR619  PRO620  LYS621  CYS622 
 ASP623  PHE694  ASN695  SER759  ASP760  ASP761  ALA762  ILE779  LEU786  VAL792 
 PHE793  MET794  SER795  GLU796  ALA797  LYS798  CYS799  TRP800  GLU811  SER814 

> <Gold.Protein.RotatedAtoms>
  152.5138  133.9178  159.7519 H   0  0  0  0  0  0  0  0  0  0  0  0  # atno 6907 bound_to 6896
  150.9557  133.6492  159.2770 H   0  0  0  0  0  0  0  0  0  0  0  0  # atno 6908 bound_to 6896
  151.3755  135.0935  159.9532 H   0  0  0  0  0  0  0  0  0  0  0  0  # atno 6909 bound_to 6896
  144.7609  140.4157  143.5977 H   0  0  0  0  0  0  0  0  0  0  0  0  # atno 7974 bound_to 7965
  155.5852  140.0647  157.2773 H   0  0  0  0  0  0  0  0  0  0  0  0  # atno 8008 bound_to 7997
  154.4321  140.1845  156.1064 H   0  0  0  0  0  0  0  0  0  0  0  0  # atno 8009 bound_to 7997
  156.0274  140.3310  155.7107 H   0  0  0  0  0  0  0  0  0  0  0  0  # atno 8010 bound_to 7997
  139.8175  143.7619  152.2665 H   0  0  0  0  0  0  0  0  0  0  0  0  # atno 10167 bound_to 10162
  157.0915  130.6430  149.5850 H   0  0  0  0  0  0  0  0  0  0  0  0  # atno 10718 bound_to 10713
  154.6997  135.2985  154.9360 H   0  0  0  0  0  0  0  0  0  0  0  0  # atno 10763 bound_to 10752
  154.0296  135.6672  153.4783 H   0  0  0  0  0  0  0  0  0  0  0  0  # atno 10764 bound_to 10752
  153.0672  135.5081  154.8134 H   0  0  0  0  0  0  0  0  0  0  0  0  # atno 10765 bound_to 10752
  139.9866  134.6658  156.0165 H   0  0  0  0  0  0  0  0  0  0  0  0  # atno 11005 bound_to 11000
  145.6624  139.1584  143.2801 LP  0  0  0  0  0  0  0  0  0  0  0  0  # atno 17320 bound_to 7965
  146.1670  140.6703  142.9251 LP  0  0  0  0  0  0  0  0  0  0  0  0  # atno 17321 bound_to 7965
  139.7787  144.7452  151.0119 LP  0  0  0  0  0  0  0  0  0  0  0  0  # atno 17342 bound_to 10162
  140.7815  143.4565  151.0338 LP  0  0  0  0  0  0  0  0  0  0  0  0  # atno 17343 bound_to 10162
  155.9897  130.4945  150.7224 LP  0  0  0  0  0  0  0  0  0  0  0  0  # atno 17370 bound_to 10713
  157.4717  131.0894  151.0635 LP  0  0  0  0  0  0  0  0  0  0  0  0  # atno 17371 bound_to 10713
  141.1530  133.6546  156.4072 LP  0  0  0  0  0  0  0  0  0  0  0  0  # atno 17394 bound_to 11000
  140.4990  134.6503  157.5241 LP  0  0  0  0  0  0  0  0  0  0  0  0  # atno 17395 bound_to 11000

$$$$
