AV-unprocessed.smi:61|AV-procd|sdf|596|dock2
  -GOLD-   2262016493D 1   1.00000     0.00000
 Structure written by MMmdl.
 29 30  0  0  0  0  0  0  0  0  2 V2000
  146.9607  138.2498  152.3557 N   0  0  0  0  0  0  0  0  0  0  0  0
  147.4229  139.2980  153.1149 C   0  0  0  0  0  0  0  0  0  0  0  0
  146.5886  140.3134  153.3826 N   0  3  0  0  0  0  0  0  0  0  0  0
  147.0233  141.3557  154.1329 C   0  0  0  0  0  0  0  0  0  0  0  0
  148.3402  141.3736  154.6275 C   0  0  0  0  0  0  0  0  0  0  0  0
  149.1575  140.2768  154.3038 C   0  0  0  0  0  0  0  0  0  0  0  0
  150.4802  140.2349  154.7697 N   0  0  0  0  0  0  0  0  0  0  0  0
  150.7000  140.9025  156.0497 C   0  0  0  0  0  0  0  0  0  0  0  0
  151.7017  140.0431  156.8362 C   0  0  0  0  0  0  0  0  0  0  0  0
  152.2842  139.0911  155.7942 C   0  0  0  0  0  0  0  0  0  0  0  0
  151.1034  138.9180  154.8388 C   0  0  2  0  0  0  0  0  0  0  0  0
  151.4327  138.3171  153.4569 C   0  0  0  0  0  0  0  0  0  0  0  0
  151.6076  136.9166  153.5248 O   0  0  0  0  0  0  0  0  0  0  0  0
  148.6863  139.2552  153.5525 N   0  0  0  0  0  0  0  0  0  0  0  0
  147.5659  137.4709  152.1382 H   0  0  0  0  0  0  0  0  0  0  0  0
  146.0003  138.2240  152.0452 H   0  0  0  0  0  0  0  0  0  0  0  0
  146.3030  142.1402  154.3130 H   0  0  0  0  0  0  0  0  0  0  0  0
  148.7067  142.1946  155.2267 H   0  0  0  0  0  0  0  0  0  0  0  0
  151.1238  141.8870  155.8504 H   0  0  0  0  0  0  0  0  0  0  0  0
  149.7792  141.0502  156.6158 H   0  0  0  0  0  0  0  0  0  0  0  0
  152.4652  140.6377  157.3384 H   0  0  0  0  0  0  0  0  0  0  0  0
  151.1710  139.4703  157.5980 H   0  0  0  0  0  0  0  0  0  0  0  0
  153.1292  139.5669  155.2947 H   0  0  0  0  0  0  0  0  0  0  0  0
  152.6274  138.1490  156.2221 H   0  0  0  0  0  0  0  0  0  0  0  0
  150.3971  138.2419  155.3236 H   0  0  0  0  0  0  0  0  0  0  0  0
  150.6167  138.5228  152.7639 H   0  0  0  0  0  0  0  0  0  0  0  0
  152.3281  138.7728  153.0330 H   0  0  0  0  0  0  0  0  0  0  0  0
  151.3429  136.5389  152.6998 H   0  0  0  0  0  0  0  0  0  0  0  0
  145.6308  140.3126  153.0312 H   0  0  0  0  0  0  0  0  0  0  0  0
  1  2  1  0  0  0  0
  1 15  1  0  0  0  0
  1 16  1  0  0  0  0
  2 14  1  0  0  0  0
  2  3  2  0  0  0  0
  3  4  1  0  0  0  0
  3 29  1  0  0  0  0
  4  5  2  0  0  0  0
  4 17  1  0  0  0  0
  5  6  1  0  0  0  0
  5 18  1  0  0  0  0
  6  7  1  0  0  0  0
  6 14  2  0  0  0  0
  7 11  1  0  0  0  0
  7  8  1  0  0  0  0
  8  9  1  0  0  0  0
  8 19  1  0  0  0  0
  8 20  1  0  0  0  0
  9 10  1  0  0  0  0
  9 21  1  0  0  0  0
  9 22  1  0  0  0  0
 10 11  1  0  0  0  0
 10 23  1  0  0  0  0
 10 24  1  0  0  0  0
 11 12  1  0  0  0  0
 11 25  1  0  0  0  0
 12 13  1  0  0  0  0
 12 26  1  0  0  0  0
 12 27  1  0  0  0  0
 13 28  1  0  0  0  0
M  CHG  1   3   1
M  END
> <s_m_source_file>
AV-unprocessed.smi

> <i_m_source_file_index>
61

> <i_lp_mmshare_version>
43012

> <i_f3d_flags>
0

> <s_epik_input>
W05IMl1jMW5bY0hdW2NIXWMobjEpTjJbQ0gyXVtDSDJdW0NIMl1bQ0BIXTJbQ0gyXVtPSF0=

> <s_epik_cmdline>
J2VwaWtfcHl0aG9uJywgJy1waCcsICc3LjAnLCAnLXRuJywgJzgnLCAnLW1hJywgJzIwMCcsICctbWV0YWxfYmluZGluZycsICctaW1hZScsICc8aW5maWxlLm1hZT4nLCAnLW9tYWUnLCAnPG91dGZpbGUubWFlPic=

> <r_lp_tautomer_probability>
0.575011

> <r_epik_Ionization_Penalty>
0.303659

> <r_epik_Ionization_Penalty_Charging>
0.303655

> <r_epik_Ionization_Penalty_Neutral>
4.42648e-06

> <r_epik_State_Penalty>
0.524608

> <r_epik_Charging_Adjusted_Penalty>
0.828263

> <i_epik_Tot_Q>
1

> <i_epik_Tot_abs_Q>
1

> <r_epik_Metal_State_Penalty>
0.785265

> <b_epik_Metal_Only>
0

> <s_lp_Force_Field>
OPLS_2005

> <r_lp_Energy>
35.3764

> <b_lp_Chiralities_Consistent>
1

> <s_lp_Variant>
AV-unprocessed.smi:61-2

> <Gold.Version>
5.8.1

> <Gold.Id.Protein>
6NUR|6NUR_protein|mol2

> <Gold.PLP.Fitness>
46.7367

> <Gold.PLP.PLP>
-27.8473

> <Gold.PLP.part.hbond>
-5.1213

> <Gold.PLP.part.metal>
0.0000

> <Gold.PLP.part.buried>
-3.7086

> <Gold.PLP.part.nonpolar>
-20.9790

> <Gold.PLP.part.repulsive>
1.8209

> <Gold.PLP.ligand.clash>
0.0000

> <Gold.PLP.ligand.torsion>
0.8496

> <Gold.PLP.Chemscore.Hbond>
6.8440

> <Gold.PLP.Chemscore.CHOScore>
0.0000

> <Gold.PLP.Chemscore.Metal>
0.0000

> <Gold.Chemscore.Hbonds>
donor molecule, donor type, donor heavy atom, donor atom, acceptor molecule, acceptor atom, score
      L1  H     1    15       P1  7948  2.00
      L1  H     3    29       P1 10175  2.00
      L1  H    13    28       P1  7949  0.52
      P1  H  7989  7998       L1     7  0.75
      P1  H 10752 10765       L1    13  0.57

> <Gold.PLP.Chemscore.Internal.Correction>
0.0566

> <Gold.Rescore>
     Score         DG    S(hbond)    S(metal)    S(lipo)     H(rot)  DE(clash)    DE(int)     intcor
     13.18     -15.43       2.90        0.00      45.66       1.98       0.26       1.99       ----

> <Gold.Chemscore.Fitness>
13.1790

> <Gold.Chemscore.DG>
-15.4306

> <Gold.Chemscore.ZeroCoef>
-5.4800

> <Gold.Chemscore.Hbond>
2.9001

> <Gold.Chemscore.Metal>
0.0000

> <Gold.Chemscore.Lipo>
45.6644

> <Gold.Chemscore.Internal_Hbond>
0.0000

> <Gold.Chemscore.DEClash>
0.2581

> <Gold.Chemscore.DEInternal>
1.9935

> <Gold.Chemscore.Rot>
1.9838

> <Gold.Chemscore.Internal.Correction>
   9.000000E+99

> <Gold.Chemscore.Hbonds>
donor molecule, donor type, donor heavy atom, donor atom, acceptor molecule, acceptor atom, score
      L1  H     1    15       P1  7948  1.00
      L1  H     3    29       P1 10175  0.90
      L1  H    13    28       P1  7949  0.43
      P1  H  7989  7998       L1     7  0.05
      P1  H 10752 10765       L1    13  0.42

> <Gold.Chemscore.Hbond.Weighted>
-9.6864

> <Gold.Chemscore.Metal.Weighted>
-0.0000

> <Gold.Chemscore.Lipo.Weighted>
-5.3427

> <Gold.Chemscore.Internal_Hbond.Weighted>
0.0000

> <Gold.Chemscore.DEClash.Weighted>
0.2581

> <Gold.Chemscore.DEInternal.Weighted>
1.9935

> <Gold.Chemscore.Rot.Weighted>
5.0786

> <Gold.Chemscore.Internal.Correction.Weighted>
   9.000000E+99

> <Gold.Protein.RotatedTorsions>
[ 6907 6896 6895 6894 ] final  -52.45 input  -60.11 | X-H torsion
[ 7974 7965 7964 7962 ] final   36.24 input  175.53 | X-H torsion
[ 8008 7997 7996 7995 ] final   24.25 input   59.86 | X-H torsion
[ 10167 10162 10161 10158 ] final    9.86 input  -65.29 | X-H torsion
[ 10718 10713 10712 10709 ] final  144.18 input   66.30 | X-H torsion
[ 10763 10752 10751 10750 ] final  177.76 input  -60.55 | X-H torsion
[ 11005 11000 10999 10996 ] final -110.15 input  -57.11 | X-H torsion

> <Gold.Protein.ActiveResidues>
 VAL166  LYS551  ARG553  GLY616  TRP617  ASP618  TYR619  PRO620  LYS621  CYS622 
 ASP623  PHE694  ASN695  SER759  ASP760  ASP761  ALA762  ILE779  LEU786  VAL792 
 PHE793  MET794  SER795  GLU796  ALA797  LYS798  CYS799  TRP800  GLU811  SER814 

> <Gold.Protein.RotatedAtoms>
  150.8516  134.7843  159.7013 H   0  0  0  0  0  0  0  0  0  0  0  0  # atno 6907 bound_to 6896
  152.4579  134.5246  159.9803 H   0  0  0  0  0  0  0  0  0  0  0  0  # atno 6908 bound_to 6896
  151.5366  133.3402  159.2963 H   0  0  0  0  0  0  0  0  0  0  0  0  # atno 6909 bound_to 6896
  146.1226  139.6043  142.9280 H   0  0  0  0  0  0  0  0  0  0  0  0  # atno 7974 bound_to 7965
  154.9933  140.3116  155.4897 H   0  0  0  0  0  0  0  0  0  0  0  0  # atno 8008 bound_to 7997
  156.2936  140.2245  156.4980 H   0  0  0  0  0  0  0  0  0  0  0  0  # atno 8009 bound_to 7997
  154.7683  140.0454  157.1019 H   0  0  0  0  0  0  0  0  0  0  0  0  # atno 8010 bound_to 7997
  140.6230  143.8164  150.7198 H   0  0  0  0  0  0  0  0  0  0  0  0  # atno 10167 bound_to 10162
  157.3602  131.0964  151.0922 H   0  0  0  0  0  0  0  0  0  0  0  0  # atno 10718 bound_to 10713
  154.4987  135.2782  155.1438 H   0  0  0  0  0  0  0  0  0  0  0  0  # atno 10763 bound_to 10752
  154.3080  135.6235  153.5457 H   0  0  0  0  0  0  0  0  0  0  0  0  # atno 10764 bound_to 10752
  152.9899  135.5713  154.5425 H   0  0  0  0  0  0  0  0  0  0  0  0  # atno 10765 bound_to 10752
  141.0808  133.9223  157.2292 H   0  0  0  0  0  0  0  0  0  0  0  0  # atno 11005 bound_to 11000
  145.5434  141.0419  143.2318 LP  0  0  0  0  0  0  0  0  0  0  0  0  # atno 17320 bound_to 7965
  144.7611  139.6954  143.7234 LP  0  0  0  0  0  0  0  0  0  0  0  0  # atno 17321 bound_to 7965
  140.1758  143.4156  152.1968 LP  0  0  0  0  0  0  0  0  0  0  0  0  # atno 17342 bound_to 10162
  139.5455  144.7294  151.4598 LP  0  0  0  0  0  0  0  0  0  0  0  0  # atno 17343 bound_to 10162
  157.2065  130.6418  149.5758 LP  0  0  0  0  0  0  0  0  0  0  0  0  # atno 17370 bound_to 10713
  155.9736  130.4674  150.6322 LP  0  0  0  0  0  0  0  0  0  0  0  0  # atno 17371 bound_to 10713
  139.9622  135.0151  156.9291 LP  0  0  0  0  0  0  0  0  0  0  0  0  # atno 17394 bound_to 11000
  140.5472  134.0662  155.7358 LP  0  0  0  0  0  0  0  0  0  0  0  0  # atno 17395 bound_to 11000

$$$$
