#       Name:                AV-unprocessed.smi:2550
#       Creating user name   scv26
#       Creation time:       Fri Mar 27 14:05:50 2020


#       File generated by GOLD software.
#

@<TRIPOS>MOLECULE
AV-unprocessed.smi:2550
    32    33     1
SMALL
NO_CHARGES


@<TRIPOS>ATOM
      1 ****        -2.9570  -1.3118   0.9259 C.3            1 S1                 0.0000
      2 ****        -2.4365  -0.4603  -0.2437 C.3            1 S1                 0.0000
      3 ****        -3.0232  -0.9095  -1.5918 C.3            1 S1                 0.0000
      4 ****        -2.8765   0.8665  -0.0199 O.3            1 S1                 0.0000
      5 ****        -0.9273  -0.4189  -0.2769 C.2            1 S1                 0.0000
      6 ****        -0.0667   0.6379  -0.1459 C.2            1 S1                 0.0000
      7 ****         1.1790   0.0570  -0.2481 N.pl3          1 S1                 0.0000
      8 ****         2.4526   0.7134  -0.2519 C.3            1 S1                 0.0000
      9 ****         3.7110   0.0070   0.2595 C.3            1 S1                 0.0000
     10 ****         4.1340   1.3009   0.7678 N.3            1 S1                 0.0000
     11 ****         2.7676   1.7945   0.7830 C.3            1 S1                 0.0000
     12 ****         1.0903  -1.2731  -0.4796 N.2            1 S1                 0.0000
     13 ****        -0.1697  -1.5756  -0.4775 N.2            1 S1                 0.0000
     14 ****        -2.6473  -2.3524   0.8246 H              1 S1                 0.0000
     15 ****        -4.0464  -1.2978   0.9747 H              1 S1                 0.0000
     16 ****        -2.5781  -0.9472   1.8815 H              1 S1                 0.0000
     17 ****        -2.7175  -1.9276  -1.8355 H              1 S1                 0.0000
     18 ****        -2.6902  -0.2624  -2.4043 H              1 S1                 0.0000
     19 ****        -4.1135  -0.8895  -1.5778 H              1 S1                 0.0000
     20 ****        -3.8210   0.8686   0.0043 H              1 S1                 0.0000
     21 ****        -0.2251   1.6955   0.0049 H              1 S1                 0.0000
     22 ****         2.5992   1.0886  -1.2671 H              1 S1                 0.0000
     23 ****         3.5338  -0.7103   1.0624 H              1 S1                 0.0000
     24 ****         4.3518  -0.3928  -0.5268 H              1 S1                 0.0000
     25 ****         4.5310   1.2394   1.6947 H              1 S1                 0.0000
     26 ****         2.6593   2.8144   0.4130 H              1 S1                 0.0000
     27 ****         2.2871   1.6456   1.7512 H              1 S1                 0.0000
     28 ****        -2.5566   1.4575  -0.7604 LP             1 S1                 0.0000
     29 ****        -2.5159   1.1991   0.8515 LP             1 S1                 0.0000
     30 ****         4.8398   1.8157   0.2811 LP             1 S1                 0.0000
     31 ****         1.8528  -1.9035  -0.6249 LP             1 S1                 0.0000
     32 ****        -0.5425  -2.4953  -0.6005 LP             1 S1                 0.0000
@<TRIPOS>BOND
    1    1    2 1     
    2    1   14 1     
    3    1   15 1     
    4    1   16 1     
    5    2    3 1     
    6    2    4 1     
    7    2    5 1     
    8    3   17 1     
    9    3   18 1     
   10    3   19 1     
   11    4   20 1     
   12    5   13 1     
   13    5    6 2     
   14    6    7 1     
   15    6   21 1     
   16    7    8 1     
   17    7   12 1     
   18    8   11 1     
   19    8    9 1     
   20    8   22 1     
   21    9   10 1     
   22    9   23 1     
   23    9   24 1     
   24   10   11 1     
   25   10   25 1     
   26   11   26 1     
   27   11   27 1     
   28   12   13 2     
   29    4   28 1     
   30    4   29 1     
   31   10   30 1     
   32   12   31 1     
   33   13   32 1     
@<TRIPOS>SUBSTRUCTURE
      1 S1             1
@<TRIPOS>SET
LONE_PAIRS      STATIC     ATOMS    <user>   **** ""
5 28 29 30 31 32
DONOR_HYDROGENS      STATIC     ATOMS    <user>   **** ""
2 20 25
ATOM$BLUE        STATIC     ATOMS    COLORGROUP SYSTEM
5 28 29 30 31 32
ATOM$RED        STATIC     ATOMS    COLORGROUP SYSTEM
2 20 25
