AV-unprocessed.smi:797|AV-procd|sdf|3768|dock3
  -GOLD-   22720 1203D 1   1.00000     0.00000
 Structure written by MMmdl.
 34 35  0  0  0  0  0  0  0  0  2 V2000
  153.0561  137.8279  160.7686 C   0  0  0  0  0  0  0  0  0  0  0  0
  152.0849  137.8357  159.6254 C   0  0  0  0  0  0  0  0  0  0  0  0
  152.2942  138.2802  158.2916 C   0  0  0  0  0  0  0  0  0  0  0  0
  151.0878  138.0673  157.6868 C   0  0  0  0  0  0  0  0  0  0  0  0
  150.5881  138.3073  156.3001 C   0  0  0  0  0  0  0  0  0  0  0  0
  151.1850  139.9382  155.6763 S   0  0  0  0  0  0  0  0  0  0  0  0
  152.6506  139.8259  155.6022 O   0  0  0  0  0  0  0  0  0  0  0  0
  150.4663  140.1902  154.4162 O   0  0  0  0  0  0  0  0  0  0  0  0
  150.7086  140.9151  156.8820 N   0  5  0  0  0  0  0  0  0  0  0  0
  151.6631  141.8217  157.5021 C   0  0  0  0  0  0  0  0  0  0  0  0
  151.7139  141.5674  159.0288 C   0  0  0  0  0  0  0  0  0  0  0  0
  152.6073  142.5804  159.7894 C   0  0  0  0  0  0  0  0  0  0  0  0
  152.1932  144.0450  159.5345 C   0  0  0  0  0  0  0  0  0  0  0  0
  152.1466  144.3124  158.0156 C   0  0  0  0  0  0  0  0  0  0  0  0
  151.2553  143.2968  157.2568 C   0  0  0  0  0  0  0  0  0  0  0  0
  150.2106  137.5266  158.5715 O   0  0  0  0  0  0  0  0  0  0  0  0
  150.8559  137.3812  159.8046 N   0  0  0  0  0  0  0  0  0  0  0  0
  153.8638  138.5408  160.6014 H   0  0  0  0  0  0  0  0  0  0  0  0
  153.5034  136.8419  160.8938 H   0  0  0  0  0  0  0  0  0  0  0  0
  152.5685  138.0957  161.7064 H   0  0  0  0  0  0  0  0  0  0  0  0
  153.1844  138.6998  157.8474 H   0  0  0  0  0  0  0  0  0  0  0  0
  150.9123  137.5241  155.6155 H   0  0  0  0  0  0  0  0  0  0  0  0
  149.4986  138.3268  156.2930 H   0  0  0  0  0  0  0  0  0  0  0  0
  152.6694  141.6729  157.1085 H   0  0  0  0  0  0  0  0  0  0  0  0
  150.7047  141.6165  159.4408 H   0  0  0  0  0  0  0  0  0  0  0  0
  152.0713  140.5553  159.2220 H   0  0  0  0  0  0  0  0  0  0  0  0
  152.5605  142.3728  160.8587 H   0  0  0  0  0  0  0  0  0  0  0  0
  153.6533  142.4446  159.5067 H   0  0  0  0  0  0  0  0  0  0  0  0
  151.2108  144.2300  159.9704 H   0  0  0  0  0  0  0  0  0  0  0  0
  152.8887  144.7293  160.0212 H   0  0  0  0  0  0  0  0  0  0  0  0
  151.7758  145.3221  157.8374 H   0  0  0  0  0  0  0  0  0  0  0  0
  153.1612  144.2940  157.6123 H   0  0  0  0  0  0  0  0  0  0  0  0
  151.2897  143.5227  156.1909 H   0  0  0  0  0  0  0  0  0  0  0  0
  150.2184  143.4438  157.5633 H   0  0  0  0  0  0  0  0  0  0  0  0
  1  2  1  0  0  0  0
  1 18  1  0  0  0  0
  1 19  1  0  0  0  0
  1 20  1  0  0  0  0
  2 17  2  0  0  0  0
  2  3  1  0  0  0  0
  3  4  2  0  0  0  0
  3 21  1  0  0  0  0
  4  5  1  0  0  0  0
  4 16  1  0  0  0  0
  5  6  1  0  0  0  0
  5 22  1  0  0  0  0
  5 23  1  0  0  0  0
  6  7  2  0  0  0  0
  6  8  2  0  0  0  0
  6  9  1  0  0  0  0
  9 10  1  0  0  0  0
 10 15  1  0  0  0  0
 10 11  1  0  0  0  0
 10 24  1  0  0  0  0
 11 12  1  0  0  0  0
 11 25  1  0  0  0  0
 11 26  1  0  0  0  0
 12 13  1  0  0  0  0
 12 27  1  0  0  0  0
 12 28  1  0  0  0  0
 13 14  1  0  0  0  0
 13 29  1  0  0  0  0
 13 30  1  0  0  0  0
 14 15  1  0  0  0  0
 14 31  1  0  0  0  0
 14 32  1  0  0  0  0
 15 33  1  0  0  0  0
 15 34  1  0  0  0  0
 16 17  1  0  0  0  0
M  CHG  1   9  -1
M  END
> <s_m_source_file>
AV-unprocessed.smi

> <i_m_source_file_index>
797

> <i_lp_mmshare_version>
43012

> <i_f3d_flags>
0

> <s_epik_input>
W0NIM11jMVtjSF1jKG9uMSlbQ0gyXVMoPU8pKD1PKVtOSF1bQ0hdMltDSDJdW0NIMl1bQ0gyXVtDSDJdW0NIMl0y

> <s_epik_cmdline>
J2VwaWtfcHl0aG9uJywgJy1waCcsICc3LjAnLCAnLXRuJywgJzgnLCAnLW1hJywgJzIwMCcsICctbWV0YWxfYmluZGluZycsICctaW1hZScsICc8aW5maWxlLm1hZT4nLCAnLW9tYWUnLCAnPG91dGZpbGUubWFlPic=

> <r_lp_tautomer_probability>
1

> <r_epik_Ionization_Penalty>
5.48284

> <r_epik_Ionization_Penalty_Charging>
5.48284

> <r_epik_Ionization_Penalty_Neutral>
9.17401e-10

> <r_epik_State_Penalty>
5.48278

> <r_epik_Charging_Adjusted_Penalty>
10.9656

> <i_epik_Tot_Q>
-1

> <i_epik_Tot_abs_Q>
1

> <r_epik_Metal_State_Penalty>
1.49378

> <b_epik_Metal_Only>
1

> <s_lp_Force_Field>
OPLS_2005

> <r_lp_Energy>
6.0802

> <b_lp_Chiralities_Consistent>
1

> <s_lp_Variant>
AV-unprocessed.smi:797-2

> <Gold.Version>
5.8.1

> <Gold.Id.Protein>
6NUR|6NUR_protein|mol2

> <Gold.PLP.Fitness>
40.3965

> <Gold.PLP.PLP>
-32.2138

> <Gold.PLP.part.hbond>
-3.1131

> <Gold.PLP.part.metal>
0.0000

> <Gold.PLP.part.buried>
-4.7054

> <Gold.PLP.part.nonpolar>
-23.9994

> <Gold.PLP.part.repulsive>
0.1108

> <Gold.PLP.ligand.clash>
0.0000

> <Gold.PLP.ligand.torsion>
0.8916

> <Gold.PLP.Chemscore.Hbond>
2.9913

> <Gold.PLP.Chemscore.CHOScore>
0.0000

> <Gold.PLP.Chemscore.Metal>
0.0000

> <Gold.Chemscore.Hbonds>
donor molecule, donor type, donor heavy atom, donor atom, acceptor molecule, acceptor atom, score
      P1  H  6896  6908       L1    17  0.34
      P1  H  7989  7998       L1     8  1.00
      P1  H  7997  8010       L1     7  1.00

> <Gold.PLP.Chemscore.Internal.Correction>
0.9922

> <Gold.Rescore>
     Score         DG    S(hbond)    S(metal)    S(lipo)     H(rot)  DE(clash)    DE(int)     intcor
     18.81     -19.80       2.35        0.00      84.93       1.35       0.16       0.83       ----

> <Gold.Chemscore.Fitness>
18.8068

> <Gold.Chemscore.DG>
-19.7972

> <Gold.Chemscore.ZeroCoef>
-5.4800

> <Gold.Chemscore.Hbond>
2.3496

> <Gold.Chemscore.Metal>
0.0000

> <Gold.Chemscore.Lipo>
84.9345

> <Gold.Chemscore.Internal_Hbond>
0.0000

> <Gold.Chemscore.DEClash>
0.1596

> <Gold.Chemscore.DEInternal>
0.8308

> <Gold.Chemscore.Rot>
1.3546

> <Gold.Chemscore.Internal.Correction>
   9.000000E+99

> <Gold.Chemscore.Hbonds>
donor molecule, donor type, donor heavy atom, donor atom, acceptor molecule, acceptor atom, score
      P1  H  6896  6908       L1    17  0.03
      P1  H  7989  7998       L1     8  0.34
      P1  H  7997  8010       L1     7  1.00

> <Gold.Chemscore.Hbond.Weighted>
-7.8478

> <Gold.Chemscore.Metal.Weighted>
-0.0000

> <Gold.Chemscore.Lipo.Weighted>
-9.9373

> <Gold.Chemscore.Internal_Hbond.Weighted>
0.0000

> <Gold.Chemscore.DEClash.Weighted>
0.1596

> <Gold.Chemscore.DEInternal.Weighted>
0.8308

> <Gold.Chemscore.Rot.Weighted>
3.4679

> <Gold.Chemscore.Internal.Correction.Weighted>
   9.000000E+99

> <Gold.Protein.RotatedTorsions>
[ 6907 6896 6895 6894 ] final -132.89 input  -60.11 | X-H torsion
[ 7974 7965 7964 7962 ] final  127.16 input  175.53 | X-H torsion
[ 8008 7997 7996 7995 ] final   83.48 input   59.86 | X-H torsion
[ 10167 10162 10161 10158 ] final   62.68 input  -65.29 | X-H torsion
[ 10718 10713 10712 10709 ] final  -92.94 input   66.30 | X-H torsion
[ 10763 10752 10751 10750 ] final -161.66 input  -60.55 | X-H torsion
[ 11005 11000 10999 10996 ] final  -26.68 input  -57.11 | X-H torsion

> <Gold.Protein.ActiveResidues>
 VAL166  LYS551  ARG553  GLY616  TRP617  ASP618  TYR619  PRO620  LYS621  CYS622 
 ASP623  PHE694  ASN695  SER759  ASP760  ASP761  ALA762  ILE779  LEU786  VAL792 
 PHE793  MET794  SER795  GLU796  ALA797  LYS798  CYS799  TRP800  GLU811  SER814 

> <Gold.Protein.RotatedAtoms>
  150.9676  133.6378  159.2743 H   0  0  0  0  0  0  0  0  0  0  0  0  # atno 6907 bound_to 6896
  151.3678  135.0915  159.9465 H   0  0  0  0  0  0  0  0  0  0  0  0  # atno 6908 bound_to 6896
  152.5171  133.9236  159.7601 H   0  0  0  0  0  0  0  0  0  0  0  0  # atno 6909 bound_to 6896
  145.0537  139.3862  143.5041 H   0  0  0  0  0  0  0  0  0  0  0  0  # atno 7974 bound_to 7965
  155.9244  140.3419  155.6199 H   0  0  0  0  0  0  0  0  0  0  0  0  # atno 8008 bound_to 7997
  155.7234  140.0786  157.2339 H   0  0  0  0  0  0  0  0  0  0  0  0  # atno 8009 bound_to 7997
  154.4075  140.1601  156.2414 H   0  0  0  0  0  0  0  0  0  0  0  0  # atno 8010 bound_to 7997
  140.1413  144.4551  150.6810 H   0  0  0  0  0  0  0  0  0  0  0  0  # atno 10167 bound_to 10162
  156.0007  130.5007  150.5701 H   0  0  0  0  0  0  0  0  0  0  0  0  # atno 10718 bound_to 10713
  154.7284  135.3041  154.8933 H   0  0  0  0  0  0  0  0  0  0  0  0  # atno 10763 bound_to 10752
  153.9783  135.6733  153.4753 H   0  0  0  0  0  0  0  0  0  0  0  0  # atno 10764 bound_to 10752
  153.0896  135.4966  154.8583 H   0  0  0  0  0  0  0  0  0  0  0  0  # atno 10765 bound_to 10752
  140.9051  133.7498  156.0596 H   0  0  0  0  0  0  0  0  0  0  0  0  # atno 11005 bound_to 11000
  146.3520  140.0200  142.8659 LP  0  0  0  0  0  0  0  0  0  0  0  0  # atno 17320 bound_to 7965
  145.1495  140.9615  143.4441 LP  0  0  0  0  0  0  0  0  0  0  0  0  # atno 17321 bound_to 7965
  140.6759  143.2305  151.5509 LP  0  0  0  0  0  0  0  0  0  0  0  0  # atno 17342 bound_to 10162
  139.5471  144.2493  152.1462 LP  0  0  0  0  0  0  0  0  0  0  0  0  # atno 17343 bound_to 10162
  157.3597  131.0747  151.1646 LP  0  0  0  0  0  0  0  0  0  0  0  0  # atno 17370 bound_to 10713
  157.2435  130.6580  149.5900 LP  0  0  0  0  0  0  0  0  0  0  0  0  # atno 17371 bound_to 10713
  140.8181  134.3322  157.5391 LP  0  0  0  0  0  0  0  0  0  0  0  0  # atno 17394 bound_to 11000
  139.8748  134.9293  156.3473 LP  0  0  0  0  0  0  0  0  0  0  0  0  # atno 17395 bound_to 11000

$$$$
