AV-unprocessed.smi:993|AV-procd|sdf|4335|dock3
  -GOLD-   22720 2233D 1   1.00000     0.00000
 Structure written by MMmdl.
 31 32  0  0  0  0  0  0  0  0  2 V2000
  149.5220  141.4140  154.9998 C   0  0  0  0  0  0  0  0  0  0  0  0
  150.5402  141.2912  156.1196 C   0  0  0  0  0  0  0  0  0  0  0  0
  150.6422  142.3987  156.9710 N   0  0  0  0  0  0  0  0  0  0  0  0
  151.4796  142.3834  157.9586 C   0  0  0  0  0  0  0  0  0  0  0  0
  151.6700  143.4157  158.8740 N   0  0  0  0  0  0  0  0  0  0  0  0
  152.4067  143.2708  160.1223 C   0  0  0  0  0  0  0  0  0  0  0  0
  152.1337  144.5396  160.9303 C   0  0  0  0  0  0  0  0  0  0  0  0
  151.8782  145.5866  159.8539 C   0  0  0  0  0  0  0  0  0  0  0  0
  151.1910  144.7880  158.7458 C   0  0  0  0  0  0  0  0  0  0  0  0
  152.2931  141.2674  158.1796 N   0  0  0  0  0  0  0  0  0  0  0  0
  152.2732  140.1540  157.4143 C   0  0  0  0  0  0  0  0  0  0  0  0
  153.0217  139.2121  157.6712 O   0  0  0  0  0  0  0  0  0  0  0  0
  151.3120  140.1820  156.2991 C   0  0  0  0  0  0  0  0  0  0  0  0
  151.2267  138.9518  155.3933 C   0  0  0  0  0  0  0  0  0  0  0  0
  152.5252  138.6024  154.6557 C   0  0  0  0  0  0  0  0  0  0  0  0
  152.5456  137.5054  154.0564 O   0  0  0  0  0  0  0  0  0  0  0  0
  153.4715  139.4204  154.6933 O   0  5  0  0  0  0  0  0  0  0  0  0
  152.9354  141.2856  158.9576 H   0  0  0  0  0  0  0  0  0  0  0  0
  150.0192  141.4077  154.0297 H   0  0  0  0  0  0  0  0  0  0  0  0
  148.9550  142.3423  155.0798 H   0  0  0  0  0  0  0  0  0  0  0  0
  148.8122  140.5871  155.0320 H   0  0  0  0  0  0  0  0  0  0  0  0
  152.1018  142.3779  160.6696 H   0  0  0  0  0  0  0  0  0  0  0  0
  153.4695  143.1817  159.8941 H   0  0  0  0  0  0  0  0  0  0  0  0
  151.2348  144.4059  161.5334 H   0  0  0  0  0  0  0  0  0  0  0  0
  152.9539  144.8031  161.5986 H   0  0  0  0  0  0  0  0  0  0  0  0
  151.2800  146.4272  160.2063 H   0  0  0  0  0  0  0  0  0  0  0  0
  152.8294  145.9775  159.4901 H   0  0  0  0  0  0  0  0  0  0  0  0
  151.4133  145.2066  157.7636 H   0  0  0  0  0  0  0  0  0  0  0  0
  150.1088  144.7966  158.8821 H   0  0  0  0  0  0  0  0  0  0  0  0
  150.9342  138.0885  155.9910 H   0  0  0  0  0  0  0  0  0  0  0  0
  150.4304  139.0705  154.6577 H   0  0  0  0  0  0  0  0  0  0  0  0
  1  2  1  0  0  0  0
  1 19  1  0  0  0  0
  1 20  1  0  0  0  0
  1 21  1  0  0  0  0
  2 13  2  0  0  0  0
  2  3  1  0  0  0  0
  3  4  2  0  0  0  0
  4  5  1  0  0  0  0
  4 10  1  0  0  0  0
  5  9  1  0  0  0  0
  5  6  1  0  0  0  0
  6  7  1  0  0  0  0
  6 22  1  0  0  0  0
  6 23  1  0  0  0  0
  7  8  1  0  0  0  0
  7 24  1  0  0  0  0
  7 25  1  0  0  0  0
  8  9  1  0  0  0  0
  8 26  1  0  0  0  0
  8 27  1  0  0  0  0
  9 28  1  0  0  0  0
  9 29  1  0  0  0  0
 10 18  1  0  0  0  0
 10 11  1  0  0  0  0
 11 12  2  0  0  0  0
 11 13  1  0  0  0  0
 13 14  1  0  0  0  0
 14 15  1  0  0  0  0
 14 30  1  0  0  0  0
 14 31  1  0  0  0  0
 15 16  2  0  0  0  0
 15 17  1  0  0  0  0
M  CHG  1  17  -1
M  END
> <s_m_source_file>
AV-unprocessed.smi

> <i_m_source_file_index>
993

> <i_lp_mmshare_version>
43012

> <i_f3d_flags>
0

> <s_epik_input>
W0NIMl0xW0NIMl1bQ0gyXVtDSDJdTjFjKG5jMltDSDNdKVtuSF1jKD1PKWMyW0NIMl1DKD1PKVtPSF0=

> <s_epik_cmdline>
J2VwaWtfcHl0aG9uJywgJy1waCcsICc3LjAnLCAnLXRuJywgJzgnLCAnLW1hJywgJzIwMCcsICctbWV0YWxfYmluZGluZycsICctaW1hZScsICc8aW5maWxlLm1hZT4nLCAnLW9tYWUnLCAnPG91dGZpbGUubWFlPic=

> <r_lp_tautomer_probability>
0.878553

> <r_epik_Ionization_Penalty>
0.00262988

> <r_epik_Ionization_Penalty_Charging>
0.000644725

> <r_epik_Ionization_Penalty_Neutral>
0.00198515

> <r_epik_State_Penalty>
0.0663044

> <r_epik_Charging_Adjusted_Penalty>
0.0669491

> <i_epik_Tot_Q>
-1

> <i_epik_Tot_abs_Q>
1

> <r_epik_Metal_State_Penalty>
0.275429

> <b_epik_Metal_Only>
0

> <s_lp_Force_Field>
OPLS_2005

> <r_lp_Energy>
24.8318

> <b_lp_Chiralities_Consistent>
1

> <s_lp_Variant>
AV-unprocessed.smi:993-1

> <Gold.Version>
5.8.1

> <Gold.Id.Protein>
6NUR|6NUR_protein|mol2

> <Gold.PLP.Fitness>
52.6296

> <Gold.PLP.PLP>
-40.6944

> <Gold.PLP.part.hbond>
-3.6925

> <Gold.PLP.part.metal>
0.0000

> <Gold.PLP.part.buried>
-5.7215

> <Gold.PLP.part.nonpolar>
-33.2022

> <Gold.PLP.part.repulsive>
0.3625

> <Gold.PLP.ligand.clash>
0.0000

> <Gold.PLP.ligand.torsion>
0.1722

> <Gold.PLP.Chemscore.Hbond>
4.0924

> <Gold.PLP.Chemscore.CHOScore>
0.0000

> <Gold.PLP.Chemscore.Metal>
0.0000

> <Gold.Chemscore.Hbonds>
donor molecule, donor type, donor heavy atom, donor atom, acceptor molecule, acceptor atom, score
      P1  H  7997  8008       L1    17  1.95
      P1  H  7997  8010       L1    12  0.78
      P1  H 10752 10765       L1    16  1.38

> <Gold.PLP.Chemscore.Internal.Correction>
0.0024

> <Gold.Rescore>
     Score         DG    S(hbond)    S(metal)    S(lipo)     H(rot)  DE(clash)    DE(int)     intcor
     15.75     -15.89       1.91        0.00      67.42       1.51       0.03       0.11       ----

> <Gold.Chemscore.Fitness>
15.7494

> <Gold.Chemscore.DG>
-15.8901

> <Gold.Chemscore.ZeroCoef>
-5.4800

> <Gold.Chemscore.Hbond>
1.9106

> <Gold.Chemscore.Metal>
0.0000

> <Gold.Chemscore.Lipo>
67.4178

> <Gold.Chemscore.Internal_Hbond>
0.0000

> <Gold.Chemscore.DEClash>
0.0298

> <Gold.Chemscore.DEInternal>
0.1109

> <Gold.Chemscore.Rot>
1.5075

> <Gold.Chemscore.Internal.Correction>
   9.000000E+99

> <Gold.Chemscore.Hbonds>
donor molecule, donor type, donor heavy atom, donor atom, acceptor molecule, acceptor atom, score
      P1  H  7997  8008       L1    17  0.93
      P1  H  7997  8010       L1    12  0.22
      P1  H 10752 10765       L1    16  0.68

> <Gold.Chemscore.Hbond.Weighted>
-6.3814

> <Gold.Chemscore.Metal.Weighted>
-0.0000

> <Gold.Chemscore.Lipo.Weighted>
-7.8879

> <Gold.Chemscore.Internal_Hbond.Weighted>
0.0000

> <Gold.Chemscore.DEClash.Weighted>
0.0298

> <Gold.Chemscore.DEInternal.Weighted>
0.1109

> <Gold.Chemscore.Rot.Weighted>
3.8592

> <Gold.Chemscore.Internal.Correction.Weighted>
   9.000000E+99

> <Gold.Protein.RotatedTorsions>
[ 6907 6896 6895 6894 ] final  108.71 input  -60.11 | X-H torsion
[ 7974 7965 7964 7962 ] final -143.47 input  175.53 | X-H torsion
[ 8008 7997 7996 7995 ] final   15.28 input   59.86 | X-H torsion
[ 10167 10162 10161 10158 ] final  103.13 input  -65.29 | X-H torsion
[ 10718 10713 10712 10709 ] final -176.30 input   66.30 | X-H torsion
[ 10763 10752 10751 10750 ] final  143.04 input  -60.55 | X-H torsion
[ 11005 11000 10999 10996 ] final   80.34 input  -57.11 | X-H torsion

> <Gold.Protein.ActiveResidues>
 VAL166  LYS551  ARG553  GLY616  TRP617  ASP618  TYR619  PRO620  LYS621  CYS622 
 ASP623  PHE694  ASN695  SER759  ASP760  ASP761  ALA762  ILE779  LEU786  VAL792 
 PHE793  MET794  SER795  GLU796  ALA797  LYS798  CYS799  TRP800  GLU811  SER814 

> <Gold.Protein.RotatedAtoms>
  152.5100  133.9049  159.7458 H   0  0  0  0  0  0  0  0  0  0  0  0  # atno 6907 bound_to 6896
  150.9456  133.6599  159.2789 H   0  0  0  0  0  0  0  0  0  0  0  0  # atno 6908 bound_to 6896
  151.3895  135.0958  159.9574 H   0  0  0  0  0  0  0  0  0  0  0  0  # atno 6909 bound_to 6896
  144.8367  140.5830  143.5479 H   0  0  0  0  0  0  0  0  0  0  0  0  # atno 7974 bound_to 7965
  154.8605  140.2943  155.5542 H   0  0  0  0  0  0  0  0  0  0  0  0  # atno 8008 bound_to 7997
  156.3019  140.2479  156.3510 H   0  0  0  0  0  0  0  0  0  0  0  0  # atno 8009 bound_to 7997
  154.8924  140.0394  157.1835 H   0  0  0  0  0  0  0  0  0  0  0  0  # atno 8010 bound_to 7997
  139.7289  144.7041  151.0753 H   0  0  0  0  0  0  0  0  0  0  0  0  # atno 10167 bound_to 10162
  156.8126  130.9591  151.3115 H   0  0  0  0  0  0  0  0  0  0  0  0  # atno 10718 bound_to 10713
  153.9657  135.2955  155.3430 H   0  0  0  0  0  0  0  0  0  0  0  0  # atno 10763 bound_to 10752
  154.7350  135.5050  153.9030 H   0  0  0  0  0  0  0  0  0  0  0  0  # atno 10764 bound_to 10752
  153.0924  135.6711  153.9938 H   0  0  0  0  0  0  0  0  0  0  0  0  # atno 10765 bound_to 10752
  139.9138  134.7913  156.1897 H   0  0  0  0  0  0  0  0  0  0  0  0  # atno 11005 bound_to 11000
  145.4780  139.1497  143.3777 LP  0  0  0  0  0  0  0  0  0  0  0  0  # atno 17320 bound_to 7965
  146.2665  140.4915  142.8832 LP  0  0  0  0  0  0  0  0  0  0  0  0  # atno 17321 bound_to 7965
  140.7768  143.5069  150.9701 LP  0  0  0  0  0  0  0  0  0  0  0  0  # atno 17342 bound_to 10162
  139.8757  143.7136  152.3162 LP  0  0  0  0  0  0  0  0  0  0  0  0  # atno 17343 bound_to 10162
  157.6498  130.8875  149.9610 LP  0  0  0  0  0  0  0  0  0  0  0  0  # atno 17370 bound_to 10713
  156.1036  130.3654  150.0174 LP  0  0  0  0  0  0  0  0  0  0  0  0  # atno 17371 bound_to 10713
  141.0591  133.6850  156.1918 LP  0  0  0  0  0  0  0  0  0  0  0  0  # atno 17394 bound_to 11000
  140.6689  134.4889  157.5586 LP  0  0  0  0  0  0  0  0  0  0  0  0  # atno 17395 bound_to 11000

$$$$
