AV-unprocessed.smi:3140|AV-procd|sdf|11960|dock4
  -GOLD-   2272017363D 1   1.00000     0.00000
 Structure written by MMmdl.
 37 38  0  0  0  0  0  0  0  0  1 V2000
  150.7269  140.6673  157.8780 C   0  0  0  0  0  0  0  0  0  0  0  0
  149.7591  141.6223  157.1608 C   0  0  2  0  0  0  0  0  0  0  0  0
  149.9471  141.6227  155.6213 C   0  0  0  0  0  0  0  0  0  0  0  0
  148.7955  141.1277  154.8827 N   0  0  0  0  0  0  0  0  0  0  0  0
  147.8177  141.8497  154.2308 C   0  0  0  0  0  0  0  0  0  0  0  0
  146.9490  140.9528  153.6783 C   0  0  0  0  0  0  0  0  0  0  0  0
  147.4897  139.6889  154.0449 C   0  0  0  0  0  0  0  0  0  0  0  0
  148.5965  139.7969  154.7606 N   0  0  0  0  0  0  0  0  0  0  0  0
  149.9472  142.9492  157.7360 N   0  0  0  0  0  0  0  0  0  0  0  0
  151.3149  143.4318  157.6052 C   0  0  0  0  0  0  0  0  0  0  0  0
  151.7132  144.2062  158.8730 C   0  0  0  0  0  0  0  0  0  0  0  0
  152.3173  143.3317  159.8778 N   0  0  0  0  0  0  0  0  0  0  0  0
  152.8857  142.0494  159.4969 C   0  0  0  0  0  0  0  0  0  0  0  0
  153.4155  141.4307  160.7993 C   0  0  0  0  0  0  0  0  0  0  0  0
  153.1245  142.4467  161.9097 C   0  0  0  0  0  0  0  0  0  0  0  0
  152.4195  143.5818  161.1882 C   0  0  0  0  0  0  0  0  0  0  0  0
  152.0126  144.5876  161.7678 O   0  0  0  0  0  0  0  0  0  0  0  0
  150.6408  139.6550  157.4822 H   0  0  0  0  0  0  0  0  0  0  0  0
  150.5111  140.6196  158.9458 H   0  0  0  0  0  0  0  0  0  0  0  0
  151.7656  140.9808  157.7675 H   0  0  0  0  0  0  0  0  0  0  0  0
  148.7447  141.2916  157.3877 H   0  0  0  0  0  0  0  0  0  0  0  0
  150.1415  142.6419  155.2856 H   0  0  0  0  0  0  0  0  0  0  0  0
  150.8254  141.0493  155.3249 H   0  0  0  0  0  0  0  0  0  0  0  0
  147.8202  142.9296  154.2181 H   0  0  0  0  0  0  0  0  0  0  0  0
  146.0631  141.1667  153.0990 H   0  0  0  0  0  0  0  0  0  0  0  0
  147.1153  138.7030  153.8118 H   0  0  0  0  0  0  0  0  0  0  0  0
  149.3230  143.6055  157.2893 H   0  0  0  0  0  0  0  0  0  0  0  0
  152.0129  142.6130  157.4366 H   0  0  0  0  0  0  0  0  0  0  0  0
  151.3746  144.0869  156.7356 H   0  0  0  0  0  0  0  0  0  0  0  0
  152.4322  144.9838  158.6112 H   0  0  0  0  0  0  0  0  0  0  0  0
  150.8500  144.7232  159.2947 H   0  0  0  0  0  0  0  0  0  0  0  0
  152.1240  141.4179  159.0383 H   0  0  0  0  0  0  0  0  0  0  0  0
  153.6899  142.1941  158.7742 H   0  0  0  0  0  0  0  0  0  0  0  0
  152.9199  140.4812  161.0053 H   0  0  0  0  0  0  0  0  0  0  0  0
  154.4851  141.2304  160.7257 H   0  0  0  0  0  0  0  0  0  0  0  0
  152.4799  142.0280  162.6831 H   0  0  0  0  0  0  0  0  0  0  0  0
  154.0417  142.8091  162.3754 H   0  0  0  0  0  0  0  0  0  0  0  0
  1  2  1  0  0  0  0
  1 18  1  0  0  0  0
  1 19  1  0  0  0  0
  1 20  1  0  0  0  0
  2  3  1  0  0  0  0
  2  9  1  0  0  0  0
  2 21  1  0  0  0  0
  3  4  1  0  0  0  0
  3 22  1  0  0  0  0
  3 23  1  0  0  0  0
  4  8  1  0  0  0  0
  4  5  1  0  0  0  0
  5  6  2  0  0  0  0
  5 24  1  0  0  0  0
  6  7  1  0  0  0  0
  6 25  1  0  0  0  0
  7  8  2  0  0  0  0
  7 26  1  0  0  0  0
  9 10  1  0  0  0  0
  9 27  1  0  0  0  0
 10 11  1  0  0  0  0
 10 28  1  0  0  0  0
 10 29  1  0  0  0  0
 11 12  1  0  0  0  0
 11 30  1  0  0  0  0
 11 31  1  0  0  0  0
 12 16  1  0  0  0  0
 12 13  1  0  0  0  0
 13 14  1  0  0  0  0
 13 32  1  0  0  0  0
 13 33  1  0  0  0  0
 14 15  1  0  0  0  0
 14 34  1  0  0  0  0
 14 35  1  0  0  0  0
 15 16  1  0  0  0  0
 15 36  1  0  0  0  0
 15 37  1  0  0  0  0
 16 17  2  0  0  0  0
M  END
> <s_m_source_file>
AV-unprocessed.smi

> <i_m_source_file_index>
3140

> <i_lp_mmshare_version>
43012

> <i_f3d_flags>
0

> <s_epik_input>
bjFbY0hdW2NIXVtjSF1uMVtDSDJdW0NAQEhdKFtDSDNdKVtOSF1bQ0gyXVtDSDJdTjJbQ0gyXVtDSDJdW0NIMl1DMj1P

> <s_epik_cmdline>
J2VwaWtfcHl0aG9uJywgJy1waCcsICc3LjAnLCAnLXRuJywgJzgnLCAnLW1hJywgJzIwMCcsICctbWV0YWxfYmluZGluZycsICctaW1hZScsICc8aW5maWxlLm1hZT4nLCAnLW9tYWUnLCAnPG91dGZpbGUubWFlPic=

> <r_lp_tautomer_probability>
1

> <r_epik_Ionization_Penalty>
2.53587

> <r_epik_Ionization_Penalty_Charging>
0

> <r_epik_Ionization_Penalty_Neutral>
2.53587

> <r_epik_State_Penalty>
2.70334

> <r_epik_Charging_Adjusted_Penalty>
2.70334

> <i_epik_Tot_Q>
0

> <i_epik_Tot_abs_Q>
0

> <r_epik_Metal_State_Penalty>
2.7033

> <b_epik_Metal_Only>
0

> <s_lp_Force_Field>
OPLS_2005

> <r_lp_Energy>
23.3858

> <b_lp_Chiralities_Consistent>
1

> <s_lp_Variant>
AV-unprocessed.smi:3140-3

> <Gold.Version>
5.8.1

> <Gold.Id.Protein>
6NUR|6NUR_protein|mol2

> <Gold.PLP.Fitness>
46.5317

> <Gold.PLP.PLP>
-44.0080

> <Gold.PLP.part.hbond>
-1.0000

> <Gold.PLP.part.metal>
0.0000

> <Gold.PLP.part.buried>
-4.2362

> <Gold.PLP.part.nonpolar>
-38.0765

> <Gold.PLP.part.repulsive>
0.6555

> <Gold.PLP.ligand.clash>
0.0000

> <Gold.PLP.ligand.torsion>
1.7717

> <Gold.PLP.Chemscore.Hbond>
1.0000

> <Gold.PLP.Chemscore.CHOScore>
1.0000

> <Gold.PLP.Chemscore.Metal>
0.0000

> <Gold.Chemscore.Hbonds>
donor molecule, donor type, donor heavy atom, donor atom, acceptor molecule, acceptor atom, score
      L1  H     9    27       P1  8028  0.98
      L1  C     5    24       P1  8028  1.00

> <Gold.PLP.Chemscore.Internal.Correction>
0.0672

> <Gold.Rescore>
     Score         DG    S(hbond)    S(metal)    S(lipo)     H(rot)  DE(clash)    DE(int)     intcor
     12.65     -14.84       0.93        0.00      96.51       1.97       0.40       1.79       ----

> <Gold.Chemscore.Fitness>
12.6512

> <Gold.Chemscore.DG>
-14.8389

> <Gold.Chemscore.ZeroCoef>
-5.4800

> <Gold.Chemscore.Hbond>
0.9331

> <Gold.Chemscore.Metal>
0.0000

> <Gold.Chemscore.Lipo>
96.5062

> <Gold.Chemscore.Internal_Hbond>
0.0000

> <Gold.Chemscore.DEClash>
0.4020

> <Gold.Chemscore.DEInternal>
1.7857

> <Gold.Chemscore.Rot>
1.9722

> <Gold.Chemscore.Internal.Correction>
   9.000000E+99

> <Gold.Chemscore.Hbonds>
donor molecule, donor type, donor heavy atom, donor atom, acceptor molecule, acceptor atom, score
      L1  H     9    27       P1  8028  0.54

> <Gold.Chemscore.Hbond.Weighted>
-3.1164

> <Gold.Chemscore.Metal.Weighted>
-0.0000

> <Gold.Chemscore.Lipo.Weighted>
-11.2912

> <Gold.Chemscore.Internal_Hbond.Weighted>
0.0000

> <Gold.Chemscore.DEClash.Weighted>
0.4020

> <Gold.Chemscore.DEInternal.Weighted>
1.7857

> <Gold.Chemscore.Rot.Weighted>
5.0487

> <Gold.Chemscore.Internal.Correction.Weighted>
   9.000000E+99

> <Gold.Protein.RotatedTorsions>
[ 6907 6896 6895 6894 ] final  -36.41 input  -60.11 | X-H torsion
[ 7974 7965 7964 7962 ] final  102.65 input  175.53 | X-H torsion
[ 8008 7997 7996 7995 ] final    3.71 input   59.86 | X-H torsion
[ 10167 10162 10161 10158 ] final  -97.07 input  -65.29 | X-H torsion
[ 10718 10713 10712 10709 ] final  -48.51 input   66.30 | X-H torsion
[ 10763 10752 10751 10750 ] final  -11.38 input  -60.55 | X-H torsion
[ 11005 11000 10999 10996 ] final  -49.53 input  -57.11 | X-H torsion

> <Gold.Protein.ActiveResidues>
 VAL166  LYS551  ARG553  GLY616  TRP617  ASP618  TYR619  PRO620  LYS621  CYS622 
 ASP623  PHE694  ASN695  SER759  ASP760  ASP761  ALA762  ILE779  LEU786  VAL792 
 PHE793  MET794  SER795  GLU796  ALA797  LYS798  CYS799  TRP800  GLU811  SER814 

> <Gold.Protein.RotatedAtoms>
  151.0275  134.9515  159.8092 H   0  0  0  0  0  0  0  0  0  0  0  0  # atno 6907 bound_to 6896
  152.5338  134.2823  159.9022 H   0  0  0  0  0  0  0  0  0  0  0  0  # atno 6908 bound_to 6896
  151.2831  133.4158  159.2662 H   0  0  0  0  0  0  0  0  0  0  0  0  # atno 6909 bound_to 6896
  145.3563  139.2428  143.3531 H   0  0  0  0  0  0  0  0  0  0  0  0  # atno 7974 bound_to 7965
  154.7069  140.2684  155.6666 H   0  0  0  0  0  0  0  0  0  0  0  0  # atno 8008 bound_to 7997
  156.2783  140.2761  156.1622 H   0  0  0  0  0  0  0  0  0  0  0  0  # atno 8009 bound_to 7997
  155.0687  140.0372  157.2591 H   0  0  0  0  0  0  0  0  0  0  0  0  # atno 8010 bound_to 7997
  140.2872  143.3244  152.0382 H   0  0  0  0  0  0  0  0  0  0  0  0  # atno 10167 bound_to 10162
  156.1981  130.4155  149.9278 H   0  0  0  0  0  0  0  0  0  0  0  0  # atno 10718 bound_to 10713
  153.4829  135.7017  153.5927 H   0  0  0  0  0  0  0  0  0  0  0  0  # atno 10763 bound_to 10752
  153.4133  135.3843  155.2064 H   0  0  0  0  0  0  0  0  0  0  0  0  # atno 10764 bound_to 10752
  154.8721  135.3910  154.4281 H   0  0  0  0  0  0  0  0  0  0  0  0  # atno 10765 bound_to 10752
  141.0764  133.6664  156.3599 H   0  0  0  0  0  0  0  0  0  0  0  0  # atno 11005 bound_to 11000
  146.2946  140.4188  142.8726 LP  0  0  0  0  0  0  0  0  0  0  0  0  # atno 17320 bound_to 7965
  144.8680  140.7233  143.6065 LP  0  0  0  0  0  0  0  0  0  0  0  0  # atno 17321 bound_to 7965
  139.4947  144.6550  151.6592 LP  0  0  0  0  0  0  0  0  0  0  0  0  # atno 17342 bound_to 10162
  140.5762  144.0024  150.6243 LP  0  0  0  0  0  0  0  0  0  0  0  0  # atno 17343 bound_to 10162
  156.6996  130.8928  151.3598 LP  0  0  0  0  0  0  0  0  0  0  0  0  # atno 17370 bound_to 10713
  157.6970  130.9292  150.0672 LP  0  0  0  0  0  0  0  0  0  0  0  0  # atno 17371 bound_to 10713
  140.5563  134.5978  157.5422 LP  0  0  0  0  0  0  0  0  0  0  0  0  # atno 17394 bound_to 11000
  139.9577  134.7507  156.0306 LP  0  0  0  0  0  0  0  0  0  0  0  0  # atno 17395 bound_to 11000

$$$$
