AV-unprocessed.smi:3253|AV-procd|sdf|12447|dock7
  -GOLD-   2272018343D 1   1.00000     0.00000
 Structure written by MMmdl.
 37 38  0  0  0  0  0  0  0  0  2 V2000
  146.8067  128.7744  153.1068 C   0  0  0  0  0  0  0  0  0  0  0  0
  146.2585  130.1270  152.6240 C   0  0  2  0  0  0  0  0  0  0  0  0
  145.7134  130.0768  151.1793 C   0  0  0  0  0  0  0  0  0  0  0  0
  145.2815  131.3881  150.6878 N   0  0  0  0  0  0  0  0  0  0  0  0
  144.1585  132.0881  151.0482 C   0  0  0  0  0  0  0  0  0  0  0  0
  144.1783  133.2550  150.3283 C   0  0  0  0  0  0  0  0  0  0  0  0
  145.3084  133.2154  149.5557 N   0  3  0  0  0  0  0  0  0  0  0  0
  145.9764  132.0780  149.7739 C   0  0  0  0  0  0  0  0  0  0  0  0
  147.3060  131.1374  152.7378 N   0  0  0  0  0  0  0  0  0  0  0  0
  147.2833  132.1841  153.5780 C   0  0  0  0  0  0  0  0  0  0  0  0
  146.3460  132.4131  154.3437 O   0  0  0  0  0  0  0  0  0  0  0  0
  148.5057  133.1150  153.5491 C   0  0  1  0  0  0  0  0  0  0  0  0
  148.2716  134.3781  154.4029 C   0  0  0  0  0  0  0  0  0  0  0  0
  149.2449  134.2269  155.5599 C   0  0  0  0  0  0  0  0  0  0  0  0
  149.2797  135.0071  156.5103 O   0  0  0  0  0  0  0  0  0  0  0  0
  150.0201  133.1515  155.3949 N   0  0  0  0  0  0  0  0  0  0  0  0
  151.0550  132.6993  156.3148 C   0  0  0  0  0  0  0  0  0  0  0  0
  149.7668  132.4522  154.1469 C   0  0  0  0  0  0  0  0  0  0  0  0
  146.0284  128.0114  153.1274 H   0  0  0  0  0  0  0  0  0  0  0  0
  147.2075  128.8525  154.1181 H   0  0  0  0  0  0  0  0  0  0  0  0
  147.6071  128.4166  152.4582 H   0  0  0  0  0  0  0  0  0  0  0  0
  145.4440  130.4060  153.2956 H   0  0  0  0  0  0  0  0  0  0  0  0
  146.4698  129.7016  150.4880 H   0  0  0  0  0  0  0  0  0  0  0  0
  144.8624  129.3971  151.1136 H   0  0  0  0  0  0  0  0  0  0  0  0
  143.4491  131.7157  151.7732 H   0  0  0  0  0  0  0  0  0  0  0  0
  143.4905  134.0878  150.3073 H   0  0  0  0  0  0  0  0  0  0  0  0
  146.8972  131.7767  149.3063 H   0  0  0  0  0  0  0  0  0  0  0  0
  148.1146  131.0263  152.1428 H   0  0  0  0  0  0  0  0  0  0  0  0
  148.7068  133.4040  152.5159 H   0  0  0  0  0  0  0  0  0  0  0  0
  148.5119  135.2819  153.8420 H   0  0  0  0  0  0  0  0  0  0  0  0
  147.2499  134.4742  154.7747 H   0  0  0  0  0  0  0  0  0  0  0  0
  151.8192  133.4674  156.4394 H   0  0  0  0  0  0  0  0  0  0  0  0
  151.5407  131.7952  155.9462 H   0  0  0  0  0  0  0  0  0  0  0  0
  150.6262  132.4783  157.2929 H   0  0  0  0  0  0  0  0  0  0  0  0
  149.6447  131.3824  154.3264 H   0  0  0  0  0  0  0  0  0  0  0  0
  150.6228  132.5780  153.4826 H   0  0  0  0  0  0  0  0  0  0  0  0
  145.5977  133.9396  148.9100 H   0  0  0  0  0  0  0  0  0  0  0  0
  1  2  1  0  0  0  0
  1 19  1  0  0  0  0
  1 20  1  0  0  0  0
  1 21  1  0  0  0  0
  2  3  1  0  0  0  0
  2  9  1  0  0  0  0
  2 22  1  0  0  0  0
  3  4  1  0  0  0  0
  3 23  1  0  0  0  0
  3 24  1  0  0  0  0
  4  8  1  0  0  0  0
  4  5  1  0  0  0  0
  5  6  2  0  0  0  0
  5 25  1  0  0  0  0
  6  7  1  0  0  0  0
  6 26  1  0  0  0  0
  7  8  2  0  0  0  0
  7 37  1  0  0  0  0
  8 27  1  0  0  0  0
  9 10  1  0  0  0  0
  9 28  1  0  0  0  0
 10 11  2  0  0  0  0
 10 12  1  0  0  0  0
 12 18  1  0  0  0  0
 12 13  1  0  0  0  0
 12 29  1  0  0  0  0
 13 14  1  0  0  0  0
 13 30  1  0  0  0  0
 13 31  1  0  0  0  0
 14 15  2  0  0  0  0
 14 16  1  0  0  0  0
 16 17  1  0  0  0  0
 16 18  1  0  0  0  0
 17 32  1  0  0  0  0
 17 33  1  0  0  0  0
 17 34  1  0  0  0  0
 18 35  1  0  0  0  0
 18 36  1  0  0  0  0
M  CHG  1   7   1
M  END
> <s_m_source_file>
AV-unprocessed.smi

> <i_m_source_file_index>
3253

> <i_lp_mmshare_version>
43012

> <i_f3d_flags>
0

> <s_epik_input>
W2NIXTFuW2NIXVtjSF1uMVtDSDJdW0NAQEhdKFtDSDNdKVtOSF1DKD1PKVtDQEBIXTJbQ0gyXUMoPU8pTihbQ0gzXSlbQ0gyXTI=

> <s_epik_cmdline>
J2VwaWtfcHl0aG9uJywgJy1waCcsICc3LjAnLCAnLXRuJywgJzgnLCAnLW1hJywgJzIwMCcsICctbWV0YWxfYmluZGluZycsICctaW1hZScsICc8aW5maWxlLm1hZT4nLCAnLW9tYWUnLCAnPG91dGZpbGUubWFlPic=

> <r_lp_tautomer_probability>
1

> <r_epik_Ionization_Penalty>
0.251561

> <r_epik_Ionization_Penalty_Charging>
0

> <r_epik_Ionization_Penalty_Neutral>
0.251561

> <r_epik_State_Penalty>
0.242926

> <r_epik_Charging_Adjusted_Penalty>
0.242926

> <i_epik_Tot_Q>
1

> <i_epik_Tot_abs_Q>
1

> <r_epik_Metal_State_Penalty>
0.533885

> <b_epik_Metal_Only>
0

> <s_lp_Force_Field>
OPLS_2005

> <r_lp_Energy>
14.6529

> <b_lp_Chiralities_Consistent>
1

> <s_lp_Variant>
AV-unprocessed.smi:3253-3

> <Gold.Version>
5.8.1

> <Gold.Id.Protein>
6NUR|6NUR_protein|mol2

> <Gold.PLP.Fitness>
41.4995

> <Gold.PLP.PLP>
-33.1771

> <Gold.PLP.part.hbond>
-2.0000

> <Gold.PLP.part.metal>
0.0000

> <Gold.PLP.part.buried>
-4.5543

> <Gold.PLP.part.nonpolar>
-25.4425

> <Gold.PLP.part.repulsive>
0.2619

> <Gold.PLP.ligand.clash>
0.0000

> <Gold.PLP.ligand.torsion>
0.3548

> <Gold.PLP.Chemscore.Hbond>
2.0000

> <Gold.PLP.Chemscore.CHOScore>
1.0000

> <Gold.PLP.Chemscore.Metal>
0.0000

> <Gold.Chemscore.Hbonds>
donor molecule, donor type, donor heavy atom, donor atom, acceptor molecule, acceptor atom, score
      L1  H     7    37       P1  7921  1.00
      L1  H     9    28       P1 10747  0.94
      L1  C     8    27       P1 10747  1.00

> <Gold.PLP.Chemscore.Internal.Correction>
0.0319

> <Gold.Rescore>
     Score         DG    S(hbond)    S(metal)    S(lipo)     H(rot)  DE(clash)    DE(int)     intcor
     13.55     -13.97       1.91        0.00      62.63       2.03       0.23       0.18       ----

> <Gold.Chemscore.Fitness>
13.5523

> <Gold.Chemscore.DG>
-13.9676

> <Gold.Chemscore.ZeroCoef>
-5.4800

> <Gold.Chemscore.Hbond>
1.9065

> <Gold.Chemscore.Metal>
0.0000

> <Gold.Chemscore.Lipo>
62.6255

> <Gold.Chemscore.Internal_Hbond>
0.0000

> <Gold.Chemscore.DEClash>
0.2324

> <Gold.Chemscore.DEInternal>
0.1829

> <Gold.Chemscore.Rot>
2.0341

> <Gold.Chemscore.Internal.Correction>
   9.000000E+99

> <Gold.Chemscore.Hbonds>
donor molecule, donor type, donor heavy atom, donor atom, acceptor molecule, acceptor atom, score
      L1  H     7    37       P1  7921  0.55
      L1  H     9    28       P1 10747  0.87

> <Gold.Chemscore.Hbond.Weighted>
-6.3676

> <Gold.Chemscore.Metal.Weighted>
-0.0000

> <Gold.Chemscore.Lipo.Weighted>
-7.3272

> <Gold.Chemscore.Internal_Hbond.Weighted>
0.0000

> <Gold.Chemscore.DEClash.Weighted>
0.2324

> <Gold.Chemscore.DEInternal.Weighted>
0.1829

> <Gold.Chemscore.Rot.Weighted>
5.2072

> <Gold.Chemscore.Internal.Correction.Weighted>
   9.000000E+99

> <Gold.Protein.RotatedTorsions>
[ 6907 6896 6895 6894 ] final   41.24 input  -60.11 | X-H torsion
[ 7974 7965 7964 7962 ] final  -56.79 input  175.53 | X-H torsion
[ 8008 7997 7996 7995 ] final   83.83 input   59.86 | X-H torsion
[ 10167 10162 10161 10158 ] final  104.10 input  -65.29 | X-H torsion
[ 10718 10713 10712 10709 ] final  -57.75 input   66.30 | X-H torsion
[ 10763 10752 10751 10750 ] final    9.67 input  -60.55 | X-H torsion
[ 11005 11000 10999 10996 ] final  -10.37 input  -57.11 | X-H torsion

> <Gold.Protein.ActiveResidues>
 VAL166  LYS551  ARG553  GLY616  TRP617  ASP618  TYR619  PRO620  LYS621  CYS622 
 ASP623  PHE694  ASN695  SER759  ASP760  ASP761  ALA762  ILE779  LEU786  VAL792 
 PHE793  MET794  SER795  GLU796  ALA797  LYS798  CYS799  TRP800  GLU811  SER814 

> <Gold.Protein.RotatedAtoms>
  152.1928  134.8657  160.0515 H   0  0  0  0  0  0  0  0  0  0  0  0  # atno 6907 bound_to 6896
  151.9540  133.3669  159.4018 H   0  0  0  0  0  0  0  0  0  0  0  0  # atno 6908 bound_to 6896
  150.6938  134.4235  159.5259 H   0  0  0  0  0  0  0  0  0  0  0  0  # atno 6909 bound_to 6896
  145.8586  140.8301  142.9948 H   0  0  0  0  0  0  0  0  0  0  0  0  # atno 7974 bound_to 7965
  155.9291  140.3416  155.6234 H   0  0  0  0  0  0  0  0  0  0  0  0  # atno 8008 bound_to 7997
  155.7180  140.0780  157.2361 H   0  0  0  0  0  0  0  0  0  0  0  0  # atno 8009 bound_to 7997
  154.4082  140.1610  156.2357 H   0  0  0  0  0  0  0  0  0  0  0  0  # atno 8010 bound_to 7997
  139.7206  144.7059  151.0878 H   0  0  0  0  0  0  0  0  0  0  0  0  # atno 10167 bound_to 10162
  156.1187  130.4168  150.0484 H   0  0  0  0  0  0  0  0  0  0  0  0  # atno 10718 bound_to 10713
  153.2115  135.6869  153.8108 H   0  0  0  0  0  0  0  0  0  0  0  0  # atno 10763 bound_to 10752
  153.7340  135.3248  155.3292 H   0  0  0  0  0  0  0  0  0  0  0  0  # atno 10764 bound_to 10752
  154.8224  135.4642  154.0924 H   0  0  0  0  0  0  0  0  0  0  0  0  # atno 10765 bound_to 10752
  140.7440  133.8646  155.8991 H   0  0  0  0  0  0  0  0  0  0  0  0  # atno 11005 bound_to 11000
  144.6727  140.1061  143.7458 LP  0  0  0  0  0  0  0  0  0  0  0  0  # atno 17320 bound_to 7965
  145.9274  139.2584  143.1345 LP  0  0  0  0  0  0  0  0  0  0  0  0  # atno 17321 bound_to 7965
  140.7753  143.5171  150.9581 LP  0  0  0  0  0  0  0  0  0  0  0  0  # atno 17342 bound_to 10162
  139.8858  143.7015  152.3151 LP  0  0  0  0  0  0  0  0  0  0  0  0  # atno 17343 bound_to 10162
  156.8428  130.9431  151.3631 LP  0  0  0  0  0  0  0  0  0  0  0  0  # atno 17370 bound_to 10713
  157.6370  130.8775  149.9377 LP  0  0  0  0  0  0  0  0  0  0  0  0  # atno 17371 bound_to 10713
  140.9811  134.1405  157.4494 LP  0  0  0  0  0  0  0  0  0  0  0  0  # atno 17394 bound_to 11000
  139.8800  135.0010  156.6045 LP  0  0  0  0  0  0  0  0  0  0  0  0  # atno 17395 bound_to 11000

$$$$
