AV-unprocessed.smi:2928|AV-procd|sdf|11231|dock8
  -GOLD-   2272016123D 1   1.00000     0.00000
 Structure written by MMmdl.
 55 58  0  0  0  0  0  0  0  0  2 V2000
  147.0308  136.3450  154.5610 C   0  0  0  0  0  0  0  0  0  0  0  0
  148.1907  137.2643  154.6432 N   0  3  2  0  0  0  0  0  0  0  0  0
  149.2428  136.8551  155.6040 C   0  0  2  0  0  0  0  0  0  0  0  0
  148.7582  136.9991  157.0695 C   0  0  0  0  0  0  0  0  0  0  0  0
  148.1486  138.3729  157.4065 C   0  0  0  0  0  0  0  0  0  0  0  0
  147.2737  138.9340  156.2708 C   0  0  0  0  0  0  0  0  0  0  0  0
  147.8407  138.6898  154.8497 C   0  0  1  0  0  0  0  0  0  0  0  0
  149.0525  139.5690  154.4625 C   0  0  0  0  0  0  0  0  0  0  0  0
  150.4207  139.1315  155.0551 C   0  0  1  0  0  0  0  0  0  0  0  0
  150.7810  139.8650  156.2645 N   0  0  0  0  0  0  0  0  0  0  0  0
  151.7891  139.5700  157.0966 C   0  0  0  0  0  0  0  0  0  0  0  0
  152.5288  138.5964  156.9558 O   0  0  0  0  0  0  0  0  0  0  0  0
  151.8877  140.4901  158.0686 N   0  0  0  0  0  0  0  0  0  0  0  0
  152.8903  140.6093  159.0699 C   0  0  0  0  0  0  0  0  0  0  0  0
  153.7397  139.5381  159.4373 C   0  0  0  0  0  0  0  0  0  0  0  0
  154.6895  139.7378  160.4557 C   0  0  0  0  0  0  0  0  0  0  0  0
  154.7516  140.9990  161.0753 C   0  0  0  0  0  0  0  0  0  0  0  0
  153.9394  142.0245  160.7468 N   0  0  0  0  0  0  0  0  0  0  0  0
  153.0213  141.8369  159.7678 C   0  0  0  0  0  0  0  0  0  0  0  0
  152.1849  142.9183  159.4376 N   0  0  0  0  0  0  0  0  0  0  0  0
  152.2402  144.0560  160.3396 C   0  0  0  0  0  0  0  0  0  0  0  0
  151.5531  145.2001  159.5896 C   0  0  0  0  0  0  0  0  0  0  0  0
  151.6325  144.8058  158.1092 C   0  0  0  0  0  0  0  0  0  0  0  0
  152.3576  143.4576  158.0994 C   0  0  0  0  0  0  0  0  0  0  0  0
  150.5543  137.6016  155.2628 C   0  0  0  0  0  0  0  0  0  0  0  0
  146.4735  136.2960  155.4958 H   0  0  0  0  0  0  0  0  0  0  0  0
  147.3622  135.3366  154.3126 H   0  0  0  0  0  0  0  0  0  0  0  0
  146.3455  136.6677  153.7768 H   0  0  0  0  0  0  0  0  0  0  0  0
  149.4466  135.7957  155.4409 H   0  0  0  0  0  0  0  0  0  0  0  0
  148.0041  136.2356  157.2627 H   0  0  0  0  0  0  0  0  0  0  0  0
  149.5734  136.7780  157.7592 H   0  0  0  0  0  0  0  0  0  0  0  0
  147.5511  138.2902  158.3149 H   0  0  0  0  0  0  0  0  0  0  0  0
  148.9275  139.0811  157.6674 H   0  0  0  0  0  0  0  0  0  0  0  0
  146.2890  138.4709  156.3374 H   0  0  0  0  0  0  0  0  0  0  0  0
  147.1020  139.9992  156.4292 H   0  0  0  0  0  0  0  0  0  0  0  0
  147.0467  138.9410  154.1447 H   0  0  0  0  0  0  0  0  0  0  0  0
  149.1465  139.5176  153.3767 H   0  0  0  0  0  0  0  0  0  0  0  0
  148.8414  140.6178  154.6742 H   0  0  0  0  0  0  0  0  0  0  0  0
  151.1866  139.4071  154.3272 H   0  0  0  0  0  0  0  0  0  0  0  0
  150.2318  140.6862  156.4728 H   0  0  0  0  0  0  0  0  0  0  0  0
  151.2523  141.2722  158.0052 H   0  0  0  0  0  0  0  0  0  0  0  0
  153.6690  138.5686  158.9684 H   0  0  0  0  0  0  0  0  0  0  0  0
  155.3522  138.9404  160.7578 H   0  0  0  0  0  0  0  0  0  0  0  0
  155.4684  141.1879  161.8607 H   0  0  0  0  0  0  0  0  0  0  0  0
  151.7386  143.8349  161.2822 H   0  0  0  0  0  0  0  0  0  0  0  0
  153.2753  144.3199  160.5611 H   0  0  0  0  0  0  0  0  0  0  0  0
  150.5094  145.2812  159.8959 H   0  0  0  0  0  0  0  0  0  0  0  0
  152.0339  146.1577  159.7913 H   0  0  0  0  0  0  0  0  0  0  0  0
  150.6276  144.6988  157.6991 H   0  0  0  0  0  0  0  0  0  0  0  0
  152.1591  145.5482  157.5091 H   0  0  0  0  0  0  0  0  0  0  0  0
  153.4161  143.6032  157.8786 H   0  0  0  0  0  0  0  0  0  0  0  0
  151.9452  142.7843  157.3474 H   0  0  0  0  0  0  0  0  0  0  0  0
  151.3279  137.3736  155.9976 H   0  0  0  0  0  0  0  0  0  0  0  0
  150.9237  137.1823  154.3256 H   0  0  0  0  0  0  0  0  0  0  0  0
  148.6197  137.2170  153.7300 H   0  0  0  0  0  0  0  0  0  0  0  0
  1  2  1  0  0  0  0
  1 26  1  0  0  0  0
  1 27  1  0  0  0  0
  1 28  1  0  0  0  0
  2  7  1  0  0  0  0
  2  3  1  0  0  0  0
  2 55  1  0  0  0  0
  3 25  1  0  0  0  0
  3  4  1  0  0  0  0
  3 29  1  0  0  0  0
  4  5  1  0  0  0  0
  4 30  1  0  0  0  0
  4 31  1  0  0  0  0
  5  6  1  0  0  0  0
  5 32  1  0  0  0  0
  5 33  1  0  0  0  0
  6  7  1  0  0  0  0
  6 34  1  0  0  0  0
  6 35  1  0  0  0  0
  7  8  1  0  0  0  0
  7 36  1  0  0  0  0
  8  9  1  0  0  0  0
  8 37  1  0  0  0  0
  8 38  1  0  0  0  0
  9 10  1  0  0  0  0
  9 25  1  0  0  0  0
  9 39  1  0  0  0  0
 10 11  1  0  0  0  0
 10 40  1  0  0  0  0
 11 12  2  0  0  0  0
 11 13  1  0  0  0  0
 13 14  1  0  0  0  0
 13 41  1  0  0  0  0
 14 19  1  0  0  0  0
 14 15  2  0  0  0  0
 15 16  1  0  0  0  0
 15 42  1  0  0  0  0
 16 17  2  0  0  0  0
 16 43  1  0  0  0  0
 17 18  1  0  0  0  0
 17 44  1  0  0  0  0
 18 19  2  0  0  0  0
 19 20  1  0  0  0  0
 20 24  1  0  0  0  0
 20 21  1  0  0  0  0
 21 22  1  0  0  0  0
 21 45  1  0  0  0  0
 21 46  1  0  0  0  0
 22 23  1  0  0  0  0
 22 47  1  0  0  0  0
 22 48  1  0  0  0  0
 23 24  1  0  0  0  0
 23 49  1  0  0  0  0
 23 50  1  0  0  0  0
 24 51  1  0  0  0  0
 24 52  1  0  0  0  0
 25 53  1  0  0  0  0
 25 54  1  0  0  0  0
M  CHG  1   2   1
M  END
> <s_m_source_file>
AV-unprocessed.smi

> <i_m_source_file_index>
2928

> <i_lp_mmshare_version>
43012

> <i_f3d_flags>
0

> <s_epik_input>
W0NIMl0xW0NIMl1bQ0gyXVtDQEhdKE4oW0NIM10pW0NIXTEyKVtDSDJdW0NASF0oW0NIMl0yKVtOSF1DKD1PKVtOSF1jM1tjSF1bY0hdW2NIXW5jM040W0NIMl1bQ0gyXVtDSDJdW0NIMl00

> <s_epik_cmdline>
J2VwaWtfcHl0aG9uJywgJy1waCcsICc3LjAnLCAnLXRuJywgJzgnLCAnLW1hJywgJzIwMCcsICctbWV0YWxfYmluZGluZycsICctaW1hZScsICc8aW5maWxlLm1hZT4nLCAnLW9tYWUnLCAnPG91dGZpbGUubWFlPic=

> <r_lp_tautomer_probability>
1

> <r_epik_Ionization_Penalty>
0.07954

> <r_epik_Ionization_Penalty_Charging>
0.00089841

> <r_epik_Ionization_Penalty_Neutral>
0.0786416

> <r_epik_State_Penalty>
0.0689917

> <r_epik_Charging_Adjusted_Penalty>
0.0698901

> <i_epik_Tot_Q>
1

> <i_epik_Tot_abs_Q>
1

> <r_epik_Metal_State_Penalty>
0.0608947

> <b_epik_Metal_Only>
0

> <s_lp_Force_Field>
OPLS_2005

> <r_lp_Energy>
66.344

> <b_lp_Chiralities_Consistent>
1

> <s_lp_Variant>
AV-unprocessed.smi:2928-1

> <Gold.Version>
5.8.1

> <Gold.Id.Protein>
6NUR|6NUR_protein|mol2

> <Gold.PLP.Fitness>
42.7163

> <Gold.PLP.PLP>
-37.9470

> <Gold.PLP.part.hbond>
-1.0000

> <Gold.PLP.part.metal>
0.0000

> <Gold.PLP.part.buried>
-6.0441

> <Gold.PLP.part.nonpolar>
-31.6976

> <Gold.PLP.part.repulsive>
0.1658

> <Gold.PLP.ligand.clash>
0.0000

> <Gold.PLP.ligand.torsion>
0.3878

> <Gold.PLP.Chemscore.Hbond>
1.8240

> <Gold.PLP.Chemscore.CHOScore>
0.0000

> <Gold.PLP.Chemscore.Metal>
0.0000

> <Gold.Chemscore.Hbonds>
donor molecule, donor type, donor heavy atom, donor atom, acceptor molecule, acceptor atom, score
      L1  H     2    55       P1  7948  1.50

> <Gold.PLP.Chemscore.Internal.Correction>
0.0729

> <Gold.Rescore>
     Score         DG    S(hbond)    S(metal)    S(lipo)     H(rot)  DE(clash)    DE(int)     intcor
     13.83     -18.05       0.95        0.00     106.07       1.18       0.09       4.13       ----

> <Gold.Chemscore.Fitness>
13.8271

> <Gold.Chemscore.DG>
-18.0457

> <Gold.Chemscore.ZeroCoef>
-5.4800

> <Gold.Chemscore.Hbond>
0.9492

> <Gold.Chemscore.Metal>
0.0000

> <Gold.Chemscore.Lipo>
106.0699

> <Gold.Chemscore.Internal_Hbond>
0.0000

> <Gold.Chemscore.DEClash>
0.0931

> <Gold.Chemscore.DEInternal>
4.1256

> <Gold.Chemscore.Rot>
1.1776

> <Gold.Chemscore.Internal.Correction>
   9.000000E+99

> <Gold.Chemscore.Hbonds>
donor molecule, donor type, donor heavy atom, donor atom, acceptor molecule, acceptor atom, score
      L1  H     2    55       P1  7948  0.72

> <Gold.Chemscore.Hbond.Weighted>
-3.1703

> <Gold.Chemscore.Metal.Weighted>
-0.0000

> <Gold.Chemscore.Lipo.Weighted>
-12.4102

> <Gold.Chemscore.Internal_Hbond.Weighted>
0.0000

> <Gold.Chemscore.DEClash.Weighted>
0.0931

> <Gold.Chemscore.DEInternal.Weighted>
4.1256

> <Gold.Chemscore.Rot.Weighted>
3.0147

> <Gold.Chemscore.Internal.Correction.Weighted>
   9.000000E+99

> <Gold.Protein.RotatedTorsions>
[ 6907 6896 6895 6894 ] final   91.30 input  -60.11 | X-H torsion
[ 7974 7965 7964 7962 ] final  -78.96 input  175.53 | X-H torsion
[ 8008 7997 7996 7995 ] final    5.82 input   59.86 | X-H torsion
[ 10167 10162 10161 10158 ] final  -15.82 input  -65.29 | X-H torsion
[ 10718 10713 10712 10709 ] final   30.96 input   66.30 | X-H torsion
[ 10763 10752 10751 10750 ] final   30.02 input  -60.55 | X-H torsion
[ 11005 11000 10999 10996 ] final   70.37 input  -57.11 | X-H torsion

> <Gold.Protein.ActiveResidues>
 VAL166  LYS551  ARG553  GLY616  TRP617  ASP618  TYR619  PRO620  LYS621  CYS622 
 ASP623  PHE694  ASN695  SER759  ASP760  ASP761  ALA762  ILE779  LEU786  VAL792 
 PHE793  MET794  SER795  GLU796  ALA797  LYS798  CYS799  TRP800  GLU811  SER814 

> <Gold.Protein.RotatedAtoms>
  152.5449  134.1678  159.8583 H   0  0  0  0  0  0  0  0  0  0  0  0  # atno 6907 bound_to 6896
  151.1691  133.4789  159.2601 H   0  0  0  0  0  0  0  0  0  0  0  0  # atno 6908 bound_to 6896
  151.1294  135.0133  159.8630 H   0  0  0  0  0  0  0  0  0  0  0  0  # atno 6909 bound_to 6896
  145.5795  140.9451  143.1351 H   0  0  0  0  0  0  0  0  0  0  0  0  # atno 7974 bound_to 7965
  154.7332  140.2734  155.6438 H   0  0  0  0  0  0  0  0  0  0  0  0  # atno 8008 bound_to 7997
  156.2855  140.2711  156.1963 H   0  0  0  0  0  0  0  0  0  0  0  0  # atno 8009 bound_to 7997
  155.0355  140.0371  157.2480 H   0  0  0  0  0  0  0  0  0  0  0  0  # atno 8010 bound_to 7997
  140.7224  143.5179  150.9669 H   0  0  0  0  0  0  0  0  0  0  0  0  # atno 10167 bound_to 10162
  157.2664  130.7186  149.6481 H   0  0  0  0  0  0  0  0  0  0  0  0  # atno 10718 bound_to 10713
  153.0396  135.6474  154.0980 H   0  0  0  0  0  0  0  0  0  0  0  0  # atno 10763 bound_to 10752
  154.0689  135.2882  155.3313 H   0  0  0  0  0  0  0  0  0  0  0  0  # atno 10764 bound_to 10752
  154.6608  135.5392  153.8080 H   0  0  0  0  0  0  0  0  0  0  0  0  # atno 10765 bound_to 10752
  139.9601  134.7075  156.0664 H   0  0  0  0  0  0  0  0  0  0  0  0  # atno 11005 bound_to 11000
  144.7400  139.7475  143.7314 LP  0  0  0  0  0  0  0  0  0  0  0  0  # atno 17320 bound_to 7965
  146.1726  139.4883  142.9917 LP  0  0  0  0  0  0  0  0  0  0  0  0  # atno 17321 bound_to 7965
  139.8895  143.6971  152.3147 LP  0  0  0  0  0  0  0  0  0  0  0  0  # atno 17342 bound_to 10162
  139.7282  144.7588  151.0845 LP  0  0  0  0  0  0  0  0  0  0  0  0  # atno 17343 bound_to 10162
  155.9663  130.4381  150.5204 LP  0  0  0  0  0  0  0  0  0  0  0  0  # atno 17370 bound_to 10713
  157.3120  131.0665  151.1994 LP  0  0  0  0  0  0  0  0  0  0  0  0  # atno 17371 bound_to 10713
  141.1277  133.6594  156.3382 LP  0  0  0  0  0  0  0  0  0  0  0  0  # atno 17394 bound_to 11000
  140.5519  134.6019  157.5410 LP  0  0  0  0  0  0  0  0  0  0  0  0  # atno 17395 bound_to 11000

$$$$
