AV-unprocessed.smi:845|AV-procd|sdf|3931|dock4
  -GOLD-   22720 1393D 1   1.00000     0.00000
 Structure written by MMmdl.
 42 43  0  0  0  0  0  0  0  0  3 V2000
  151.8996  139.6797  158.0959 C   0  0  0  0  0  0  0  0  0  0  0  0
  150.9976  140.3758  157.0618 C   0  0  0  0  0  0  0  0  0  0  0  0
  151.3188  141.8786  156.9849 C   0  0  0  0  0  0  0  0  0  0  0  0
  149.4940  140.0433  157.2890 C   0  0  2  0  0  0  0  0  0  0  0  0
  149.1633  138.5315  157.4095 C   0  0  0  0  0  0  0  0  0  0  0  0
  148.4372  138.2222  158.6386 N   0  0  0  0  0  0  0  0  0  0  0  0
  148.5913  137.1342  159.4071 C   0  0  0  0  0  0  0  0  0  0  0  0
  149.3966  136.2576  159.0856 O   0  0  0  0  0  0  0  0  0  0  0  0
  147.8062  137.1358  160.5074 N   0  5  0  0  0  0  0  0  0  0  0  0
  147.4873  135.9765  161.1053 C   0  0  0  0  0  0  0  0  0  0  0  0
  146.8542  135.9130  162.2825 N   0  0  0  0  0  0  0  0  0  0  0  0
  146.6186  134.6071  162.7161 C   0  0  0  0  0  0  0  0  0  0  0  0
  147.0757  133.6542  161.8448 C   0  0  0  0  0  0  0  0  0  0  0  0
  147.8196  134.3729  160.4450 S   0  0  0  0  0  0  0  0  0  0  0  0
  148.6290  140.7689  156.3065 N   0  3  0  0  0  0  0  0  0  0  0  0
  148.8750  140.4898  154.8669 C   0  0  0  0  0  0  0  0  0  0  0  0
  148.0338  141.4369  153.9970 C   0  0  0  0  0  0  0  0  0  0  0  0
  146.6572  141.2678  154.3132 O   0  0  0  0  0  0  0  0  0  0  0  0
  146.3771  141.5891  155.6704 C   0  0  0  0  0  0  0  0  0  0  0  0
  147.1798  140.6676  156.6053 C   0  0  0  0  0  0  0  0  0  0  0  0
  151.7255  140.0583  159.1032 H   0  0  0  0  0  0  0  0  0  0  0  0
  152.9532  139.8375  157.8628 H   0  0  0  0  0  0  0  0  0  0  0  0
  151.7276  138.6030  158.1092 H   0  0  0  0  0  0  0  0  0  0  0  0
  151.2834  139.9513  156.0994 H   0  0  0  0  0  0  0  0  0  0  0  0
  151.2001  142.3658  157.9524 H   0  0  0  0  0  0  0  0  0  0  0  0
  150.6826  142.3934  156.2661 H   0  0  0  0  0  0  0  0  0  0  0  0
  152.3508  142.0356  156.6701 H   0  0  0  0  0  0  0  0  0  0  0  0
  149.2697  140.4575  158.2735 H   0  0  0  0  0  0  0  0  0  0  0  0
  148.5220  138.2314  156.5803 H   0  0  0  0  0  0  0  0  0  0  0  0
  150.0612  137.9179  157.3327 H   0  0  0  0  0  0  0  0  0  0  0  0
  147.7608  138.9047  158.9485 H   0  0  0  0  0  0  0  0  0  0  0  0
  146.1173  134.4479  163.6593 H   0  0  0  0  0  0  0  0  0  0  0  0
  147.0200  132.5803  161.9390 H   0  0  0  0  0  0  0  0  0  0  0  0
  149.9290  140.6088  154.6215 H   0  0  0  0  0  0  0  0  0  0  0  0
  148.6058  139.4598  154.6296 H   0  0  0  0  0  0  0  0  0  0  0  0
  148.3328  142.4756  154.1473 H   0  0  0  0  0  0  0  0  0  0  0  0
  148.1841  141.2105  152.9414 H   0  0  0  0  0  0  0  0  0  0  0  0
  146.6135  142.6368  155.8622 H   0  0  0  0  0  0  0  0  0  0  0  0
  145.3087  141.4667  155.8491 H   0  0  0  0  0  0  0  0  0  0  0  0
  146.8529  139.6328  156.4911 H   0  0  0  0  0  0  0  0  0  0  0  0
  146.9883  140.9546  157.6401 H   0  0  0  0  0  0  0  0  0  0  0  0
  148.8548  141.7440  156.4413 H   0  0  0  0  0  0  0  0  0  0  0  0
  1  2  1  0  0  0  0
  1 21  1  0  0  0  0
  1 22  1  0  0  0  0
  1 23  1  0  0  0  0
  2  3  1  0  0  0  0
  2  4  1  0  0  0  0
  2 24  1  0  0  0  0
  3 25  1  0  0  0  0
  3 26  1  0  0  0  0
  3 27  1  0  0  0  0
  4  5  1  0  0  0  0
  4 15  1  0  0  0  0
  4 28  1  0  0  0  0
  5  6  1  0  0  0  0
  5 29  1  0  0  0  0
  5 30  1  0  0  0  0
  6  7  1  0  0  0  0
  6 31  1  0  0  0  0
  7  8  2  0  0  0  0
  7  9  1  0  0  0  0
  9 10  1  0  0  0  0
 10 14  1  0  0  0  0
 10 11  2  0  0  0  0
 11 12  1  0  0  0  0
 12 13  2  0  0  0  0
 12 32  1  0  0  0  0
 13 14  1  0  0  0  0
 13 33  1  0  0  0  0
 15 20  1  0  0  0  0
 15 16  1  0  0  0  0
 15 42  1  0  0  0  0
 16 17  1  0  0  0  0
 16 34  1  0  0  0  0
 16 35  1  0  0  0  0
 17 18  1  0  0  0  0
 17 36  1  0  0  0  0
 17 37  1  0  0  0  0
 18 19  1  0  0  0  0
 19 20  1  0  0  0  0
 19 38  1  0  0  0  0
 19 39  1  0  0  0  0
 20 40  1  0  0  0  0
 20 41  1  0  0  0  0
M  CHG  1   9  -1
M  CHG  1  15   1
M  END
> <s_m_source_file>
AV-unprocessed.smi

> <i_m_source_file_index>
845

> <i_lp_mmshare_version>
43012

> <i_f3d_flags>
0

> <s_epik_input>
W0NIMl0xW0NIMl1PW0NIMl1bQ0gyXU4xW0NASF0oW0NIXShbQ0gzXSlbQ0gzXSlbQ0gyXVtOSF1DKD1PKVtOSF1jMm5bY0hdW2NIXXMy

> <s_epik_cmdline>
J2VwaWtfcHl0aG9uJywgJy1waCcsICc3LjAnLCAnLXRuJywgJzgnLCAnLW1hJywgJzIwMCcsICctbWV0YWxfYmluZGluZycsICctaW1hZScsICc8aW5maWxlLm1hZT4nLCAnLW9tYWUnLCAnPG91dGZpbGUubWFlPic=

> <r_lp_tautomer_probability>
0.999

> <r_epik_Ionization_Penalty>
7.97104

> <r_epik_Ionization_Penalty_Charging>
6.58021

> <r_epik_Ionization_Penalty_Neutral>
1.39083

> <r_epik_State_Penalty>
6.69807

> <r_epik_Charging_Adjusted_Penalty>
13.2783

> <i_epik_Tot_Q>
0

> <i_epik_Tot_abs_Q>
2

> <r_epik_Metal_State_Penalty>
2.62985

> <b_epik_Metal_Only>
1

> <s_lp_Force_Field>
OPLS_2005

> <r_lp_Energy>
16.3382

> <b_lp_Chiralities_Consistent>
1

> <s_lp_Variant>
AV-unprocessed.smi:845-5

> <Gold.Version>
5.8.1

> <Gold.Id.Protein>
6NUR|6NUR_protein|mol2

> <Gold.PLP.Fitness>
40.6139

> <Gold.PLP.PLP>
-29.5184

> <Gold.PLP.part.hbond>
-2.9875

> <Gold.PLP.part.metal>
0.0000

> <Gold.PLP.part.buried>
-5.8154

> <Gold.PLP.part.nonpolar>
-22.5419

> <Gold.PLP.part.repulsive>
0.7442

> <Gold.PLP.ligand.clash>
0.0000

> <Gold.PLP.ligand.torsion>
1.0827

> <Gold.PLP.Chemscore.Hbond>
4.2000

> <Gold.PLP.Chemscore.CHOScore>
0.0000

> <Gold.PLP.Chemscore.Metal>
0.0000

> <Gold.Chemscore.Hbonds>
donor molecule, donor type, donor heavy atom, donor atom, acceptor molecule, acceptor atom, score
      P1  H  6896  6909       L1     8  0.84
      P1  H  6931  6943       L1     9  1.04
      P1  H  6934  6947       L1     9  1.73

> <Gold.PLP.Chemscore.Internal.Correction>
0.6610

> <Gold.Rescore>
     Score         DG    S(hbond)    S(metal)    S(lipo)     H(rot)  DE(clash)    DE(int)     intcor
     11.11     -14.09       1.68        0.00      64.24       1.76       0.54       2.44       ----

> <Gold.Chemscore.Fitness>
11.1093

> <Gold.Chemscore.DG>
-14.0923

> <Gold.Chemscore.ZeroCoef>
-5.4800

> <Gold.Chemscore.Hbond>
1.6790

> <Gold.Chemscore.Metal>
0.0000

> <Gold.Chemscore.Lipo>
64.2387

> <Gold.Chemscore.Internal_Hbond>
0.0000

> <Gold.Chemscore.DEClash>
0.5405

> <Gold.Chemscore.DEInternal>
2.4426

> <Gold.Chemscore.Rot>
1.7623

> <Gold.Chemscore.Internal.Correction>
   9.000000E+99

> <Gold.Chemscore.Hbonds>
donor molecule, donor type, donor heavy atom, donor atom, acceptor molecule, acceptor atom, score
      P1  H  6896  6909       L1     8  0.82
      P1  H  6931  6943       L1     9  0.10
      P1  H  6934  6947       L1     9  0.60

> <Gold.Chemscore.Hbond.Weighted>
-5.6080

> <Gold.Chemscore.Metal.Weighted>
-0.0000

> <Gold.Chemscore.Lipo.Weighted>
-7.5159

> <Gold.Chemscore.Internal_Hbond.Weighted>
0.0000

> <Gold.Chemscore.DEClash.Weighted>
0.5405

> <Gold.Chemscore.DEInternal.Weighted>
2.4426

> <Gold.Chemscore.Rot.Weighted>
4.5116

> <Gold.Chemscore.Internal.Correction.Weighted>
   9.000000E+99

> <Gold.Protein.RotatedTorsions>
[ 6907 6896 6895 6894 ] final   64.86 input  -60.11 | X-H torsion
[ 7974 7965 7964 7962 ] final -148.01 input  175.53 | X-H torsion
[ 8008 7997 7996 7995 ] final   82.99 input   59.86 | X-H torsion
[ 10167 10162 10161 10158 ] final  135.96 input  -65.29 | X-H torsion
[ 10718 10713 10712 10709 ] final  112.88 input   66.30 | X-H torsion
[ 10763 10752 10751 10750 ] final -145.97 input  -60.55 | X-H torsion
[ 11005 11000 10999 10996 ] final -155.28 input  -57.11 | X-H torsion

> <Gold.Protein.ActiveResidues>
 VAL166  LYS551  ARG553  GLY616  TRP617  ASP618  TYR619  PRO620  LYS621  CYS622 
 ASP623  PHE694  ASN695  SER759  ASP760  ASP761  ALA762  ILE779  LEU786  VAL792 
 PHE793  MET794  SER795  GLU796  ALA797  LYS798  CYS799  TRP800  GLU811  SER814 

> <Gold.Protein.RotatedAtoms>
  152.4363  134.5679  159.9912 H   0  0  0  0  0  0  0  0  0  0  0  0  # atno 6907 bound_to 6896
  151.5788  133.3374  159.3012 H   0  0  0  0  0  0  0  0  0  0  0  0  # atno 6908 bound_to 6896
  150.8262  134.7529  159.6879 H   0  0  0  0  0  0  0  0  0  0  0  0  # atno 6909 bound_to 6896
  144.8057  140.5253  143.5677 H   0  0  0  0  0  0  0  0  0  0  0  0  # atno 7974 bound_to 7965
  155.9179  140.3423  155.6150 H   0  0  0  0  0  0  0  0  0  0  0  0  # atno 8008 bound_to 7997
  155.7309  140.0795  157.2308 H   0  0  0  0  0  0  0  0  0  0  0  0  # atno 8009 bound_to 7997
  154.4065  140.1588  156.2495 H   0  0  0  0  0  0  0  0  0  0  0  0  # atno 8010 bound_to 7997
  139.5197  144.6490  151.5358 H   0  0  0  0  0  0  0  0  0  0  0  0  # atno 10167 bound_to 10162
  157.6368  131.0975  150.6960 H   0  0  0  0  0  0  0  0  0  0  0  0  # atno 10718 bound_to 10713
  154.8358  135.3399  154.6588 H   0  0  0  0  0  0  0  0  0  0  0  0  # atno 10763 bound_to 10752
  153.7202  135.6958  153.5019 H   0  0  0  0  0  0  0  0  0  0  0  0  # atno 10764 bound_to 10752
  153.2387  135.4392  155.0627 H   0  0  0  0  0  0  0  0  0  0  0  0  # atno 10765 bound_to 10752
  140.6882  134.4070  157.5221 H   0  0  0  0  0  0  0  0  0  0  0  0  # atno 11005 bound_to 11000
  145.5445  139.1475  143.3428 LP  0  0  0  0  0  0  0  0  0  0  0  0  # atno 17320 bound_to 7965
  146.2347  140.5584  142.8960 LP  0  0  0  0  0  0  0  0  0  0  0  0  # atno 17321 bound_to 7965
  140.6286  143.9119  150.6586 LP  0  0  0  0  0  0  0  0  0  0  0  0  # atno 17342 bound_to 10162
  140.2416  143.3659  152.1481 LP  0  0  0  0  0  0  0  0  0  0  0  0  # atno 17343 bound_to 10162
  156.7290  130.4704  149.5504 LP  0  0  0  0  0  0  0  0  0  0  0  0  # atno 17370 bound_to 10713
  156.1614  130.6377  151.0724 LP  0  0  0  0  0  0  0  0  0  0  0  0  # atno 17371 bound_to 10713
  139.8931  134.8738  156.2238 LP  0  0  0  0  0  0  0  0  0  0  0  0  # atno 17394 bound_to 11000
  141.0263  133.7013  156.1353 LP  0  0  0  0  0  0  0  0  0  0  0  0  # atno 17395 bound_to 11000

$$$$
