#       Name:                AV-unprocessed.smi:798
#       Creating user name   scv26
#       Creation time:       Fri Mar 27 01:21:41 2020


#       File generated by GOLD software.
#

@<TRIPOS>MOLECULE
AV-unprocessed.smi:798
    40    42     1
SMALL
NO_CHARGES


@<TRIPOS>ATOM
      1 ****        -1.1929   1.9525   0.4537 O.2            1 S1                 0.0000
      2 ****        -1.7214   0.8550   0.6448 C.2            1 S1                 0.0000
      3 ****        -3.0429   0.6191   0.8102 N.pl3          1 S1                -1.0000
      4 ****        -3.9194   1.6361   0.7684 C.2            1 S1                 0.0000
      5 ****        -4.4283   2.1914   1.8799 N.2            1 S1                 0.0000
      6 ****        -5.3239   3.2190   1.6161 N.2            1 S1                 0.0000
      7 ****        -5.4738   3.4085   0.3054 C.2            1 S1                 0.0000
      8 ****        -4.5363   2.3483  -0.7253 S.3            1 S1                 0.0000
      9 ****        -0.9666  -0.2512   0.7004 N.am           1 S1                 0.0000
     10 ****         0.4852  -0.3100   0.5418 C.3            1 S1                 0.0000
     11 ****         1.0260  -1.6676   1.0421 C.3            1 S1                 0.0000
     12 ****         2.5497  -1.5566   1.2322 C.3            1 S1                 0.0000
     13 ****         3.0649  -1.5243  -0.2188 C.3            1 S1                 0.0000
     14 ****         1.7653  -1.5984  -1.0493 C.3            1 S1                 0.0000
     15 ****         0.9332  -2.5500  -0.1994 C.3            1 S1                 0.0000
     16 ****         0.9296  -0.2978  -0.9441 C.3            1 S1                 0.0000
     17 ****         1.6372   1.0009  -1.3780 C.3            1 S1                 0.0000
     18 ****         2.0412   0.9181  -2.7285 O.3            1 S1                 0.0000
     19 ****        -6.1428   4.1745  -0.0566 H              1 S1                 0.0000
     20 ****        -1.4423  -1.1271   0.8597 H              1 S1                 0.0000
     21 ****         0.9386   0.5045   1.1100 H              1 S1                 0.0000
     22 ****         0.5114  -2.0529   1.9233 H              1 S1                 0.0000
     23 ****         2.8370  -0.6693   1.7975 H              1 S1                 0.0000
     24 ****         2.9410  -2.4284   1.7579 H              1 S1                 0.0000
     25 ****         3.6694  -0.6446  -0.4350 H              1 S1                 0.0000
     26 ****         3.6887  -2.3972  -0.4147 H              1 S1                 0.0000
     27 ****         1.9230  -1.9312  -2.0757 H              1 S1                 0.0000
     28 ****         1.3922  -3.5315  -0.0686 H              1 S1                 0.0000
     29 ****        -0.0871  -2.6804  -0.5644 H              1 S1                 0.0000
     30 ****         0.0517  -0.4208  -1.5821 H              1 S1                 0.0000
     31 ****         0.9557   1.8456  -1.2777 H              1 S1                 0.0000
     32 ****         2.5001   1.2242  -0.7517 H              1 S1                 0.0000
     33 ****         2.4356   1.7410  -2.9737 H              1 S1                 0.0000
     34 ****        -1.7560   2.7776   0.4089 LP             1 S1                 0.0000
     35 ****        -0.2011   2.0175   0.3435 LP             1 S1                 0.0000
     36 ****        -3.3679  -0.3140   0.9639 LP             1 S1                 0.0000
     37 ****        -4.1868   1.8950   2.8039 LP             1 S1                 0.0000
     38 ****        -5.7963   3.7495   2.3200 LP             1 S1                 0.0000
     39 ****         1.2464   0.7388  -3.3082 LP             1 S1                 0.0000
     40 ****         2.7064   0.1794  -2.8371 LP             1 S1                 0.0000
@<TRIPOS>BOND
    1    1    2 2     
    2    2    3 1     
    3    2    9 am    
    4    3    4 1     
    5    4    8 1     
    6    4    5 2     
    7    5    6 1     
    8    6    7 2     
    9    7    8 1     
   10    7   19 1     
   11    9   10 1     
   12    9   20 1     
   13   10   16 1     
   14   10   11 1     
   15   10   21 1     
   16   11   15 1     
   17   11   12 1     
   18   11   22 1     
   19   12   13 1     
   20   12   23 1     
   21   12   24 1     
   22   13   14 1     
   23   13   25 1     
   24   13   26 1     
   25   14   15 1     
   26   14   16 1     
   27   14   27 1     
   28   15   28 1     
   29   15   29 1     
   30   16   17 1     
   31   16   30 1     
   32   17   18 1     
   33   17   31 1     
   34   17   32 1     
   35   18   33 1     
   36    1   34 1     
   37    1   35 1     
   38    3   36 1     
   39    5   37 1     
   40    6   38 1     
   41   18   39 1     
   42   18   40 1     
@<TRIPOS>SUBSTRUCTURE
      1 S1             1
@<TRIPOS>SET
LONE_PAIRS      STATIC     ATOMS    <user>   **** ""
7 34 35 36 37 38 39 40
DONOR_HYDROGENS      STATIC     ATOMS    <user>   **** ""
2 20 33
ATOM$BLUE        STATIC     ATOMS    COLORGROUP SYSTEM
7 34 35 36 37 38 39 40
ATOM$RED        STATIC     ATOMS    COLORGROUP SYSTEM
2 20 33
