AV-unprocessed.smi:1915|AV-procd|sdf|7761|dock3
  -GOLD-   22720 9503D 1   1.00000     0.00000
 Structure written by MMmdl.
 44 45  0  0  0  0  0  0  0  0  1 V2000
  148.9605  141.4153  158.0489 C   0  0  0  0  0  0  0  0  0  0  0  0
  150.4206  141.7828  157.7327 C   0  0  0  0  0  0  0  0  0  0  0  0
  150.8018  143.0994  158.4259 C   0  0  0  0  0  0  0  0  0  0  0  0
  150.7183  141.8632  156.2185 C   0  0  0  0  0  0  0  0  0  0  0  0
  150.6795  140.5598  155.5550 N   0  0  0  0  0  0  0  0  0  0  0  0
  149.5800  140.2195  154.6659 C   0  0  0  0  0  0  0  0  0  0  0  0
  149.7361  138.7137  154.3622 C   0  0  2  0  0  0  0  0  0  0  0  0
  148.6287  137.8633  155.0031 C   0  0  0  0  0  0  0  0  0  0  0  0
  148.3911  137.9572  156.2077 O   0  0  0  0  0  0  0  0  0  0  0  0
  147.9729  137.0240  154.1879 N   0  0  0  0  0  0  0  0  0  0  0  0
  146.9481  136.0741  154.6105 C   0  0  0  0  0  0  0  0  0  0  0  0
  145.6640  136.1645  153.7607 C   0  0  0  0  0  0  0  0  0  0  0  0
  145.5768  135.1016  152.6782 C   0  0  0  0  0  0  0  0  0  0  0  0
  144.5328  135.1236  151.7283 C   0  0  0  0  0  0  0  0  0  0  0  0
  144.4857  134.1044  150.7582 C   0  0  0  0  0  0  0  0  0  0  0  0
  145.4805  133.1080  150.7736 C   0  0  0  0  0  0  0  0  0  0  0  0
  146.4826  133.1766  151.7622 C   0  0  0  0  0  0  0  0  0  0  0  0
  146.5357  134.1487  152.6983 N   0  0  0  0  0  0  0  0  0  0  0  0
  151.1226  138.3333  154.9174 C   0  0  0  0  0  0  0  0  0  0  0  0
  151.5440  139.5519  155.7201 C   0  0  0  0  0  0  0  0  0  0  0  0
  152.5506  139.5663  156.4270 O   0  0  0  0  0  0  0  0  0  0  0  0
  148.2672  142.1229  157.5932 H   0  0  0  0  0  0  0  0  0  0  0  0
  148.7792  141.4178  159.1239 H   0  0  0  0  0  0  0  0  0  0  0  0
  148.7087  140.4189  157.6871 H   0  0  0  0  0  0  0  0  0  0  0  0
  151.0538  141.0022  158.1562 H   0  0  0  0  0  0  0  0  0  0  0  0
  150.2041  143.9312  158.0522 H   0  0  0  0  0  0  0  0  0  0  0  0
  151.8519  143.3429  158.2601 H   0  0  0  0  0  0  0  0  0  0  0  0
  150.6477  143.0363  159.5035 H   0  0  0  0  0  0  0  0  0  0  0  0
  150.0165  142.5454  155.7354 H   0  0  0  0  0  0  0  0  0  0  0  0
  151.7063  142.2983  156.0627 H   0  0  0  0  0  0  0  0  0  0  0  0
  148.6209  140.4642  155.1258 H   0  0  0  0  0  0  0  0  0  0  0  0
  149.6633  140.8079  153.7513 H   0  0  0  0  0  0  0  0  0  0  0  0
  149.7204  138.5602  153.2817 H   0  0  0  0  0  0  0  0  0  0  0  0
  148.2303  137.0116  153.2116 H   0  0  0  0  0  0  0  0  0  0  0  0
  147.3444  135.0578  154.5954 H   0  0  0  0  0  0  0  0  0  0  0  0
  146.7093  136.2960  155.6509 H   0  0  0  0  0  0  0  0  0  0  0  0
  144.7892  136.0813  154.4068 H   0  0  0  0  0  0  0  0  0  0  0  0
  145.5990  137.1500  153.2982 H   0  0  0  0  0  0  0  0  0  0  0  0
  143.7806  135.8985  151.7463 H   0  0  0  0  0  0  0  0  0  0  0  0
  143.6998  134.0860  150.0176 H   0  0  0  0  0  0  0  0  0  0  0  0
  145.4761  132.3106  150.0454 H   0  0  0  0  0  0  0  0  0  0  0  0
  147.2611  132.4293  151.8035 H   0  0  0  0  0  0  0  0  0  0  0  0
  151.1150  137.4434  155.5492 H   0  0  0  0  0  0  0  0  0  0  0  0
  151.8364  138.1661  154.1105 H   0  0  0  0  0  0  0  0  0  0  0  0
  1  2  1  0  0  0  0
  1 22  1  0  0  0  0
  1 23  1  0  0  0  0
  1 24  1  0  0  0  0
  2  3  1  0  0  0  0
  2  4  1  0  0  0  0
  2 25  1  0  0  0  0
  3 26  1  0  0  0  0
  3 27  1  0  0  0  0
  3 28  1  0  0  0  0
  4  5  1  0  0  0  0
  4 29  1  0  0  0  0
  4 30  1  0  0  0  0
  5 20  1  0  0  0  0
  5  6  1  0  0  0  0
  6  7  1  0  0  0  0
  6 31  1  0  0  0  0
  6 32  1  0  0  0  0
  7  8  1  0  0  0  0
  7 19  1  0  0  0  0
  7 33  1  0  0  0  0
  8  9  2  0  0  0  0
  8 10  1  0  0  0  0
 10 11  1  0  0  0  0
 10 34  1  0  0  0  0
 11 12  1  0  0  0  0
 11 35  1  0  0  0  0
 11 36  1  0  0  0  0
 12 13  1  0  0  0  0
 12 37  1  0  0  0  0
 12 38  1  0  0  0  0
 13 18  1  0  0  0  0
 13 14  2  0  0  0  0
 14 15  1  0  0  0  0
 14 39  1  0  0  0  0
 15 16  2  0  0  0  0
 15 40  1  0  0  0  0
 16 17  1  0  0  0  0
 16 41  1  0  0  0  0
 17 18  2  0  0  0  0
 17 42  1  0  0  0  0
 19 20  1  0  0  0  0
 19 43  1  0  0  0  0
 19 44  1  0  0  0  0
 20 21  2  0  0  0  0
M  END
> <s_m_source_file>
AV-unprocessed.smi

> <i_m_source_file_index>
1915

> <i_lp_mmshare_version>
43012

> <i_f3d_flags>
0

> <s_epik_input>
W0NIM11bQ0hdKFtDSDNdKVtDSDJdTjFbQ0gyXVtDQEhdKFtDSDJdQzE9TylDKD1PKVtOSF1bQ0gyXVtDSDJdYzJbY0hdW2NIXVtjSF1bY0hdbjI=

> <s_epik_cmdline>
J2VwaWtfcHl0aG9uJywgJy1waCcsICc3LjAnLCAnLXRuJywgJzgnLCAnLW1hJywgJzIwMCcsICctbWV0YWxfYmluZGluZycsICctaW1hZScsICc8aW5maWxlLm1hZT4nLCAnLW9tYWUnLCAnPG91dGZpbGUubWFlPic=

> <r_epik_Ionization_Penalty>
0.0252359

> <r_epik_Ionization_Penalty_Charging>
0

> <r_epik_Ionization_Penalty_Neutral>
0.0252359

> <r_epik_State_Penalty>
0.020532

> <r_epik_Charging_Adjusted_Penalty>
0.020532

> <i_epik_Tot_Q>
0

> <i_epik_Tot_abs_Q>
0

> <r_epik_Metal_State_Penalty>
0.0196901

> <b_epik_Metal_Only>
0

> <s_lp_Force_Field>
OPLS_2005

> <r_lp_Energy>
14.5856

> <b_lp_Chiralities_Consistent>
1

> <s_lp_Variant>
AV-unprocessed.smi:1915-2

> <Gold.Version>
5.8.1

> <Gold.Id.Protein>
6NUR|6NUR_protein|mol2

> <Gold.PLP.Fitness>
43.7904

> <Gold.PLP.PLP>
-35.8505

> <Gold.PLP.part.hbond>
-1.8077

> <Gold.PLP.part.metal>
0.0000

> <Gold.PLP.part.buried>
-3.6340

> <Gold.PLP.part.nonpolar>
-30.7112

> <Gold.PLP.part.repulsive>
0.6659

> <Gold.PLP.ligand.clash>
0.0000

> <Gold.PLP.ligand.torsion>
0.6110

> <Gold.PLP.Chemscore.Hbond>
1.9920

> <Gold.PLP.Chemscore.CHOScore>
1.0000

> <Gold.PLP.Chemscore.Metal>
0.0000

> <Gold.Chemscore.Hbonds>
donor molecule, donor type, donor heavy atom, donor atom, acceptor molecule, acceptor atom, score
      L1  H    10    34       P1  7948  1.00
      P1  H  7997  8009       L1    21  1.00
      L1  C    17    42       P1 10747  0.37

> <Gold.PLP.Chemscore.Internal.Correction>
0.1860

> <Gold.Rescore>
     Score         DG    S(hbond)    S(metal)    S(lipo)     H(rot)  DE(clash)    DE(int)     intcor
     15.74     -16.44       1.97        0.00      75.51       1.75       0.12       0.58       ----

> <Gold.Chemscore.Fitness>
15.7412

> <Gold.Chemscore.DG>
-16.4394

> <Gold.Chemscore.ZeroCoef>
-5.4800

> <Gold.Chemscore.Hbond>
1.9743

> <Gold.Chemscore.Metal>
0.0000

> <Gold.Chemscore.Lipo>
75.5052

> <Gold.Chemscore.Internal_Hbond>
0.0000

> <Gold.Chemscore.DEClash>
0.1187

> <Gold.Chemscore.DEInternal>
0.5796

> <Gold.Chemscore.Rot>
1.7456

> <Gold.Chemscore.Internal.Correction>
   9.000000E+99

> <Gold.Chemscore.Hbonds>
donor molecule, donor type, donor heavy atom, donor atom, acceptor molecule, acceptor atom, score
      L1  H    10    34       P1  7948  0.95
      P1  H  7997  8009       L1    21  0.95

> <Gold.Chemscore.Hbond.Weighted>
-6.5941

> <Gold.Chemscore.Metal.Weighted>
-0.0000

> <Gold.Chemscore.Lipo.Weighted>
-8.8341

> <Gold.Chemscore.Internal_Hbond.Weighted>
0.0000

> <Gold.Chemscore.DEClash.Weighted>
0.1187

> <Gold.Chemscore.DEInternal.Weighted>
0.5796

> <Gold.Chemscore.Rot.Weighted>
4.4688

> <Gold.Chemscore.Internal.Correction.Weighted>
   9.000000E+99

> <Gold.Protein.RotatedTorsions>
[ 6907 6896 6895 6894 ] final  116.07 input  -60.11 | X-H torsion
[ 7974 7965 7964 7962 ] final   42.70 input  175.53 | X-H torsion
[ 8008 7997 7996 7995 ] final -147.40 input   59.86 | X-H torsion
[ 10167 10162 10161 10158 ] final  -32.82 input  -65.29 | X-H torsion
[ 10718 10713 10712 10709 ] final  163.97 input   66.30 | X-H torsion
[ 10763 10752 10751 10750 ] final   55.23 input  -60.55 | X-H torsion
[ 11005 11000 10999 10996 ] final  -74.90 input  -57.11 | X-H torsion

> <Gold.Protein.ActiveResidues>
 VAL166  LYS551  ARG553  GLY616  TRP617  ASP618  TYR619  PRO620  LYS621  CYS622 
 ASP623  PHE694  ASN695  SER759  ASP760  ASP761  ALA762  ILE779  LEU786  VAL792 
 PHE793  MET794  SER795  GLU796  ALA797  LYS798  CYS799  TRP800  GLU811  SER814 

> <Gold.Protein.RotatedAtoms>
  152.4702  133.8012  159.6953 H   0  0  0  0  0  0  0  0  0  0  0  0  # atno 6907 bound_to 6896
  150.8686  133.7528  159.2975 H   0  0  0  0  0  0  0  0  0  0  0  0  # atno 6908 bound_to 6896
  151.5070  135.1067  159.9896 H   0  0  0  0  0  0  0  0  0  0  0  0  # atno 6909 bound_to 6896
  146.0718  139.5270  142.9593 H   0  0  0  0  0  0  0  0  0  0  0  0  # atno 7974 bound_to 7965
  155.5749  140.0638  157.2797 H   0  0  0  0  0  0  0  0  0  0  0  0  # atno 8008 bound_to 7997
  154.4350  140.1862  156.0963 H   0  0  0  0  0  0  0  0  0  0  0  0  # atno 8009 bound_to 7997
  156.0348  140.3302  155.7183 H   0  0  0  0  0  0  0  0  0  0  0  0  # atno 8010 bound_to 7997
  140.7215  143.3666  151.1858 H   0  0  0  0  0  0  0  0  0  0  0  0  # atno 10167 bound_to 10162
  157.1009  131.0442  151.2498 H   0  0  0  0  0  0  0  0  0  0  0  0  # atno 10718 bound_to 10713
  152.9814  135.5718  154.5033 H   0  0  0  0  0  0  0  0  0  0  0  0  # atno 10763 bound_to 10752
  154.4549  135.2779  155.1757 H   0  0  0  0  0  0  0  0  0  0  0  0  # atno 10764 bound_to 10752
  154.3369  135.6237  153.5631 H   0  0  0  0  0  0  0  0  0  0  0  0  # atno 10765 bound_to 10752
  141.1640  133.6927  156.7435 H   0  0  0  0  0  0  0  0  0  0  0  0  # atno 11005 bound_to 11000
  145.6378  141.0291  143.1828 LP  0  0  0  0  0  0  0  0  0  0  0  0  # atno 17320 bound_to 7965
  144.7236  139.7947  143.7373 LP  0  0  0  0  0  0  0  0  0  0  0  0  # atno 17321 bound_to 7965
  139.7229  143.9194  152.2992 LP  0  0  0  0  0  0  0  0  0  0  0  0  # atno 17342 bound_to 10162
  139.8957  144.6940  150.8720 LP  0  0  0  0  0  0  0  0  0  0  0  0  # atno 17343 bound_to 10162
  157.4641  130.7670  149.7263 LP  0  0  0  0  0  0  0  0  0  0  0  0  # atno 17370 bound_to 10713
  155.9874  130.3967  150.3168 LP  0  0  0  0  0  0  0  0  0  0  0  0  # atno 17371 bound_to 10713
  140.2657  134.8432  157.3800 LP  0  0  0  0  0  0  0  0  0  0  0  0  # atno 17394 bound_to 11000
  140.1569  134.4778  155.7921 LP  0  0  0  0  0  0  0  0  0  0  0  0  # atno 17395 bound_to 11000

$$$$
