AV-unprocessed.smi:3282|AV-procd|sdf|12566|dock2
  -GOLD-   2272018483D 1   1.00000     0.00000
 Structure written by MMmdl.
 33 34  0  0  0  0  0  0  0  0  2 V2000
  150.9091  145.2255  160.0605 C   0  0  0  0  0  0  0  0  0  0  0  0
  151.8564  144.4583  159.1239 C   0  0  0  0  0  0  0  0  0  0  0  0
  152.3963  143.1487  159.7237 C   0  0  0  0  0  0  0  0  0  0  0  0
  152.9470  143.1597  160.8258 O   0  0  0  0  0  0  0  0  0  0  0  0
  152.2453  142.0130  159.0113 N   0  0  0  0  0  0  0  0  0  0  0  0
  152.6940  140.7025  159.4735 C   0  0  0  0  0  0  0  0  0  0  0  0
  152.1122  139.6870  158.4896 C   0  0  0  0  0  0  0  0  0  0  0  0
  151.8758  140.4803  157.2070 C   0  0  1  0  0  0  0  0  0  0  0  0
  150.7504  139.9492  156.4436 N   0  0  0  0  0  0  0  0  0  0  0  0
  150.8124  139.4669  155.1941 C   0  0  0  0  0  0  0  0  0  0  0  0
  151.8939  139.4321  154.6021 O   0  0  0  0  0  0  0  0  0  0  0  0
  149.6183  139.0622  154.7063 N   0  5  0  0  0  0  0  0  0  0  0  0
  148.7314  139.9721  154.2725 C   0  0  0  0  0  0  0  0  0  0  0  0
  147.6251  139.7253  153.5691 N   0  0  0  0  0  0  0  0  0  0  0  0
  147.0260  140.9581  153.3606 C   0  0  0  0  0  0  0  0  0  0  0  0
  147.8038  141.9099  153.9615 C   0  0  0  0  0  0  0  0  0  0  0  0
  148.8808  141.2999  154.5427 O   0  0  0  0  0  0  0  0  0  0  0  0
  151.6207  141.9136  157.6943 C   0  0  0  0  0  0  0  0  0  0  0  0
  150.5540  146.1388  159.5828 H   0  0  0  0  0  0  0  0  0  0  0  0
  151.4086  145.5123  160.9867 H   0  0  0  0  0  0  0  0  0  0  0  0
  150.0341  144.6275  160.3184 H   0  0  0  0  0  0  0  0  0  0  0  0
  151.3302  144.2332  158.1957 H   0  0  0  0  0  0  0  0  0  0  0  0
  152.6994  145.0994  158.8646 H   0  0  0  0  0  0  0  0  0  0  0  0
  153.7844  140.6743  159.4514 H   0  0  0  0  0  0  0  0  0  0  0  0
  152.3703  140.4950  160.4946 H   0  0  0  0  0  0  0  0  0  0  0  0
  152.7651  138.8268  158.3382 H   0  0  0  0  0  0  0  0  0  0  0  0
  151.1642  139.3159  158.8824 H   0  0  0  0  0  0  0  0  0  0  0  0
  152.7868  140.4559  156.6061 H   0  0  0  0  0  0  0  0  0  0  0  0
  149.8472  139.9569  156.8943 H   0  0  0  0  0  0  0  0  0  0  0  0
  146.1034  141.0593  152.8086 H   0  0  0  0  0  0  0  0  0  0  0  0
  147.7383  142.9829  154.0620 H   0  0  0  0  0  0  0  0  0  0  0  0
  150.5519  142.1083  157.7999 H   0  0  0  0  0  0  0  0  0  0  0  0
  152.0282  142.6392  156.9891 H   0  0  0  0  0  0  0  0  0  0  0  0
  1  2  1  0  0  0  0
  1 19  1  0  0  0  0
  1 20  1  0  0  0  0
  1 21  1  0  0  0  0
  2  3  1  0  0  0  0
  2 22  1  0  0  0  0
  2 23  1  0  0  0  0
  3  4  2  0  0  0  0
  3  5  1  0  0  0  0
  5 18  1  0  0  0  0
  5  6  1  0  0  0  0
  6  7  1  0  0  0  0
  6 24  1  0  0  0  0
  6 25  1  0  0  0  0
  7  8  1  0  0  0  0
  7 26  1  0  0  0  0
  7 27  1  0  0  0  0
  8  9  1  0  0  0  0
  8 18  1  0  0  0  0
  8 28  1  0  0  0  0
  9 10  1  0  0  0  0
  9 29  1  0  0  0  0
 10 11  2  0  0  0  0
 10 12  1  0  0  0  0
 12 13  1  0  0  0  0
 13 17  1  0  0  0  0
 13 14  2  0  0  0  0
 14 15  1  0  0  0  0
 15 16  2  0  0  0  0
 15 30  1  0  0  0  0
 16 17  1  0  0  0  0
 16 31  1  0  0  0  0
 18 32  1  0  0  0  0
 18 33  1  0  0  0  0
M  CHG  1  12  -1
M  END
> <s_m_source_file>
AV-unprocessed.smi

> <i_m_source_file_index>
3282

> <i_lp_mmshare_version>
43012

> <i_f3d_flags>
0

> <s_epik_input>
W0NIM11bQ0gyXUMoPU8pTjFbQ0gyXVtDSDJdW0NASF0oW0NIMl0xKVtOSF1DKD1PKVtOSF1jMm5bY0hdW2NIXW8y

> <s_epik_cmdline>
J2VwaWtfcHl0aG9uJywgJy1waCcsICc3LjAnLCAnLXRuJywgJzgnLCAnLW1hJywgJzIwMCcsICctbWV0YWxfYmluZGluZycsICctaW1hZScsICc8aW5maWxlLm1hZT4nLCAnLW9tYWUnLCAnPG91dGZpbGUubWFlPic=

> <r_lp_tautomer_probability>
0.785861

> <r_epik_Ionization_Penalty>
9.30511

> <r_epik_Ionization_Penalty_Charging>
6.7516

> <r_epik_Ionization_Penalty_Neutral>
2.55351

> <r_epik_State_Penalty>
6.77285

> <r_epik_Charging_Adjusted_Penalty>
13.5244

> <i_epik_Tot_Q>
-1

> <i_epik_Tot_abs_Q>
1

> <r_epik_Metal_State_Penalty>
2.67327

> <b_epik_Metal_Only>
1

> <s_lp_Force_Field>
OPLS_2005

> <r_lp_Energy>
19.1505

> <b_lp_Chiralities_Consistent>
1

> <s_lp_Variant>
AV-unprocessed.smi:3282-7

> <Gold.Version>
5.8.1

> <Gold.Id.Protein>
6NUR|6NUR_protein|mol2

> <Gold.PLP.Fitness>
43.2363

> <Gold.PLP.PLP>
-35.9389

> <Gold.PLP.part.hbond>
-1.0000

> <Gold.PLP.part.metal>
0.0000

> <Gold.PLP.part.buried>
-5.8107

> <Gold.PLP.part.nonpolar>
-29.6149

> <Gold.PLP.part.repulsive>
0.5789

> <Gold.PLP.ligand.clash>
0.0000

> <Gold.PLP.ligand.torsion>
0.8033

> <Gold.PLP.Chemscore.Hbond>
0.9920

> <Gold.PLP.Chemscore.CHOScore>
1.9667

> <Gold.PLP.Chemscore.Metal>
0.0000

> <Gold.Chemscore.Hbonds>
donor molecule, donor type, donor heavy atom, donor atom, acceptor molecule, acceptor atom, score
      P1  H  7989  7998       L1    11  0.98
      L1  C    15    30       P1 10175  0.92
      L1  C    16    31       P1  8028  0.88

> <Gold.PLP.Chemscore.Internal.Correction>
0.0280

> <Gold.Rescore>
     Score         DG    S(hbond)    S(metal)    S(lipo)     H(rot)  DE(clash)    DE(int)     intcor
     11.92     -12.85       0.98        0.00      63.75       1.31       0.01       0.91       ----

> <Gold.Chemscore.Fitness>
11.9218

> <Gold.Chemscore.DG>
-12.8470

> <Gold.Chemscore.ZeroCoef>
-5.4800

> <Gold.Chemscore.Hbond>
0.9753

> <Gold.Chemscore.Metal>
0.0000

> <Gold.Chemscore.Lipo>
63.7475

> <Gold.Chemscore.Internal_Hbond>
0.0000

> <Gold.Chemscore.DEClash>
0.0149

> <Gold.Chemscore.DEInternal>
0.9103

> <Gold.Chemscore.Rot>
1.3082

> <Gold.Chemscore.Internal.Correction>
   9.000000E+99

> <Gold.Chemscore.Hbonds>
donor molecule, donor type, donor heavy atom, donor atom, acceptor molecule, acceptor atom, score
      P1  H  7989  7998       L1    11  0.24

> <Gold.Chemscore.Hbond.Weighted>
-3.2574

> <Gold.Chemscore.Metal.Weighted>
-0.0000

> <Gold.Chemscore.Lipo.Weighted>
-7.4585

> <Gold.Chemscore.Internal_Hbond.Weighted>
0.0000

> <Gold.Chemscore.DEClash.Weighted>
0.0149

> <Gold.Chemscore.DEInternal.Weighted>
0.9103

> <Gold.Chemscore.Rot.Weighted>
3.3489

> <Gold.Chemscore.Internal.Correction.Weighted>
   9.000000E+99

> <Gold.Protein.RotatedTorsions>
[ 6907 6896 6895 6894 ] final   11.71 input  -60.11 | X-H torsion
[ 7974 7965 7964 7962 ] final   90.67 input  175.53 | X-H torsion
[ 8008 7997 7996 7995 ] final  120.16 input   59.86 | X-H torsion
[ 10167 10162 10161 10158 ] final  -50.51 input  -65.29 | X-H torsion
[ 10718 10713 10712 10709 ] final  113.89 input   66.30 | X-H torsion
[ 10763 10752 10751 10750 ] final  -36.17 input  -60.55 | X-H torsion
[ 11005 11000 10999 10996 ] final   20.01 input  -57.11 | X-H torsion

> <Gold.Protein.ActiveResidues>
 VAL166  LYS551  ARG553  GLY616  TRP617  ASP618  TYR619  PRO620  LYS621  CYS622 
 ASP623  PHE694  ASN695  SER759  ASP760  ASP761  ALA762  ILE779  LEU786  VAL792 
 PHE793  MET794  SER795  GLU796  ALA797  LYS798  CYS799  TRP800  GLU811  SER814 

> <Gold.Protein.RotatedAtoms>
  151.7587  135.0815  160.0341 H   0  0  0  0  0  0  0  0  0  0  0  0  # atno 6907 bound_to 6896
  152.3367  133.6016  159.5856 H   0  0  0  0  0  0  0  0  0  0  0  0  # atno 6908 bound_to 6896
  150.7455  133.9700  159.3584 H   0  0  0  0  0  0  0  0  0  0  0  0  # atno 6909 bound_to 6896
  145.5160  139.2278  143.2698 H   0  0  0  0  0  0  0  0  0  0  0  0  # atno 7974 bound_to 7965
  156.2630  140.2837  156.1106 H   0  0  0  0  0  0  0  0  0  0  0  0  # atno 8008 bound_to 7997
  155.1262  140.0393  157.2780 H   0  0  0  0  0  0  0  0  0  0  0  0  # atno 8009 bound_to 7997
  154.6634  140.2571  155.7091 H   0  0  0  0  0  0  0  0  0  0  0  0  # atno 8010 bound_to 7997
  140.6634  143.2655  151.4370 H   0  0  0  0  0  0  0  0  0  0  0  0  # atno 10167 bound_to 10162
  157.6312  131.0990  150.7106 H   0  0  0  0  0  0  0  0  0  0  0  0  # atno 10718 bound_to 10713
  153.8753  135.6827  153.4771 H   0  0  0  0  0  0  0  0  0  0  0  0  # atno 10763 bound_to 10752
  153.1264  135.4717  154.9277 H   0  0  0  0  0  0  0  0  0  0  0  0  # atno 10764 bound_to 10752
  154.7695  135.3234  154.8170 H   0  0  0  0  0  0  0  0  0  0  0  0  # atno 10765 bound_to 10752
  140.4073  134.1655  155.7666 H   0  0  0  0  0  0  0  0  0  0  0  0  # atno 11005 bound_to 11000
  146.2137  140.5969  142.9048 LP  0  0  0  0  0  0  0  0  0  0  0  0  # atno 17320 bound_to 7965
  144.7702  140.5620  143.6675 LP  0  0  0  0  0  0  0  0  0  0  0  0  # atno 17321 bound_to 7965
  139.5874  144.1573  152.2046 LP  0  0  0  0  0  0  0  0  0  0  0  0  # atno 17342 bound_to 10162
  140.0917  144.5615  150.7050 LP  0  0  0  0  0  0  0  0  0  0  0  0  # atno 17343 bound_to 10162
  156.7445  130.4749  149.5470 LP  0  0  0  0  0  0  0  0  0  0  0  0  # atno 17370 bound_to 10713
  156.1518  130.6315  151.0605 LP  0  0  0  0  0  0  0  0  0  0  0  0  # atno 17371 bound_to 10713
  141.1834  133.8365  157.1175 LP  0  0  0  0  0  0  0  0  0  0  0  0  # atno 17394 bound_to 11000
  140.0293  134.9909  157.0748 LP  0  0  0  0  0  0  0  0  0  0  0  0  # atno 17395 bound_to 11000

$$$$
