AV-unprocessed.smi:798|AV-procd|sdf|3783|dock9
  -GOLD-   22720 1213D 1   1.00000     0.00000
 Structure written by MMmdl.
 33 35  0  0  0  0  0  0  0  0  2 V2000
  148.9814  135.8301  158.6137 O   0  0  0  0  0  0  0  0  0  0  0  0
  148.3085  136.7970  158.9783 C   0  0  0  0  0  0  0  0  0  0  0  0
  147.4460  136.8264  160.0196 N   0  5  0  0  0  0  0  0  0  0  0  0
  146.9007  135.6853  160.4718 C   0  0  0  0  0  0  0  0  0  0  0  0
  146.6445  134.6430  159.6650 N   0  0  0  0  0  0  0  0  0  0  0  0
  146.0777  133.5640  160.3299 N   0  0  0  0  0  0  0  0  0  0  0  0
  145.9108  133.8257  161.6261 C   0  0  0  0  0  0  0  0  0  0  0  0
  146.4293  135.4135  162.1516 S   0  0  0  0  0  0  0  0  0  0  0  0
  148.3879  137.9582  158.3126 N   0  0  0  0  0  0  0  0  0  0  0  0
  149.2294  138.2315  157.1457 C   0  0  2  0  0  0  0  0  0  0  0  0
  150.7174  138.2574  157.5576 C   0  0  1  0  0  0  0  0  0  0  0  0
  151.5915  138.1510  156.2947 C   0  0  0  0  0  0  0  0  0  0  0  0
  151.3990  139.5319  155.6390 C   0  0  0  0  0  0  0  0  0  0  0  0
  150.4442  140.2469  156.6161 C   0  0  2  0  0  0  0  0  0  0  0  0
  150.9288  139.7126  157.9578 C   0  0  0  0  0  0  0  0  0  0  0  0
  149.0273  139.6337  156.4935 C   0  0  2  0  0  0  0  0  0  0  0  0
  147.9216  140.5208  157.1106 C   0  0  0  0  0  0  0  0  0  0  0  0
  147.9176  141.7987  156.5092 O   0  0  0  0  0  0  0  0  0  0  0  0
  145.4770  133.0803  162.2758 H   0  0  0  0  0  0  0  0  0  0  0  0
  147.8169  138.7201  158.6476 H   0  0  0  0  0  0  0  0  0  0  0  0
  149.0726  137.4428  156.4071 H   0  0  0  0  0  0  0  0  0  0  0  0
  150.9792  137.5256  158.3230 H   0  0  0  0  0  0  0  0  0  0  0  0
  152.6380  137.9954  156.5592 H   0  0  0  0  0  0  0  0  0  0  0  0
  151.2863  137.3315  155.6430 H   0  0  0  0  0  0  0  0  0  0  0  0
  152.3517  140.0589  155.5736 H   0  0  0  0  0  0  0  0  0  0  0  0
  150.9878  139.4619  154.6313 H   0  0  0  0  0  0  0  0  0  0  0  0
  150.4714  141.3326  156.5201 H   0  0  0  0  0  0  0  0  0  0  0  0
  150.3131  140.0251  158.8024 H   0  0  0  0  0  0  0  0  0  0  0  0
  151.9715  139.9557  158.1697 H   0  0  0  0  0  0  0  0  0  0  0  0
  148.7793  139.4972  155.4395 H   0  0  0  0  0  0  0  0  0  0  0  0
  146.9394  140.0783  156.9448 H   0  0  0  0  0  0  0  0  0  0  0  0
  148.0503  140.6329  158.1873 H   0  0  0  0  0  0  0  0  0  0  0  0
  147.2527  142.3228  156.9292 H   0  0  0  0  0  0  0  0  0  0  0  0
  1  2  2  0  0  0  0
  2  3  1  0  0  0  0
  2  9  1  0  0  0  0
  3  4  1  0  0  0  0
  4  8  1  0  0  0  0
  4  5  2  0  0  0  0
  5  6  1  0  0  0  0
  6  7  2  0  0  0  0
  7  8  1  0  0  0  0
  7 19  1  0  0  0  0
  9 10  1  0  0  0  0
  9 20  1  0  0  0  0
 10 16  1  0  0  0  0
 10 11  1  0  0  0  0
 10 21  1  0  0  0  0
 11 15  1  0  0  0  0
 11 12  1  0  0  0  0
 11 22  1  0  0  0  0
 12 13  1  0  0  0  0
 12 23  1  0  0  0  0
 12 24  1  0  0  0  0
 13 14  1  0  0  0  0
 13 25  1  0  0  0  0
 13 26  1  0  0  0  0
 14 15  1  0  0  0  0
 14 16  1  0  0  0  0
 14 27  1  0  0  0  0
 15 28  1  0  0  0  0
 15 29  1  0  0  0  0
 16 17  1  0  0  0  0
 16 30  1  0  0  0  0
 17 18  1  0  0  0  0
 17 31  1  0  0  0  0
 17 32  1  0  0  0  0
 18 33  1  0  0  0  0
M  CHG  1   3  -1
M  END
> <s_m_source_file>
AV-unprocessed.smi

> <i_m_source_file_index>
798

> <i_lp_mmshare_version>
43012

> <i_f3d_flags>
0

> <s_epik_input>
W0NIMl0xW0NIMl1bQ0BASF0oW0NIMl0yKVtDQEBIXShbQ0gyXVtPSF0pW0NAQEhdKFtDQEhdMTIpW05IXUMoPU8pW05IXWMzbm5bY0hdczM=

> <s_epik_cmdline>
J2VwaWtfcHl0aG9uJywgJy1waCcsICc3LjAnLCAnLXRuJywgJzgnLCAnLW1hJywgJzIwMCcsICctbWV0YWxfYmluZGluZycsICctaW1hZScsICc8aW5maWxlLm1hZT4nLCAnLW9tYWUnLCAnPG91dGZpbGUubWFlPic=

> <r_lp_tautomer_probability>
1

> <r_epik_Ionization_Penalty>
4.53732

> <r_epik_Ionization_Penalty_Charging>
4.48632

> <r_epik_Ionization_Penalty_Neutral>
0.0510007

> <r_epik_State_Penalty>
4.48602

> <r_epik_Charging_Adjusted_Penalty>
8.97234

> <i_epik_Tot_Q>
-1

> <i_epik_Tot_abs_Q>
1

> <r_epik_Metal_State_Penalty>
0.812492

> <b_epik_Metal_Only>
1

> <s_lp_Force_Field>
OPLS_2005

> <r_lp_Energy>
47.4456

> <b_lp_Chiralities_Consistent>
1

> <s_lp_Variant>
AV-unprocessed.smi:798-15

> <Gold.Version>
5.8.1

> <Gold.Id.Protein>
6NUR|6NUR_protein|mol2

> <Gold.PLP.Fitness>
37.1743

> <Gold.PLP.PLP>
-26.1291

> <Gold.PLP.part.hbond>
-3.6465

> <Gold.PLP.part.metal>
0.0000

> <Gold.PLP.part.buried>
-4.6814

> <Gold.PLP.part.nonpolar>
-19.7713

> <Gold.PLP.part.repulsive>
0.1949

> <Gold.PLP.ligand.clash>
0.0000

> <Gold.PLP.ligand.torsion>
0.3809

> <Gold.PLP.Chemscore.Hbond>
3.9287

> <Gold.PLP.Chemscore.CHOScore>
0.0000

> <Gold.PLP.Chemscore.Metal>
0.0000

> <Gold.Chemscore.Hbonds>
donor molecule, donor type, donor heavy atom, donor atom, acceptor molecule, acceptor atom, score
      P1  H  6896  6908       L1     1  0.32
      P1  H  6934  6947       L1     3  0.23

> <Gold.PLP.Chemscore.Internal.Correction>
0.0210

> <Gold.Rescore>
     Score         DG    S(hbond)    S(metal)    S(lipo)     H(rot)  DE(clash)    DE(int)     intcor
     11.10     -13.04       2.09        0.00      47.15       1.92       0.01       1.93       ----

> <Gold.Chemscore.Fitness>
11.1039

> <Gold.Chemscore.DG>
-13.0446

> <Gold.Chemscore.ZeroCoef>
-5.4800

> <Gold.Chemscore.Hbond>
2.0854

> <Gold.Chemscore.Metal>
0.0000

> <Gold.Chemscore.Lipo>
47.1481

> <Gold.Chemscore.Internal_Hbond>
0.0000

> <Gold.Chemscore.DEClash>
0.0073

> <Gold.Chemscore.DEInternal>
1.9334

> <Gold.Chemscore.Rot>
1.9207

> <Gold.Chemscore.Internal.Correction>
   9.000000E+99

> <Gold.Chemscore.Hbonds>
donor molecule, donor type, donor heavy atom, donor atom, acceptor molecule, acceptor atom, score
      P1  H  6896  6908       L1     1  0.33
      P1  H  6934  6947       L1     3  0.11

> <Gold.Chemscore.Hbond.Weighted>
-6.9652

> <Gold.Chemscore.Metal.Weighted>
-0.0000

> <Gold.Chemscore.Lipo.Weighted>
-5.5163

> <Gold.Chemscore.Internal_Hbond.Weighted>
0.0000

> <Gold.Chemscore.DEClash.Weighted>
0.0073

> <Gold.Chemscore.DEInternal.Weighted>
1.9334

> <Gold.Chemscore.Rot.Weighted>
4.9169

> <Gold.Chemscore.Internal.Correction.Weighted>
   9.000000E+99

> <Gold.Protein.RotatedTorsions>
[ 6907 6896 6895 6894 ] final  175.09 input  -60.11 | X-H torsion
[ 7974 7965 7964 7962 ] final  118.09 input  175.53 | X-H torsion
[ 8008 7997 7996 7995 ] final   78.07 input   59.86 | X-H torsion
[ 10167 10162 10161 10158 ] final -128.58 input  -65.29 | X-H torsion
[ 10718 10713 10712 10709 ] final -131.72 input   66.30 | X-H torsion
[ 10763 10752 10751 10750 ] final  136.50 input  -60.55 | X-H torsion
[ 11005 11000 10999 10996 ] final   78.41 input  -57.11 | X-H torsion

> <Gold.Protein.ActiveResidues>
 VAL166  LYS551  ARG553  GLY616  TRP617  ASP618  TYR619  PRO620  LYS621  CYS622 
 ASP623  PHE694  ASN695  SER759  ASP760  ASP761  ALA762  ILE779  LEU786  VAL792 
 PHE793  MET794  SER795  GLU796  ALA797  LYS798  CYS799  TRP800  GLU811  SER814 

> <Gold.Protein.RotatedAtoms>
  151.7419  133.3322  159.3367 H   0  0  0  0  0  0  0  0  0  0  0  0  # atno 6907 bound_to 6896
  150.7570  134.6271  159.6176 H   0  0  0  0  0  0  0  0  0  0  0  0  # atno 6908 bound_to 6896
  152.3525  134.6988  160.0283 H   0  0  0  0  0  0  0  0  0  0  0  0  # atno 6909 bound_to 6896
  145.1594  139.3164  143.4525 H   0  0  0  0  0  0  0  0  0  0  0  0  # atno 7974 bound_to 7965
  155.8505  140.3458  155.5690 H   0  0  0  0  0  0  0  0  0  0  0  0  # atno 8008 bound_to 7997
  155.8043  140.0889  157.1959 H   0  0  0  0  0  0  0  0  0  0  0  0  # atno 8009 bound_to 7997
  154.4007  140.1459  156.3299 H   0  0  0  0  0  0  0  0  0  0  0  0  # atno 8010 bound_to 7997
  139.9488  143.6079  152.2482 H   0  0  0  0  0  0  0  0  0  0  0  0  # atno 10167 bound_to 10162
  156.2273  130.7015  151.0820 H   0  0  0  0  0  0  0  0  0  0  0  0  # atno 10718 bound_to 10713
  153.8575  135.3071  155.3436 H   0  0  0  0  0  0  0  0  0  0  0  0  # atno 10763 bound_to 10752
  154.7864  135.4807  153.9958 H   0  0  0  0  0  0  0  0  0  0  0  0  # atno 10764 bound_to 10752
  153.1481  135.6838  153.9017 H   0  0  0  0  0  0  0  0  0  0  0  0  # atno 10765 bound_to 10752
  139.9214  134.7761  156.1647 H   0  0  0  0  0  0  0  0  0  0  0  0  # atno 11005 bound_to 11000
  146.3484  140.1698  142.8590 LP  0  0  0  0  0  0  0  0  0  0  0  0  # atno 17320 bound_to 7965
  145.0347  140.8898  143.5088 LP  0  0  0  0  0  0  0  0  0  0  0  0  # atno 17321 bound_to 7965
  139.6645  144.7662  151.1899 LP  0  0  0  0  0  0  0  0  0  0  0  0  # atno 17342 bound_to 10162
  140.7589  143.5959  150.8749 LP  0  0  0  0  0  0  0  0  0  0  0  0  # atno 17343 bound_to 10162
  157.7116  131.0731  150.6479 LP  0  0  0  0  0  0  0  0  0  0  0  0  # atno 17370 bound_to 10713
  156.6545  130.4494  149.5708 LP  0  0  0  0  0  0  0  0  0  0  0  0  # atno 17371 bound_to 10713
  141.0737  133.6785  156.2192 LP  0  0  0  0  0  0  0  0  0  0  0  0  # atno 17394 bound_to 11000
  140.6465  134.5112  157.5574 LP  0  0  0  0  0  0  0  0  0  0  0  0  # atno 17395 bound_to 11000

$$$$
