AV-unprocessed.smi:2006|AV-procd|sdf|8131|dock8
  -GOLD-   2272010363D 1   1.00000     0.00000
 Structure written by MMmdl.
 32 33  0  0  0  0  0  0  0  0  1 V2000
  153.8066  143.1159  160.8968 C   0  0  0  0  0  0  0  0  0  0  0  0
  152.5021  143.2512  160.1044 C   0  0  2  0  0  0  0  0  0  0  0  0
  152.4575  142.2974  158.8947 C   0  0  0  0  0  0  0  0  0  0  0  0
  151.2464  142.5287  158.1173 N   0  0  0  0  0  0  0  0  0  0  0  0
  151.0811  141.6129  157.0686 C   0  0  0  0  0  0  0  0  0  0  0  0
  149.8470  141.5702  156.3861 C   0  0  0  0  0  0  0  0  0  0  0  0
  149.6830  140.6409  155.3410 C   0  0  0  0  0  0  0  0  0  0  0  0
  150.7565  139.7879  155.0146 C   0  0  0  0  0  0  0  0  0  0  0  0
  150.6269  138.7642  153.9061 C   0  0  0  0  0  0  0  0  0  0  0  0
  149.2846  138.7077  153.3631 N   0  0  0  0  0  0  0  0  0  0  0  0
  151.9506  139.9061  155.7554 C   0  0  0  0  0  0  0  0  0  0  0  0
  152.1160  140.7953  156.7579 N   0  0  0  0  0  0  0  0  0  0  0  0
  151.1046  143.9209  157.7101 C   0  0  0  0  0  0  0  0  0  0  0  0
  151.1783  144.8366  158.9431 C   0  0  0  0  0  0  0  0  0  0  0  0
  152.3962  144.5965  159.6428 O   0  0  0  0  0  0  0  0  0  0  0  0
  153.9294  142.1031  161.2817 H   0  0  0  0  0  0  0  0  0  0  0  0
  153.8182  143.7987  161.7467 H   0  0  0  0  0  0  0  0  0  0  0  0
  154.6721  143.3445  160.2739 H   0  0  0  0  0  0  0  0  0  0  0  0
  151.6656  143.0366  160.7721 H   0  0  0  0  0  0  0  0  0  0  0  0
  153.3336  142.4542  158.2636 H   0  0  0  0  0  0  0  0  0  0  0  0
  152.4848  141.2607  159.2329 H   0  0  0  0  0  0  0  0  0  0  0  0
  149.0398  142.2347  156.6581 H   0  0  0  0  0  0  0  0  0  0  0  0
  148.7485  140.5836  154.8024 H   0  0  0  0  0  0  0  0  0  0  0  0
  151.3259  139.0034  153.1041 H   0  0  0  0  0  0  0  0  0  0  0  0
  150.9007  137.7782  154.2831 H   0  0  0  0  0  0  0  0  0  0  0  0
  149.2094  139.3512  152.5882 H   0  0  0  0  0  0  0  0  0  0  0  0
  149.1169  137.7889  152.9784 H   0  0  0  0  0  0  0  0  0  0  0  0
  152.7961  139.2692  155.5409 H   0  0  0  0  0  0  0  0  0  0  0  0
  151.8960  144.1848  157.0069 H   0  0  0  0  0  0  0  0  0  0  0  0
  150.1532  144.0605  157.1952 H   0  0  0  0  0  0  0  0  0  0  0  0
  151.1440  145.8824  158.6380 H   0  0  0  0  0  0  0  0  0  0  0  0
  150.3268  144.6687  159.6044 H   0  0  0  0  0  0  0  0  0  0  0  0
  1  2  1  0  0  0  0
  1 16  1  0  0  0  0
  1 17  1  0  0  0  0
  1 18  1  0  0  0  0
  2 15  1  0  0  0  0
  2  3  1  0  0  0  0
  2 19  1  0  0  0  0
  3  4  1  0  0  0  0
  3 20  1  0  0  0  0
  3 21  1  0  0  0  0
  4  5  1  0  0  0  0
  4 13  1  0  0  0  0
  5 12  1  0  0  0  0
  5  6  2  0  0  0  0
  6  7  1  0  0  0  0
  6 22  1  0  0  0  0
  7  8  2  0  0  0  0
  7 23  1  0  0  0  0
  8  9  1  0  0  0  0
  8 11  1  0  0  0  0
  9 10  1  0  0  0  0
  9 24  1  0  0  0  0
  9 25  1  0  0  0  0
 10 26  1  0  0  0  0
 10 27  1  0  0  0  0
 11 12  2  0  0  0  0
 11 28  1  0  0  0  0
 13 14  1  0  0  0  0
 13 29  1  0  0  0  0
 13 30  1  0  0  0  0
 14 15  1  0  0  0  0
 14 31  1  0  0  0  0
 14 32  1  0  0  0  0
M  END
> <s_m_source_file>
AV-unprocessed.smi

> <i_m_source_file_index>
2006

> <i_lp_mmshare_version>
43012

> <i_f3d_flags>
0

> <s_epik_input>
W0NIM11bQ0BASF0xW0NIMl1OKFtDSDJdW0NIMl1PMSljMltjSF1bY0hdYyhbY0hdbjIpW0NIMl1bTkgyXQ==

> <s_epik_cmdline>
J2VwaWtfcHl0aG9uJywgJy1waCcsICc3LjAnLCAnLXRuJywgJzgnLCAnLW1hJywgJzIwMCcsICctbWV0YWxfYmluZGluZycsICctaW1hZScsICc8aW5maWxlLm1hZT4nLCAnLW9tYWUnLCAnPG91dGZpbGUubWFlPic=

> <r_lp_tautomer_probability>
1

> <r_epik_Ionization_Penalty>
1.39389

> <r_epik_Ionization_Penalty_Charging>
0

> <r_epik_Ionization_Penalty_Neutral>
1.39389

> <r_epik_State_Penalty>
1.46818

> <r_epik_Charging_Adjusted_Penalty>
1.46818

> <i_epik_Tot_Q>
0

> <i_epik_Tot_abs_Q>
0

> <r_epik_Metal_State_Penalty>
1.46201

> <b_epik_Metal_Only>
0

> <s_lp_Force_Field>
OPLS_2005

> <r_lp_Energy>
16.9161

> <b_lp_Chiralities_Consistent>
1

> <s_lp_Variant>
AV-unprocessed.smi:2006-3

> <Gold.Version>
5.8.1

> <Gold.Id.Protein>
6NUR|6NUR_protein|mol2

> <Gold.PLP.Fitness>
42.4642

> <Gold.PLP.PLP>
-36.6505

> <Gold.PLP.part.hbond>
-1.8356

> <Gold.PLP.part.metal>
0.0000

> <Gold.PLP.part.buried>
-3.5183

> <Gold.PLP.part.nonpolar>
-29.9170

> <Gold.PLP.part.repulsive>
0.0774

> <Gold.PLP.ligand.clash>
0.0000

> <Gold.PLP.ligand.torsion>
0.1431

> <Gold.PLP.Chemscore.Hbond>
2.0000

> <Gold.PLP.Chemscore.CHOScore>
0.0000

> <Gold.PLP.Chemscore.Metal>
0.0000

> <Gold.Chemscore.Hbonds>
donor molecule, donor type, donor heavy atom, donor atom, acceptor molecule, acceptor atom, score
      L1  H    10    26       P1  7957  1.00
      L1  H    10    27       P1  7948  1.00

> <Gold.PLP.Chemscore.Internal.Correction>
0.0997

> <Gold.Rescore>
     Score         DG    S(hbond)    S(metal)    S(lipo)     H(rot)  DE(clash)    DE(int)     intcor
     18.97     -19.83       1.98        0.00      93.93       1.28       0.41       0.46       ----

> <Gold.Chemscore.Fitness>
18.9657

> <Gold.Chemscore.DG>
-19.8315

> <Gold.Chemscore.ZeroCoef>
-5.4800

> <Gold.Chemscore.Hbond>
1.9848

> <Gold.Chemscore.Metal>
0.0000

> <Gold.Chemscore.Lipo>
93.9271

> <Gold.Chemscore.Internal_Hbond>
0.0000

> <Gold.Chemscore.DEClash>
0.4075

> <Gold.Chemscore.DEInternal>
0.4583

> <Gold.Chemscore.Rot>
1.2762

> <Gold.Chemscore.Internal.Correction>
   9.000000E+99

> <Gold.Chemscore.Hbonds>
donor molecule, donor type, donor heavy atom, donor atom, acceptor molecule, acceptor atom, score
      L1  H    10    26       P1  7957  0.98
      L1  H    10    27       P1  7948  0.99

> <Gold.Chemscore.Hbond.Weighted>
-6.6291

> <Gold.Chemscore.Metal.Weighted>
-0.0000

> <Gold.Chemscore.Lipo.Weighted>
-10.9895

> <Gold.Chemscore.Internal_Hbond.Weighted>
0.0000

> <Gold.Chemscore.DEClash.Weighted>
0.4075

> <Gold.Chemscore.DEInternal.Weighted>
0.4583

> <Gold.Chemscore.Rot.Weighted>
3.2671

> <Gold.Chemscore.Internal.Correction.Weighted>
   9.000000E+99

> <Gold.Protein.RotatedTorsions>
[ 6907 6896 6895 6894 ] final -122.60 input  -60.11 | X-H torsion
[ 7974 7965 7964 7962 ] final   71.09 input  175.53 | X-H torsion
[ 8008 7997 7996 7995 ] final  -31.96 input   59.86 | X-H torsion
[ 10167 10162 10161 10158 ] final  118.39 input  -65.29 | X-H torsion
[ 10718 10713 10712 10709 ] final   -8.86 input   66.30 | X-H torsion
[ 10763 10752 10751 10750 ] final  165.91 input  -60.55 | X-H torsion
[ 11005 11000 10999 10996 ] final  178.88 input  -57.11 | X-H torsion

> <Gold.Protein.ActiveResidues>
 VAL166  LYS551  ARG553  GLY616  TRP617  ASP618  TYR619  PRO620  LYS621  CYS622 
 ASP623  PHE694  ASN695  SER759  ASP760  ASP761  ALA762  ILE779  LEU786  VAL792 
 PHE793  MET794  SER795  GLU796  ALA797  LYS798  CYS799  TRP800  GLU811  SER814 

> <Gold.Protein.RotatedAtoms>
  150.8591  133.7671  159.2998 H   0  0  0  0  0  0  0  0  0  0  0  0  # atno 6907 bound_to 6896
  151.5319  135.1067  159.9914 H   0  0  0  0  0  0  0  0  0  0  0  0  # atno 6908 bound_to 6896
  152.4612  133.7783  159.6892 H   0  0  0  0  0  0  0  0  0  0  0  0  # atno 6909 bound_to 6896
  145.7701  139.2839  143.1326 H   0  0  0  0  0  0  0  0  0  0  0  0  # atno 7974 bound_to 7965
  154.4196  140.1750  156.1651 H   0  0  0  0  0  0  0  0  0  0  0  0  # atno 8008 bound_to 7997
  155.9806  140.3378  155.6635 H   0  0  0  0  0  0  0  0  0  0  0  0  # atno 8009 bound_to 7997
  155.6505  140.0690  157.2579 H   0  0  0  0  0  0  0  0  0  0  0  0  # atno 8010 bound_to 7997
  139.6115  144.7083  151.2834 H   0  0  0  0  0  0  0  0  0  0  0  0  # atno 10167 bound_to 10162
  156.6964  130.5080  149.5929 H   0  0  0  0  0  0  0  0  0  0  0  0  # atno 10718 bound_to 10713
  154.3312  135.2755  155.2471 H   0  0  0  0  0  0  0  0  0  0  0  0  # atno 10763 bound_to 10752
  154.4782  135.5865  153.6374 H   0  0  0  0  0  0  0  0  0  0  0  0  # atno 10764 bound_to 10752
  152.9866  135.6105  154.3504 H   0  0  0  0  0  0  0  0  0  0  0  0  # atno 10765 bound_to 10752
  140.3999  134.6786  157.4556 H   0  0  0  0  0  0  0  0  0  0  0  0  # atno 11005 bound_to 11000
  146.0179  140.8375  142.9938 LP  0  0  0  0  0  0  0  0  0  0  0  0  # atno 17320 bound_to 7965
  144.6814  140.2585  143.7322 LP  0  0  0  0  0  0  0  0  0  0  0  0  # atno 17321 bound_to 7965
  140.7322  143.6830  150.7985 LP  0  0  0  0  0  0  0  0  0  0  0  0  # atno 17342 bound_to 10162
  140.0425  143.5331  152.2711 LP  0  0  0  0  0  0  0  0  0  0  0  0  # atno 17343 bound_to 10162
  156.1760  130.6468  151.0895 LP  0  0  0  0  0  0  0  0  0  0  0  0  # atno 17370 bound_to 10713
  157.6989  131.0783  150.6881 LP  0  0  0  0  0  0  0  0  0  0  0  0  # atno 17371 bound_to 10713
  140.0344  134.6359  155.9063 LP  0  0  0  0  0  0  0  0  0  0  0  0  # atno 17394 bound_to 11000
  141.1860  133.6556  156.5222 LP  0  0  0  0  0  0  0  0  0  0  0  0  # atno 17395 bound_to 11000

$$$$
