AV-unprocessed.smi:967|AV-procd|sdf|4286|dock2
  -GOLD-   22720 2193D 1   1.00000     0.00000
 Structure written by MMmdl.
 43 44  0  0  0  0  0  0  0  0  2 V2000
  148.6929  122.8202  152.4338 C   0  0  0  0  0  0  0  0  0  0  0  0
  149.3604  123.8958  153.1512 N   0  0  0  0  0  0  0  0  0  0  0  0
  150.8045  123.7730  153.2825 C   0  0  0  0  0  0  0  0  0  0  0  0
  148.9576  125.1684  152.7234 C   0  0  0  0  0  0  0  0  0  0  0  0
  149.3273  125.6671  151.4571 C   0  0  0  0  0  0  0  0  0  0  0  0
  148.8984  126.9527  151.0680 C   0  0  0  0  0  0  0  0  0  0  0  0
  148.0980  127.7196  151.9425 C   0  0  0  0  0  0  0  0  0  0  0  0
  147.6983  129.0136  151.5120 N   0  0  0  0  0  0  0  0  0  0  0  0
  146.5087  129.6185  151.6748 C   0  0  0  0  0  0  0  0  0  0  0  0
  145.5284  129.1186  152.2257 O   0  0  0  0  0  0  0  0  0  0  0  0
  146.5154  130.8465  151.1366 N   0  0  0  0  0  0  0  0  0  0  0  0
  145.3896  131.7767  151.1084 C   0  0  2  0  0  0  0  0  0  0  0  0
  145.0568  132.1465  149.6511 C   0  0  0  0  0  0  0  0  0  0  0  0
  143.9266  133.1881  149.5756 C   0  0  0  0  0  0  0  0  0  0  0  0
  144.2312  134.4433  150.4152 C   0  0  2  0  0  0  0  0  0  0  0  0
  145.2759  135.1850  149.8167 O   0  0  0  0  0  0  0  0  0  0  0  0
  144.6057  134.0777  151.8640 C   0  0  0  0  0  0  0  0  0  0  0  0
  145.7341  133.0333  151.9287 C   0  0  0  0  0  0  0  0  0  0  0  0
  147.7689  127.1730  153.2073 C   0  0  0  0  0  0  0  0  0  0  0  0
  148.2024  125.9382  153.5423 N   0  3  0  0  0  0  0  0  0  0  0  0
  147.6159  122.9894  152.3927 H   0  0  0  0  0  0  0  0  0  0  0  0
  148.8652  121.8685  152.9371 H   0  0  0  0  0  0  0  0  0  0  0  0
  149.0693  122.7392  151.4134 H   0  0  0  0  0  0  0  0  0  0  0  0
  151.2189  124.6174  153.8344 H   0  0  0  0  0  0  0  0  0  0  0  0
  151.2838  123.7310  152.3036 H   0  0  0  0  0  0  0  0  0  0  0  0
  151.0568  122.8612  153.8243 H   0  0  0  0  0  0  0  0  0  0  0  0
  149.9340  125.0729  150.7892 H   0  0  0  0  0  0  0  0  0  0  0  0
  149.1797  127.3419  150.1001 H   0  0  0  0  0  0  0  0  0  0  0  0
  148.3818  129.5220  150.9702 H   0  0  0  0  0  0  0  0  0  0  0  0
  147.3682  131.1649  150.7000 H   0  0  0  0  0  0  0  0  0  0  0  0
  144.5054  131.3167  151.5533 H   0  0  0  0  0  0  0  0  0  0  0  0
  145.9463  132.5392  149.1561 H   0  0  0  0  0  0  0  0  0  0  0  0
  144.7670  131.2530  149.0968 H   0  0  0  0  0  0  0  0  0  0  0  0
  143.7388  133.4636  148.5372 H   0  0  0  0  0  0  0  0  0  0  0  0
  143.0046  132.7331  149.9399 H   0  0  0  0  0  0  0  0  0  0  0  0
  143.3509  135.0866  150.4256 H   0  0  0  0  0  0  0  0  0  0  0  0
  145.3071  134.9713  148.8966 H   0  0  0  0  0  0  0  0  0  0  0  0
  144.8902  134.9723  152.4194 H   0  0  0  0  0  0  0  0  0  0  0  0
  143.7252  133.6760  152.3670 H   0  0  0  0  0  0  0  0  0  0  0  0
  145.9192  132.7601  152.9681 H   0  0  0  0  0  0  0  0  0  0  0  0
  146.6601  133.4754  151.5579 H   0  0  0  0  0  0  0  0  0  0  0  0
  147.1899  127.6719  153.9697 H   0  0  0  0  0  0  0  0  0  0  0  0
  147.9497  125.5697  154.4593 H   0  0  0  0  0  0  0  0  0  0  0  0
  1  2  1  0  0  0  0
  1 21  1  0  0  0  0
  1 22  1  0  0  0  0
  1 23  1  0  0  0  0
  2  3  1  0  0  0  0
  2  4  1  0  0  0  0
  3 24  1  0  0  0  0
  3 25  1  0  0  0  0
  3 26  1  0  0  0  0
  4 20  1  0  0  0  0
  4  5  2  0  0  0  0
  5  6  1  0  0  0  0
  5 27  1  0  0  0  0
  6  7  2  0  0  0  0
  6 28  1  0  0  0  0
  7  8  1  0  0  0  0
  7 19  1  0  0  0  0
  8  9  1  0  0  0  0
  8 29  1  0  0  0  0
  9 10  2  0  0  0  0
  9 11  1  0  0  0  0
 11 12  1  0  0  0  0
 11 30  1  0  0  0  0
 12 18  1  0  0  0  0
 12 13  1  0  0  0  0
 12 31  1  0  0  0  0
 13 14  1  0  0  0  0
 13 32  1  0  0  0  0
 13 33  1  0  0  0  0
 14 15  1  0  0  0  0
 14 34  1  0  0  0  0
 14 35  1  0  0  0  0
 15 16  1  0  0  0  0
 15 17  1  0  0  0  0
 15 36  1  0  0  0  0
 16 37  1  0  0  0  0
 17 18  1  0  0  0  0
 17 38  1  0  0  0  0
 17 39  1  0  0  0  0
 18 40  1  0  0  0  0
 18 41  1  0  0  0  0
 19 20  2  0  0  0  0
 19 42  1  0  0  0  0
 20 43  1  0  0  0  0
M  CHG  1  20   1
M  END
> <s_m_source_file>
AV-unprocessed.smi

> <i_m_source_file_index>
967

> <i_lp_mmshare_version>
43012

> <i_f3d_flags>
0

> <s_epik_input>
W0NIM11OKFtDSDNdKWMxW2NIXVtjSF1jKFtjSF1uMSlbTkhdQyg9TylbTkhdW0NAQEhdMltDSDJdW0NIMl1bQ0BASF0oW09IXSlbQ0gyXVtDSDJdMg==

> <s_epik_cmdline>
J2VwaWtfcHl0aG9uJywgJy1waCcsICc3LjAnLCAnLXRuJywgJzgnLCAnLW1hJywgJzIwMCcsICctbWV0YWxfYmluZGluZycsICctaW1hZScsICc8aW5maWxlLm1hZT4nLCAnLW9tYWUnLCAnPG91dGZpbGUubWFlPic=

> <r_lp_tautomer_probability>
0.999994

> <r_epik_Ionization_Penalty>
0.251848

> <r_epik_Ionization_Penalty_Charging>
0.251826

> <r_epik_Ionization_Penalty_Neutral>
2.16844e-05

> <r_epik_State_Penalty>
0.243201

> <r_epik_Charging_Adjusted_Penalty>
0.495027

> <i_epik_Tot_Q>
1

> <i_epik_Tot_abs_Q>
1

> <r_epik_Metal_State_Penalty>
0.534113

> <b_epik_Metal_Only>
0

> <s_lp_Force_Field>
OPLS_2005

> <r_lp_Energy>
23.5814

> <b_lp_Chiralities_Consistent>
1

> <s_lp_Variant>
AV-unprocessed.smi:967-2

> <Gold.Version>
5.8.1

> <Gold.Id.Protein>
6NUR|6NUR_protein|mol2

> <Gold.PLP.Fitness>
42.7362

> <Gold.PLP.PLP>
-34.6466

> <Gold.PLP.part.hbond>
-2.9876

> <Gold.PLP.part.metal>
0.0000

> <Gold.PLP.part.buried>
-5.0792

> <Gold.PLP.part.nonpolar>
-27.1611

> <Gold.PLP.part.repulsive>
0.3859

> <Gold.PLP.ligand.clash>
0.0000

> <Gold.PLP.ligand.torsion>
0.4414

> <Gold.PLP.Chemscore.Hbond>
2.9260

> <Gold.PLP.Chemscore.CHOScore>
0.0000

> <Gold.PLP.Chemscore.Metal>
0.0000

> <Gold.Chemscore.Hbonds>
donor molecule, donor type, donor heavy atom, donor atom, acceptor molecule, acceptor atom, score
      L1  H     8    29       P1 10747  0.95
      L1  H    11    30       P1 10747  0.98
      L1  H    16    37       P1  7921  0.92

> <Gold.PLP.Chemscore.Internal.Correction>
0.1943

> <Gold.Rescore>
     Score         DG    S(hbond)    S(metal)    S(lipo)     H(rot)  DE(clash)    DE(int)     intcor
     17.63     -18.11       2.49        0.00      74.74       1.73       0.08       0.40       ----

> <Gold.Chemscore.Fitness>
17.6322

> <Gold.Chemscore.DG>
-18.1089

> <Gold.Chemscore.ZeroCoef>
-5.4800

> <Gold.Chemscore.Hbond>
2.4890

> <Gold.Chemscore.Metal>
0.0000

> <Gold.Chemscore.Lipo>
74.7355

> <Gold.Chemscore.Internal_Hbond>
0.0000

> <Gold.Chemscore.DEClash>
0.0813

> <Gold.Chemscore.DEInternal>
0.3954

> <Gold.Chemscore.Rot>
1.7299

> <Gold.Chemscore.Internal.Correction>
   9.000000E+99

> <Gold.Chemscore.Hbonds>
donor molecule, donor type, donor heavy atom, donor atom, acceptor molecule, acceptor atom, score
      L1  H     8    29       P1 10747  0.21
      L1  H    11    30       P1 10747  0.92
      L1  H    16    37       P1  7921  0.84

> <Gold.Chemscore.Hbond.Weighted>
-8.3133

> <Gold.Chemscore.Metal.Weighted>
-0.0000

> <Gold.Chemscore.Lipo.Weighted>
-8.7441

> <Gold.Chemscore.Internal_Hbond.Weighted>
0.0000

> <Gold.Chemscore.DEClash.Weighted>
0.0813

> <Gold.Chemscore.DEInternal.Weighted>
0.3954

> <Gold.Chemscore.Rot.Weighted>
4.4285

> <Gold.Chemscore.Internal.Correction.Weighted>
   9.000000E+99

> <Gold.Protein.RotatedTorsions>
[ 6907 6896 6895 6894 ] final  -56.98 input  -60.11 | X-H torsion
[ 7974 7965 7964 7962 ] final   12.30 input  175.53 | X-H torsion
[ 8008 7997 7996 7995 ] final  -28.38 input   59.86 | X-H torsion
[ 10167 10162 10161 10158 ] final -151.02 input  -65.29 | X-H torsion
[ 10718 10713 10712 10709 ] final  167.91 input   66.30 | X-H torsion
[ 10763 10752 10751 10750 ] final   45.80 input  -60.55 | X-H torsion
[ 11005 11000 10999 10996 ] final   -4.15 input  -57.11 | X-H torsion

> <Gold.Protein.ActiveResidues>
 VAL166  LYS551  ARG553  GLY616  TRP617  ASP618  TYR619  PRO620  LYS621  CYS622 
 ASP623  PHE694  ASN695  SER759  ASP760  ASP761  ALA762  ILE779  LEU786  VAL792 
 PHE793  MET794  SER795  GLU796  ALA797  LYS798  CYS799  TRP800  GLU811  SER814 

> <Gold.Protein.RotatedAtoms>
  150.8123  134.7285  159.6698 H   0  0  0  0  0  0  0  0  0  0  0  0  # atno 6907 bound_to 6896
  152.4243  134.5895  159.9980 H   0  0  0  0  0  0  0  0  0  0  0  0  # atno 6908 bound_to 6896
  151.6101  133.3311  159.3102 H   0  0  0  0  0  0  0  0  0  0  0  0  # atno 6909 bound_to 6896
  146.2354  139.9357  142.8490 H   0  0  0  0  0  0  0  0  0  0  0  0  # atno 7974 bound_to 7965
  154.4335  140.1847  156.1080 H   0  0  0  0  0  0  0  0  0  0  0  0  # atno 8008 bound_to 7997
  156.0240  140.3337  155.7043 H   0  0  0  0  0  0  0  0  0  0  0  0  # atno 8009 bound_to 7997
  155.5935  140.0633  157.2743 H   0  0  0  0  0  0  0  0  0  0  0  0  # atno 8010 bound_to 7997
  139.7303  143.8818  152.2532 H   0  0  0  0  0  0  0  0  0  0  0  0  # atno 10167 bound_to 10162
  157.0447  131.0296  151.2701 H   0  0  0  0  0  0  0  0  0  0  0  0  # atno 10718 bound_to 10713
  152.9819  135.6028  154.3496 H   0  0  0  0  0  0  0  0  0  0  0  0  # atno 10763 bound_to 10752
  154.3187  135.2770  155.2532 H   0  0  0  0  0  0  0  0  0  0  0  0  # atno 10764 bound_to 10752
  154.4709  135.5942  153.6376 H   0  0  0  0  0  0  0  0  0  0  0  0  # atno 10765 bound_to 10752
  140.6771  133.9185  155.8531 H   0  0  0  0  0  0  0  0  0  0  0  0  # atno 11005 bound_to 11000
  145.2001  140.9850  143.4161 LP  0  0  0  0  0  0  0  0  0  0  0  0  # atno 17320 bound_to 7965
  144.9781  139.3811  143.6275 LP  0  0  0  0  0  0  0  0  0  0  0  0  # atno 17321 bound_to 7965
  139.8740  144.7053  150.8955 LP  0  0  0  0  0  0  0  0  0  0  0  0  # atno 17342 bound_to 10162
  140.7770  143.3715  151.1640 LP  0  0  0  0  0  0  0  0  0  0  0  0  # atno 17343 bound_to 10162
  157.5077  130.7919  149.7672 LP  0  0  0  0  0  0  0  0  0  0  0  0  # atno 17370 bound_to 10713
  156.0027  130.3872  150.2546 LP  0  0  0  0  0  0  0  0  0  0  0  0  # atno 17371 bound_to 10713
  141.0346  134.0707  157.3974 LP  0  0  0  0  0  0  0  0  0  0  0  0  # atno 17394 bound_to 11000
  139.8963  135.0145  156.7045 LP  0  0  0  0  0  0  0  0  0  0  0  0  # atno 17395 bound_to 11000

$$$$
