AV-unprocessed.smi:2883|AV-procd|sdf|11079|dock5
  -GOLD-   2272015553D 1   1.00000     0.00000
 Structure written by MMmdl.
 39 41  0  0  0  0  0  0  0  0  1 V2000
  147.4747  138.8073  153.4686 C   0  0  0  0  0  0  0  0  0  0  0  0
  147.5274  140.1724  154.1942 C   0  0  0  0  0  0  0  0  0  0  0  0
  147.1645  141.2371  153.1316 C   0  0  0  0  0  0  0  0  0  0  0  0
  146.4835  140.1955  155.3256 C   0  0  0  0  0  0  0  0  0  0  0  0
  148.9247  140.4345  154.7813 C   0  0  0  0  0  0  0  0  0  0  0  0
  149.8090  139.4292  154.7358 N   0  0  0  0  0  0  0  0  0  0  0  0
  150.9914  139.6095  155.3614 C   0  0  0  0  0  0  0  0  0  0  0  0
  151.2839  140.7919  156.0682 C   0  0  0  0  0  0  0  0  0  0  0  0
  150.2738  141.7735  156.0933 C   0  0  0  0  0  0  0  0  0  0  0  0
  150.4912  142.9703  156.7897 N   0  0  0  0  0  0  0  0  0  0  0  0
  150.9371  142.9596  158.1789 C   0  0  2  0  0  0  0  0  0  0  0  0
  150.0748  143.8373  159.0953 C   0  0  0  0  0  0  0  0  0  0  0  0
  151.1204  144.7735  159.7133 C   0  0  1  0  0  0  0  0  0  0  0  0
  152.0661  144.0385  160.6729 C   0  0  0  0  0  0  0  0  0  0  0  0
  152.9387  143.2423  159.7027 C   0  0  0  0  0  0  0  0  0  0  0  0
  152.3207  143.6100  158.3468 C   0  0  2  0  0  0  0  0  0  0  0  0
  151.9723  144.9624  158.5974 O   0  0  0  0  0  0  0  0  0  0  0  0
  149.0935  141.5755  155.4619 N   0  0  0  0  0  0  0  0  0  0  0  0
  146.4993  138.6380  153.0111 H   0  0  0  0  0  0  0  0  0  0  0  0
  147.6500  137.9747  154.1506 H   0  0  0  0  0  0  0  0  0  0  0  0
  148.2222  138.7493  152.6765 H   0  0  0  0  0  0  0  0  0  0  0  0
  147.9036  141.2660  152.3299 H   0  0  0  0  0  0  0  0  0  0  0  0
  147.1029  142.2386  153.5595 H   0  0  0  0  0  0  0  0  0  0  0  0
  146.1954  141.0294  152.6767 H   0  0  0  0  0  0  0  0  0  0  0  0
  145.4779  140.0165  154.9436 H   0  0  0  0  0  0  0  0  0  0  0  0
  146.4746  141.1591  155.8363 H   0  0  0  0  0  0  0  0  0  0  0  0
  146.6931  139.4299  156.0733 H   0  0  0  0  0  0  0  0  0  0  0  0
  151.7063  138.8023  155.3031 H   0  0  0  0  0  0  0  0  0  0  0  0
  152.2309  140.9306  156.5686 H   0  0  0  0  0  0  0  0  0  0  0  0
  150.1834  143.8442  156.3882 H   0  0  0  0  0  0  0  0  0  0  0  0
  150.9717  141.9283  158.5329 H   0  0  0  0  0  0  0  0  0  0  0  0
  149.3440  144.4158  158.5280 H   0  0  0  0  0  0  0  0  0  0  0  0
  149.5364  143.2581  159.8463 H   0  0  0  0  0  0  0  0  0  0  0  0
  150.7021  145.6944  160.1206 H   0  0  0  0  0  0  0  0  0  0  0  0
  152.6724  144.7449  161.2410 H   0  0  0  0  0  0  0  0  0  0  0  0
  151.5276  143.4041  161.3778 H   0  0  0  0  0  0  0  0  0  0  0  0
  153.9748  143.5783  159.7583 H   0  0  0  0  0  0  0  0  0  0  0  0
  152.9175  142.1691  159.8953 H   0  0  0  0  0  0  0  0  0  0  0  0
  152.9981  143.4614  157.5050 H   0  0  0  0  0  0  0  0  0  0  0  0
  1  2  1  0  0  0  0
  1 19  1  0  0  0  0
  1 20  1  0  0  0  0
  1 21  1  0  0  0  0
  2  3  1  0  0  0  0
  2  4  1  0  0  0  0
  2  5  1  0  0  0  0
  3 22  1  0  0  0  0
  3 23  1  0  0  0  0
  3 24  1  0  0  0  0
  4 25  1  0  0  0  0
  4 26  1  0  0  0  0
  4 27  1  0  0  0  0
  5 18  1  0  0  0  0
  5  6  2  0  0  0  0
  6  7  1  0  0  0  0
  7  8  2  0  0  0  0
  7 28  1  0  0  0  0
  8  9  1  0  0  0  0
  8 29  1  0  0  0  0
  9 10  1  0  0  0  0
  9 18  2  0  0  0  0
 10 11  1  0  0  0  0
 10 30  1  0  0  0  0
 11 16  1  0  0  0  0
 11 12  1  0  0  0  0
 11 31  1  0  0  0  0
 12 13  1  0  0  0  0
 12 32  1  0  0  0  0
 12 33  1  0  0  0  0
 13 17  1  0  0  0  0
 13 14  1  0  0  0  0
 13 34  1  0  0  0  0
 14 15  1  0  0  0  0
 14 35  1  0  0  0  0
 14 36  1  0  0  0  0
 15 16  1  0  0  0  0
 15 37  1  0  0  0  0
 15 38  1  0  0  0  0
 16 17  1  0  0  0  0
 16 39  1  0  0  0  0
M  END
> <s_m_source_file>
AV-unprocessed.smi

> <i_m_source_file_index>
2883

> <i_lp_mmshare_version>
43012

> <i_f3d_flags>
0

> <s_epik_input>
W0NIM11DKFtDSDNdKShbQ0gzXSljMW5bY0hdW2NIXWMobjEpW05IXVtDQEhdKFtDSDJdW0NAQEhdMjMpW0NAQEhdKE8zKVtDSDJdW0NIMl0y

> <s_epik_cmdline>
J2VwaWtfcHl0aG9uJywgJy1waCcsICc3LjAnLCAnLXRuJywgJzgnLCAnLW1hJywgJzIwMCcsICctbWV0YWxfYmluZGluZycsICctaW1hZScsICc8aW5maWxlLm1hZT4nLCAnLW9tYWUnLCAnPG91dGZpbGUubWFlPic=

> <r_lp_tautomer_probability>
1

> <r_epik_Ionization_Penalty>
0.453006

> <r_epik_Ionization_Penalty_Charging>
0

> <r_epik_Ionization_Penalty_Neutral>
0.453006

> <r_epik_State_Penalty>
0.455155

> <r_epik_Charging_Adjusted_Penalty>
0.455155

> <i_epik_Tot_Q>
0

> <i_epik_Tot_abs_Q>
0

> <r_epik_Metal_State_Penalty>
0.255592

> <b_epik_Metal_Only>
0

> <s_lp_Force_Field>
OPLS_2005

> <r_lp_Energy>
33.3258

> <b_lp_Chiralities_Consistent>
1

> <s_lp_Variant>
AV-unprocessed.smi:2883-5

> <Gold.Version>
5.8.1

> <Gold.Id.Protein>
6NUR|6NUR_protein|mol2

> <Gold.PLP.Fitness>
38.9398

> <Gold.PLP.PLP>
-36.9662

> <Gold.PLP.part.hbond>
-1.0000

> <Gold.PLP.part.metal>
0.0000

> <Gold.PLP.part.buried>
-7.0085

> <Gold.PLP.part.nonpolar>
-30.0588

> <Gold.PLP.part.repulsive>
0.3425

> <Gold.PLP.ligand.clash>
0.0000

> <Gold.PLP.ligand.torsion>
0.5895

> <Gold.PLP.Chemscore.Hbond>
1.0000

> <Gold.PLP.Chemscore.CHOScore>
0.0000

> <Gold.PLP.Chemscore.Metal>
0.0000

> <Gold.Chemscore.Hbonds>
donor molecule, donor type, donor heavy atom, donor atom, acceptor molecule, acceptor atom, score
      L1  H    10    30       P1  8028  0.96

> <Gold.PLP.Chemscore.Internal.Correction>
0.1526

> <Gold.Rescore>
     Score         DG    S(hbond)    S(metal)    S(lipo)     H(rot)  DE(clash)    DE(int)     intcor
     16.94     -17.59       0.97        0.00     100.79       1.15       0.09       0.56       ----

> <Gold.Chemscore.Fitness>
16.9369

> <Gold.Chemscore.DG>
-17.5892

> <Gold.Chemscore.ZeroCoef>
-5.4800

> <Gold.Chemscore.Hbond>
0.9747

> <Gold.Chemscore.Metal>
0.0000

> <Gold.Chemscore.Lipo>
100.7936

> <Gold.Chemscore.Internal_Hbond>
0.0000

> <Gold.Chemscore.DEClash>
0.0887

> <Gold.Chemscore.DEInternal>
0.5635

> <Gold.Chemscore.Rot>
1.1482

> <Gold.Chemscore.Internal.Correction>
   9.000000E+99

> <Gold.Chemscore.Hbonds>
donor molecule, donor type, donor heavy atom, donor atom, acceptor molecule, acceptor atom, score
      L1  H    10    30       P1  8028  0.92

> <Gold.Chemscore.Hbond.Weighted>
-3.2556

> <Gold.Chemscore.Metal.Weighted>
-0.0000

> <Gold.Chemscore.Lipo.Weighted>
-11.7929

> <Gold.Chemscore.Internal_Hbond.Weighted>
0.0000

> <Gold.Chemscore.DEClash.Weighted>
0.0887

> <Gold.Chemscore.DEInternal.Weighted>
0.5635

> <Gold.Chemscore.Rot.Weighted>
2.9393

> <Gold.Chemscore.Internal.Correction.Weighted>
   9.000000E+99

> <Gold.Protein.RotatedTorsions>
[ 6907 6896 6895 6894 ] final  179.59 input  -60.11 | X-H torsion
[ 7974 7965 7964 7962 ] final   87.74 input  175.53 | X-H torsion
[ 8008 7997 7996 7995 ] final   35.71 input   59.86 | X-H torsion
[ 10167 10162 10161 10158 ] final -115.61 input  -65.29 | X-H torsion
[ 10718 10713 10712 10709 ] final -136.47 input   66.30 | X-H torsion
[ 10763 10752 10751 10750 ] final  165.31 input  -60.55 | X-H torsion
[ 11005 11000 10999 10996 ] final  137.63 input  -57.11 | X-H torsion

> <Gold.Protein.ActiveResidues>
 VAL166  LYS551  ARG553  GLY616  TRP617  ASP618  TYR619  PRO620  LYS621  CYS622 
 ASP623  PHE694  ASN695  SER759  ASP760  ASP761  ALA762  ILE779  LEU786  VAL792 
 PHE793  MET794  SER795  GLU796  ALA797  LYS798  CYS799  TRP800  GLU811  SER814 

> <Gold.Protein.RotatedAtoms>
  151.6692  133.3314  159.3192 H   0  0  0  0  0  0  0  0  0  0  0  0  # atno 6907 bound_to 6896
  150.7876  134.6877  159.6489 H   0  0  0  0  0  0  0  0  0  0  0  0  # atno 6908 bound_to 6896
  152.3949  134.6385  160.0145 H   0  0  0  0  0  0  0  0  0  0  0  0  # atno 6909 bound_to 6896
  145.5550  139.2299  143.2491 H   0  0  0  0  0  0  0  0  0  0  0  0  # atno 7974 bound_to 7965
  155.1756  140.3295  155.4384 H   0  0  0  0  0  0  0  0  0  0  0  0  # atno 8008 bound_to 7997
  156.2495  140.1936  156.6807 H   0  0  0  0  0  0  0  0  0  0  0  0  # atno 8009 bound_to 7997
  154.6307  140.0583  156.9715 H   0  0  0  0  0  0  0  0  0  0  0  0  # atno 8010 bound_to 7997
  140.0883  143.4724  152.1885 H   0  0  0  0  0  0  0  0  0  0  0  0  # atno 10167 bound_to 10162
  156.2774  130.7301  151.1288 H   0  0  0  0  0  0  0  0  0  0  0  0  # atno 10718 bound_to 10713
  154.3221  135.2756  155.2514 H   0  0  0  0  0  0  0  0  0  0  0  0  # atno 10763 bound_to 10752
  154.4863  135.5845  153.6429 H   0  0  0  0  0  0  0  0  0  0  0  0  # atno 10764 bound_to 10752
  152.9875  135.6123  154.3407 H   0  0  0  0  0  0  0  0  0  0  0  0  # atno 10765 bound_to 10752
  140.0127  134.9432  157.0312 H   0  0  0  0  0  0  0  0  0  0  0  0  # atno 11005 bound_to 11000
  146.1890  140.6374  142.9154 LP  0  0  0  0  0  0  0  0  0  0  0  0  # atno 17320 bound_to 7965
  144.7510  140.5192  143.6801 LP  0  0  0  0  0  0  0  0  0  0  0  0  # atno 17321 bound_to 7965
  139.5740  144.7477  151.3815 LP  0  0  0  0  0  0  0  0  0  0  0  0  # atno 17342 bound_to 10162
  140.7042  143.7556  150.7454 LP  0  0  0  0  0  0  0  0  0  0  0  0  # atno 17343 bound_to 10162
  157.7304  131.0617  150.5730 LP  0  0  0  0  0  0  0  0  0  0  0  0  # atno 17370 bound_to 10713
  156.5832  130.4310  149.5968 LP  0  0  0  0  0  0  0  0  0  0  0  0  # atno 17371 bound_to 10713
  140.4525  134.1568  155.7183 LP  0  0  0  0  0  0  0  0  0  0  0  0  # atno 17394 bound_to 11000
  141.1722  133.8586  157.1534 LP  0  0  0  0  0  0  0  0  0  0  0  0  # atno 17395 bound_to 11000

$$$$
