AV-unprocessed.smi:2706|AV-procd|sdf|10455|dock5
  -GOLD-   2272014493D 1   1.00000     0.00000
 Structure written by MMmdl.
 43 46  0  0  0  0  0  0  0  0  1 V2000
  150.6472  144.4184  158.4675 C   0  0  0  0  0  0  0  0  0  0  0  0
  151.4204  144.1375  159.6652 N   0  0  0  0  0  0  0  0  0  0  0  0
  151.2074  145.0391  160.7846 C   0  0  0  0  0  0  0  0  0  0  0  0
  152.0757  142.9321  159.8296 C   0  0  0  0  0  0  0  0  0  0  0  0
  152.7816  142.7119  160.9549 C   0  0  0  0  0  0  0  0  0  0  0  0
  153.4698  141.4500  161.1312 C   0  0  0  0  0  0  0  0  0  0  0  0
  153.4156  140.4897  160.1857 C   0  0  0  0  0  0  0  0  0  0  0  0
  152.6647  140.6885  158.9577 C   0  0  0  0  0  0  0  0  0  0  0  0
  152.6292  139.7446  158.0617 N   0  0  0  0  0  0  0  0  0  0  0  0
  151.9312  139.8663  156.8649 C   0  0  0  0  0  0  0  0  0  0  0  0
  151.1479  140.7532  156.5121 O   0  0  0  0  0  0  0  0  0  0  0  0
  152.2242  138.8301  156.0671 N   0  0  0  0  0  0  0  0  0  0  0  0
  151.7087  138.5964  154.7563 C   0  0  2  0  0  0  0  0  0  0  0  0
  150.2168  138.6391  154.4789 C   0  0  2  0  0  0  0  0  0  0  0  0
  149.0161  138.3057  155.3721 C   0  0  2  0  0  0  0  0  0  0  0  0
  149.3983  138.0760  156.8483 C   0  0  0  0  0  0  0  0  0  0  0  0
  150.1613  136.7347  156.7873 C   0  0  0  0  0  0  0  0  0  0  0  0
  150.1054  136.3911  155.2852 C   0  0  1  0  0  0  0  0  0  0  0  0
  148.7014  136.8770  154.9430 C   0  0  0  0  0  0  0  0  0  0  0  0
  150.9713  137.3131  154.4187 C   0  0  2  0  0  0  0  0  0  0  0  0
  152.0224  141.9369  158.8551 N   0  0  0  0  0  0  0  0  0  0  0  0
  151.0439  143.8682  157.6136 H   0  0  0  0  0  0  0  0  0  0  0  0
  150.6757  145.4815  158.2268 H   0  0  0  0  0  0  0  0  0  0  0  0
  149.6074  144.1240  158.6115 H   0  0  0  0  0  0  0  0  0  0  0  0
  151.9914  144.9179  161.5329 H   0  0  0  0  0  0  0  0  0  0  0  0
  150.2474  144.8329  161.2583 H   0  0  0  0  0  0  0  0  0  0  0  0
  151.2142  146.0780  160.4539 H   0  0  0  0  0  0  0  0  0  0  0  0
  152.8387  143.4673  161.7256 H   0  0  0  0  0  0  0  0  0  0  0  0
  154.0355  141.2756  162.0346 H   0  0  0  0  0  0  0  0  0  0  0  0
  153.9494  139.5695  160.3740 H   0  0  0  0  0  0  0  0  0  0  0  0
  152.8731  138.1415  156.4204 H   0  0  0  0  0  0  0  0  0  0  0  0
  152.3227  138.9826  153.9442 H   0  0  0  0  0  0  0  0  0  0  0  0
  149.9313  139.0633  153.5179 H   0  0  0  0  0  0  0  0  0  0  0  0
  148.1966  139.0113  155.2332 H   0  0  0  0  0  0  0  0  0  0  0  0
  149.9732  138.8965  157.2754 H   0  0  0  0  0  0  0  0  0  0  0  0
  148.5013  137.9678  157.4592 H   0  0  0  0  0  0  0  0  0  0  0  0
  151.1764  136.7815  157.1792 H   0  0  0  0  0  0  0  0  0  0  0  0
  149.6333  135.9779  157.3688 H   0  0  0  0  0  0  0  0  0  0  0  0
  150.2863  135.3384  155.0664 H   0  0  0  0  0  0  0  0  0  0  0  0
  147.9132  136.4019  155.5305 H   0  0  0  0  0  0  0  0  0  0  0  0
  148.4596  136.7875  153.8822 H   0  0  0  0  0  0  0  0  0  0  0  0
  151.1518  136.9182  153.4205 H   0  0  0  0  0  0  0  0  0  0  0  0
  151.4777  142.1611  158.0348 H   0  0  0  0  0  0  0  0  0  0  0  0
  1  2  1  0  0  0  0
  1 22  1  0  0  0  0
  1 23  1  0  0  0  0
  1 24  1  0  0  0  0
  2  3  1  0  0  0  0
  2  4  1  0  0  0  0
  3 25  1  0  0  0  0
  3 26  1  0  0  0  0
  3 27  1  0  0  0  0
  4 21  1  0  0  0  0
  4  5  2  0  0  0  0
  5  6  1  0  0  0  0
  5 28  1  0  0  0  0
  6  7  2  0  0  0  0
  6 29  1  0  0  0  0
  7  8  1  0  0  0  0
  7 30  1  0  0  0  0
  8  9  2  0  0  0  0
  8 21  1  0  0  0  0
  9 10  1  0  0  0  0
 10 11  2  0  0  0  0
 10 12  1  0  0  0  0
 12 13  1  0  0  0  0
 12 31  1  0  0  0  0
 13 20  1  0  0  0  0
 13 14  1  0  0  0  0
 13 32  1  0  0  0  0
 14 20  1  0  0  0  0
 14 15  1  0  0  0  0
 14 33  1  0  0  0  0
 15 19  1  0  0  0  0
 15 16  1  0  0  0  0
 15 34  1  0  0  0  0
 16 17  1  0  0  0  0
 16 35  1  0  0  0  0
 16 36  1  0  0  0  0
 17 18  1  0  0  0  0
 17 37  1  0  0  0  0
 17 38  1  0  0  0  0
 18 19  1  0  0  0  0
 18 20  1  0  0  0  0
 18 39  1  0  0  0  0
 19 40  1  0  0  0  0
 19 41  1  0  0  0  0
 20 42  1  0  0  0  0
 21 43  1  0  0  0  0
M  END
> <s_m_source_file>
AV-unprocessed.smi

> <i_m_source_file_index>
2706

> <i_lp_mmshare_version>
43012

> <i_f3d_flags>
0

> <s_epik_input>
W0NIM11OKFtDSDNdKWMxW2NIXVtjSF1bY0hdYyhuMSlbTkhdQyg9TylbTkhdW0NASF0yW0NAQEhdM1tDQEBIXShbQ0gyXTQpW0NIMl1bQ0gyXVtDQEBIXTRbQ0BIXTIz

> <s_epik_cmdline>
J2VwaWtfcHl0aG9uJywgJy1waCcsICc3LjAnLCAnLXRuJywgJzgnLCAnLW1hJywgJzIwMCcsICctbWV0YWxfYmluZGluZycsICctaW1hZScsICc8aW5maWxlLm1hZT4nLCAnLW9tYWUnLCAnPG91dGZpbGUubWFlPic=

> <r_lp_tautomer_probability>
0.999994

> <r_epik_Ionization_Penalty>
2.07242

> <r_epik_Ionization_Penalty_Charging>
2.07242

> <r_epik_Ionization_Penalty_Neutral>
9.73808e-07

> <r_epik_State_Penalty>
3.96009

> <r_epik_Charging_Adjusted_Penalty>
6.03251

> <i_epik_Tot_Q>
0

> <i_epik_Tot_abs_Q>
0

> <r_epik_Metal_State_Penalty>
3.98849

> <b_epik_Metal_Only>
1

> <s_lp_Force_Field>
OPLS_2005

> <r_lp_Energy>
108.692

> <b_lp_Chiralities_Consistent>
1

> <s_lp_Variant>
AV-unprocessed.smi:2706-12

> <Gold.Version>
5.8.1

> <Gold.Id.Protein>
6NUR|6NUR_protein|mol2

> <Gold.PLP.Fitness>
43.8975

> <Gold.PLP.PLP>
-42.3050

> <Gold.PLP.part.hbond>
-1.0000

> <Gold.PLP.part.metal>
0.0000

> <Gold.PLP.part.buried>
-4.1688

> <Gold.PLP.part.nonpolar>
-36.4757

> <Gold.PLP.part.repulsive>
0.2594

> <Gold.PLP.ligand.clash>
0.0000

> <Gold.PLP.ligand.torsion>
0.1097

> <Gold.PLP.Chemscore.Hbond>
0.5477

> <Gold.PLP.Chemscore.CHOScore>
0.0000

> <Gold.PLP.Chemscore.Metal>
0.0000

> <Gold.Chemscore.Hbonds>
donor molecule, donor type, donor heavy atom, donor atom, acceptor molecule, acceptor atom, score
      P1  H  7997  8010       L1     9  0.27

> <Gold.PLP.Chemscore.Internal.Correction>
0.1688

> <Gold.Rescore>
     Score         DG    S(hbond)    S(metal)    S(lipo)     H(rot)  DE(clash)    DE(int)     intcor
     13.80     -14.09       0.02        0.00      94.98       1.00       0.16       0.13       ----

> <Gold.Chemscore.Fitness>
13.7970

> <Gold.Chemscore.DG>
-14.0904

> <Gold.Chemscore.ZeroCoef>
-5.4800

> <Gold.Chemscore.Hbond>
0.0174

> <Gold.Chemscore.Metal>
0.0000

> <Gold.Chemscore.Lipo>
94.9767

> <Gold.Chemscore.Internal_Hbond>
0.0000

> <Gold.Chemscore.DEClash>
0.1597

> <Gold.Chemscore.DEInternal>
0.1337

> <Gold.Chemscore.Rot>
1.0000

> <Gold.Chemscore.Internal.Correction>
   9.000000E+99

> <Gold.Chemscore.Hbonds>
donor molecule, donor type, donor heavy atom, donor atom, acceptor molecule, acceptor atom, score
      P1  H  7997  8010       L1     9  0.01

> <Gold.Chemscore.Hbond.Weighted>
-0.0581

> <Gold.Chemscore.Metal.Weighted>
-0.0000

> <Gold.Chemscore.Lipo.Weighted>
-11.1123

> <Gold.Chemscore.Internal_Hbond.Weighted>
0.0000

> <Gold.Chemscore.DEClash.Weighted>
0.1597

> <Gold.Chemscore.DEInternal.Weighted>
0.1337

> <Gold.Chemscore.Rot.Weighted>
2.5600

> <Gold.Chemscore.Internal.Correction.Weighted>
   9.000000E+99

> <Gold.Protein.RotatedTorsions>
[ 6907 6896 6895 6894 ] final -176.54 input  -60.11 | X-H torsion
[ 7974 7965 7964 7962 ] final  175.03 input  175.53 | X-H torsion
[ 8008 7997 7996 7995 ] final   27.39 input   59.86 | X-H torsion
[ 10167 10162 10161 10158 ] final  138.55 input  -65.29 | X-H torsion
[ 10718 10713 10712 10709 ] final   97.95 input   66.30 | X-H torsion
[ 10763 10752 10751 10750 ] final    3.08 input  -60.55 | X-H torsion
[ 11005 11000 10999 10996 ] final  125.27 input  -57.11 | X-H torsion

> <Gold.Protein.ActiveResidues>
 VAL166  LYS551  ARG553  GLY616  TRP617  ASP618  TYR619  PRO620  LYS621  CYS622 
 ASP623  PHE694  ASN695  SER759  ASP760  ASP761  ALA762  ILE779  LEU786  VAL792 
 PHE793  MET794  SER795  GLU796  ALA797  LYS798  CYS799  TRP800  GLU811  SER814 

> <Gold.Protein.RotatedAtoms>
  151.6064  133.3351  159.3057 H   0  0  0  0  0  0  0  0  0  0  0  0  # atno 6907 bound_to 6896
  150.8180  134.7376  159.6758 H   0  0  0  0  0  0  0  0  0  0  0  0  # atno 6908 bound_to 6896
  152.4275  134.5846  160.0009 H   0  0  0  0  0  0  0  0  0  0  0  0  # atno 6909 bound_to 6896
  144.7209  139.9886  143.6439 H   0  0  0  0  0  0  0  0  0  0  0  0  # atno 7974 bound_to 7965
  155.0421  140.3170  155.4721 H   0  0  0  0  0  0  0  0  0  0  0  0  # atno 8008 bound_to 7997
  156.2852  140.2161  156.5489 H   0  0  0  0  0  0  0  0  0  0  0  0  # atno 8009 bound_to 7997
  154.7281  140.0484  157.0689 H   0  0  0  0  0  0  0  0  0  0  0  0  # atno 8010 bound_to 7997
  139.5107  144.6347  151.5728 H   0  0  0  0  0  0  0  0  0  0  0  0  # atno 10167 bound_to 10162
  157.6904  131.0625  150.4721 H   0  0  0  0  0  0  0  0  0  0  0  0  # atno 10718 bound_to 10713
  153.2876  135.6946  153.7324 H   0  0  0  0  0  0  0  0  0  0  0  0  # atno 10763 bound_to 10752
  153.6287  135.3414  155.3035 H   0  0  0  0  0  0  0  0  0  0  0  0  # atno 10764 bound_to 10752
  154.8514  135.4403  154.1949 H   0  0  0  0  0  0  0  0  0  0  0  0  # atno 10765 bound_to 10752
  139.9398  134.9636  156.8533 H   0  0  0  0  0  0  0  0  0  0  0  0  # atno 11005 bound_to 11000
  146.0430  139.3439  143.0686 LP  0  0  0  0  0  0  0  0  0  0  0  0  # atno 17320 bound_to 7965
  145.8311  140.9630  143.0848 LP  0  0  0  0  0  0  0  0  0  0  0  0  # atno 17321 bound_to 7965
  140.6091  143.9469  150.6440 LP  0  0  0  0  0  0  0  0  0  0  0  0  # atno 17342 bound_to 10162
  140.2706  143.3459  152.1242 LP  0  0  0  0  0  0  0  0  0  0  0  0  # atno 17343 bound_to 10162
  156.5058  130.4128  149.6328 LP  0  0  0  0  0  0  0  0  0  0  0  0  # atno 17370 bound_to 10713
  156.3286  130.7319  151.2244 LP  0  0  0  0  0  0  0  0  0  0  0  0  # atno 17371 bound_to 10713
  140.5980  134.0198  155.7526 LP  0  0  0  0  0  0  0  0  0  0  0  0  # atno 17394 bound_to 11000
  141.1028  133.9741  157.3049 LP  0  0  0  0  0  0  0  0  0  0  0  0  # atno 17395 bound_to 11000

$$$$
