AV-unprocessed.smi:3156|AV-procd|sdf|12029|dock4
  -GOLD-   2272017443D 1   1.00000     0.00000
 Structure written by MMmdl.
 41 42  0  0  0  0  0  0  0  0  2 V2000
  147.2053  142.1117  155.6053 C   0  0  0  0  0  0  0  0  0  0  0  0
  148.4581  141.2290  155.7694 C   0  0  2  0  0  0  0  0  0  0  0  0
  149.5526  142.0074  156.3976 N   0  3  0  0  0  0  0  0  0  0  0  0
  149.4018  142.2714  157.8441 C   0  0  0  0  0  0  0  0  0  0  0  0
  150.4606  143.2704  158.3301 C   0  0  2  0  0  0  0  0  0  0  0  0
  151.8654  142.6388  158.3791 C   0  0  0  0  0  0  0  0  0  0  0  0
  152.8841  143.6336  158.9473 C   0  0  0  0  0  0  0  0  0  0  0  0
  152.3887  144.1661  160.2958 C   0  0  0  0  0  0  0  0  0  0  0  0
  150.9578  144.7106  160.1623 C   0  0  0  0  0  0  0  0  0  0  0  0
  150.0997  143.6990  159.6419 O   0  0  0  0  0  0  0  0  0  0  0  0
  148.9408  140.6328  154.4174 C   0  0  2  0  0  0  0  0  0  0  0  0
  147.8107  139.9685  153.6089 C   0  0  0  0  0  0  0  0  0  0  0  0
  150.0306  139.6783  154.5961 N   0  0  0  0  0  0  0  0  0  0  0  0
  150.0580  138.3440  154.2451 C   0  0  0  0  0  0  0  0  0  0  0  0
  151.2727  137.8466  154.6205 C   0  0  0  0  0  0  0  0  0  0  0  0
  151.9257  138.9617  155.2151 C   0  0  0  0  0  0  0  0  0  0  0  0
  151.1789  140.0537  155.2048 N   0  0  0  0  0  0  0  0  0  0  0  0
  146.3640  141.5471  155.2050 H   0  0  0  0  0  0  0  0  0  0  0  0
  147.3949  142.9489  154.9329 H   0  0  0  0  0  0  0  0  0  0  0  0
  146.8716  142.5216  156.5579 H   0  0  0  0  0  0  0  0  0  0  0  0
  148.2094  140.4010  156.4353 H   0  0  0  0  0  0  0  0  0  0  0  0
  150.3993  141.4677  156.2847 H   0  0  0  0  0  0  0  0  0  0  0  0
  148.4024  142.6495  158.0590 H   0  0  0  0  0  0  0  0  0  0  0  0
  149.5160  141.3321  158.3867 H   0  0  0  0  0  0  0  0  0  0  0  0
  150.4733  144.1302  157.6571 H   0  0  0  0  0  0  0  0  0  0  0  0
  151.8453  141.7433  159.0019 H   0  0  0  0  0  0  0  0  0  0  0  0
  152.1734  142.3197  157.3830 H   0  0  0  0  0  0  0  0  0  0  0  0
  153.8590  143.1585  159.0604 H   0  0  0  0  0  0  0  0  0  0  0  0
  153.0168  144.4622  158.2506 H   0  0  0  0  0  0  0  0  0  0  0  0
  152.4054  143.3642  161.0349 H   0  0  0  0  0  0  0  0  0  0  0  0
  153.0575  144.9449  160.6632 H   0  0  0  0  0  0  0  0  0  0  0  0
  150.5834  145.0230  161.1371 H   0  0  0  0  0  0  0  0  0  0  0  0
  150.9349  145.5899  159.5165 H   0  0  0  0  0  0  0  0  0  0  0  0
  149.3393  141.4503  153.8143 H   0  0  0  0  0  0  0  0  0  0  0  0
  147.0522  140.6880  153.3028 H   0  0  0  0  0  0  0  0  0  0  0  0
  147.3165  139.1846  154.1840 H   0  0  0  0  0  0  0  0  0  0  0  0
  148.1995  139.5130  152.6975 H   0  0  0  0  0  0  0  0  0  0  0  0
  149.2204  137.8638  153.7608 H   0  0  0  0  0  0  0  0  0  0  0  0
  151.6373  136.8376  154.4954 H   0  0  0  0  0  0  0  0  0  0  0  0
  152.9122  139.0093  155.6525 H   0  0  0  0  0  0  0  0  0  0  0  0
  149.6653  142.8831  155.9071 H   0  0  0  0  0  0  0  0  0  0  0  0
  1  2  1  0  0  0  0
  1 18  1  0  0  0  0
  1 19  1  0  0  0  0
  1 20  1  0  0  0  0
  2  3  1  0  0  0  0
  2 11  1  0  0  0  0
  2 21  1  0  0  0  0
  3  4  1  0  0  0  0
  3 22  1  0  0  0  0
  3 41  1  0  0  0  0
  4  5  1  0  0  0  0
  4 23  1  0  0  0  0
  4 24  1  0  0  0  0
  5 10  1  0  0  0  0
  5  6  1  0  0  0  0
  5 25  1  0  0  0  0
  6  7  1  0  0  0  0
  6 26  1  0  0  0  0
  6 27  1  0  0  0  0
  7  8  1  0  0  0  0
  7 28  1  0  0  0  0
  7 29  1  0  0  0  0
  8  9  1  0  0  0  0
  8 30  1  0  0  0  0
  8 31  1  0  0  0  0
  9 10  1  0  0  0  0
  9 32  1  0  0  0  0
  9 33  1  0  0  0  0
 11 12  1  0  0  0  0
 11 13  1  0  0  0  0
 11 34  1  0  0  0  0
 12 35  1  0  0  0  0
 12 36  1  0  0  0  0
 12 37  1  0  0  0  0
 13 17  1  0  0  0  0
 13 14  1  0  0  0  0
 14 15  2  0  0  0  0
 14 38  1  0  0  0  0
 15 16  1  0  0  0  0
 15 39  1  0  0  0  0
 16 17  2  0  0  0  0
 16 40  1  0  0  0  0
M  CHG  1   3   1
M  END
> <s_m_source_file>
AV-unprocessed.smi

> <i_m_source_file_index>
3156

> <i_lp_mmshare_version>
43012

> <i_f3d_flags>
0

> <s_epik_input>
bjFbY0hdW2NIXVtjSF1uMVtDQEBIXShbQ0gzXSlbQ0BIXShbQ0gzXSlbTkhdW0NIMl1bQ0BASF0yW0NIMl1bQ0gyXVtDSDJdW0NIMl1PMg==

> <s_epik_cmdline>
J2VwaWtfcHl0aG9uJywgJy1waCcsICc3LjAnLCAnLXRuJywgJzgnLCAnLW1hJywgJzIwMCcsICctbWV0YWxfYmluZGluZycsICctaW1hZScsICc8aW5maWxlLm1hZT4nLCAnLW9tYWUnLCAnPG91dGZpbGUubWFlPic=

> <r_lp_tautomer_probability>
1

> <r_epik_Ionization_Penalty>
0.00658015

> <r_epik_Ionization_Penalty_Charging>
0.00656881

> <r_epik_Ionization_Penalty_Neutral>
1.13431e-05

> <r_epik_State_Penalty>
0.0048654

> <r_epik_Charging_Adjusted_Penalty>
0.0114342

> <i_epik_Tot_Q>
1

> <i_epik_Tot_abs_Q>
1

> <r_epik_Metal_State_Penalty>
-0

> <b_epik_Metal_Only>
0

> <s_lp_Force_Field>
OPLS_2005

> <r_lp_Energy>
17.2589

> <b_lp_Chiralities_Consistent>
1

> <s_lp_Variant>
AV-unprocessed.smi:3156-1

> <Gold.Version>
5.8.1

> <Gold.Id.Protein>
6NUR|6NUR_protein|mol2

> <Gold.PLP.Fitness>
47.2611

> <Gold.PLP.PLP>
-37.7750

> <Gold.PLP.part.hbond>
-2.7178

> <Gold.PLP.part.metal>
0.0000

> <Gold.PLP.part.buried>
-2.5495

> <Gold.PLP.part.nonpolar>
-32.5205

> <Gold.PLP.part.repulsive>
0.2160

> <Gold.PLP.ligand.clash>
0.0000

> <Gold.PLP.ligand.torsion>
0.3120

> <Gold.PLP.Chemscore.Hbond>
2.3400

> <Gold.PLP.Chemscore.CHOScore>
1.0000

> <Gold.PLP.Chemscore.Metal>
0.0000

> <Gold.Chemscore.Hbonds>
donor molecule, donor type, donor heavy atom, donor atom, acceptor molecule, acceptor atom, score
      L1  H     3    41       P1  8028  1.76
      P1  H  7989  7998       L1    17  0.30
      L1  C    14    38       P1  7948  1.00

> <Gold.PLP.Chemscore.Internal.Correction>
0.0902

> <Gold.Rescore>
     Score         DG    S(hbond)    S(metal)    S(lipo)     H(rot)  DE(clash)    DE(int)     intcor
     15.44     -17.21       0.99        0.00     106.86       1.59       0.08       1.69       ----

> <Gold.Chemscore.Fitness>
15.4437

> <Gold.Chemscore.DG>
-17.2070

> <Gold.Chemscore.ZeroCoef>
-5.4800

> <Gold.Chemscore.Hbond>
0.9895

> <Gold.Chemscore.Metal>
0.0000

> <Gold.Chemscore.Lipo>
106.8589

> <Gold.Chemscore.Internal_Hbond>
0.0000

> <Gold.Chemscore.DEClash>
0.0757

> <Gold.Chemscore.DEInternal>
1.6877

> <Gold.Chemscore.Rot>
1.5938

> <Gold.Chemscore.Internal.Correction>
   9.000000E+99

> <Gold.Chemscore.Hbonds>
donor molecule, donor type, donor heavy atom, donor atom, acceptor molecule, acceptor atom, score
      L1  H     3    41       P1  8028  0.82

> <Gold.Chemscore.Hbond.Weighted>
-3.3048

> <Gold.Chemscore.Metal.Weighted>
-0.0000

> <Gold.Chemscore.Lipo.Weighted>
-12.5025

> <Gold.Chemscore.Internal_Hbond.Weighted>
0.0000

> <Gold.Chemscore.DEClash.Weighted>
0.0757

> <Gold.Chemscore.DEInternal.Weighted>
1.6877

> <Gold.Chemscore.Rot.Weighted>
4.0802

> <Gold.Chemscore.Internal.Correction.Weighted>
   9.000000E+99

> <Gold.Protein.RotatedTorsions>
[ 6907 6896 6895 6894 ] final  -90.89 input  -60.11 | X-H torsion
[ 7974 7965 7964 7962 ] final  137.47 input  175.53 | X-H torsion
[ 8008 7997 7996 7995 ] final   41.05 input   59.86 | X-H torsion
[ 10167 10162 10161 10158 ] final  -31.70 input  -65.29 | X-H torsion
[ 10718 10713 10712 10709 ] final -109.98 input   66.30 | X-H torsion
[ 10763 10752 10751 10750 ] final -136.87 input  -60.55 | X-H torsion
[ 11005 11000 10999 10996 ] final   21.01 input  -57.11 | X-H torsion

> <Gold.Protein.ActiveResidues>
 VAL166  LYS551  ARG553  GLY616  TRP617  ASP618  TYR619  PRO620  LYS621  CYS622 
 ASP623  PHE694  ASN695  SER759  ASP760  ASP761  ALA762  ILE779  LEU786  VAL792 
 PHE793  MET794  SER795  GLU796  ALA797  LYS798  CYS799  TRP800  GLU811  SER814 

> <Gold.Protein.RotatedAtoms>
  150.6886  134.2362  159.4453 H   0  0  0  0  0  0  0  0  0  0  0  0  # atno 6907 bound_to 6896
  152.0309  134.9766  160.0582 H   0  0  0  0  0  0  0  0  0  0  0  0  # atno 6908 bound_to 6896
  152.1305  133.4370  159.4755 H   0  0  0  0  0  0  0  0  0  0  0  0  # atno 6909 bound_to 6896
  144.9465  139.4869  143.5546 H   0  0  0  0  0  0  0  0  0  0  0  0  # atno 7974 bound_to 7965
  155.2632  140.3360  155.4271 H   0  0  0  0  0  0  0  0  0  0  0  0  # atno 8008 bound_to 7997
  156.2166  140.1791  156.7618 H   0  0  0  0  0  0  0  0  0  0  0  0  # atno 8009 bound_to 7997
  154.5762  140.0661  156.9022 H   0  0  0  0  0  0  0  0  0  0  0  0  # atno 8010 bound_to 7997
  140.7232  143.3751  151.1705 H   0  0  0  0  0  0  0  0  0  0  0  0  # atno 10167 bound_to 10162
  156.0566  130.5792  150.8175 H   0  0  0  0  0  0  0  0  0  0  0  0  # atno 10718 bound_to 10713
  154.8674  135.3659  154.5131 H   0  0  0  0  0  0  0  0  0  0  0  0  # atno 10763 bound_to 10752
  153.5765  135.7019  153.5486 H   0  0  0  0  0  0  0  0  0  0  0  0  # atno 10764 bound_to 10752
  153.3495  135.4076  155.1597 H   0  0  0  0  0  0  0  0  0  0  0  0  # atno 10765 bound_to 10752
  140.3963  134.1765  155.7663 H   0  0  0  0  0  0  0  0  0  0  0  0  # atno 11005 bound_to 11000
  146.3305  139.8521  142.8871 LP  0  0  0  0  0  0  0  0  0  0  0  0  # atno 17320 bound_to 7965
  145.2910  141.0167  143.3663 LP  0  0  0  0  0  0  0  0  0  0  0  0  # atno 17321 bound_to 7965
  139.7329  143.9044  152.3025 LP  0  0  0  0  0  0  0  0  0  0  0  0  # atno 17342 bound_to 10162
  139.8839  144.7003  150.8846 LP  0  0  0  0  0  0  0  0  0  0  0  0  # atno 17343 bound_to 10162
  157.5541  131.0944  150.9654 LP  0  0  0  0  0  0  0  0  0  0  0  0  # atno 17370 bound_to 10713
  156.9906  130.5562  149.5303 LP  0  0  0  0  0  0  0  0  0  0  0  0  # atno 17371 bound_to 10713
  141.1873  133.8285  157.1038 LP  0  0  0  0  0  0  0  0  0  0  0  0  # atno 17394 bound_to 11000
  140.0369  134.9874  157.0888 LP  0  0  0  0  0  0  0  0  0  0  0  0  # atno 17395 bound_to 11000

$$$$
