AV-unprocessed.smi:1684|AV-procd|sdf|6753|dock3
  -GOLD-   22720 7513D 1   1.00000     0.00000
 Structure written by MMmdl.
 42 43  0  0  0  0  0  0  0  0  1 V2000
  145.4289  135.6531  151.0881 C   0  0  0  0  0  0  0  0  0  0  0  0
  145.4111  134.1332  151.0874 C   0  0  0  0  0  0  0  0  0  0  0  0
  144.3753  133.4550  150.4104 C   0  0  0  0  0  0  0  0  0  0  0  0
  144.3614  132.0497  150.4095 C   0  0  0  0  0  0  0  0  0  0  0  0
  145.3903  131.3777  151.0913 C   0  0  0  0  0  0  0  0  0  0  0  0
  146.3828  132.0177  151.7422 N   0  0  0  0  0  0  0  0  0  0  0  0
  146.4113  133.3743  151.7525 C   0  0  0  0  0  0  0  0  0  0  0  0
  147.4291  134.1167  152.4155 N   0  0  0  0  0  0  0  0  0  0  0  0
  147.9983  133.8757  153.6096 C   0  0  0  0  0  0  0  0  0  0  0  0
  147.7044  132.9479  154.3639 O   0  0  0  0  0  0  0  0  0  0  0  0
  148.9422  134.7882  153.8856 N   0  0  0  0  0  0  0  0  0  0  0  0
  149.7680  134.8276  155.0913 C   0  0  2  0  0  0  0  0  0  0  0  0
  148.9288  135.3839  156.2496 C   0  0  0  0  0  0  0  0  0  0  0  0
  151.0264  135.6915  154.8551 C   0  0  0  0  0  0  0  0  0  0  0  0
  150.9135  137.0999  155.2364 N   0  0  0  0  0  0  0  0  0  0  0  0
  152.1374  137.8287  154.9231 C   0  0  0  0  0  0  0  0  0  0  0  0
  152.0424  139.3115  155.3228 C   0  0  0  0  0  0  0  0  0  0  0  0
  150.9199  139.9081  154.6816 O   0  0  0  0  0  0  0  0  0  0  0  0
  149.6962  139.2519  154.9966 C   0  0  0  0  0  0  0  0  0  0  0  0
  149.7863  137.7708  154.5915 C   0  0  0  0  0  0  0  0  0  0  0  0
  144.5906  136.0607  150.5222 H   0  0  0  0  0  0  0  0  0  0  0  0
  146.3494  136.0245  150.6368 H   0  0  0  0  0  0  0  0  0  0  0  0
  145.3631  136.0350  152.1075 H   0  0  0  0  0  0  0  0  0  0  0  0
  143.5992  134.0026  149.8961 H   0  0  0  0  0  0  0  0  0  0  0  0
  143.5830  131.5015  149.8999 H   0  0  0  0  0  0  0  0  0  0  0  0
  145.4179  130.2984  151.1150 H   0  0  0  0  0  0  0  0  0  0  0  0
  147.7668  134.9255  151.9157 H   0  0  0  0  0  0  0  0  0  0  0  0
  149.1122  135.5110  153.2020 H   0  0  0  0  0  0  0  0  0  0  0  0
  150.0612  133.8175  155.3783 H   0  0  0  0  0  0  0  0  0  0  0  0
  149.5037  135.4007  157.1759 H   0  0  0  0  0  0  0  0  0  0  0  0
  148.0439  134.7708  156.4239 H   0  0  0  0  0  0  0  0  0  0  0  0
  148.5944  136.4022  156.0473 H   0  0  0  0  0  0  0  0  0  0  0  0
  151.8469  135.2398  155.4143 H   0  0  0  0  0  0  0  0  0  0  0  0
  151.3158  135.6267  153.8052 H   0  0  0  0  0  0  0  0  0  0  0  0
  152.9825  137.3722  155.4397 H   0  0  0  0  0  0  0  0  0  0  0  0
  152.3480  137.7559  153.8550 H   0  0  0  0  0  0  0  0  0  0  0  0
  151.9492  139.4150  156.4049 H   0  0  0  0  0  0  0  0  0  0  0  0
  152.9468  139.8427  155.0263 H   0  0  0  0  0  0  0  0  0  0  0  0
  149.4862  139.3475  156.0631 H   0  0  0  0  0  0  0  0  0  0  0  0
  148.8814  139.7421  154.4640 H   0  0  0  0  0  0  0  0  0  0  0  0
  149.8824  137.6983  153.5072 H   0  0  0  0  0  0  0  0  0  0  0  0
  148.8491  137.2829  154.8541 H   0  0  0  0  0  0  0  0  0  0  0  0
  1  2  1  0  0  0  0
  1 21  1  0  0  0  0
  1 22  1  0  0  0  0
  1 23  1  0  0  0  0
  2  7  1  0  0  0  0
  2  3  2  0  0  0  0
  3  4  1  0  0  0  0
  3 24  1  0  0  0  0
  4  5  2  0  0  0  0
  4 25  1  0  0  0  0
  5  6  1  0  0  0  0
  5 26  1  0  0  0  0
  6  7  2  0  0  0  0
  7  8  1  0  0  0  0
  8  9  1  0  0  0  0
  8 27  1  0  0  0  0
  9 10  2  0  0  0  0
  9 11  1  0  0  0  0
 11 12  1  0  0  0  0
 11 28  1  0  0  0  0
 12 13  1  0  0  0  0
 12 14  1  0  0  0  0
 12 29  1  0  0  0  0
 13 30  1  0  0  0  0
 13 31  1  0  0  0  0
 13 32  1  0  0  0  0
 14 15  1  0  0  0  0
 14 33  1  0  0  0  0
 14 34  1  0  0  0  0
 15 20  1  0  0  0  0
 15 16  1  0  0  0  0
 16 17  1  0  0  0  0
 16 35  1  0  0  0  0
 16 36  1  0  0  0  0
 17 18  1  0  0  0  0
 17 37  1  0  0  0  0
 17 38  1  0  0  0  0
 18 19  1  0  0  0  0
 19 20  1  0  0  0  0
 19 39  1  0  0  0  0
 19 40  1  0  0  0  0
 20 41  1  0  0  0  0
 20 42  1  0  0  0  0
M  END
> <s_m_source_file>
AV-unprocessed.smi

> <i_m_source_file_index>
1684

> <i_lp_mmshare_version>
43012

> <i_f3d_flags>
0

> <s_epik_input>
W0NIM11jMVtjSF1bY0hdW2NIXW5jMVtOSF1DKD1PKVtOSF1bQ0BIXShbQ0gzXSlbQ0gyXU4yW0NIMl1bQ0gyXU9bQ0gyXVtDSDJdMg==

> <s_epik_cmdline>
J2VwaWtfcHl0aG9uJywgJy1waCcsICc3LjAnLCAnLXRuJywgJzgnLCAnLW1hJywgJzIwMCcsICctbWV0YWxfYmluZGluZycsICctaW1hZScsICc8aW5maWxlLm1hZT4nLCAnLW9tYWUnLCAnPG91dGZpbGUubWFlPic=

> <r_epik_Ionization_Penalty>
0.26605

> <r_epik_Ionization_Penalty_Charging>
0

> <r_epik_Ionization_Penalty_Neutral>
0.26605

> <r_epik_State_Penalty>
0.257924

> <r_epik_Charging_Adjusted_Penalty>
0.257924

> <i_epik_Tot_Q>
0

> <i_epik_Tot_abs_Q>
0

> <r_epik_Metal_State_Penalty>
0.257922

> <b_epik_Metal_Only>
0

> <s_lp_Force_Field>
OPLS_2005

> <r_lp_Energy>
27.9157

> <b_lp_Chiralities_Consistent>
1

> <s_lp_Variant>
AV-unprocessed.smi:1684-1

> <Gold.Version>
5.8.1

> <Gold.Id.Protein>
6NUR|6NUR_protein|mol2

> <Gold.PLP.Fitness>
40.3816

> <Gold.PLP.PLP>
-33.3496

> <Gold.PLP.part.hbond>
-3.0000

> <Gold.PLP.part.metal>
0.0000

> <Gold.PLP.part.buried>
-4.5354

> <Gold.PLP.part.nonpolar>
-26.0910

> <Gold.PLP.part.repulsive>
0.3522

> <Gold.PLP.ligand.clash>
0.0000

> <Gold.PLP.ligand.torsion>
0.9949

> <Gold.PLP.Chemscore.Hbond>
3.0000

> <Gold.PLP.Chemscore.CHOScore>
0.0000

> <Gold.PLP.Chemscore.Metal>
0.0000

> <Gold.Chemscore.Hbonds>
donor molecule, donor type, donor heavy atom, donor atom, acceptor molecule, acceptor atom, score
      L1  H     8    27       P1  7948  0.94
      L1  H    11    28       P1  7948  0.91
      P1  H  7989  7998       L1    18  1.00

> <Gold.PLP.Chemscore.Internal.Correction>
0.0218

> <Gold.Rescore>
     Score         DG    S(hbond)    S(metal)    S(lipo)     H(rot)  DE(clash)    DE(int)     intcor
     18.59     -19.71       2.75        0.00      74.96       1.46       0.00       1.13       ----

> <Gold.Chemscore.Fitness>
18.5877

> <Gold.Chemscore.DG>
-19.7142

> <Gold.Chemscore.ZeroCoef>
-5.4800

> <Gold.Chemscore.Hbond>
2.7534

> <Gold.Chemscore.Metal>
0.0000

> <Gold.Chemscore.Lipo>
74.9623

> <Gold.Chemscore.Internal_Hbond>
0.0000

> <Gold.Chemscore.DEClash>
0.0015

> <Gold.Chemscore.DEInternal>
1.1251

> <Gold.Chemscore.Rot>
1.4581

> <Gold.Chemscore.Internal.Correction>
   9.000000E+99

> <Gold.Chemscore.Hbonds>
donor molecule, donor type, donor heavy atom, donor atom, acceptor molecule, acceptor atom, score
      L1  H     8    27       P1  7948  0.55
      L1  H    11    28       P1  7948  0.39
      P1  H  7989  7998       L1    18  0.40

> <Gold.Chemscore.Hbond.Weighted>
-9.1963

> <Gold.Chemscore.Metal.Weighted>
-0.0000

> <Gold.Chemscore.Lipo.Weighted>
-8.7706

> <Gold.Chemscore.Internal_Hbond.Weighted>
0.0000

> <Gold.Chemscore.DEClash.Weighted>
0.0015

> <Gold.Chemscore.DEInternal.Weighted>
1.1251

> <Gold.Chemscore.Rot.Weighted>
3.7327

> <Gold.Chemscore.Internal.Correction.Weighted>
   9.000000E+99

> <Gold.Protein.RotatedTorsions>
[ 6907 6896 6895 6894 ] final  -50.14 input  -60.11 | X-H torsion
[ 7974 7965 7964 7962 ] final  -16.95 input  175.53 | X-H torsion
[ 8008 7997 7996 7995 ] final  -58.57 input   59.86 | X-H torsion
[ 10167 10162 10161 10158 ] final -104.60 input  -65.29 | X-H torsion
[ 10718 10713 10712 10709 ] final  157.79 input   66.30 | X-H torsion
[ 10763 10752 10751 10750 ] final  -66.94 input  -60.55 | X-H torsion
[ 11005 11000 10999 10996 ] final  -68.39 input  -57.11 | X-H torsion

> <Gold.Protein.ActiveResidues>
 VAL166  LYS551  ARG553  GLY616  TRP617  ASP618  TYR619  PRO620  LYS621  CYS622 
 ASP623  PHE694  ASN695  SER759  ASP760  ASP761  ALA762  ILE779  LEU786  VAL792 
 PHE793  MET794  SER795  GLU796  ALA797  LYS798  CYS799  TRP800  GLU811  SER814 

> <Gold.Protein.RotatedAtoms>
  150.8737  134.8115  159.7173 H   0  0  0  0  0  0  0  0  0  0  0  0  # atno 6907 bound_to 6896
  152.4732  134.4906  159.9704 H   0  0  0  0  0  0  0  0  0  0  0  0  # atno 6908 bound_to 6896
  151.4991  133.3469  159.2901 H   0  0  0  0  0  0  0  0  0  0  0  0  # atno 6909 bound_to 6896
  146.1964  140.3710  142.8439 H   0  0  0  0  0  0  0  0  0  0  0  0  # atno 7974 bound_to 7965
  154.4314  140.1081  156.5977 H   0  0  0  0  0  0  0  0  0  0  0  0  # atno 8008 bound_to 7997
  155.5944  140.3492  155.4557 H   0  0  0  0  0  0  0  0  0  0  0  0  # atno 8009 bound_to 7997
  156.0221  140.1242  157.0335 H   0  0  0  0  0  0  0  0  0  0  0  0  # atno 8010 bound_to 7997
  140.2075  143.3771  152.1078 H   0  0  0  0  0  0  0  0  0  0  0  0  # atno 10167 bound_to 10162
  157.1867  131.0645  151.2102 H   0  0  0  0  0  0  0  0  0  0  0  0  # atno 10718 bound_to 10713
  154.3672  135.6103  153.5721 H   0  0  0  0  0  0  0  0  0  0  0  0  # atno 10763 bound_to 10752
  152.9791  135.5829  154.4564 H   0  0  0  0  0  0  0  0  0  0  0  0  # atno 10764 bound_to 10752
  154.4312  135.2848  155.1889 H   0  0  0  0  0  0  0  0  0  0  0  0  # atno 10765 bound_to 10752
  141.1531  133.6740  156.6439 H   0  0  0  0  0  0  0  0  0  0  0  0  # atno 11005 bound_to 11000
  144.8589  140.7110  143.6120 LP  0  0  0  0  0  0  0  0  0  0  0  0  # atno 17320 bound_to 7965
  145.3631  139.1677  143.4373 LP  0  0  0  0  0  0  0  0  0  0  0  0  # atno 17321 bound_to 7965
  139.5193  144.7017  151.5473 LP  0  0  0  0  0  0  0  0  0  0  0  0  # atno 17342 bound_to 10162
  140.6347  143.9008  150.6636 LP  0  0  0  0  0  0  0  0  0  0  0  0  # atno 17343 bound_to 10162
  157.3901  130.7277  149.6691 LP  0  0  0  0  0  0  0  0  0  0  0  0  # atno 17370 bound_to 10713
  155.9717  130.4149  150.4154 LP  0  0  0  0  0  0  0  0  0  0  0  0  # atno 17371 bound_to 10713
  140.3372  134.7879  157.4371 LP  0  0  0  0  0  0  0  0  0  0  0  0  # atno 17394 bound_to 11000
  140.0967  134.5527  155.8391 LP  0  0  0  0  0  0  0  0  0  0  0  0  # atno 17395 bound_to 11000

$$$$
