AV-unprocessed.smi:2452|AV-procd|sdf|9685|dock5
  -GOLD-   2272013323D 1   1.00000     0.00000
 Structure written by MMmdl.
 34 35  0  0  0  0  0  0  0  0  1 V2000
  147.5125  141.5452  153.9528 C   0  0  0  0  0  0  0  0  0  0  0  0
  148.7117  140.7098  154.3057 C   0  0  0  0  0  0  0  0  0  0  0  0
  149.7054  141.2649  154.9840 N   0  0  0  0  0  0  0  0  0  0  0  0
  150.7051  140.2877  155.1074 O   0  0  0  0  0  0  0  0  0  0  0  0
  150.2860  139.1500  154.4942 C   0  0  0  0  0  0  0  0  0  0  0  0
  151.2241  137.9909  154.5015 C   0  0  0  0  0  0  0  0  0  0  0  0
  149.0311  139.3538  154.0014 C   0  0  0  0  0  0  0  0  0  0  0  0
  148.2840  138.3952  153.2722 N   0  0  0  0  0  0  0  0  0  0  0  0
  146.9515  138.2405  153.2814 C   0  0  0  0  0  0  0  0  0  0  0  0
  146.1751  138.8732  153.9971 O   0  0  0  0  0  0  0  0  0  0  0  0
  146.5617  137.2880  152.4234 N   0  0  0  0  0  0  0  0  0  0  0  0
  145.1773  136.8967  152.1837 C   0  0  0  0  0  0  0  0  0  0  0  0
  145.0863  135.6843  151.2417 C   0  0  2  0  0  0  0  0  0  0  0  0
  143.7364  134.9748  151.2754 C   0  0  0  0  0  0  0  0  0  0  0  0
  144.0714  133.5897  150.7512 C   0  0  0  0  0  0  0  0  0  0  0  0
  145.5737  133.4470  151.0177 C   0  0  0  0  0  0  0  0  0  0  0  0
  145.9722  134.6557  151.6540 O   0  0  0  0  0  0  0  0  0  0  0  0
  147.0995  141.2549  152.9868 H   0  0  0  0  0  0  0  0  0  0  0  0
  147.7681  142.6035  153.8905 H   0  0  0  0  0  0  0  0  0  0  0  0
  146.7267  141.4393  154.7007 H   0  0  0  0  0  0  0  0  0  0  0  0
  150.9201  137.2356  153.7769 H   0  0  0  0  0  0  0  0  0  0  0  0
  151.2507  137.5241  155.4860 H   0  0  0  0  0  0  0  0  0  0  0  0
  152.2358  138.3102  154.2509 H   0  0  0  0  0  0  0  0  0  0  0  0
  148.8192  137.7220  152.7440 H   0  0  0  0  0  0  0  0  0  0  0  0
  147.2684  136.8154  151.8792 H   0  0  0  0  0  0  0  0  0  0  0  0
  144.7139  136.6635  153.1426 H   0  0  0  0  0  0  0  0  0  0  0  0
  144.6234  137.7405  151.7684 H   0  0  0  0  0  0  0  0  0  0  0  0
  145.3232  135.9691  150.2146 H   0  0  0  0  0  0  0  0  0  0  0  0
  143.3738  134.9008  152.3017 H   0  0  0  0  0  0  0  0  0  0  0  0
  142.9752  135.4826  150.6824 H   0  0  0  0  0  0  0  0  0  0  0  0
  143.4857  132.8174  151.2506 H   0  0  0  0  0  0  0  0  0  0  0  0
  143.8724  133.5239  149.6808 H   0  0  0  0  0  0  0  0  0  0  0  0
  145.8022  132.5909  151.6531 H   0  0  0  0  0  0  0  0  0  0  0  0
  146.1204  133.3304  150.0812 H   0  0  0  0  0  0  0  0  0  0  0  0
  1  2  1  0  0  0  0
  1 18  1  0  0  0  0
  1 19  1  0  0  0  0
  1 20  1  0  0  0  0
  2  7  1  0  0  0  0
  2  3  2  0  0  0  0
  3  4  1  0  0  0  0
  4  5  1  0  0  0  0
  5  6  1  0  0  0  0
  5  7  2  0  0  0  0
  6 21  1  0  0  0  0
  6 22  1  0  0  0  0
  6 23  1  0  0  0  0
  7  8  1  0  0  0  0
  8  9  1  0  0  0  0
  8 24  1  0  0  0  0
  9 10  2  0  0  0  0
  9 11  1  0  0  0  0
 11 12  1  0  0  0  0
 11 25  1  0  0  0  0
 12 13  1  0  0  0  0
 12 26  1  0  0  0  0
 12 27  1  0  0  0  0
 13 17  1  0  0  0  0
 13 14  1  0  0  0  0
 13 28  1  0  0  0  0
 14 15  1  0  0  0  0
 14 29  1  0  0  0  0
 14 30  1  0  0  0  0
 15 16  1  0  0  0  0
 15 31  1  0  0  0  0
 15 32  1  0  0  0  0
 16 17  1  0  0  0  0
 16 33  1  0  0  0  0
 16 34  1  0  0  0  0
M  END
> <s_m_source_file>
AV-unprocessed.smi

> <i_m_source_file_index>
2452

> <i_lp_mmshare_version>
43012

> <i_f3d_flags>
0

> <s_epik_input>
W0NIM11jMW5vYyhbQ0gzXSljMVtOSF1DKD1PKVtOSF1bQ0gyXVtDQEBIXTJbQ0gyXVtDSDJdW0NIMl1PMg==

> <s_epik_cmdline>
J2VwaWtfcHl0aG9uJywgJy1waCcsICc3LjAnLCAnLXRuJywgJzgnLCAnLW1hJywgJzIwMCcsICctbWV0YWxfYmluZGluZycsICctaW1hZScsICc8aW5maWxlLm1hZT4nLCAnLW9tYWUnLCAnPG91dGZpbGUubWFlPic=

> <r_lp_tautomer_probability>
1

> <r_epik_Ionization_Penalty>
3.28451e-05

> <r_epik_Ionization_Penalty_Charging>
0

> <r_epik_Ionization_Penalty_Neutral>
3.28451e-05

> <r_epik_State_Penalty>
-0

> <r_epik_Charging_Adjusted_Penalty>
0

> <i_epik_Tot_Q>
0

> <i_epik_Tot_abs_Q>
0

> <r_epik_Metal_State_Penalty>
-0

> <b_epik_Metal_Only>
0

> <s_lp_Force_Field>
OPLS_2005

> <r_lp_Energy>
18.3338

> <b_lp_Chiralities_Consistent>
1

> <s_lp_Variant>
AV-unprocessed.smi:2452-1

> <Gold.Version>
5.8.1

> <Gold.Id.Protein>
6NUR|6NUR_protein|mol2

> <Gold.PLP.Fitness>
38.5389

> <Gold.PLP.PLP>
-31.6329

> <Gold.PLP.part.hbond>
-4.7365

> <Gold.PLP.part.metal>
0.0000

> <Gold.PLP.part.buried>
-2.3474

> <Gold.PLP.part.nonpolar>
-24.7105

> <Gold.PLP.part.repulsive>
0.6070

> <Gold.PLP.ligand.clash>
0.0000

> <Gold.PLP.ligand.torsion>
0.3660

> <Gold.PLP.Chemscore.Hbond>
2.4600

> <Gold.PLP.Chemscore.CHOScore>
0.0000

> <Gold.PLP.Chemscore.Metal>
0.0000

> <Gold.Chemscore.Hbonds>
donor molecule, donor type, donor heavy atom, donor atom, acceptor molecule, acceptor atom, score
      L1  H     8    24       P1  7948  1.00
      L1  H    11    25       P1  7948  0.93
      P1  H  7989  7998       L1     4  0.39

> <Gold.PLP.Chemscore.Internal.Correction>
0.2579

> <Gold.Rescore>
     Score         DG    S(hbond)    S(metal)    S(lipo)     H(rot)  DE(clash)    DE(int)     intcor
     16.12     -16.52       1.94        0.00      66.05       1.23       0.08       0.33       ----

> <Gold.Chemscore.Fitness>
16.1174

> <Gold.Chemscore.DG>
-16.5247

> <Gold.Chemscore.ZeroCoef>
-5.4800

> <Gold.Chemscore.Hbond>
1.9386

> <Gold.Chemscore.Metal>
0.0000

> <Gold.Chemscore.Lipo>
66.0524

> <Gold.Chemscore.Internal_Hbond>
0.0000

> <Gold.Chemscore.DEClash>
0.0773

> <Gold.Chemscore.DEInternal>
0.3300

> <Gold.Chemscore.Rot>
1.2337

> <Gold.Chemscore.Internal.Correction>
   9.000000E+99

> <Gold.Chemscore.Hbonds>
donor molecule, donor type, donor heavy atom, donor atom, acceptor molecule, acceptor atom, score
      L1  H     8    24       P1  7948  0.97
      L1  H    11    25       P1  7948  0.91

> <Gold.Chemscore.Hbond.Weighted>
-6.4748

> <Gold.Chemscore.Metal.Weighted>
-0.0000

> <Gold.Chemscore.Lipo.Weighted>
-7.7281

> <Gold.Chemscore.Internal_Hbond.Weighted>
0.0000

> <Gold.Chemscore.DEClash.Weighted>
0.0773

> <Gold.Chemscore.DEInternal.Weighted>
0.3300

> <Gold.Chemscore.Rot.Weighted>
3.1582

> <Gold.Chemscore.Internal.Correction.Weighted>
   9.000000E+99

> <Gold.Protein.RotatedTorsions>
[ 6907 6896 6895 6894 ] final  176.17 input  -60.11 | X-H torsion
[ 7974 7965 7964 7962 ] final  -36.98 input  175.53 | X-H torsion
[ 8008 7997 7996 7995 ] final  147.56 input   59.86 | X-H torsion
[ 10167 10162 10161 10158 ] final  127.83 input  -65.29 | X-H torsion
[ 10718 10713 10712 10709 ] final  -92.87 input   66.30 | X-H torsion
[ 10763 10752 10751 10750 ] final -172.23 input  -60.55 | X-H torsion
[ 11005 11000 10999 10996 ] final  141.21 input  -57.11 | X-H torsion

> <Gold.Protein.ActiveResidues>
 VAL166  LYS551  ARG553  GLY616  TRP617  ASP618  TYR619  PRO620  LYS621  CYS622 
 ASP623  PHE694  ASN695  SER759  ASP760  ASP761  ALA762  ILE779  LEU786  VAL792 
 PHE793  MET794  SER795  GLU796  ALA797  LYS798  CYS799  TRP800  GLU811  SER814 

> <Gold.Protein.RotatedAtoms>
  151.7244  133.3315  159.3323 H   0  0  0  0  0  0  0  0  0  0  0  0  # atno 6907 bound_to 6896
  150.7639  134.6419  159.6251 H   0  0  0  0  0  0  0  0  0  0  0  0  # atno 6908 bound_to 6896
  152.3632  134.6845  160.0252 H   0  0  0  0  0  0  0  0  0  0  0  0  # atno 6909 bound_to 6896
  146.0615  140.6342  142.8995 H   0  0  0  0  0  0  0  0  0  0  0  0  # atno 7974 bound_to 7965
  156.2821  140.2152  156.5557 H   0  0  0  0  0  0  0  0  0  0  0  0  # atno 8008 bound_to 7997
  154.7254  140.0500  157.0701 H   0  0  0  0  0  0  0  0  0  0  0  0  # atno 8009 bound_to 7997
  155.0423  140.3147  155.4723 H   0  0  0  0  0  0  0  0  0  0  0  0  # atno 8010 bound_to 7997
  139.5558  144.6847  151.4187 H   0  0  0  0  0  0  0  0  0  0  0  0  # atno 10167 bound_to 10162
  156.0007  130.5004  150.5691 H   0  0  0  0  0  0  0  0  0  0  0  0  # atno 10718 bound_to 10713
  154.6217  135.2876  155.0319 H   0  0  0  0  0  0  0  0  0  0  0  0  # atno 10763 bound_to 10752
  154.1511  135.6503  153.4967 H   0  0  0  0  0  0  0  0  0  0  0  0  # atno 10764 bound_to 10752
  153.0239  135.5356  154.7009 H   0  0  0  0  0  0  0  0  0  0  0  0  # atno 10765 bound_to 10752
  140.0384  134.9317  157.0797 H   0  0  0  0  0  0  0  0  0  0  0  0  # atno 11005 bound_to 11000
  144.7177  140.4268  143.7031 LP  0  0  0  0  0  0  0  0  0  0  0  0  # atno 17320 bound_to 7965
  145.6552  139.1572  143.2839 LP  0  0  0  0  0  0  0  0  0  0  0  0  # atno 17321 bound_to 7965
  140.6830  143.8038  150.7147 LP  0  0  0  0  0  0  0  0  0  0  0  0  # atno 17342 bound_to 10162
  140.1497  143.4368  152.2139 LP  0  0  0  0  0  0  0  0  0  0  0  0  # atno 17343 bound_to 10162
  157.3589  131.0746  151.1653 LP  0  0  0  0  0  0  0  0  0  0  0  0  # atno 17370 bound_to 10713
  157.2444  130.6584  149.5904 LP  0  0  0  0  0  0  0  0  0  0  0  0  # atno 17371 bound_to 10713
  140.4109  134.1982  155.7163 LP  0  0  0  0  0  0  0  0  0  0  0  0  # atno 17394 bound_to 11000
  141.1870  133.8291  157.1048 LP  0  0  0  0  0  0  0  0  0  0  0  0  # atno 17395 bound_to 11000

$$$$
