#       Name:                AV-unprocessed.smi:3232
#       Creating user name   scv26
#       Creation time:       Fri Mar 27 18:20:16 2020


#       File generated by GOLD software.
#

@<TRIPOS>MOLECULE
AV-unprocessed.smi:3232
    44    45     1
SMALL
NO_CHARGES


@<TRIPOS>ATOM
      1 ****        -3.2443   0.4837   2.8139 C.3            1 S1                 0.0000
      2 ****        -3.5193   0.1817   1.3341 C.3            1 S1                 0.0000
      3 ****        -2.8225   1.1272   0.4269 N.4            1 S1                 1.0000
      4 ****        -3.2615   1.0667  -0.9856 C.3            1 S1                 0.0000
      5 ****        -2.0746   1.5475  -1.8323 C.3            1 S1                 0.0000
      6 ****        -1.0183   1.9811  -0.8165 C.3            1 S1                 0.0000
      7 ****        -1.3377   1.1448   0.4295 C.3            1 S1                 0.0000
      8 ****        -0.7067  -0.2732   0.4024 C.3            1 S1                 0.0000
      9 ****         0.7525  -0.2320   0.3808 N.am           1 S1                 0.0000
     10 ****         1.5222  -0.4676  -0.6942 C.2            1 S1                 0.0000
     11 ****         1.0623  -0.7324  -1.8055 O.2            1 S1                 0.0000
     12 ****         3.0403  -0.3864  -0.4776 C.3            1 S1                 0.0000
     13 ****         3.7611   0.2915  -1.6602 C.3            1 S1                 0.0000
     14 ****         3.5753  -1.7103  -0.1839 N.pl3          1 S1                 0.0000
     15 ****         3.8035  -2.3002   0.9917 C.2            1 S1                 0.0000
     16 ****         4.2530  -3.5434   0.8936 N.2            1 S1                 0.0000
     17 ****         4.2691  -3.6728  -0.4662 C.2            1 S1                 0.0000
     18 ****         3.8619  -2.6093  -1.1587 N.2            1 S1                 0.0000
     19 ****        -3.8291  -0.1756   3.4557 H              1 S1                 0.0000
     20 ****        -3.5141   1.5104   3.0632 H              1 S1                 0.0000
     21 ****        -2.1942   0.3412   3.0690 H              1 S1                 0.0000
     22 ****        -3.2668  -0.8514   1.0936 H              1 S1                 0.0000
     23 ****        -4.5917   0.2770   1.1589 H              1 S1                 0.0000
     24 ****        -3.5282   0.0461  -1.2650 H              1 S1                 0.0000
     25 ****        -4.1427   1.6931  -1.1265 H              1 S1                 0.0000
     26 ****        -1.6935   0.7239  -2.4381 H              1 S1                 0.0000
     27 ****        -2.3467   2.3574  -2.5098 H              1 S1                 0.0000
     28 ****        -0.0008   1.8728  -1.1896 H              1 S1                 0.0000
     29 ****        -1.1592   3.0379  -0.5846 H              1 S1                 0.0000
     30 ****        -0.9880   1.6656   1.3219 H              1 S1                 0.0000
     31 ****        -0.9752  -0.8244   1.3028 H              1 S1                 0.0000
     32 ****        -1.0956  -0.8564  -0.4341 H              1 S1                 0.0000
     33 ****         1.2147  -0.0205   1.2535 H              1 S1                 0.0000
     34 ****         3.2203   0.2316   0.4040 H              1 S1                 0.0000
     35 ****         3.3790   1.2995  -1.8254 H              1 S1                 0.0000
     36 ****         3.6386  -0.2632  -2.5913 H              1 S1                 0.0000
     37 ****         4.8304   0.3768  -1.4658 H              1 S1                 0.0000
     38 ****         3.6337  -1.8108   1.9395 H              1 S1                 0.0000
     39 ****         4.5830  -4.5803  -0.9605 H              1 S1                 0.0000
     40 ****        -3.0891   2.0514   0.7354 H              1 S1                 0.0000
     41 ****         0.0723  -0.7799  -1.9385 LP             1 S1                 0.0000
     42 ****         1.6788  -0.8999  -2.5748 LP             1 S1                 0.0000
     43 ****         4.5065  -4.1964   1.6073 LP             1 S1                 0.0000
     44 ****         3.7864  -2.5010  -2.1499 LP             1 S1                 0.0000
@<TRIPOS>BOND
    1    1    2 1     
    2    1   19 1     
    3    1   20 1     
    4    1   21 1     
    5    2    3 1     
    6    2   22 1     
    7    2   23 1     
    8    3    7 1     
    9    3    4 1     
   10    3   40 1     
   11    4    5 1     
   12    4   24 1     
   13    4   25 1     
   14    5    6 1     
   15    5   26 1     
   16    5   27 1     
   17    6    7 1     
   18    6   28 1     
   19    6   29 1     
   20    7    8 1     
   21    7   30 1     
   22    8    9 1     
   23    8   31 1     
   24    8   32 1     
   25    9   10 am    
   26    9   33 1     
   27   10   11 2     
   28   10   12 1     
   29   12   13 1     
   30   12   14 1     
   31   12   34 1     
   32   13   35 1     
   33   13   36 1     
   34   13   37 1     
   35   14   18 1     
   36   14   15 1     
   37   15   16 2     
   38   15   38 1     
   39   16   17 1     
   40   17   18 2     
   41   17   39 1     
   42   11   41 1     
   43   11   42 1     
   44   16   43 1     
   45   18   44 1     
@<TRIPOS>SUBSTRUCTURE
      1 S1             1
@<TRIPOS>SET
LONE_PAIRS      STATIC     ATOMS    <user>   **** ""
4 41 42 43 44
DONOR_HYDROGENS      STATIC     ATOMS    <user>   **** ""
2 40 33
ATOM$BLUE        STATIC     ATOMS    COLORGROUP SYSTEM
4 41 42 43 44
ATOM$RED        STATIC     ATOMS    COLORGROUP SYSTEM
2 40 33
