AV-unprocessed.smi:2459|AV-procd|sdf|9712|dock7
  -GOLD-   2272013353D 1   1.00000     0.00000
 Structure written by MMmdl.
 47 48  0  0  0  0  0  0  0  0  2 V2000
  137.1241  137.4623  154.5680 C   0  0  0  0  0  0  0  0  0  0  0  0
  138.1223  138.2814  155.1735 O   0  0  0  0  0  0  0  0  0  0  0  0
  139.3392  138.5225  154.4556 C   0  0  0  0  0  0  0  0  0  0  0  0
  138.8828  139.1109  153.1063 C   0  0  0  0  0  0  0  0  0  0  0  0
  140.1909  139.5806  155.2007 C   0  0  0  0  0  0  0  0  0  0  0  0
  140.0808  137.1833  154.2080 C   0  0  0  0  0  0  0  0  0  0  0  0
  139.5957  136.1427  154.6517 O   0  0  0  0  0  0  0  0  0  0  0  0
  141.2360  137.2347  153.5155 N   0  0  0  0  0  0  0  0  0  0  0  0
  142.1260  136.1820  153.1682 C   0  0  0  0  0  0  0  0  0  0  0  0
  141.9955  134.8473  153.6194 C   0  0  0  0  0  0  0  0  0  0  0  0
  142.9062  133.9208  153.2531 N   0  3  0  0  0  0  0  0  0  0  0  0
  143.9749  134.1836  152.4622 C   0  0  0  0  0  0  0  0  0  0  0  0
  144.8720  133.1395  152.1682 N   0  0  0  0  0  0  0  0  0  0  0  0
  145.6390  132.6930  153.3294 C   0  0  0  0  0  0  0  0  0  0  0  0
  146.8146  131.7986  152.8997 C   0  0  0  0  0  0  0  0  0  0  0  0
  146.3273  130.6286  152.0302 C   0  0  0  0  0  0  0  0  0  0  0  0
  145.5085  131.1554  150.8410 C   0  0  0  0  0  0  0  0  0  0  0  0
  144.3617  132.0609  151.3218 C   0  0  0  0  0  0  0  0  0  0  0  0
  144.1581  135.5062  151.9816 C   0  0  0  0  0  0  0  0  0  0  0  0
  145.3185  135.8777  151.0732 C   0  0  0  0  0  0  0  0  0  0  0  0
  143.2269  136.5033  152.3469 C   0  0  0  0  0  0  0  0  0  0  0  0
  136.2744  137.3848  155.2461 H   0  0  0  0  0  0  0  0  0  0  0  0
  137.4820  136.4499  154.3845 H   0  0  0  0  0  0  0  0  0  0  0  0
  136.7502  137.8782  153.6323 H   0  0  0  0  0  0  0  0  0  0  0  0
  139.7316  139.3199  152.4539 H   0  0  0  0  0  0  0  0  0  0  0  0
  138.3425  140.0472  153.2499 H   0  0  0  0  0  0  0  0  0  0  0  0
  138.2132  138.4348  152.5728 H   0  0  0  0  0  0  0  0  0  0  0  0
  141.0553  139.8815  154.6072 H   0  0  0  0  0  0  0  0  0  0  0  0
  140.5646  139.2239  156.1606 H   0  0  0  0  0  0  0  0  0  0  0  0
  139.6066  140.4799  155.3974 H   0  0  0  0  0  0  0  0  0  0  0  0
  141.4871  138.1463  153.1609 H   0  0  0  0  0  0  0  0  0  0  0  0
  141.2161  134.4789  154.2688 H   0  0  0  0  0  0  0  0  0  0  0  0
  146.0150  133.5440  153.8968 H   0  0  0  0  0  0  0  0  0  0  0  0
  144.9768  132.1398  153.9969 H   0  0  0  0  0  0  0  0  0  0  0  0
  147.5391  132.3924  152.3406 H   0  0  0  0  0  0  0  0  0  0  0  0
  147.3368  131.4199  153.7788 H   0  0  0  0  0  0  0  0  0  0  0  0
  147.1759  130.0429  151.6756 H   0  0  0  0  0  0  0  0  0  0  0  0
  145.7124  129.9566  152.6302 H   0  0  0  0  0  0  0  0  0  0  0  0
  146.1596  131.7163  150.1691 H   0  0  0  0  0  0  0  0  0  0  0  0
  145.1096  130.3222  150.2618 H   0  0  0  0  0  0  0  0  0  0  0  0
  143.6374  131.4688  151.8830 H   0  0  0  0  0  0  0  0  0  0  0  0
  143.8385  132.4813  150.4619 H   0  0  0  0  0  0  0  0  0  0  0  0
  145.0758  136.7547  150.4725 H   0  0  0  0  0  0  0  0  0  0  0  0
  145.5617  135.0670  150.3859 H   0  0  0  0  0  0  0  0  0  0  0  0
  146.2047  136.1094  151.6638 H   0  0  0  0  0  0  0  0  0  0  0  0
  143.3552  137.5159  151.9918 H   0  0  0  0  0  0  0  0  0  0  0  0
  142.7868  132.9693  153.6011 H   0  0  0  0  0  0  0  0  0  0  0  0
  1  2  1  0  0  0  0
  1 22  1  0  0  0  0
  1 23  1  0  0  0  0
  1 24  1  0  0  0  0
  2  3  1  0  0  0  0
  3  4  1  0  0  0  0
  3  5  1  0  0  0  0
  3  6  1  0  0  0  0
  4 25  1  0  0  0  0
  4 26  1  0  0  0  0
  4 27  1  0  0  0  0
  5 28  1  0  0  0  0
  5 29  1  0  0  0  0
  5 30  1  0  0  0  0
  6  7  2  0  0  0  0
  6  8  1  0  0  0  0
  8  9  1  0  0  0  0
  8 31  1  0  0  0  0
  9 21  1  0  0  0  0
  9 10  2  0  0  0  0
 10 11  1  0  0  0  0
 10 32  1  0  0  0  0
 11 12  2  0  0  0  0
 11 47  1  0  0  0  0
 12 13  1  0  0  0  0
 12 19  1  0  0  0  0
 13 18  1  0  0  0  0
 13 14  1  0  0  0  0
 14 15  1  0  0  0  0
 14 33  1  0  0  0  0
 14 34  1  0  0  0  0
 15 16  1  0  0  0  0
 15 35  1  0  0  0  0
 15 36  1  0  0  0  0
 16 17  1  0  0  0  0
 16 37  1  0  0  0  0
 16 38  1  0  0  0  0
 17 18  1  0  0  0  0
 17 39  1  0  0  0  0
 17 40  1  0  0  0  0
 18 41  1  0  0  0  0
 18 42  1  0  0  0  0
 19 20  1  0  0  0  0
 19 21  2  0  0  0  0
 20 43  1  0  0  0  0
 20 44  1  0  0  0  0
 20 45  1  0  0  0  0
 21 46  1  0  0  0  0
M  CHG  1  11   1
M  END
> <s_m_source_file>
AV-unprocessed.smi

> <i_m_source_file_index>
2459

> <i_lp_mmshare_version>
43012

> <i_f3d_flags>
0

> <s_epik_input>
W0NIM11PQyhbQ0gzXSkoW0NIM10pQyg9TylbTkhdYzFbY0hdbmMoYyhbQ0gzXSlbY0hdMSlOMltDSDJdW0NIMl1bQ0gyXVtDSDJdW0NIMl0y

> <s_epik_cmdline>
J2VwaWtfcHl0aG9uJywgJy1waCcsICc3LjAnLCAnLXRuJywgJzgnLCAnLW1hJywgJzIwMCcsICctbWV0YWxfYmluZGluZycsICctaW1hZScsICc8aW5maWxlLm1hZT4nLCAnLW9tYWUnLCAnPG91dGZpbGUubWFlPic=

> <r_lp_tautomer_probability>
0.999994

> <r_epik_Ionization_Penalty>
1.22605

> <r_epik_Ionization_Penalty_Charging>
1.22604

> <r_epik_Ionization_Penalty_Neutral>
3.07462e-06

> <r_epik_State_Penalty>
0.10642

> <r_epik_Charging_Adjusted_Penalty>
1.33246

> <i_epik_Tot_Q>
1

> <i_epik_Tot_abs_Q>
1

> <r_epik_Metal_State_Penalty>
0.12082

> <b_epik_Metal_Only>
0

> <s_lp_Force_Field>
OPLS_2005

> <r_lp_Energy>
38.0416

> <b_lp_Chiralities_Consistent>
1

> <s_lp_Variant>
AV-unprocessed.smi:2459-1

> <Gold.Version>
5.8.1

> <Gold.Id.Protein>
6NUR|6NUR_protein|mol2

> <Gold.PLP.Fitness>
42.7786

> <Gold.PLP.PLP>
-33.8363

> <Gold.PLP.part.hbond>
-2.0000

> <Gold.PLP.part.metal>
0.0000

> <Gold.PLP.part.buried>
-4.7417

> <Gold.PLP.part.nonpolar>
-27.2140

> <Gold.PLP.part.repulsive>
0.1961

> <Gold.PLP.ligand.clash>
0.0000

> <Gold.PLP.ligand.torsion>
0.1808

> <Gold.PLP.Chemscore.Hbond>
3.0000

> <Gold.PLP.Chemscore.CHOScore>
0.0000

> <Gold.PLP.Chemscore.Metal>
0.0000

> <Gold.Chemscore.Hbonds>
donor molecule, donor type, donor heavy atom, donor atom, acceptor molecule, acceptor atom, score
      L1  H    11    47       P1 10957  2.00
      P1  H 11000 11005       L1     7  1.00

> <Gold.PLP.Chemscore.Internal.Correction>
0.3039

> <Gold.Rescore>
     Score         DG    S(hbond)    S(metal)    S(lipo)     H(rot)  DE(clash)    DE(int)     intcor
     15.49     -18.32       1.96        0.00      83.26       1.34       0.02       2.81       ----

> <Gold.Chemscore.Fitness>
15.4946

> <Gold.Chemscore.DG>
-18.3184

> <Gold.Chemscore.ZeroCoef>
-5.4800

> <Gold.Chemscore.Hbond>
1.9555

> <Gold.Chemscore.Metal>
0.0000

> <Gold.Chemscore.Lipo>
83.2613

> <Gold.Chemscore.Internal_Hbond>
0.0000

> <Gold.Chemscore.DEClash>
0.0162

> <Gold.Chemscore.DEInternal>
2.8077

> <Gold.Chemscore.Rot>
1.3416

> <Gold.Chemscore.Internal.Correction>
   9.000000E+99

> <Gold.Chemscore.Hbonds>
donor molecule, donor type, donor heavy atom, donor atom, acceptor molecule, acceptor atom, score
      L1  H    11    47       P1 10957  0.92
      P1  H 11000 11005       L1     7  0.96

> <Gold.Chemscore.Hbond.Weighted>
-6.5315

> <Gold.Chemscore.Metal.Weighted>
-0.0000

> <Gold.Chemscore.Lipo.Weighted>
-9.7416

> <Gold.Chemscore.Internal_Hbond.Weighted>
0.0000

> <Gold.Chemscore.DEClash.Weighted>
0.0162

> <Gold.Chemscore.DEInternal.Weighted>
2.8077

> <Gold.Chemscore.Rot.Weighted>
3.4346

> <Gold.Chemscore.Internal.Correction.Weighted>
   9.000000E+99

> <Gold.Protein.RotatedTorsions>
[ 6907 6896 6895 6894 ] final  132.07 input  -60.11 | X-H torsion
[ 7974 7965 7964 7962 ] final   78.12 input  175.53 | X-H torsion
[ 8008 7997 7996 7995 ] final  -34.33 input   59.86 | X-H torsion
[ 10167 10162 10161 10158 ] final  -15.75 input  -65.29 | X-H torsion
[ 10718 10713 10712 10709 ] final -152.46 input   66.30 | X-H torsion
[ 10763 10752 10751 10750 ] final   18.77 input  -60.55 | X-H torsion
[ 11005 11000 10999 10996 ] final   80.38 input  -57.11 | X-H torsion

> <Gold.Protein.ActiveResidues>
 VAL166  LYS551  ARG553  GLY616  TRP617  ASP618  TYR619  PRO620  LYS621  CYS622 
 ASP623  PHE694  ASN695  SER759  ASP760  ASP761  ALA762  ILE779  LEU786  VAL792 
 PHE793  MET794  SER795  GLU796  ALA797  LYS798  CYS799  TRP800  GLU811  SER814 

> <Gold.Protein.RotatedAtoms>
  152.3362  133.6014  159.5843 H   0  0  0  0  0  0  0  0  0  0  0  0  # atno 6907 bound_to 6896
  150.7451  133.9793  159.3580 H   0  0  0  0  0  0  0  0  0  0  0  0  # atno 6908 bound_to 6896
  151.7662  135.0798  160.0404 H   0  0  0  0  0  0  0  0  0  0  0  0  # atno 6909 bound_to 6896
  145.6813  139.2524  143.1812 H   0  0  0  0  0  0  0  0  0  0  0  0  # atno 7974 bound_to 7965
  154.4124  140.1687  156.2032 H   0  0  0  0  0  0  0  0  0  0  0  0  # atno 8008 bound_to 7997
  155.9506  140.3401  155.6381 H   0  0  0  0  0  0  0  0  0  0  0  0  # atno 8009 bound_to 7997
  155.6874  140.0729  157.2452 H   0  0  0  0  0  0  0  0  0  0  0  0  # atno 8010 bound_to 7997
  140.7223  143.5186  150.9661 H   0  0  0  0  0  0  0  0  0  0  0  0  # atno 10167 bound_to 10162
  156.4728  130.8266  151.2495 H   0  0  0  0  0  0  0  0  0  0  0  0  # atno 10718 bound_to 10713
  153.1220  135.6721  153.9320 H   0  0  0  0  0  0  0  0  0  0  0  0  # atno 10763 bound_to 10752
  153.8832  135.3055  155.3447 H   0  0  0  0  0  0  0  0  0  0  0  0  # atno 10764 bound_to 10752
  154.7630  135.4978  153.9580 H   0  0  0  0  0  0  0  0  0  0  0  0  # atno 10765 bound_to 10752
  139.9136  134.7916  156.1902 H   0  0  0  0  0  0  0  0  0  0  0  0  # atno 11005 bound_to 11000
  146.0962  140.7598  142.9571 LP  0  0  0  0  0  0  0  0  0  0  0  0  # atno 17320 bound_to 7965
  144.7025  140.3715  143.7144 LP  0  0  0  0  0  0  0  0  0  0  0  0  # atno 17321 bound_to 7965
  139.8902  143.6962  152.3146 LP  0  0  0  0  0  0  0  0  0  0  0  0  # atno 17342 bound_to 10162
  139.7275  144.7589  151.0855 LP  0  0  0  0  0  0  0  0  0  0  0  0  # atno 17343 bound_to 10162
  157.7490  131.0070  150.3175 LP  0  0  0  0  0  0  0  0  0  0  0  0  # atno 17370 bound_to 10713
  156.3601  130.3845  149.7258 LP  0  0  0  0  0  0  0  0  0  0  0  0  # atno 17371 bound_to 10713
  141.0588  133.6852  156.1912 LP  0  0  0  0  0  0  0  0  0  0  0  0  # atno 17394 bound_to 11000
  140.6694  134.4884  157.5586 LP  0  0  0  0  0  0  0  0  0  0  0  0  # atno 17395 bound_to 11000

$$$$
