AV-unprocessed.smi:1754|AV-procd|sdf|7067|dock9
  -GOLD-   22720 8283D 1   1.00000     0.00000
 Structure written by MMmdl.
 44 45  0  0  0  0  0  0  0  0  1 V2000
  144.9366  132.4180  149.1804 C   0  0  0  0  0  0  0  0  0  0  0  0
  143.8485  132.2926  150.2567 C   0  0  0  0  0  0  0  0  0  0  0  0
  144.2576  132.8696  151.5385 N   0  0  0  0  0  0  0  0  0  0  0  0
  145.6000  132.5405  152.0203 C   0  0  0  0  0  0  0  0  0  0  0  0
  145.8362  131.0279  152.1563 C   0  0  0  0  0  0  0  0  0  0  0  0
  143.6647  134.1063  151.8901 C   0  0  0  0  0  0  0  0  0  0  0  0
  142.3388  134.1984  152.3832 C   0  0  0  0  0  0  0  0  0  0  0  0
  141.8100  135.4606  152.7153 C   0  0  0  0  0  0  0  0  0  0  0  0
  142.6213  136.6071  152.5556 C   0  0  0  0  0  0  0  0  0  0  0  0
  142.2037  137.9366  152.8294 N   0  0  0  0  0  0  0  0  0  0  0  0
  141.0046  138.3807  153.2539 C   0  0  0  0  0  0  0  0  0  0  0  0
  140.0615  137.6592  153.5700 O   0  0  0  0  0  0  0  0  0  0  0  0
  140.9168  139.7204  153.3459 N   0  0  0  0  0  0  0  0  0  0  0  0
  139.7679  140.5229  153.7703 C   0  0  1  0  0  0  0  0  0  0  0  0
  139.9788  142.0306  153.5135 C   0  0  0  0  0  0  0  0  0  0  0  0
  138.6273  142.7465  153.6270 C   0  0  0  0  0  0  0  0  0  0  0  0
  137.3557  141.5205  153.1362 S   0  0  0  0  0  0  0  0  0  0  0  0
  136.4378  141.3122  154.2663 O   0  0  0  0  0  0  0  0  0  0  0  0
  136.8458  141.8445  151.7955 O   0  0  0  0  0  0  0  0  0  0  0  0
  138.5022  140.0972  153.0156 C   0  0  0  0  0  0  0  0  0  0  0  0
  143.9222  136.4188  152.0513 C   0  0  0  0  0  0  0  0  0  0  0  0
  144.4320  135.2118  151.7325 N   0  0  0  0  0  0  0  0  0  0  0  0
  144.6076  131.9629  148.2463 H   0  0  0  0  0  0  0  0  0  0  0  0
  145.8573  131.9199  149.4853 H   0  0  0  0  0  0  0  0  0  0  0  0
  145.1719  133.4626  148.9740 H   0  0  0  0  0  0  0  0  0  0  0  0
  142.9202  132.7413  149.9031 H   0  0  0  0  0  0  0  0  0  0  0  0
  143.6159  131.2385  150.4101 H   0  0  0  0  0  0  0  0  0  0  0  0
  146.3339  132.9394  151.3193 H   0  0  0  0  0  0  0  0  0  0  0  0
  145.7936  133.0480  152.9653 H   0  0  0  0  0  0  0  0  0  0  0  0
  146.8606  130.8276  152.4704 H   0  0  0  0  0  0  0  0  0  0  0  0
  145.6789  130.5214  151.2037 H   0  0  0  0  0  0  0  0  0  0  0  0
  145.1748  130.5681  152.8899 H   0  0  0  0  0  0  0  0  0  0  0  0
  141.7153  133.3282  152.5165 H   0  0  0  0  0  0  0  0  0  0  0  0
  140.7934  135.5200  153.0712 H   0  0  0  0  0  0  0  0  0  0  0  0
  142.9140  138.6428  152.7038 H   0  0  0  0  0  0  0  0  0  0  0  0
  141.7564  140.2378  153.1283 H   0  0  0  0  0  0  0  0  0  0  0  0
  139.5801  140.3704  154.8348 H   0  0  0  0  0  0  0  0  0  0  0  0
  140.7134  142.4649  154.1922 H   0  0  0  0  0  0  0  0  0  0  0  0
  140.3629  142.1699  152.5019 H   0  0  0  0  0  0  0  0  0  0  0  0
  138.4298  143.0412  154.6579 H   0  0  0  0  0  0  0  0  0  0  0  0
  138.5628  143.6314  152.9934 H   0  0  0  0  0  0  0  0  0  0  0  0
  138.7091  139.9282  151.9583 H   0  0  0  0  0  0  0  0  0  0  0  0
  138.0362  139.2019  153.4275 H   0  0  0  0  0  0  0  0  0  0  0  0
  144.5790  137.2629  151.8993 H   0  0  0  0  0  0  0  0  0  0  0  0
  1  2  1  0  0  0  0
  1 23  1  0  0  0  0
  1 24  1  0  0  0  0
  1 25  1  0  0  0  0
  2  3  1  0  0  0  0
  2 26  1  0  0  0  0
  2 27  1  0  0  0  0
  3  4  1  0  0  0  0
  3  6  1  0  0  0  0
  4  5  1  0  0  0  0
  4 28  1  0  0  0  0
  4 29  1  0  0  0  0
  5 30  1  0  0  0  0
  5 31  1  0  0  0  0
  5 32  1  0  0  0  0
  6 22  1  0  0  0  0
  6  7  2  0  0  0  0
  7  8  1  0  0  0  0
  7 33  1  0  0  0  0
  8  9  2  0  0  0  0
  8 34  1  0  0  0  0
  9 10  1  0  0  0  0
  9 21  1  0  0  0  0
 10 11  1  0  0  0  0
 10 35  1  0  0  0  0
 11 12  2  0  0  0  0
 11 13  1  0  0  0  0
 13 14  1  0  0  0  0
 13 36  1  0  0  0  0
 14 20  1  0  0  0  0
 14 15  1  0  0  0  0
 14 37  1  0  0  0  0
 15 16  1  0  0  0  0
 15 38  1  0  0  0  0
 15 39  1  0  0  0  0
 16 17  1  0  0  0  0
 16 40  1  0  0  0  0
 16 41  1  0  0  0  0
 17 18  2  0  0  0  0
 17 19  2  0  0  0  0
 17 20  1  0  0  0  0
 20 42  1  0  0  0  0
 20 43  1  0  0  0  0
 21 22  2  0  0  0  0
 21 44  1  0  0  0  0
M  END
> <s_m_source_file>
AV-unprocessed.smi

> <i_m_source_file_index>
1754

> <i_lp_mmshare_version>
43012

> <i_f3d_flags>
0

> <s_epik_input>
W0NIM11bQ0gyXU4oW0NIMl1bQ0gzXSljMVtjSF1bY0hdYyhbY0hdbjEpW05IXUMoPU8pW05IXVtDQEBIXShbQ0gyXTIpW0NIMl1bQ0gyXVMyKD1PKT1P

> <s_epik_cmdline>
J2VwaWtfcHl0aG9uJywgJy1waCcsICc3LjAnLCAnLXRuJywgJzgnLCAnLW1hJywgJzIwMCcsICctbWV0YWxfYmluZGluZycsICctaW1hZScsICc8aW5maWxlLm1hZT4nLCAnLW9tYWUnLCAnPG91dGZpbGUubWFlPic=

> <r_lp_tautomer_probability>
1

> <r_epik_Ionization_Penalty>
0.615754

> <r_epik_Ionization_Penalty_Charging>
0

> <r_epik_Ionization_Penalty_Neutral>
0.615754

> <r_epik_State_Penalty>
2.08676

> <r_epik_Charging_Adjusted_Penalty>
2.08676

> <i_epik_Tot_Q>
0

> <i_epik_Tot_abs_Q>
0

> <r_epik_Metal_State_Penalty>
1.53042

> <b_epik_Metal_Only>
0

> <s_lp_Force_Field>
OPLS_2005

> <r_lp_Energy>
21.6605

> <b_lp_Chiralities_Consistent>
1

> <s_lp_Variant>
AV-unprocessed.smi:1754-4

> <Gold.Version>
5.8.1

> <Gold.Id.Protein>
6NUR|6NUR_protein|mol2

> <Gold.PLP.Fitness>
41.8443

> <Gold.PLP.PLP>
-35.9197

> <Gold.PLP.part.hbond>
-2.6605

> <Gold.PLP.part.metal>
0.0000

> <Gold.PLP.part.buried>
-3.8586

> <Gold.PLP.part.nonpolar>
-29.0178

> <Gold.PLP.part.repulsive>
0.2948

> <Gold.PLP.ligand.clash>
0.0000

> <Gold.PLP.ligand.torsion>
1.5802

> <Gold.PLP.Chemscore.Hbond>
2.0000

> <Gold.PLP.Chemscore.CHOScore>
0.7273

> <Gold.PLP.Chemscore.Metal>
0.0000

> <Gold.Chemscore.Hbonds>
donor molecule, donor type, donor heavy atom, donor atom, acceptor molecule, acceptor atom, score
      L1  H    10    35       P1 10175  1.00
      L1  H    13    36       P1 10175  0.70
      P1  H 10157 10163       L1    19  0.25
      L1  C    21    44       P1 10171  0.54

> <Gold.PLP.Chemscore.Internal.Correction>
0.9033

> <Gold.Rescore>
     Score         DG    S(hbond)    S(metal)    S(lipo)     H(rot)  DE(clash)    DE(int)     intcor
     11.74     -15.53       1.59        0.00      70.87       1.39       0.13       3.66       ----

> <Gold.Chemscore.Fitness>
11.7398

> <Gold.Chemscore.DG>
-15.5334

> <Gold.Chemscore.ZeroCoef>
-5.4800

> <Gold.Chemscore.Hbond>
1.5910

> <Gold.Chemscore.Metal>
0.0000

> <Gold.Chemscore.Lipo>
70.8713

> <Gold.Chemscore.Internal_Hbond>
0.0000

> <Gold.Chemscore.DEClash>
0.1350

> <Gold.Chemscore.DEInternal>
3.6586

> <Gold.Chemscore.Rot>
1.3876

> <Gold.Chemscore.Internal.Correction>
   9.000000E+99

> <Gold.Chemscore.Hbonds>
donor molecule, donor type, donor heavy atom, donor atom, acceptor molecule, acceptor atom, score
      L1  H    10    35       P1 10175  0.98
      L1  H    13    36       P1 10175  0.07
      P1  H 10157 10163       L1    19  0.25

> <Gold.Chemscore.Hbond.Weighted>
-5.3138

> <Gold.Chemscore.Metal.Weighted>
-0.0000

> <Gold.Chemscore.Lipo.Weighted>
-8.2919

> <Gold.Chemscore.Internal_Hbond.Weighted>
0.0000

> <Gold.Chemscore.DEClash.Weighted>
0.1350

> <Gold.Chemscore.DEInternal.Weighted>
3.6586

> <Gold.Chemscore.Rot.Weighted>
3.5524

> <Gold.Chemscore.Internal.Correction.Weighted>
   9.000000E+99

> <Gold.Protein.RotatedTorsions>
[ 6907 6896 6895 6894 ] final  -44.13 input  -60.11 | X-H torsion
[ 7974 7965 7964 7962 ] final   28.85 input  175.53 | X-H torsion
[ 8008 7997 7996 7995 ] final  -46.44 input   59.86 | X-H torsion
[ 10167 10162 10161 10158 ] final  142.20 input  -65.29 | X-H torsion
[ 10718 10713 10712 10709 ] final -110.90 input   66.30 | X-H torsion
[ 10763 10752 10751 10750 ] final   28.94 input  -60.55 | X-H torsion
[ 11005 11000 10999 10996 ] final -104.75 input  -57.11 | X-H torsion

> <Gold.Protein.ActiveResidues>
 VAL166  LYS551  ARG553  GLY616  TRP617  ASP618  TYR619  PRO620  LYS621  CYS622 
 ASP623  PHE694  ASN695  SER759  ASP760  ASP761  ALA762  ILE779  LEU786  VAL792 
 PHE793  MET794  SER795  GLU796  ALA797  LYS798  CYS799  TRP800  GLU811  SER814 

> <Gold.Protein.RotatedAtoms>
  150.9362  134.8775  159.7583 H   0  0  0  0  0  0  0  0  0  0  0  0  # atno 6907 bound_to 6896
  152.5060  134.4007  159.9425 H   0  0  0  0  0  0  0  0  0  0  0  0  # atno 6908 bound_to 6896
  151.4031  133.3711  159.2769 H   0  0  0  0  0  0  0  0  0  0  0  0  # atno 6909 bound_to 6896
  146.1705  139.7000  142.8971 H   0  0  0  0  0  0  0  0  0  0  0  0  # atno 7974 bound_to 7965
  154.4007  140.1371  156.4011 H   0  0  0  0  0  0  0  0  0  0  0  0  # atno 8008 bound_to 7997
  155.7823  140.3481  155.5284 H   0  0  0  0  0  0  0  0  0  0  0  0  # atno 8009 bound_to 7997
  155.8661  140.0964  157.1571 H   0  0  0  0  0  0  0  0  0  0  0  0  # atno 8010 bound_to 7997
  139.5000  144.6122  151.6245 H   0  0  0  0  0  0  0  0  0  0  0  0  # atno 10167 bound_to 10162
  156.0616  130.5839  150.8300 H   0  0  0  0  0  0  0  0  0  0  0  0  # atno 10718 bound_to 10713
  153.0460  135.6501  154.0815 H   0  0  0  0  0  0  0  0  0  0  0  0  # atno 10763 bound_to 10752
  154.0512  135.2895  155.3341 H   0  0  0  0  0  0  0  0  0  0  0  0  # atno 10764 bound_to 10752
  154.6718  135.5353  153.8214 H   0  0  0  0  0  0  0  0  0  0  0  0  # atno 10765 bound_to 10752
  141.1086  133.8749  157.1649 H   0  0  0  0  0  0  0  0  0  0  0  0  # atno 11005 bound_to 11000
  145.4352  141.0418  143.2888 LP  0  0  0  0  0  0  0  0  0  0  0  0  # atno 17320 bound_to 7965
  144.8156  139.5883  143.7010 LP  0  0  0  0  0  0  0  0  0  0  0  0  # atno 17321 bound_to 7965
  140.5800  143.9962  150.6263 LP  0  0  0  0  0  0  0  0  0  0  0  0  # atno 17342 bound_to 10162
  140.3108  143.3199  152.0880 LP  0  0  0  0  0  0  0  0  0  0  0  0  # atno 17343 bound_to 10162
  157.5629  131.0946  150.9532 LP  0  0  0  0  0  0  0  0  0  0  0  0  # atno 17370 bound_to 10713
  156.9766  130.5511  149.5293 LP  0  0  0  0  0  0  0  0  0  0  0  0  # atno 17371 bound_to 10713
  139.9968  135.0043  157.0100 LP  0  0  0  0  0  0  0  0  0  0  0  0  # atno 17394 bound_to 11000
  140.4836  134.1264  155.7221 LP  0  0  0  0  0  0  0  0  0  0  0  0  # atno 17395 bound_to 11000

$$$$
