AV-unprocessed.smi:348|AV-procd|sdf|2395|dock4
  -GOLD-   2262022323D 1   1.00000     0.00000
 Structure written by MMmdl.
 39 40  0  0  0  0  0  0  0  0  1 V2000
  148.1968  133.7937  159.4170 C   0  0  0  0  0  0  0  0  0  0  0  0
  149.1373  133.8766  158.3581 O   0  0  0  0  0  0  0  0  0  0  0  0
  149.1386  135.1247  157.6802 C   0  0  0  0  0  0  0  0  0  0  0  0
  150.5422  135.4875  157.1606 C   0  0  0  0  0  0  0  0  0  0  0  0
  150.5949  136.8194  156.5907 N   0  0  0  0  0  0  0  0  0  0  0  0
  150.4330  137.9892  157.3384 C   0  0  0  0  0  0  0  0  0  0  0  0
  150.2310  137.8638  158.7055 N   0  0  0  0  0  0  0  0  0  0  0  0
  150.4837  139.2312  156.7725 C   0  0  0  0  0  0  0  0  0  0  0  0
  150.3178  140.3748  157.5553 N   0  0  0  0  0  0  0  0  0  0  0  0
  150.3294  141.7847  157.1944 C   0  0  0  0  0  0  0  0  0  0  0  0
  151.0717  142.6499  158.1951 C   0  0  0  0  0  0  0  0  0  0  0  0
  151.0522  144.0557  158.0699 C   0  0  0  0  0  0  0  0  0  0  0  0
  151.7397  144.8599  158.9997 C   0  0  0  0  0  0  0  0  0  0  0  0
  152.4482  144.2624  160.0600 C   0  0  0  0  0  0  0  0  0  0  0  0
  152.4679  142.8604  160.1905 C   0  0  0  0  0  0  0  0  0  0  0  0
  151.7803  142.0557  159.2611 C   0  0  0  0  0  0  0  0  0  0  0  0
  150.7246  139.3671  155.3245 C   0  0  0  0  0  0  0  0  0  0  0  0
  150.7845  140.4150  154.6831 O   0  0  0  0  0  0  0  0  0  0  0  0
  150.9061  138.1663  154.6425 N   0  0  0  0  0  0  0  0  0  0  0  0
  150.8670  136.8975  155.2055 C   0  0  0  0  0  0  0  0  0  0  0  0
  151.0673  135.9133  154.4928 O   0  0  0  0  0  0  0  0  0  0  0  0
  151.0883  138.2237  153.6512 H   0  0  0  0  0  0  0  0  0  0  0  0
  148.2884  132.8244  159.9067 H   0  0  0  0  0  0  0  0  0  0  0  0
  147.1716  133.8868  159.0598 H   0  0  0  0  0  0  0  0  0  0  0  0
  148.3782  134.5648  160.1667 H   0  0  0  0  0  0  0  0  0  0  0  0
  148.4041  135.1284  156.8732 H   0  0  0  0  0  0  0  0  0  0  0  0
  148.8127  135.8794  158.3963 H   0  0  0  0  0  0  0  0  0  0  0  0
  151.2956  135.4227  157.9474 H   0  0  0  0  0  0  0  0  0  0  0  0
  150.8861  134.8031  156.3864 H   0  0  0  0  0  0  0  0  0  0  0  0
  150.1996  136.9624  159.1594 H   0  0  0  0  0  0  0  0  0  0  0  0
  150.1298  138.6699  159.3052 H   0  0  0  0  0  0  0  0  0  0  0  0
  150.1243  140.2107  158.5321 H   0  0  0  0  0  0  0  0  0  0  0  0
  150.8085  141.9051  156.2222 H   0  0  0  0  0  0  0  0  0  0  0  0
  149.3013  142.1365  157.0971 H   0  0  0  0  0  0  0  0  0  0  0  0
  150.5082  144.5206  157.2604 H   0  0  0  0  0  0  0  0  0  0  0  0
  151.7227  145.9350  158.8997 H   0  0  0  0  0  0  0  0  0  0  0  0
  152.9751  144.8791  160.7731 H   0  0  0  0  0  0  0  0  0  0  0  0
  153.0107  142.4018  161.0038 H   0  0  0  0  0  0  0  0  0  0  0  0
  151.8013  140.9811  159.3699 H   0  0  0  0  0  0  0  0  0  0  0  0
  1  2  1  0  0  0  0
  1 23  1  0  0  0  0
  1 24  1  0  0  0  0
  1 25  1  0  0  0  0
  2  3  1  0  0  0  0
  3  4  1  0  0  0  0
  3 26  1  0  0  0  0
  3 27  1  0  0  0  0
  4  5  1  0  0  0  0
  4 28  1  0  0  0  0
  4 29  1  0  0  0  0
  5 20  1  0  0  0  0
  5  6  1  0  0  0  0
  6  7  1  0  0  0  0
  6  8  2  0  0  0  0
  7 30  1  0  0  0  0
  7 31  1  0  0  0  0
  8  9  1  0  0  0  0
  8 17  1  0  0  0  0
  9 10  1  0  0  0  0
  9 32  1  0  0  0  0
 10 11  1  0  0  0  0
 10 33  1  0  0  0  0
 10 34  1  0  0  0  0
 11 16  1  0  0  0  0
 11 12  2  0  0  0  0
 12 13  1  0  0  0  0
 12 35  1  0  0  0  0
 13 14  2  0  0  0  0
 13 36  1  0  0  0  0
 14 15  1  0  0  0  0
 14 37  1  0  0  0  0
 15 16  2  0  0  0  0
 15 38  1  0  0  0  0
 16 39  1  0  0  0  0
 17 18  2  0  0  0  0
 17 19  1  0  0  0  0
 19 22  1  0  0  0  0
 19 20  1  0  0  0  0
 20 21  2  0  0  0  0
M  END
> <s_m_source_file>
AV-unprocessed.smi

> <i_m_source_file_index>
348

> <i_lp_mmshare_version>
43012

> <i_f3d_flags>
0

> <s_epik_input>
W0NIM11PW0NIMl1bQ0gyXW4xYyhbTkgyXSljKGMoPU8pW25IXWMxPU8pW05IXVtDSDJdYzJbY0hdW2NIXVtjSF1bY0hdW2NIXTI=

> <s_epik_cmdline>
J2VwaWtfcHl0aG9uJywgJy1waCcsICc3LjAnLCAnLXRuJywgJzgnLCAnLW1hJywgJzIwMCcsICctbWV0YWxfYmluZGluZycsICctaW1hZScsICc8aW5maWxlLm1hZT4nLCAnLW9tYWUnLCAnPG91dGZpbGUubWFlPic=

> <r_lp_tautomer_probability>
1

> <r_epik_Ionization_Penalty>
5.85579e-06

> <r_epik_Ionization_Penalty_Charging>
2.30036e-06

> <r_epik_Ionization_Penalty_Neutral>
3.55543e-06

> <r_epik_State_Penalty>
-0

> <r_epik_Charging_Adjusted_Penalty>
2.30036e-06

> <i_epik_Tot_Q>
0

> <i_epik_Tot_abs_Q>
0

> <r_epik_Metal_State_Penalty>
-0

> <b_epik_Metal_Only>
0

> <s_epik_Chemistry_Notes>
This compound has an imine and may undergo hydrolysis.

> <s_lp_Force_Field>
OPLS_2005

> <r_lp_Energy>
18.6076

> <b_lp_Chiralities_Consistent>
1

> <s_lp_Variant>
AV-unprocessed.smi:348-1

> <Gold.Version>
5.8.1

> <Gold.Id.Protein>
6NUR|6NUR_protein|mol2

> <Gold.PLP.Fitness>
39.2090

> <Gold.PLP.PLP>
-31.0402

> <Gold.PLP.part.hbond>
-2.8168

> <Gold.PLP.part.metal>
0.0000

> <Gold.PLP.part.buried>
-4.2591

> <Gold.PLP.part.nonpolar>
-25.6198

> <Gold.PLP.part.repulsive>
0.6260

> <Gold.PLP.ligand.clash>
0.0000

> <Gold.PLP.ligand.torsion>
0.4263

> <Gold.PLP.Chemscore.Hbond>
2.9913

> <Gold.PLP.Chemscore.CHOScore>
0.0000

> <Gold.PLP.Chemscore.Metal>
0.0000

> <Gold.Chemscore.Hbonds>
donor molecule, donor type, donor heavy atom, donor atom, acceptor molecule, acceptor atom, score
      P1  H  6896  6908       L1     2  0.95
      P1  H  7989  7998       L1    18  0.99
      P1  H 10752 10763       L1    21  1.00

> <Gold.PLP.Chemscore.Internal.Correction>
0.0476

> <Gold.Rescore>
     Score         DG    S(hbond)    S(metal)    S(lipo)     H(rot)  DE(clash)    DE(int)     intcor
     14.66     -16.58       1.84        0.00      88.34       2.10       0.17       1.75       ----

> <Gold.Chemscore.Fitness>
14.6566

> <Gold.Chemscore.DG>
-16.5795

> <Gold.Chemscore.ZeroCoef>
-5.4800

> <Gold.Chemscore.Hbond>
1.8357

> <Gold.Chemscore.Metal>
0.0000

> <Gold.Chemscore.Lipo>
88.3410

> <Gold.Chemscore.Internal_Hbond>
0.0000

> <Gold.Chemscore.DEClash>
0.1742

> <Gold.Chemscore.DEInternal>
1.7487

> <Gold.Chemscore.Rot>
2.0968

> <Gold.Chemscore.Internal.Correction>
   9.000000E+99

> <Gold.Chemscore.Hbonds>
donor molecule, donor type, donor heavy atom, donor atom, acceptor molecule, acceptor atom, score
      P1  H  6896  6908       L1     2  0.06
      P1  H  7989  7998       L1    18  0.91
      P1  H 10752 10763       L1    21  0.60

> <Gold.Chemscore.Hbond.Weighted>
-6.1313

> <Gold.Chemscore.Metal.Weighted>
-0.0000

> <Gold.Chemscore.Lipo.Weighted>
-10.3359

> <Gold.Chemscore.Internal_Hbond.Weighted>
0.0000

> <Gold.Chemscore.DEClash.Weighted>
0.1742

> <Gold.Chemscore.DEInternal.Weighted>
1.7487

> <Gold.Chemscore.Rot.Weighted>
5.3677

> <Gold.Chemscore.Internal.Correction.Weighted>
   9.000000E+99

> <Gold.Protein.RotatedTorsions>
[ 6907 6896 6895 6894 ] final  136.44 input  -60.11 | X-H torsion
[ 7974 7965 7964 7962 ] final  -94.11 input  175.53 | X-H torsion
[ 8008 7997 7996 7995 ] final -159.42 input   59.86 | X-H torsion
[ 10167 10162 10161 10158 ] final -161.02 input  -65.29 | X-H torsion
[ 10718 10713 10712 10709 ] final   26.24 input   66.30 | X-H torsion
[ 10763 10752 10751 10750 ] final   56.17 input  -60.55 | X-H torsion
[ 11005 11000 10999 10996 ] final   54.49 input  -57.11 | X-H torsion

> <Gold.Protein.ActiveResidues>
 VAL166  LYS551  ARG553  GLY616  TRP617  ASP618  TYR619  PRO620  LYS621  CYS622 
 ASP623  PHE694  ASN695  SER759  ASP760  ASP761  ALA762  ILE779  LEU786  VAL792 
 PHE793  MET794  SER795  GLU796  ALA797  LYS798  CYS799  TRP800  GLU811  SER814 

> <Gold.Protein.RotatedAtoms>
  152.2893  133.5546  159.5547 H   0  0  0  0  0  0  0  0  0  0  0  0  # atno 6907 bound_to 6896
  150.7228  134.0451  159.3788 H   0  0  0  0  0  0  0  0  0  0  0  0  # atno 6908 bound_to 6896
  151.8358  135.0607  160.0493 H   0  0  0  0  0  0  0  0  0  0  0  0  # atno 6909 bound_to 6896
  145.3777  140.9513  143.2411 H   0  0  0  0  0  0  0  0  0  0  0  0  # atno 7974 bound_to 7965
  155.7623  140.0841  157.2149 H   0  0  0  0  0  0  0  0  0  0  0  0  # atno 8008 bound_to 7997
  154.4002  140.1540  156.2904 H   0  0  0  0  0  0  0  0  0  0  0  0  # atno 8009 bound_to 7997
  155.8827  140.3419  155.5902 H   0  0  0  0  0  0  0  0  0  0  0  0  # atno 8010 bound_to 7997
  139.6496  144.0108  152.2152 H   0  0  0  0  0  0  0  0  0  0  0  0  # atno 10167 bound_to 10162
  157.2041  130.6904  149.6201 H   0  0  0  0  0  0  0  0  0  0  0  0  # atno 10718 bound_to 10713
  152.9828  135.5685  154.5185 H   0  0  0  0  0  0  0  0  0  0  0  0  # atno 10763 bound_to 10752
  154.4677  135.2783  155.1668 H   0  0  0  0  0  0  0  0  0  0  0  0  # atno 10764 bound_to 10752
  154.3229  135.6265  153.5569 H   0  0  0  0  0  0  0  0  0  0  0  0  # atno 10765 bound_to 10752
  140.0682  134.5506  155.9075 H   0  0  0  0  0  0  0  0  0  0  0  0  # atno 11005 bound_to 11000
  144.8530  139.5292  143.6847 LP  0  0  0  0  0  0  0  0  0  0  0  0  # atno 17320 bound_to 7965
  146.2857  139.6996  142.9197 LP  0  0  0  0  0  0  0  0  0  0  0  0  # atno 17321 bound_to 7965
  139.9819  144.6422  150.7893 LP  0  0  0  0  0  0  0  0  0  0  0  0  # atno 17342 bound_to 10162
  140.7531  143.3003  151.3098 LP  0  0  0  0  0  0  0  0  0  0  0  0  # atno 17343 bound_to 10162
  155.9697  130.4573  150.5956 LP  0  0  0  0  0  0  0  0  0  0  0  0  # atno 17370 bound_to 10713
  157.3737  131.0770  151.1536 LP  0  0  0  0  0  0  0  0  0  0  0  0  # atno 17371 bound_to 10713
  141.2001  133.6611  156.5881 LP  0  0  0  0  0  0  0  0  0  0  0  0  # atno 17394 bound_to 11000
  140.3666  134.7642  157.4570 LP  0  0  0  0  0  0  0  0  0  0  0  0  # atno 17395 bound_to 11000

$$$$
