AV-unprocessed.smi:1683|AV-procd|sdf|6751|dock7
  -GOLD-   22720 7503D 1   1.00000     0.00000
 Structure written by MMmdl.
 37 38  0  0  0  0  0  0  0  0  2 V2000
  144.8423  137.5576  152.7738 O   0  0  0  0  0  0  0  0  0  0  0  0
  145.9874  137.2143  152.4808 C   0  0  0  0  0  0  0  0  0  0  0  0
  147.0263  138.0609  152.4422 N   0  0  0  0  0  0  0  0  0  0  0  0
  146.9527  139.4932  152.7133 C   0  0  0  0  0  0  0  0  0  0  0  0
  147.7864  139.9048  153.9427 C   0  0  2  0  0  0  0  0  0  0  0  0
  148.1330  141.3891  153.9889 C   0  0  0  0  0  0  0  0  0  0  0  0
  149.3002  141.4240  154.9708 C   0  0  0  0  0  0  0  0  0  0  0  0
  150.0683  140.1841  154.7176 N   0  3  1  0  0  0  0  0  0  0  0  0
  150.7862  139.6345  155.8947 C   0  0  0  0  0  0  0  0  0  0  0  0
  151.7774  138.5160  155.5254 C   0  0  0  0  0  0  0  0  0  0  0  0
  152.4515  138.8130  154.4150 F   0  0  0  0  0  0  0  0  0  0  0  0
  152.6513  138.3666  156.5196 F   0  0  0  0  0  0  0  0  0  0  0  0
  151.1269  137.3655  155.3521 F   0  0  0  0  0  0  0  0  0  0  0  0
  149.1564  139.2193  154.0554 C   0  0  0  0  0  0  0  0  0  0  0  0
  146.3631  135.9647  152.1639 N   0  0  0  0  0  0  0  0  0  0  0  0
  145.5425  134.8104  152.1085 C   0  0  0  0  0  0  0  0  0  0  0  0
  145.2272  133.9788  150.9939 C   0  0  0  0  0  0  0  0  0  0  0  0
  144.4201  132.9885  151.3475 N   0  0  0  0  0  0  0  0  0  0  0  0
  144.2175  133.1790  152.6707 N   0  0  0  0  0  0  0  0  0  0  0  0
  144.8802  134.2768  153.1735 C   0  0  0  0  0  0  0  0  0  0  0  0
  143.6315  132.5575  153.2099 H   0  0  0  0  0  0  0  0  0  0  0  0
  147.9301  137.6915  152.1849 H   0  0  0  0  0  0  0  0  0  0  0  0
  147.3076  140.0204  151.8273 H   0  0  0  0  0  0  0  0  0  0  0  0
  145.9102  139.7870  152.8485 H   0  0  0  0  0  0  0  0  0  0  0  0
  147.2220  139.6768  154.8487 H   0  0  0  0  0  0  0  0  0  0  0  0
  148.4596  141.7371  153.0075 H   0  0  0  0  0  0  0  0  0  0  0  0
  147.2955  142.0104  154.3077 H   0  0  0  0  0  0  0  0  0  0  0  0
  149.9185  142.3134  154.8472 H   0  0  0  0  0  0  0  0  0  0  0  0
  148.9123  141.4211  155.9909 H   0  0  0  0  0  0  0  0  0  0  0  0
  151.2915  140.4361  156.4358 H   0  0  0  0  0  0  0  0  0  0  0  0
  150.0450  139.2182  156.5787 H   0  0  0  0  0  0  0  0  0  0  0  0
  149.0751  138.2747  154.5955 H   0  0  0  0  0  0  0  0  0  0  0  0
  149.5638  138.9966  153.0684 H   0  0  0  0  0  0  0  0  0  0  0  0
  147.3354  135.8245  151.9317 H   0  0  0  0  0  0  0  0  0  0  0  0
  145.5425  134.0499  149.9634 H   0  0  0  0  0  0  0  0  0  0  0  0
  144.8244  134.5695  154.2116 H   0  0  0  0  0  0  0  0  0  0  0  0
  150.7699  140.4142  154.0280 H   0  0  0  0  0  0  0  0  0  0  0  0
  1  2  2  0  0  0  0
  2  3  1  0  0  0  0
  2 15  1  0  0  0  0
  3  4  1  0  0  0  0
  3 22  1  0  0  0  0
  4  5  1  0  0  0  0
  4 23  1  0  0  0  0
  4 24  1  0  0  0  0
  5 14  1  0  0  0  0
  5  6  1  0  0  0  0
  5 25  1  0  0  0  0
  6  7  1  0  0  0  0
  6 26  1  0  0  0  0
  6 27  1  0  0  0  0
  7  8  1  0  0  0  0
  7 28  1  0  0  0  0
  7 29  1  0  0  0  0
  8  9  1  0  0  0  0
  8 14  1  0  0  0  0
  8 37  1  0  0  0  0
  9 10  1  0  0  0  0
  9 30  1  0  0  0  0
  9 31  1  0  0  0  0
 10 11  1  0  0  0  0
 10 12  1  0  0  0  0
 10 13  1  0  0  0  0
 14 32  1  0  0  0  0
 14 33  1  0  0  0  0
 15 16  1  0  0  0  0
 15 34  1  0  0  0  0
 16 20  2  0  0  0  0
 16 17  1  0  0  0  0
 17 18  2  0  0  0  0
 17 35  1  0  0  0  0
 18 19  1  0  0  0  0
 19 21  1  0  0  0  0
 19 20  1  0  0  0  0
 20 36  1  0  0  0  0
M  CHG  1   8   1
M  END
> <s_m_source_file>
AV-unprocessed.smi

> <i_m_source_file_index>
1683

> <i_lp_mmshare_version>
43012

> <i_f3d_flags>
0

> <s_epik_input>
W2NIXTFbbkhdbltjSF1jMVtOSF1DKD1PKVtOSF1bQ0gyXVtDQEBIXTJbQ0gyXVtDSDJdTihbQ0gyXTIpW0NIMl1DKEYpKEYpRg==

> <s_epik_cmdline>
J2VwaWtfcHl0aG9uJywgJy1waCcsICc3LjAnLCAnLXRuJywgJzgnLCAnLW1hJywgJzIwMCcsICctbWV0YWxfYmluZGluZycsICctaW1hZScsICc8aW5maWxlLm1hZT4nLCAnLW9tYWUnLCAnPG91dGZpbGUubWFlPic=

> <r_lp_tautomer_probability>
0.5

> <r_epik_Ionization_Penalty>
0.641865

> <r_epik_Ionization_Penalty_Charging>
0.64182

> <r_epik_Ionization_Penalty_Neutral>
4.50685e-05

> <r_epik_State_Penalty>
0.65957

> <r_epik_Charging_Adjusted_Penalty>
1.30139

> <i_epik_Tot_Q>
1

> <i_epik_Tot_abs_Q>
1

> <r_epik_Metal_State_Penalty>
0.659571

> <b_epik_Metal_Only>
0

> <s_lp_Force_Field>
OPLS_2005

> <r_lp_Energy>
31.6125

> <b_lp_Chiralities_Consistent>
1

> <s_lp_Variant>
AV-unprocessed.smi:1683-5

> <Gold.Version>
5.8.1

> <Gold.Id.Protein>
6NUR|6NUR_protein|mol2

> <Gold.PLP.Fitness>
41.1479

> <Gold.PLP.PLP>
-30.8684

> <Gold.PLP.part.hbond>
-3.0000

> <Gold.PLP.part.metal>
0.0000

> <Gold.PLP.part.buried>
-3.6206

> <Gold.PLP.part.nonpolar>
-25.9338

> <Gold.PLP.part.repulsive>
1.9300

> <Gold.PLP.ligand.clash>
0.0000

> <Gold.PLP.ligand.torsion>
1.0691

> <Gold.PLP.Chemscore.Hbond>
3.0000

> <Gold.PLP.Chemscore.CHOScore>
1.0000

> <Gold.PLP.Chemscore.Metal>
0.0000

> <Gold.Chemscore.Hbonds>
donor molecule, donor type, donor heavy atom, donor atom, acceptor molecule, acceptor atom, score
      L1  H     3    22       P1  7948  0.98
      L1  H    15    34       P1  7948  1.00
      L1  H    19    21       P1 10957  0.95
      L1  C    17    35       P1  7921  1.00

> <Gold.PLP.Chemscore.Internal.Correction>
0.4176

> <Gold.Rescore>
     Score         DG    S(hbond)    S(metal)    S(lipo)     H(rot)  DE(clash)    DE(int)     intcor
     16.01     -17.31       2.92        0.00      57.21       1.81       0.14       1.16       ----

> <Gold.Chemscore.Fitness>
16.0060

> <Gold.Chemscore.DG>
-17.3050

> <Gold.Chemscore.ZeroCoef>
-5.4800

> <Gold.Chemscore.Hbond>
2.9249

> <Gold.Chemscore.Metal>
0.0000

> <Gold.Chemscore.Lipo>
57.2101

> <Gold.Chemscore.Internal_Hbond>
0.0000

> <Gold.Chemscore.DEClash>
0.1439

> <Gold.Chemscore.DEInternal>
1.1551

> <Gold.Chemscore.Rot>
1.8116

> <Gold.Chemscore.Internal.Correction>
   9.000000E+99

> <Gold.Chemscore.Hbonds>
donor molecule, donor type, donor heavy atom, donor atom, acceptor molecule, acceptor atom, score
      L1  H     3    22       P1  7948  0.93
      L1  H    15    34       P1  7948  0.99
      L1  H    19    21       P1 10957  0.21

> <Gold.Chemscore.Hbond.Weighted>
-9.7692

> <Gold.Chemscore.Metal.Weighted>
-0.0000

> <Gold.Chemscore.Lipo.Weighted>
-6.6936

> <Gold.Chemscore.Internal_Hbond.Weighted>
0.0000

> <Gold.Chemscore.DEClash.Weighted>
0.1439

> <Gold.Chemscore.DEInternal.Weighted>
1.1551

> <Gold.Chemscore.Rot.Weighted>
4.6378

> <Gold.Chemscore.Internal.Correction.Weighted>
   9.000000E+99

> <Gold.Protein.RotatedTorsions>
[ 6907 6896 6895 6894 ] final  -55.58 input  -60.11 | X-H torsion
[ 7974 7965 7964 7962 ] final -171.37 input  175.53 | X-H torsion
[ 8008 7997 7996 7995 ] final   91.12 input   59.86 | X-H torsion
[ 10167 10162 10161 10158 ] final  104.23 input  -65.29 | X-H torsion
[ 10718 10713 10712 10709 ] final  125.55 input   66.30 | X-H torsion
[ 10763 10752 10751 10750 ] final -124.66 input  -60.55 | X-H torsion
[ 11005 11000 10999 10996 ] final   18.60 input  -57.11 | X-H torsion

> <Gold.Protein.ActiveResidues>
 VAL166  LYS551  ARG553  GLY616  TRP617  ASP618  TYR619  PRO620  LYS621  CYS622 
 ASP623  PHE694  ASN695  SER759  ASP760  ASP761  ALA762  ILE779  LEU786  VAL792 
 PHE793  MET794  SER795  GLU796  ALA797  LYS798  CYS799  TRP800  GLU811  SER814 

> <Gold.Protein.RotatedAtoms>
  150.8239  134.7461  159.6795 H   0  0  0  0  0  0  0  0  0  0  0  0  # atno 6907 bound_to 6896
  152.4352  134.5697  159.9927 H   0  0  0  0  0  0  0  0  0  0  0  0  # atno 6908 bound_to 6896
  151.5874  133.3333  159.3056 H   0  0  0  0  0  0  0  0  0  0  0  0  # atno 6909 bound_to 6896
  144.7158  140.1933  143.6346 H   0  0  0  0  0  0  0  0  0  0  0  0  # atno 7974 bound_to 7965
  156.0200  140.3341  155.7029 H   0  0  0  0  0  0  0  0  0  0  0  0  # atno 8008 bound_to 7997
  155.6036  140.0658  157.2744 H   0  0  0  0  0  0  0  0  0  0  0  0  # atno 8009 bound_to 7997
  154.4312  140.1806  156.1186 H   0  0  0  0  0  0  0  0  0  0  0  0  # atno 8010 bound_to 7997
  139.7195  144.7061  151.0896 H   0  0  0  0  0  0  0  0  0  0  0  0  # atno 10167 bound_to 10162
  157.5494  131.1094  150.8728 H   0  0  0  0  0  0  0  0  0  0  0  0  # atno 10718 bound_to 10713
  154.8726  135.4056  154.3142 H   0  0  0  0  0  0  0  0  0  0  0  0  # atno 10763 bound_to 10752
  153.3980  135.7017  153.6452 H   0  0  0  0  0  0  0  0  0  0  0  0  # atno 10764 bound_to 10752
  153.5206  135.3688  155.2601 H   0  0  0  0  0  0  0  0  0  0  0  0  # atno 10765 bound_to 10752
  140.4230  134.1499  155.7674 H   0  0  0  0  0  0  0  0  0  0  0  0  # atno 11005 bound_to 11000
  145.8748  139.2291  143.1640 LP  0  0  0  0  0  0  0  0  0  0  0  0  # atno 17320 bound_to 7965
  146.0050  140.8486  142.9999 LP  0  0  0  0  0  0  0  0  0  0  0  0  # atno 17321 bound_to 7965
  140.7751  143.5185  150.9565 LP  0  0  0  0  0  0  0  0  0  0  0  0  # atno 17342 bound_to 10162
  139.8872  143.6998  152.3150 LP  0  0  0  0  0  0  0  0  0  0  0  0  # atno 17343 bound_to 10162
  156.9257  130.5331  149.5279 LP  0  0  0  0  0  0  0  0  0  0  0  0  # atno 17370 bound_to 10713
  156.0563  130.5624  150.9099 LP  0  0  0  0  0  0  0  0  0  0  0  0  # atno 17371 bound_to 10713
  141.1776  133.8481  157.1368 LP  0  0  0  0  0  0  0  0  0  0  0  0  # atno 17394 bound_to 11000
  140.0187  134.9956  157.0546 LP  0  0  0  0  0  0  0  0  0  0  0  0  # atno 17395 bound_to 11000

$$$$
