#       Name:                AV-unprocessed.smi:3255
#       Creating user name   scv26
#       Creation time:       Fri Mar 27 18:35:22 2020


#       File generated by GOLD software.
#

@<TRIPOS>MOLECULE
AV-unprocessed.smi:3255
    43    44     1
SMALL
NO_CHARGES


@<TRIPOS>ATOM
      1 ****        -2.2030  -1.2730  -2.8044 C.3            1 S1                 0.0000
      2 ****        -1.5544  -0.5023  -1.6441 C.3            1 S1                 0.0000
      3 ****        -0.1119  -0.4550  -1.8695 N.am           1 S1                 0.0000
      4 ****         0.6931   0.5592  -1.5248 C.2            1 S1                 0.0000
      5 ****         0.3047   1.6067  -1.0069 O.2            1 S1                 0.0000
      6 ****         1.9797   0.2809  -1.7776 N.am           1 S1                 0.0000
      7 ****         3.1074   1.1423  -1.4329 C.3            1 S1                 0.0000
      8 ****         3.6887   0.8084  -0.0449 C.3            1 S1                 0.0000
      9 ****         2.7648   1.1142   1.0524 N.pl3          1 S1                 0.0000
     10 ****         2.0091   0.2277   1.7768 C.2            1 S1                 0.0000
     11 ****         1.2919   0.9712   2.6780 C.2            1 S1                 0.0000
     12 ****         1.6425   2.2779   2.4688 N.pl3          1 S1                 1.0000
     13 ****         2.5412   2.3625   1.4827 C.2            1 S1                 0.0000
     14 ****        -1.8531  -1.1491  -0.2739 C.3            1 S1                 0.0000
     15 ****        -3.3371  -1.2046   0.0965 C.3            1 S1                 0.0000
     16 ****        -3.3368  -1.2164   1.6179 C.3            1 S1                 0.0000
     17 ****        -1.9007  -0.8478   1.9948 C.3            1 S1                 0.0000
     18 ****        -1.3172  -0.3754   0.7902 O.3            1 S1                 0.0000
     19 ****        -3.2896  -1.2838  -2.7174 H              1 S1                 0.0000
     20 ****        -1.8613  -2.3082  -2.8344 H              1 S1                 0.0000
     21 ****        -1.9603  -0.8145  -3.7638 H              1 S1                 0.0000
     22 ****        -1.9571   0.5122  -1.6540 H              1 S1                 0.0000
     23 ****         0.3068  -1.2728  -2.2876 H              1 S1                 0.0000
     24 ****         2.1982  -0.6044  -2.2113 H              1 S1                 0.0000
     25 ****         3.8772   0.9905  -2.1896 H              1 S1                 0.0000
     26 ****         2.8288   2.1958  -1.4934 H              1 S1                 0.0000
     27 ****         3.9562  -0.2474   0.0181 H              1 S1                 0.0000
     28 ****         4.6038   1.3768   0.1263 H              1 S1                 0.0000
     29 ****         2.0288  -0.8369   1.5950 H              1 S1                 0.0000
     30 ****         0.5743   0.6764   3.4298 H              1 S1                 0.0000
     31 ****         2.9885   3.2632   1.1013 H              1 S1                 0.0000
     32 ****        -1.4231  -2.1518  -0.2265 H              1 S1                 0.0000
     33 ****        -3.8499  -0.3100  -0.2592 H              1 S1                 0.0000
     34 ****        -3.8421  -2.0715  -0.3307 H              1 S1                 0.0000
     35 ****        -4.0515  -0.4907   2.0079 H              1 S1                 0.0000
     36 ****        -3.6023  -2.1966   2.0152 H              1 S1                 0.0000
     37 ****        -1.8532  -0.0926   2.7793 H              1 S1                 0.0000
     38 ****        -1.3540  -1.7283   2.3356 H              1 S1                 0.0000
     39 ****         1.2727   3.0687   2.9814 H              1 S1                 0.0000
     40 ****        -0.6682   1.7404  -0.8183 LP             1 S1                 0.0000
     41 ****         0.9622   2.3236  -0.7750 LP             1 S1                 0.0000
     42 ****        -1.5416   0.5900   0.6574 LP             1 S1                 0.0000
     43 ****        -0.3238  -0.4849   0.8257 LP             1 S1                 0.0000
@<TRIPOS>BOND
    1    1    2 1     
    2    1   19 1     
    3    1   20 1     
    4    1   21 1     
    5    2    3 1     
    6    2   14 1     
    7    2   22 1     
    8    3    4 am    
    9    3   23 1     
   10    4    5 2     
   11    4    6 am    
   12    6    7 1     
   13    6   24 1     
   14    7    8 1     
   15    7   25 1     
   16    7   26 1     
   17    8    9 1     
   18    8   27 1     
   19    8   28 1     
   20    9   13 1     
   21    9   10 1     
   22   10   11 2     
   23   10   29 1     
   24   11   12 1     
   25   11   30 1     
   26   12   13 2     
   27   12   39 1     
   28   13   31 1     
   29   14   18 1     
   30   14   15 1     
   31   14   32 1     
   32   15   16 1     
   33   15   33 1     
   34   15   34 1     
   35   16   17 1     
   36   16   35 1     
   37   16   36 1     
   38   17   18 1     
   39   17   37 1     
   40   17   38 1     
   41    5   40 1     
   42    5   41 1     
   43   18   42 1     
   44   18   43 1     
@<TRIPOS>SUBSTRUCTURE
      1 S1             1
@<TRIPOS>SET
LONE_PAIRS      STATIC     ATOMS    <user>   **** ""
4 40 41 42 43
DONOR_HYDROGENS      STATIC     ATOMS    <user>   **** ""
3 23 24 39
ATOM$BLUE        STATIC     ATOMS    COLORGROUP SYSTEM
4 40 41 42 43
ATOM$RED        STATIC     ATOMS    COLORGROUP SYSTEM
3 23 24 39
