#       Name:                AV-unprocessed.smi:2626
#       Creating user name   scv26
#       Creation time:       Fri Mar 27 14:24:43 2020


#       File generated by GOLD software.
#

@<TRIPOS>MOLECULE
AV-unprocessed.smi:2626
    33    34     1
SMALL
NO_CHARGES


@<TRIPOS>ATOM
      1 ****        -3.1583   2.2619  -0.0095 C.3            1 S1                 0.0000
      2 ****        -1.6514   2.1100  -0.0085 C.2            1 S1                 0.0000
      3 ****        -0.8165   3.1787  -0.0078 C.2            1 S1                 0.0000
      4 ****         0.6298   2.9559  -0.0057 C.2            1 S1                 0.0000
      5 ****         1.3891   3.9227  -0.0057 O.2            1 S1                 0.0000
      6 ****         1.0661   1.6628  -0.0038 N.pl3          1 S1                -1.0000
      7 ****         0.1493   0.6235  -0.0050 C.2            1 S1                 0.0000
      8 ****         0.7171  -0.6414  -0.0021 N.3            1 S1                 0.0000
      9 ****         0.6195  -1.4395   1.2152 C.3            1 S1                 0.0000
     10 ****         1.6078  -2.6172   1.1810 C.3            1 S1                 0.0000
     11 ****         1.3777  -3.4001   0.0156 O.3            1 S1                 0.0000
     12 ****         1.5747  -2.6401  -1.1707 C.3            1 S1                 0.0000
     13 ****         0.5848  -1.4634  -1.2001 C.3            1 S1                 0.0000
     14 ****        -1.1384   0.8033  -0.0076 N.2            1 S1                 0.0000
     15 ****        -3.4522   3.3120  -0.0098 H              1 S1                 0.0000
     16 ****        -3.5857   1.7886   0.8748 H              1 S1                 0.0000
     17 ****        -3.5848   1.7882  -0.8941 H              1 S1                 0.0000
     18 ****        -1.2078   4.1855  -0.0083 H              1 S1                 0.0000
     19 ****         0.8208  -0.8145   2.0866 H              1 S1                 0.0000
     20 ****        -0.4008  -1.8116   1.3176 H              1 S1                 0.0000
     21 ****         2.6386  -2.2597   1.1960 H              1 S1                 0.0000
     22 ****         1.4750  -3.2444   2.0626 H              1 S1                 0.0000
     23 ****         2.6045  -2.2825  -1.2212 H              1 S1                 0.0000
     24 ****         1.4181  -3.2842  -2.0359 H              1 S1                 0.0000
     25 ****        -0.4377  -1.8377  -1.2659 H              1 S1                 0.0000
     26 ****         0.7608  -0.8556  -2.0888 H              1 S1                 0.0000
     27 ****         1.0168   4.8508  -0.0071 LP             1 S1                 0.0000
     28 ****         2.3790   3.7810  -0.0042 LP             1 S1                 0.0000
     29 ****         2.0464   1.4653  -0.0015 LP             1 S1                 0.0000
     30 ****         1.6609  -0.3116  -0.0206 LP             1 S1                 0.0000
     31 ****         0.4369  -3.7386   0.0322 LP             1 S1                 0.0000
     32 ****         2.0105  -4.1745   0.0143 LP             1 S1                 0.0000
     33 ****        -1.7576   0.0180  -0.0089 LP             1 S1                 0.0000
@<TRIPOS>BOND
    1    1    2 1     
    2    1   15 1     
    3    1   16 1     
    4    1   17 1     
    5    2   14 1     
    6    2    3 2     
    7    3    4 1     
    8    3   18 1     
    9    4    5 2     
   10    4    6 1     
   11    6    7 1     
   12    7    8 1     
   13    7   14 2     
   14    8   13 1     
   15    8    9 1     
   16    9   10 1     
   17    9   19 1     
   18    9   20 1     
   19   10   11 1     
   20   10   21 1     
   21   10   22 1     
   22   11   12 1     
   23   12   13 1     
   24   12   23 1     
   25   12   24 1     
   26   13   25 1     
   27   13   26 1     
   28    5   27 1     
   29    5   28 1     
   30    6   29 1     
   31    8   30 1     
   32   11   31 1     
   33   11   32 1     
   34   14   33 1     
@<TRIPOS>SUBSTRUCTURE
      1 S1             1
@<TRIPOS>SET
LONE_PAIRS      STATIC     ATOMS    <user>   **** ""
7 27 28 29 30 31 32 33
ATOM$BLUE        STATIC     ATOMS    COLORGROUP SYSTEM
7 27 28 29 30 31 32 33
