AV-unprocessed.smi:78|AV-procd|sdf|776|dock9
  -GOLD-   2262017133D 1   1.00000     0.00000
 Structure written by MMmdl.
 56 59  0  0  0  0  0  0  0  0  1 V2000
  151.8241  137.7146  154.6799 C   0  0  0  0  0  0  0  0  0  0  0  0
  150.8687  138.7881  155.2271 C   0  0  0  0  0  0  0  0  0  0  0  0
  151.1110  139.0064  156.7279 C   0  0  0  0  0  0  0  0  0  0  0  0
  149.3822  138.4505  154.9625 C   0  0  0  0  0  0  0  0  0  0  0  0
  148.3803  139.6259  155.1470 C   0  0  1  0  0  0  0  0  0  0  0  0
  148.7667  140.9135  154.3850 C   0  0  0  0  0  0  0  0  0  0  0  0
  149.9446  141.1618  154.1344 O   0  0  0  0  0  0  0  0  0  0  0  0
  147.7810  141.7554  154.0256 N   0  0  0  0  0  0  0  0  0  0  0  0
  146.3480  141.5467  154.2511 C   0  0  0  0  0  0  0  0  0  0  0  0
  146.0322  140.3419  155.1643 C   0  0  0  0  0  0  0  0  0  0  0  0
  146.9725  139.2487  154.9373 N   0  0  0  0  0  0  0  0  0  0  0  0
  146.6194  138.4813  153.8737 C   0  0  0  0  0  0  0  0  0  0  0  0
  146.8604  138.8975  152.6021 N   0  0  0  0  0  0  0  0  0  0  0  0
  146.4930  138.1382  151.5659 C   0  0  0  0  0  0  0  0  0  0  0  0
  145.8745  136.9554  151.5757 N   0  0  0  0  0  0  0  0  0  0  0  0
  145.6210  136.5401  152.8499 C   0  0  0  0  0  0  0  0  0  0  0  0
  145.9597  137.2351  154.0440 C   0  0  0  0  0  0  0  0  0  0  0  0
  145.5624  136.4998  155.1532 N   0  0  0  0  0  0  0  0  0  0  0  0
  145.0232  135.4260  154.6430 C   0  0  0  0  0  0  0  0  0  0  0  0
  144.9903  135.3812  153.2666 N   0  0  0  0  0  0  0  0  0  0  0  0
  144.4880  134.3182  152.4465 C   0  0  0  0  0  0  0  0  0  0  0  0
  145.1283  132.9277  152.4887 C   0  0  0  0  0  0  0  0  0  0  0  0
  144.7822  132.7367  150.9934 C   0  0  0  0  0  0  0  0  0  0  0  0
  145.8341  132.0417  150.1062 C   0  0  0  0  0  0  0  0  0  0  0  0
  147.1451  132.5143  150.3445 O   0  0  0  0  0  0  0  0  0  0  0  0
  143.4286  132.0573  150.7107 C   0  0  0  0  0  0  0  0  0  0  0  0
  143.0693  132.1605  149.3476 O   0  0  0  0  0  0  0  0  0  0  0  0
  144.7392  134.2815  150.9349 C   0  0  0  0  0  0  0  0  0  0  0  0
  151.5994  136.7328  155.0977 H   0  0  0  0  0  0  0  0  0  0  0  0
  152.8598  137.9501  154.9258 H   0  0  0  0  0  0  0  0  0  0  0  0
  151.7647  137.6394  153.5944 H   0  0  0  0  0  0  0  0  0  0  0  0
  151.1123  139.7282  154.7329 H   0  0  0  0  0  0  0  0  0  0  0  0
  150.8963  138.1028  157.2993 H   0  0  0  0  0  0  0  0  0  0  0  0
  150.4783  139.8049  157.1168 H   0  0  0  0  0  0  0  0  0  0  0  0
  152.1467  139.2859  156.9231 H   0  0  0  0  0  0  0  0  0  0  0  0
  149.2997  138.0695  153.9435 H   0  0  0  0  0  0  0  0  0  0  0  0
  149.0885  137.6147  155.5977 H   0  0  0  0  0  0  0  0  0  0  0  0
  148.4449  139.9208  156.1944 H   0  0  0  0  0  0  0  0  0  0  0  0
  148.0441  142.5996  153.5379 H   0  0  0  0  0  0  0  0  0  0  0  0
  145.9036  142.4567  154.6544 H   0  0  0  0  0  0  0  0  0  0  0  0
  145.8924  141.3861  153.2734 H   0  0  0  0  0  0  0  0  0  0  0  0
  146.1198  140.6444  156.2085 H   0  0  0  0  0  0  0  0  0  0  0  0
  144.9971  140.0220  155.0327 H   0  0  0  0  0  0  0  0  0  0  0  0
  146.7254  138.5368  150.5893 H   0  0  0  0  0  0  0  0  0  0  0  0
  144.6266  134.6363  155.2641 H   0  0  0  0  0  0  0  0  0  0  0  0
  143.4198  134.2551  152.6606 H   0  0  0  0  0  0  0  0  0  0  0  0
  146.2002  132.9737  152.6872 H   0  0  0  0  0  0  0  0  0  0  0  0
  144.6401  132.2302  153.1699 H   0  0  0  0  0  0  0  0  0  0  0  0
  145.8397  130.9644  150.2740 H   0  0  0  0  0  0  0  0  0  0  0  0
  145.6118  132.1943  149.0494 H   0  0  0  0  0  0  0  0  0  0  0  0
  147.7588  131.8654  150.0353 H   0  0  0  0  0  0  0  0  0  0  0  0
  143.4543  130.9982  150.9675 H   0  0  0  0  0  0  0  0  0  0  0  0
  142.6355  132.4974  151.3159 H   0  0  0  0  0  0  0  0  0  0  0  0
  142.3609  132.7812  149.2698 H   0  0  0  0  0  0  0  0  0  0  0  0
  143.9281  134.6946  150.3346 H   0  0  0  0  0  0  0  0  0  0  0  0
  145.6921  134.7373  150.6615 H   0  0  0  0  0  0  0  0  0  0  0  0
  1  2  1  0  0  0  0
  1 29  1  0  0  0  0
  1 30  1  0  0  0  0
  1 31  1  0  0  0  0
  2  3  1  0  0  0  0
  2  4  1  0  0  0  0
  2 32  1  0  0  0  0
  3 33  1  0  0  0  0
  3 34  1  0  0  0  0
  3 35  1  0  0  0  0
  4  5  1  0  0  0  0
  4 36  1  0  0  0  0
  4 37  1  0  0  0  0
  5 11  1  0  0  0  0
  5  6  1  0  0  0  0
  5 38  1  0  0  0  0
  6  7  2  0  0  0  0
  6  8  1  0  0  0  0
  8  9  1  0  0  0  0
  8 39  1  0  0  0  0
  9 10  1  0  0  0  0
  9 40  1  0  0  0  0
  9 41  1  0  0  0  0
 10 11  1  0  0  0  0
 10 42  1  0  0  0  0
 10 43  1  0  0  0  0
 11 12  1  0  0  0  0
 12 17  1  0  0  0  0
 12 13  2  0  0  0  0
 13 14  1  0  0  0  0
 14 15  2  0  0  0  0
 14 44  1  0  0  0  0
 15 16  1  0  0  0  0
 16 20  1  0  0  0  0
 16 17  2  0  0  0  0
 17 18  1  0  0  0  0
 18 19  2  0  0  0  0
 19 20  1  0  0  0  0
 19 45  1  0  0  0  0
 20 21  1  0  0  0  0
 21 28  1  0  0  0  0
 21 22  1  0  0  0  0
 21 46  1  0  0  0  0
 22 23  1  0  0  0  0
 22 47  1  0  0  0  0
 22 48  1  0  0  0  0
 23 24  1  0  0  0  0
 23 26  1  0  0  0  0
 23 28  1  0  0  0  0
 24 25  1  0  0  0  0
 24 49  1  0  0  0  0
 24 50  1  0  0  0  0
 25 51  1  0  0  0  0
 26 27  1  0  0  0  0
 26 52  1  0  0  0  0
 26 53  1  0  0  0  0
 27 54  1  0  0  0  0
 28 55  1  0  0  0  0
 28 56  1  0  0  0  0
M  END
> <s_m_source_file>
AV-unprocessed.smi

> <i_m_source_file_index>
78

> <i_lp_mmshare_version>
43012

> <i_f3d_flags>
0

> <s_epik_input>
W0NIM11bQ0hdKFtDSDNdKVtDSDJdW0NAQEhdMUMoPU8pW05IXVtDSDJdW0NIMl1OMWMobltjSF1uMiljKGMyMyluW2NIXW4zW0NIXShbQ0gyXTQpW0NIMl1DNChbQ0gyXVtPSF0pW0NIMl1bT0hd

> <s_epik_cmdline>
J2VwaWtfcHl0aG9uJywgJy1waCcsICc3LjAnLCAnLXRuJywgJzgnLCAnLW1hJywgJzIwMCcsICctbWV0YWxfYmluZGluZycsICctaW1hZScsICc8aW5maWxlLm1hZT4nLCAnLW9tYWUnLCAnPG91dGZpbGUubWFlPic=

> <r_lp_tautomer_probability>
1

> <r_epik_Ionization_Penalty>
0.000550083

> <r_epik_Ionization_Penalty_Charging>
0

> <r_epik_Ionization_Penalty_Neutral>
0.000550083

> <r_epik_State_Penalty>
0.000250415

> <r_epik_Charging_Adjusted_Penalty>
0.000250415

> <i_epik_Tot_Q>
0

> <i_epik_Tot_abs_Q>
0

> <r_epik_Metal_State_Penalty>
-0

> <b_epik_Metal_Only>
0

> <s_lp_Force_Field>
OPLS_2005

> <r_lp_Energy>
48.678

> <b_lp_Chiralities_Consistent>
1

> <s_lp_Variant>
AV-unprocessed.smi:78-2

> <Gold.Version>
5.8.1

> <Gold.Id.Protein>
6NUR|6NUR_protein|mol2

> <Gold.PLP.Fitness>
49.5513

> <Gold.PLP.PLP>
-39.0026

> <Gold.PLP.part.hbond>
-6.6181

> <Gold.PLP.part.metal>
0.0000

> <Gold.PLP.part.buried>
-5.8715

> <Gold.PLP.part.nonpolar>
-30.8694

> <Gold.PLP.part.repulsive>
1.6710

> <Gold.PLP.ligand.clash>
0.0000

> <Gold.PLP.ligand.torsion>
0.6184

> <Gold.PLP.Chemscore.Hbond>
3.4165

> <Gold.PLP.Chemscore.CHOScore>
0.2337

> <Gold.PLP.Chemscore.Metal>
0.0000

> <Gold.Chemscore.Hbonds>
donor molecule, donor type, donor heavy atom, donor atom, acceptor molecule, acceptor atom, score
      L1  H    25    51       P1 10747  1.00
      L1  H    27    54       P1 10186  0.73
      P1  H  7989  7998       L1     7  0.42
      P1  H  8011  8017       L1     7  0.42
      P1  H 10785 10796       L1    27  0.80

> <Gold.PLP.Chemscore.Internal.Correction>
0.8349

> <Gold.Rescore>
     Score         DG    S(hbond)    S(metal)    S(lipo)     H(rot)  DE(clash)    DE(int)     intcor
      9.60     -13.42       2.70        0.00      72.38       3.72       0.45       3.36       ----

> <Gold.Chemscore.Fitness>
9.5976

> <Gold.Chemscore.DG>
-13.4167

> <Gold.Chemscore.ZeroCoef>
-5.4800

> <Gold.Chemscore.Hbond>
2.6951

> <Gold.Chemscore.Metal>
0.0000

> <Gold.Chemscore.Lipo>
72.3797

> <Gold.Chemscore.Internal_Hbond>
0.0000

> <Gold.Chemscore.DEClash>
0.4544

> <Gold.Chemscore.DEInternal>
3.3647

> <Gold.Chemscore.Rot>
3.7239

> <Gold.Chemscore.Internal.Correction>
   9.000000E+99

> <Gold.Chemscore.Hbonds>
donor molecule, donor type, donor heavy atom, donor atom, acceptor molecule, acceptor atom, score
      L1  H    25    51       P1 10747  0.95
      L1  H    27    54       P1 10186  0.73
      P1  H  7989  7998       L1     7  0.42
      P1  H  8011  8017       L1     7  0.17
      P1  H 10785 10796       L1    27  0.23

> <Gold.Chemscore.Hbond.Weighted>
-9.0015

> <Gold.Chemscore.Metal.Weighted>
-0.0000

> <Gold.Chemscore.Lipo.Weighted>
-8.4684

> <Gold.Chemscore.Internal_Hbond.Weighted>
0.0000

> <Gold.Chemscore.DEClash.Weighted>
0.4544

> <Gold.Chemscore.DEInternal.Weighted>
3.3647

> <Gold.Chemscore.Rot.Weighted>
9.5332

> <Gold.Chemscore.Internal.Correction.Weighted>
   9.000000E+99

> <Gold.Protein.RotatedTorsions>
[ 6907 6896 6895 6894 ] final   17.94 input  -60.11 | X-H torsion
[ 7974 7965 7964 7962 ] final -134.41 input  175.53 | X-H torsion
[ 8008 7997 7996 7995 ] final  103.58 input   59.86 | X-H torsion
[ 10167 10162 10161 10158 ] final -146.95 input  -65.29 | X-H torsion
[ 10718 10713 10712 10709 ] final  -89.02 input   66.30 | X-H torsion
[ 10763 10752 10751 10750 ] final -161.99 input  -60.55 | X-H torsion
[ 11005 11000 10999 10996 ] final -154.78 input  -57.11 | X-H torsion

> <Gold.Protein.ActiveResidues>
 VAL166  LYS551  ARG553  GLY616  TRP617  ASP618  TYR619  PRO620  LYS621  CYS622 
 ASP623  PHE694  ASN695  SER759  ASP760  ASP761  ALA762  ILE779  LEU786  VAL792 
 PHE793  MET794  SER795  GLU796  ALA797  LYS798  CYS799  TRP800  GLU811  SER814 

> <Gold.Protein.RotatedAtoms>
  151.8575  135.0536  160.0465 H   0  0  0  0  0  0  0  0  0  0  0  0  # atno 6907 bound_to 6896
  152.2689  133.5360  159.5435 H   0  0  0  0  0  0  0  0  0  0  0  0  # atno 6908 bound_to 6896
  150.7144  134.0642  159.3884 H   0  0  0  0  0  0  0  0  0  0  0  0  # atno 6909 bound_to 6896
  144.9105  140.6889  143.5028 H   0  0  0  0  0  0  0  0  0  0  0  0  # atno 7974 bound_to 7965
  156.1497  140.3162  155.8627 H   0  0  0  0  0  0  0  0  0  0  0  0  # atno 8008 bound_to 7997
  155.3996  140.0499  157.3054 H   0  0  0  0  0  0  0  0  0  0  0  0  # atno 8009 bound_to 7997
  154.5047  140.2142  155.9286 H   0  0  0  0  0  0  0  0  0  0  0  0  # atno 8010 bound_to 7997
  139.7666  143.8299  152.2617 H   0  0  0  0  0  0  0  0  0  0  0  0  # atno 10167 bound_to 10162
  155.9984  130.4857  150.5108 H   0  0  0  0  0  0  0  0  0  0  0  0  # atno 10718 bound_to 10713
  154.7254  135.3034  154.8979 H   0  0  0  0  0  0  0  0  0  0  0  0  # atno 10763 bound_to 10752
  153.9838  135.6727  153.4755 H   0  0  0  0  0  0  0  0  0  0  0  0  # atno 10764 bound_to 10752
  153.0870  135.4979  154.8536 H   0  0  0  0  0  0  0  0  0  0  0  0  # atno 10765 bound_to 10752
  140.6936  134.4014  157.5217 H   0  0  0  0  0  0  0  0  0  0  0  0  # atno 11005 bound_to 11000
  145.3462  139.1718  143.4459 LP  0  0  0  0  0  0  0  0  0  0  0  0  # atno 17320 bound_to 7965
  146.3156  140.3509  142.8656 LP  0  0  0  0  0  0  0  0  0  0  0  0  # atno 17321 bound_to 7965
  139.8321  144.7249  150.9438 LP  0  0  0  0  0  0  0  0  0  0  0  0  # atno 17342 bound_to 10162
  140.7811  143.4061  151.1069 LP  0  0  0  0  0  0  0  0  0  0  0  0  # atno 17343 bound_to 10162
  157.3081  131.0658  151.2020 LP  0  0  0  0  0  0  0  0  0  0  0  0  # atno 17370 bound_to 10713
  157.2976  130.6827  149.6147 LP  0  0  0  0  0  0  0  0  0  0  0  0  # atno 17371 bound_to 10713
  139.8916  134.8775  156.2310 LP  0  0  0  0  0  0  0  0  0  0  0  0  # atno 17394 bound_to 11000
  141.0221  133.7035  156.1286 LP  0  0  0  0  0  0  0  0  0  0  0  0  # atno 17395 bound_to 11000

$$$$
