AV-unprocessed.smi:2137|AV-procd|sdf|8708|dock7
  -GOLD-   2272011473D 1   1.00000     0.00000
 Structure written by MMmdl.
 50 51  0  0  0  0  0  0  0  0  2 V2000
  143.6084  132.3880  150.5433 C   0  0  0  0  0  0  0  0  0  0  0  0
  144.6718  133.4011  150.0838 C   0  0  2  0  0  0  0  0  0  0  0  0
  146.0976  133.0074  150.5122 C   0  0  0  0  0  0  0  0  0  0  0  0
  146.3142  133.2443  152.0133 C   0  0  0  0  0  0  0  0  0  0  0  0
  145.9496  134.6856  152.4025 C   0  0  0  0  0  0  0  0  0  0  0  0
  144.5539  135.0090  152.0087 N   0  3  1  0  0  0  0  0  0  0  0  0
  144.1203  136.3386  152.5072 C   0  0  0  0  0  0  0  0  0  0  0  0
  144.1551  136.4273  154.0427 C   0  0  0  0  0  0  0  0  0  0  0  0
  144.1377  137.8779  154.5426 C   0  0  0  0  0  0  0  0  0  0  0  0
  145.2191  138.6410  153.9333 N   0  0  0  0  0  0  0  0  0  0  0  0
  146.4008  138.8914  154.5152 C   0  0  0  0  0  0  0  0  0  0  0  0
  146.6859  138.5171  155.6534 O   0  0  0  0  0  0  0  0  0  0  0  0
  147.4025  139.7095  153.6899 C   0  0  0  0  0  0  0  0  0  0  0  0
  148.7443  139.7266  154.2860 N   0  0  0  0  0  0  0  0  0  0  0  0
  149.6026  138.6628  154.0759 C   0  0  0  0  0  0  0  0  0  0  0  0
  150.8519  138.6021  154.5865 C   0  0  0  0  0  0  0  0  0  0  0  0
  151.3792  139.6865  155.4058 C   0  0  0  0  0  0  0  0  0  0  0  0
  152.5020  139.6624  155.9117 O   0  0  0  0  0  0  0  0  0  0  0  0
  150.4884  140.7707  155.5892 N   0  0  0  0  0  0  0  0  0  0  0  0
  150.9287  141.8827  156.4064 C   0  0  0  0  0  0  0  0  0  0  0  0
  149.1755  140.8198  155.0684 C   0  0  0  0  0  0  0  0  0  0  0  0
  148.4202  141.7711  155.2847 O   0  0  0  0  0  0  0  0  0  0  0  0
  144.3459  134.8369  150.5445 C   0  0  0  0  0  0  0  0  0  0  0  0
  143.5248  132.3485  151.6293 H   0  0  0  0  0  0  0  0  0  0  0  0
  143.8467  131.3834  150.1922 H   0  0  0  0  0  0  0  0  0  0  0  0
  142.6257  132.6468  150.1477 H   0  0  0  0  0  0  0  0  0  0  0  0
  144.6490  133.3947  148.9931 H   0  0  0  0  0  0  0  0  0  0  0  0
  146.3014  131.9663  150.2589 H   0  0  0  0  0  0  0  0  0  0  0  0
  146.8181  133.6043  149.9512 H   0  0  0  0  0  0  0  0  0  0  0  0
  145.7130  132.5428  152.5928 H   0  0  0  0  0  0  0  0  0  0  0  0
  147.3537  133.0416  152.2733 H   0  0  0  0  0  0  0  0  0  0  0  0
  146.0673  134.8013  153.4807 H   0  0  0  0  0  0  0  0  0  0  0  0
  146.6357  135.3907  151.9305 H   0  0  0  0  0  0  0  0  0  0  0  0
  144.7881  137.1063  152.1141 H   0  0  0  0  0  0  0  0  0  0  0  0
  143.1253  136.5723  152.1249 H   0  0  0  0  0  0  0  0  0  0  0  0
  143.3040  135.8999  154.4733 H   0  0  0  0  0  0  0  0  0  0  0  0
  145.0497  135.9252  154.4143 H   0  0  0  0  0  0  0  0  0  0  0  0
  143.1881  138.3548  154.2967 H   0  0  0  0  0  0  0  0  0  0  0  0
  144.2319  137.8896  155.6300 H   0  0  0  0  0  0  0  0  0  0  0  0
  145.0648  138.9948  153.0002 H   0  0  0  0  0  0  0  0  0  0  0  0
  147.4524  139.3258  152.6691 H   0  0  0  0  0  0  0  0  0  0  0  0
  147.0187  140.7268  153.6032 H   0  0  0  0  0  0  0  0  0  0  0  0
  149.2594  137.8347  153.4730 H   0  0  0  0  0  0  0  0  0  0  0  0
  151.4693  137.7385  154.3871 H   0  0  0  0  0  0  0  0  0  0  0  0
  150.4890  142.8062  156.0262 H   0  0  0  0  0  0  0  0  0  0  0  0
  152.0136  141.9795  156.3466 H   0  0  0  0  0  0  0  0  0  0  0  0
  150.6027  141.6743  157.4263 H   0  0  0  0  0  0  0  0  0  0  0  0
  144.9802  135.5466  150.0108 H   0  0  0  0  0  0  0  0  0  0  0  0
  143.3192  135.0769  150.2700 H   0  0  0  0  0  0  0  0  0  0  0  0
  143.9696  134.3274  152.4714 H   0  0  0  0  0  0  0  0  0  0  0  0
  1  2  1  0  0  0  0
  1 24  1  0  0  0  0
  1 25  1  0  0  0  0
  1 26  1  0  0  0  0
  2 23  1  0  0  0  0
  2  3  1  0  0  0  0
  2 27  1  0  0  0  0
  3  4  1  0  0  0  0
  3 28  1  0  0  0  0
  3 29  1  0  0  0  0
  4  5  1  0  0  0  0
  4 30  1  0  0  0  0
  4 31  1  0  0  0  0
  5  6  1  0  0  0  0
  5 32  1  0  0  0  0
  5 33  1  0  0  0  0
  6  7  1  0  0  0  0
  6 23  1  0  0  0  0
  6 50  1  0  0  0  0
  7  8  1  0  0  0  0
  7 34  1  0  0  0  0
  7 35  1  0  0  0  0
  8  9  1  0  0  0  0
  8 36  1  0  0  0  0
  8 37  1  0  0  0  0
  9 10  1  0  0  0  0
  9 38  1  0  0  0  0
  9 39  1  0  0  0  0
 10 11  1  0  0  0  0
 10 40  1  0  0  0  0
 11 12  2  0  0  0  0
 11 13  1  0  0  0  0
 13 14  1  0  0  0  0
 13 41  1  0  0  0  0
 13 42  1  0  0  0  0
 14 21  1  0  0  0  0
 14 15  1  0  0  0  0
 15 16  2  0  0  0  0
 15 43  1  0  0  0  0
 16 17  1  0  0  0  0
 16 44  1  0  0  0  0
 17 18  2  0  0  0  0
 17 19  1  0  0  0  0
 19 20  1  0  0  0  0
 19 21  1  0  0  0  0
 20 45  1  0  0  0  0
 20 46  1  0  0  0  0
 20 47  1  0  0  0  0
 21 22  2  0  0  0  0
 23 48  1  0  0  0  0
 23 49  1  0  0  0  0
M  CHG  1   6   1
M  END
> <s_m_source_file>
AV-unprocessed.smi

> <i_m_source_file_index>
2137

> <i_lp_mmshare_version>
43012

> <i_f3d_flags>
0

> <s_epik_input>
W0NIM11bQ0BASF0xW0NIMl1bQ0gyXVtDSDJdTihbQ0gyXTEpW0NIMl1bQ0gyXVtDSDJdW05IXUMoPU8pW0NIMl1uMltjSF1bY0hdYyg9TyluKFtDSDNdKWMyPU8=

> <s_epik_cmdline>
J2VwaWtfcHl0aG9uJywgJy1waCcsICc3LjAnLCAnLXRuJywgJzgnLCAnLW1hJywgJzIwMCcsICctbWV0YWxfYmluZGluZycsICctaW1hZScsICc8aW5maWxlLm1hZT4nLCAnLW9tYWUnLCAnPG91dGZpbGUubWFlPic=

> <r_lp_tautomer_probability>
1

> <r_epik_Ionization_Penalty>
0.000384839

> <r_epik_Ionization_Penalty_Charging>
0.000384812

> <r_epik_Ionization_Penalty_Neutral>
2.6907e-08

> <r_epik_State_Penalty>
0.000235226

> <r_epik_Charging_Adjusted_Penalty>
0.000620038

> <i_epik_Tot_Q>
1

> <i_epik_Tot_abs_Q>
1

> <r_epik_Metal_State_Penalty>
-0

> <b_epik_Metal_Only>
0

> <s_lp_Force_Field>
OPLS_2005

> <r_lp_Energy>
28.7219

> <b_lp_Chiralities_Consistent>
1

> <s_lp_Variant>
AV-unprocessed.smi:2137-3

> <Gold.Version>
5.8.1

> <Gold.Id.Protein>
6NUR|6NUR_protein|mol2

> <Gold.PLP.Fitness>
45.6106

> <Gold.PLP.PLP>
-39.5209

> <Gold.PLP.part.hbond>
-2.0000

> <Gold.PLP.part.metal>
0.0000

> <Gold.PLP.part.buried>
-4.7741

> <Gold.PLP.part.nonpolar>
-34.3518

> <Gold.PLP.part.repulsive>
1.1620

> <Gold.PLP.ligand.clash>
0.0000

> <Gold.PLP.ligand.torsion>
0.6758

> <Gold.PLP.Chemscore.Hbond>
1.4659

> <Gold.PLP.Chemscore.CHOScore>
1.0000

> <Gold.PLP.Chemscore.Metal>
0.0000

> <Gold.Chemscore.Hbonds>
donor molecule, donor type, donor heavy atom, donor atom, acceptor molecule, acceptor atom, score
      L1  H    10    40       P1 10175  0.44
      P1  H  7997  8008       L1    18  1.00
      L1  C    15    43       P1  7948  1.00

> <Gold.PLP.Chemscore.Internal.Correction>
0.0435

> <Gold.Rescore>
     Score         DG    S(hbond)    S(metal)    S(lipo)     H(rot)  DE(clash)    DE(int)     intcor
     14.47     -15.12       1.84        0.00      79.64       2.27       0.11       0.55       ----

> <Gold.Chemscore.Fitness>
14.4698

> <Gold.Chemscore.DG>
-15.1249

> <Gold.Chemscore.ZeroCoef>
-5.4800

> <Gold.Chemscore.Hbond>
1.8414

> <Gold.Chemscore.Metal>
0.0000

> <Gold.Chemscore.Lipo>
79.6413

> <Gold.Chemscore.Internal_Hbond>
0.0000

> <Gold.Chemscore.DEClash>
0.1095

> <Gold.Chemscore.DEInternal>
0.5456

> <Gold.Chemscore.Rot>
2.2748

> <Gold.Chemscore.Internal.Correction>
   9.000000E+99

> <Gold.Chemscore.Hbonds>
donor molecule, donor type, donor heavy atom, donor atom, acceptor molecule, acceptor atom, score
      L1  H    10    40       P1 10175  0.44
      P1  H  7997  8008       L1    18  0.99

> <Gold.Chemscore.Hbond.Weighted>
-6.1503

> <Gold.Chemscore.Metal.Weighted>
-0.0000

> <Gold.Chemscore.Lipo.Weighted>
-9.3180

> <Gold.Chemscore.Internal_Hbond.Weighted>
0.0000

> <Gold.Chemscore.DEClash.Weighted>
0.1095

> <Gold.Chemscore.DEInternal.Weighted>
0.5456

> <Gold.Chemscore.Rot.Weighted>
5.8234

> <Gold.Chemscore.Internal.Correction.Weighted>
   9.000000E+99

> <Gold.Protein.RotatedTorsions>
[ 6907 6896 6895 6894 ] final  113.97 input  -60.11 | X-H torsion
[ 7974 7965 7964 7962 ] final   49.79 input  175.53 | X-H torsion
[ 8008 7997 7996 7995 ] final  -28.07 input   59.86 | X-H torsion
[ 10167 10162 10161 10158 ] final   71.18 input  -65.29 | X-H torsion
[ 10718 10713 10712 10709 ] final  110.04 input   66.30 | X-H torsion
[ 10763 10752 10751 10750 ] final  160.17 input  -60.55 | X-H torsion
[ 11005 11000 10999 10996 ] final  -53.48 input  -57.11 | X-H torsion

> <Gold.Protein.ActiveResidues>
 VAL166  LYS551  ARG553  GLY616  TRP617  ASP618  TYR619  PRO620  LYS621  CYS622 
 ASP623  PHE694  ASN695  SER759  ASP760  ASP761  ALA762  ILE779  LEU786  VAL792 
 PHE793  MET794  SER795  GLU796  ALA797  LYS798  CYS799  TRP800  GLU811  SER814 

> <Gold.Protein.RotatedAtoms>
  152.4830  133.8300  159.7098 H   0  0  0  0  0  0  0  0  0  0  0  0  # atno 6907 bound_to 6896
  150.8893  133.7255  159.2916 H   0  0  0  0  0  0  0  0  0  0  0  0  # atno 6908 bound_to 6896
  151.4733  135.1051  159.9809 H   0  0  0  0  0  0  0  0  0  0  0  0  # atno 6909 bound_to 6896
  146.0074  139.4506  142.9977 H   0  0  0  0  0  0  0  0  0  0  0  0  # atno 7974 bound_to 7965
  154.4349  140.1855  156.1031 H   0  0  0  0  0  0  0  0  0  0  0  0  # atno 8008 bound_to 7997
  156.0276  140.3334  155.7080 H   0  0  0  0  0  0  0  0  0  0  0  0  # atno 8009 bound_to 7997
  155.5885  140.0628  157.2755 H   0  0  0  0  0  0  0  0  0  0  0  0  # atno 8010 bound_to 7997
  140.0489  144.5328  150.7378 H   0  0  0  0  0  0  0  0  0  0  0  0  # atno 10167 bound_to 10162
  157.6513  131.0925  150.6542 H   0  0  0  0  0  0  0  0  0  0  0  0  # atno 10718 bound_to 10713
  154.2432  135.2774  155.2845 H   0  0  0  0  0  0  0  0  0  0  0  0  # atno 10763 bound_to 10752
  154.5527  135.5670  153.6940 H   0  0  0  0  0  0  0  0  0  0  0  0  # atno 10764 bound_to 10752
  152.9995  135.6278  154.2577 H   0  0  0  0  0  0  0  0  0  0  0  0  # atno 10765 bound_to 10752
  141.0978  133.6622  156.4178 H   0  0  0  0  0  0  0  0  0  0  0  0  # atno 11005 bound_to 11000
  145.7394  141.0013  143.1309 LP  0  0  0  0  0  0  0  0  0  0  0  0  # atno 17320 bound_to 7965
  144.6940  139.9081  143.7462 LP  0  0  0  0  0  0  0  0  0  0  0  0  # atno 17321 bound_to 7965
  140.7226  143.2603  151.4228 LP  0  0  0  0  0  0  0  0  0  0  0  0  # atno 17342 bound_to 10162
  139.5966  144.1385  152.2150 LP  0  0  0  0  0  0  0  0  0  0  0  0  # atno 17343 bound_to 10162
  156.6853  130.4579  149.5615 LP  0  0  0  0  0  0  0  0  0  0  0  0  # atno 17370 bound_to 10713
  156.1900  130.6553  151.1050 LP  0  0  0  0  0  0  0  0  0  0  0  0  # atno 17371 bound_to 10713
  140.5097  134.6406  157.5280 LP  0  0  0  0  0  0  0  0  0  0  0  0  # atno 17394 bound_to 11000
  139.9820  134.7122  155.9843 LP  0  0  0  0  0  0  0  0  0  0  0  0  # atno 17395 bound_to 11000

$$$$
