AV-unprocessed.smi:2607|AV-procd|sdf|10199|dock7
  -GOLD-   2272014213D 1   1.00000     0.00000
 Structure written by MMmdl.
 22 23  0  0  0  0  0  0  0  0  1 V2000
  145.7452  135.4860  154.0279 C   0  0  0  0  0  0  0  0  0  0  0  0
  145.3777  135.9544  152.6065 C   0  0  2  0  0  0  0  0  0  0  0  0
  144.9197  134.7865  151.7178 C   0  0  0  0  0  0  0  0  0  0  0  0
  144.4975  134.9708  150.3764 C   0  0  0  0  0  0  0  0  0  0  0  0
  144.0983  133.9387  149.6002 N   0  0  0  0  0  0  0  0  0  0  0  0
  144.1219  132.7116  150.1639 C   0  0  0  0  0  0  0  0  0  0  0  0
  144.5445  132.5163  151.4946 C   0  0  0  0  0  0  0  0  0  0  0  0
  144.9441  133.5474  152.2702 N   0  0  0  0  0  0  0  0  0  0  0  0
  146.4858  136.7102  152.0352 N   0  0  0  0  0  0  0  0  0  0  0  0
  146.1567  137.9679  151.7131 C   0  0  0  0  0  0  0  0  0  0  0  0
  146.8968  138.7970  151.1897 O   0  0  0  0  0  0  0  0  0  0  0  0
  144.8858  138.1628  152.0730 N   0  0  0  0  0  0  0  0  0  0  0  0
  144.3426  137.0801  152.6265 C   0  0  0  0  0  0  0  0  0  0  0  0
  143.2073  136.9919  153.0922 O   0  0  0  0  0  0  0  0  0  0  0  0
  144.9084  134.9820  154.5130 H   0  0  0  0  0  0  0  0  0  0  0  0
  146.0357  136.3227  154.6652 H   0  0  0  0  0  0  0  0  0  0  0  0
  146.5809  134.7858  154.0045 H   0  0  0  0  0  0  0  0  0  0  0  0
  144.4749  135.9441  149.9098 H   0  0  0  0  0  0  0  0  0  0  0  0
  143.8039  131.8815  149.5507 H   0  0  0  0  0  0  0  0  0  0  0  0
  144.5621  131.5317  151.9377 H   0  0  0  0  0  0  0  0  0  0  0  0
  147.3953  136.3036  151.8719 H   0  0  0  0  0  0  0  0  0  0  0  0
  144.3975  139.0389  151.9576 H   0  0  0  0  0  0  0  0  0  0  0  0
  1  2  1  0  0  0  0
  1 15  1  0  0  0  0
  1 16  1  0  0  0  0
  1 17  1  0  0  0  0
  2 13  1  0  0  0  0
  2  3  1  0  0  0  0
  2  9  1  0  0  0  0
  3  8  1  0  0  0  0
  3  4  2  0  0  0  0
  4  5  1  0  0  0  0
  4 18  1  0  0  0  0
  5  6  2  0  0  0  0
  6  7  1  0  0  0  0
  6 19  1  0  0  0  0
  7  8  2  0  0  0  0
  7 20  1  0  0  0  0
  9 10  1  0  0  0  0
  9 21  1  0  0  0  0
 10 11  2  0  0  0  0
 10 12  1  0  0  0  0
 12 13  1  0  0  0  0
 12 22  1  0  0  0  0
 13 14  2  0  0  0  0
M  END
> <s_m_source_file>
AV-unprocessed.smi

> <i_m_source_file_index>
2607

> <i_lp_mmshare_version>
43012

> <i_f3d_flags>
0

> <s_epik_input>
Tz1DMVtOSF1DKD1PKVtOSF1bQ0BAXTEoW0NIM10pYzJbY0hdbltjSF1bY0hdbjI=

> <s_epik_cmdline>
J2VwaWtfcHl0aG9uJywgJy1waCcsICc3LjAnLCAnLXRuJywgJzgnLCAnLW1hJywgJzIwMCcsICctbWV0YWxfYmluZGluZycsICctaW1hZScsICc8aW5maWxlLm1hZT4nLCAnLW9tYWUnLCAnPG91dGZpbGUubWFlPic=

> <r_lp_tautomer_probability>
1

> <r_epik_Ionization_Penalty>
0.0333762

> <r_epik_Ionization_Penalty_Charging>
0

> <r_epik_Ionization_Penalty_Neutral>
0.0333762

> <r_epik_State_Penalty>
0.027503

> <r_epik_Charging_Adjusted_Penalty>
0.027503

> <i_epik_Tot_Q>
0

> <i_epik_Tot_abs_Q>
0

> <r_epik_Metal_State_Penalty>
0.445281

> <b_epik_Metal_Only>
0

> <s_lp_Force_Field>
OPLS_2005

> <r_lp_Energy>
24.1998

> <b_lp_Chiralities_Consistent>
1

> <s_lp_Variant>
AV-unprocessed.smi:2607-2

> <Gold.Version>
5.8.1

> <Gold.Id.Protein>
6NUR|6NUR_protein|mol2

> <Gold.PLP.Fitness>
31.0396

> <Gold.PLP.PLP>
-20.3720

> <Gold.PLP.part.hbond>
-3.8286

> <Gold.PLP.part.metal>
0.0000

> <Gold.PLP.part.buried>
-3.1638

> <Gold.PLP.part.nonpolar>
-15.7547

> <Gold.PLP.part.repulsive>
3.2350

> <Gold.PLP.ligand.clash>
0.0000

> <Gold.PLP.ligand.torsion>
0.0742

> <Gold.PLP.Chemscore.Hbond>
2.9600

> <Gold.PLP.Chemscore.CHOScore>
0.6062

> <Gold.PLP.Chemscore.Metal>
0.0000

> <Gold.Chemscore.Hbonds>
donor molecule, donor type, donor heavy atom, donor atom, acceptor molecule, acceptor atom, score
      L1  H     9    21       P1  7948  1.00
      L1  H    12    22       P1 10175  1.00
      P1  H  7954  7966       L1    11  0.96
      L1  C     4    18       P1 10171  0.61

> <Gold.PLP.Chemscore.Internal.Correction>
0.1175

> <Gold.Rescore>
     Score         DG    S(hbond)    S(metal)    S(lipo)     H(rot)  DE(clash)    DE(int)     intcor
     15.32     -15.93       2.80        0.00      31.16       1.00       0.55       0.06       ----

> <Gold.Chemscore.Fitness>
15.3206

> <Gold.Chemscore.DG>
-15.9289

> <Gold.Chemscore.ZeroCoef>
-5.4800

> <Gold.Chemscore.Hbond>
2.8034

> <Gold.Chemscore.Metal>
0.0000

> <Gold.Chemscore.Lipo>
31.1593

> <Gold.Chemscore.Internal_Hbond>
0.0000

> <Gold.Chemscore.DEClash>
0.5492

> <Gold.Chemscore.DEInternal>
0.0591

> <Gold.Chemscore.Rot>
1.0000

> <Gold.Chemscore.Internal.Correction>
   9.000000E+99

> <Gold.Chemscore.Hbonds>
donor molecule, donor type, donor heavy atom, donor atom, acceptor molecule, acceptor atom, score
      L1  H     9    21       P1  7948  0.93
      L1  H    12    22       P1 10175  0.99
      P1  H  7954  7966       L1    11  0.68

> <Gold.Chemscore.Hbond.Weighted>
-9.3633

> <Gold.Chemscore.Metal.Weighted>
-0.0000

> <Gold.Chemscore.Lipo.Weighted>
-3.6456

> <Gold.Chemscore.Internal_Hbond.Weighted>
0.0000

> <Gold.Chemscore.DEClash.Weighted>
0.5492

> <Gold.Chemscore.DEInternal.Weighted>
0.0591

> <Gold.Chemscore.Rot.Weighted>
2.5600

> <Gold.Chemscore.Internal.Correction.Weighted>
   9.000000E+99

> <Gold.Protein.RotatedTorsions>
[ 6907 6896 6895 6894 ] final  -30.19 input  -60.11 | X-H torsion
[ 7974 7965 7964 7962 ] final -111.09 input  175.53 | X-H torsion
[ 8008 7997 7996 7995 ] final -129.55 input   59.86 | X-H torsion
[ 10167 10162 10161 10158 ] final   -6.45 input  -65.29 | X-H torsion
[ 10718 10713 10712 10709 ] final   53.94 input   66.30 | X-H torsion
[ 10763 10752 10751 10750 ] final  -30.86 input  -60.55 | X-H torsion
[ 11005 11000 10999 10996 ] final -100.08 input  -57.11 | X-H torsion

> <Gold.Protein.ActiveResidues>
 VAL166  LYS551  ARG553  GLY616  TRP617  ASP618  TYR619  PRO620  LYS621  CYS622 
 ASP623  PHE694  ASN695  SER759  ASP760  ASP761  ALA762  ILE779  LEU786  VAL792 
 PHE793  MET794  SER795  GLU796  ALA797  LYS798  CYS799  TRP800  GLU811  SER814 

> <Gold.Protein.RotatedAtoms>
  151.1089  135.0015  159.8484 H   0  0  0  0  0  0  0  0  0  0  0  0  # atno 6907 bound_to 6896
  152.5442  134.1859  159.8664 H   0  0  0  0  0  0  0  0  0  0  0  0  # atno 6908 bound_to 6896
  151.1908  133.4624  159.2628 H   0  0  0  0  0  0  0  0  0  0  0  0  # atno 6909 bound_to 6896
  145.1603  140.8875  143.3595 H   0  0  0  0  0  0  0  0  0  0  0  0  # atno 7974 bound_to 7965
  155.2810  140.0444  157.3015 H   0  0  0  0  0  0  0  0  0  0  0  0  # atno 8008 bound_to 7997
  154.5597  140.2342  155.8323 H   0  0  0  0  0  0  0  0  0  0  0  0  # atno 8009 bound_to 7997
  156.2037  140.3018  155.9587 H   0  0  0  0  0  0  0  0  0  0  0  0  # atno 8010 bound_to 7997
  140.6997  143.6193  150.8628 H   0  0  0  0  0  0  0  0  0  0  0  0  # atno 10167 bound_to 10162
  157.5212  130.8566  149.8561 H   0  0  0  0  0  0  0  0  0  0  0  0  # atno 10718 bound_to 10713
  153.7878  135.6900  153.4877 H   0  0  0  0  0  0  0  0  0  0  0  0  # atno 10763 bound_to 10752
  153.1769  135.4521  154.9976 H   0  0  0  0  0  0  0  0  0  0  0  0  # atno 10764 bound_to 10752
  154.8056  135.3355  154.7376 H   0  0  0  0  0  0  0  0  0  0  0  0  # atno 10765 bound_to 10752
  141.1284  133.8371  157.1056 H   0  0  0  0  0  0  0  0  0  0  0  0  # atno 11005 bound_to 11000
  145.0338  139.3318  143.6011 LP  0  0  0  0  0  0  0  0  0  0  0  0  # atno 17320 bound_to 7965
  146.3483  139.9686  142.8709 LP  0  0  0  0  0  0  0  0  0  0  0  0  # atno 17321 bound_to 7965
  139.9914  143.5843  152.2909 LP  0  0  0  0  0  0  0  0  0  0  0  0  # atno 17342 bound_to 10162
  139.6499  144.7660  151.2168 LP  0  0  0  0  0  0  0  0  0  0  0  0  # atno 17343 bound_to 10162
  156.0355  130.3752  150.1573 LP  0  0  0  0  0  0  0  0  0  0  0  0  # atno 17370 bound_to 10713
  156.9760  130.9849  151.3448 LP  0  0  0  0  0  0  0  0  0  0  0  0  # atno 17371 bound_to 10713
  140.0306  134.9903  157.0773 LP  0  0  0  0  0  0  0  0  0  0  0  0  # atno 17394 bound_to 11000
  140.4291  134.1800  155.7167 LP  0  0  0  0  0  0  0  0  0  0  0  0  # atno 17395 bound_to 11000

$$$$
