#       Name:                AV-unprocessed.smi:2030
#       Creating user name   scv26
#       Creation time:       Fri Mar 27 10:49:41 2020


#       File generated by GOLD software.
#

@<TRIPOS>MOLECULE
AV-unprocessed.smi:2030
    41    42     1
SMALL
NO_CHARGES


@<TRIPOS>ATOM
      1 ****        -3.4803  -1.0199   1.2956 C.3            1 S1                 0.0000
      2 ****        -3.0472   0.3370   0.9694 N.am           1 S1                 0.0000
      3 ****        -1.6800   0.5142   0.9379 N.2            1 S1                 0.0000
      4 ****        -1.1328   1.6888   0.8859 C.2            1 S1                 0.0000
      5 ****         0.3563   1.8089   0.8780 C.2            1 S1                 0.0000
      6 ****         0.7938   2.9661   0.8939 O.2            1 S1                 0.0000
      7 ****         1.1030   0.6648   0.8600 N.pl3          1 S1                -1.0000
      8 ****         2.5644   0.6094   0.8146 C.3            1 S1                 0.0000
      9 ****         3.0542  -0.8560   0.7362 C.3            1 S1                 0.0000
     10 ****         2.7270  -1.5870  -0.5648 C.ar           1 S1                 0.0000
     11 ****         3.6171  -1.5355  -1.6621 C.ar           1 S1                 0.0000
     12 ****         3.2793  -2.2303  -2.8392 C.ar           1 S1                 0.0000
     13 ****         2.0721  -2.9536  -2.8778 C.ar           1 S1                 0.0000
     14 ****         1.2542  -2.9521  -1.7308 C.ar           1 S1                 0.0000
     15 ****         1.5705  -2.2936  -0.5960 N.ar           1 S1                 0.0000
     16 ****        -2.0001   2.9356   0.8708 C.3            1 S1                 0.0000
     17 ****        -3.3974   2.6669   0.2778 C.3            1 S1                 0.0000
     18 ****        -3.9562   1.3057   0.6997 C.2            1 S1                 0.0000
     19 ****        -5.1745   1.1354   0.7527 O.2            1 S1                 0.0000
     20 ****        -4.0698  -1.0231   2.2132 H              1 S1                 0.0000
     21 ****        -2.6353  -1.6943   1.4441 H              1 S1                 0.0000
     22 ****        -4.0925  -1.4330   0.4928 H              1 S1                 0.0000
     23 ****         2.9705   1.1678  -0.0301 H              1 S1                 0.0000
     24 ****         2.9975   1.0667   1.7051 H              1 S1                 0.0000
     25 ****         4.1370  -0.8708   0.8640 H              1 S1                 0.0000
     26 ****         2.6536  -1.4252   1.5766 H              1 S1                 0.0000
     27 ****         4.5352  -0.9696  -1.6038 H              1 S1                 0.0000
     28 ****         3.9347  -2.2086  -3.6971 H              1 S1                 0.0000
     29 ****         1.7801  -3.4966  -3.7642 H              1 S1                 0.0000
     30 ****         0.3221  -3.4976  -1.7235 H              1 S1                 0.0000
     31 ****        -2.0939   3.3188   1.8873 H              1 S1                 0.0000
     32 ****        -1.5323   3.7275   0.2849 H              1 S1                 0.0000
     33 ****        -4.0887   3.4615   0.5606 H              1 S1                 0.0000
     34 ****        -3.3400   2.6727  -0.8113 H              1 S1                 0.0000
     35 ****        -1.0891  -0.2923   0.9558 LP             1 S1                 0.0000
     36 ****         0.1605   3.7398   0.9106 LP             1 S1                 0.0000
     37 ****         1.7806   3.1276   0.8900 LP             1 S1                 0.0000
     38 ****         0.6106  -0.2054   0.8794 LP             1 S1                 0.0000
     39 ****         0.9674  -2.3261   0.2010 LP             1 S1                 0.0000
     40 ****        -5.5439   0.2414   1.0065 LP             1 S1                 0.0000
     41 ****        -5.7947   1.8910   0.5419 LP             1 S1                 0.0000
@<TRIPOS>BOND
    1    1    2 1     
    2    1   20 1     
    3    1   21 1     
    4    1   22 1     
    5    2   18 am    
    6    2    3 1     
    7    3    4 2     
    8    4    5 1     
    9    4   16 1     
   10    5    6 2     
   11    5    7 1     
   12    7    8 1     
   13    8    9 1     
   14    8   23 1     
   15    8   24 1     
   16    9   10 1     
   17    9   25 1     
   18    9   26 1     
   19   10   15 ar    
   20   10   11 ar    
   21   11   12 ar    
   22   11   27 1     
   23   12   13 ar    
   24   12   28 1     
   25   13   14 ar    
   26   13   29 1     
   27   14   15 ar    
   28   14   30 1     
   29   16   17 1     
   30   16   31 1     
   31   16   32 1     
   32   17   18 1     
   33   17   33 1     
   34   17   34 1     
   35   18   19 2     
   36    3   35 1     
   37    6   36 1     
   38    6   37 1     
   39    7   38 1     
   40   15   39 1     
   41   19   40 1     
   42   19   41 1     
@<TRIPOS>SUBSTRUCTURE
      1 S1             1
@<TRIPOS>SET
LONE_PAIRS      STATIC     ATOMS    <user>   **** ""
7 35 36 37 38 39 40 41
ATOM$BLUE        STATIC     ATOMS    COLORGROUP SYSTEM
7 35 36 37 38 39 40 41
