AV-unprocessed.smi:212|AV-procd|sdf|1617|dock5
  -GOLD-   2262019543D 1   1.00000     0.00000
 Structure written by MMmdl.
 65 68  0  0  0  0  0  0  0  0  2 V2000
  148.4179  132.0936  154.0281 C   0  0  0  0  0  0  0  0  0  0  0  0
  147.0351  132.7717  153.9778 C   0  0  2  0  0  0  0  0  0  0  0  0
  146.6255  133.1675  152.5443 C   0  0  0  0  0  0  0  0  0  0  0  0
  145.2613  133.7544  152.5265 N   0  3  2  0  0  0  0  0  0  0  0  0
  144.7629  134.0402  151.1548 C   0  0  0  0  0  0  0  0  0  0  0  0
  144.0530  132.8238  150.5158 C   0  0  0  0  0  0  0  0  0  0  0  0
  144.0449  132.9605  148.9842 C   0  0  0  0  0  0  0  0  0  0  0  0
  144.6978  131.4872  150.9277 C   0  0  0  0  0  0  0  0  0  0  0  0
  142.7000  132.8104  150.9257 O   0  0  0  0  0  0  0  0  0  0  0  0
  145.1317  134.9104  153.4511 C   0  0  0  0  0  0  0  0  0  0  0  0
  145.5800  134.5423  154.8803 C   0  0  0  0  0  0  0  0  0  0  0  0
  146.8941  133.9042  154.8989 N   0  0  0  0  0  0  0  0  0  0  0  0
  147.9422  134.7523  155.0244 C   0  0  0  0  0  0  0  0  0  0  0  0
  149.1408  134.3000  155.4758 N   0  0  0  0  0  0  0  0  0  0  0  0
  150.1667  135.1466  155.6084 C   0  0  0  0  0  0  0  0  0  0  0  0
  150.2069  136.4564  155.3531 N   0  0  0  0  0  0  0  0  0  0  0  0
  149.0027  136.9108  154.9013 C   0  0  0  0  0  0  0  0  0  0  0  0
  147.8288  136.1311  154.7082 C   0  0  0  0  0  0  0  0  0  0  0  0
  146.7948  136.9302  154.2387 N   0  0  0  0  0  0  0  0  0  0  0  0
  147.3276  138.1193  154.1579 C   0  0  0  0  0  0  0  0  0  0  0  0
  148.6507  138.1970  154.5314 N   0  0  0  0  0  0  0  0  0  0  0  0
  149.4767  139.3924  154.5439 C   0  0  0  0  0  0  0  0  0  0  0  0
  149.0734  140.4069  155.6436 C   0  0  2  0  0  0  0  0  0  0  0  0
  148.1162  141.4877  155.0777 C   0  0  0  0  0  0  0  0  0  0  0  0
  148.7667  142.3357  154.1550 O   0  0  0  0  0  0  0  0  0  0  0  0
  150.3382  141.0283  156.2990 C   0  0  2  0  0  0  0  0  0  0  0  0
  151.2497  140.0356  157.0030 C   0  0  0  0  0  0  0  0  0  0  0  0
  152.0966  140.9388  157.8922 C   0  0  0  0  0  0  0  0  0  0  0  0
  151.2559  142.0311  158.2418 O   0  0  0  0  0  0  0  0  0  0  0  0
  150.0731  142.0069  157.4494 C   0  0  0  0  0  0  0  0  0  0  0  0
  148.4298  131.1925  153.4147 H   0  0  0  0  0  0  0  0  0  0  0  0
  148.6744  131.7983  155.0460 H   0  0  0  0  0  0  0  0  0  0  0  0
  149.2077  132.7488  153.6587 H   0  0  0  0  0  0  0  0  0  0  0  0
  146.3171  132.0265  154.3235 H   0  0  0  0  0  0  0  0  0  0  0  0
  147.3363  133.8775  152.1192 H   0  0  0  0  0  0  0  0  0  0  0  0
  146.6426  132.2826  151.9068 H   0  0  0  0  0  0  0  0  0  0  0  0
  144.1001  134.9072  151.1677 H   0  0  0  0  0  0  0  0  0  0  0  0
  145.5972  134.3266  150.5121 H   0  0  0  0  0  0  0  0  0  0  0  0
  145.0593  132.9771  148.5845 H   0  0  0  0  0  0  0  0  0  0  0  0
  143.5529  133.8812  148.6681 H   0  0  0  0  0  0  0  0  0  0  0  0
  143.5204  132.1294  148.5109 H   0  0  0  0  0  0  0  0  0  0  0  0
  145.7490  131.4529  150.6389 H   0  0  0  0  0  0  0  0  0  0  0  0
  144.1990  130.6428  150.4502 H   0  0  0  0  0  0  0  0  0  0  0  0
  144.6467  131.3253  152.0046 H   0  0  0  0  0  0  0  0  0  0  0  0
  142.2851  133.6045  150.6230 H   0  0  0  0  0  0  0  0  0  0  0  0
  145.7235  135.7435  153.0706 H   0  0  0  0  0  0  0  0  0  0  0  0
  144.0974  135.2535  153.4742 H   0  0  0  0  0  0  0  0  0  0  0  0
  145.5789  135.4288  155.5163 H   0  0  0  0  0  0  0  0  0  0  0  0
  144.8633  133.8481  155.3208 H   0  0  0  0  0  0  0  0  0  0  0  0
  151.0865  134.7133  155.9729 H   0  0  0  0  0  0  0  0  0  0  0  0
  146.7674  138.9790  153.8195 H   0  0  0  0  0  0  0  0  0  0  0  0
  150.5061  139.0618  154.6781 H   0  0  0  0  0  0  0  0  0  0  0  0
  149.4300  139.8649  153.5620 H   0  0  0  0  0  0  0  0  0  0  0  0
  148.5334  139.8486  156.4103 H   0  0  0  0  0  0  0  0  0  0  0  0
  147.2492  141.0268  154.6033 H   0  0  0  0  0  0  0  0  0  0  0  0
  147.7326  142.1364  155.8638 H   0  0  0  0  0  0  0  0  0  0  0  0
  148.7747  143.2131  154.5064 H   0  0  0  0  0  0  0  0  0  0  0  0
  150.9227  141.5440  155.5352 H   0  0  0  0  0  0  0  0  0  0  0  0
  150.6639  139.3492  157.6166 H   0  0  0  0  0  0  0  0  0  0  0  0
  151.8611  139.4469  156.3186 H   0  0  0  0  0  0  0  0  0  0  0  0
  152.4697  140.4223  158.7766 H   0  0  0  0  0  0  0  0  0  0  0  0
  152.9528  141.3242  157.3374 H   0  0  0  0  0  0  0  0  0  0  0  0
  149.8248  143.0085  157.0974 H   0  0  0  0  0  0  0  0  0  0  0  0
  149.2523  141.6545  158.0758 H   0  0  0  0  0  0  0  0  0  0  0  0
  144.6531  133.0357  152.8919 H   0  0  0  0  0  0  0  0  0  0  0  0
  1  2  1  0  0  0  0
  1 31  1  0  0  0  0
  1 32  1  0  0  0  0
  1 33  1  0  0  0  0
  2 12  1  0  0  0  0
  2  3  1  0  0  0  0
  2 34  1  0  0  0  0
  3  4  1  0  0  0  0
  3 35  1  0  0  0  0
  3 36  1  0  0  0  0
  4  5  1  0  0  0  0
  4 10  1  0  0  0  0
  4 65  1  0  0  0  0
  5  6  1  0  0  0  0
  5 37  1  0  0  0  0
  5 38  1  0  0  0  0
  6  7  1  0  0  0  0
  6  8  1  0  0  0  0
  6  9  1  0  0  0  0
  7 39  1  0  0  0  0
  7 40  1  0  0  0  0
  7 41  1  0  0  0  0
  8 42  1  0  0  0  0
  8 43  1  0  0  0  0
  8 44  1  0  0  0  0
  9 45  1  0  0  0  0
 10 11  1  0  0  0  0
 10 46  1  0  0  0  0
 10 47  1  0  0  0  0
 11 12  1  0  0  0  0
 11 48  1  0  0  0  0
 11 49  1  0  0  0  0
 12 13  1  0  0  0  0
 13 18  1  0  0  0  0
 13 14  2  0  0  0  0
 14 15  1  0  0  0  0
 15 16  2  0  0  0  0
 15 50  1  0  0  0  0
 16 17  1  0  0  0  0
 17 21  1  0  0  0  0
 17 18  2  0  0  0  0
 18 19  1  0  0  0  0
 19 20  2  0  0  0  0
 20 21  1  0  0  0  0
 20 51  1  0  0  0  0
 21 22  1  0  0  0  0
 22 23  1  0  0  0  0
 22 52  1  0  0  0  0
 22 53  1  0  0  0  0
 23 24  1  0  0  0  0
 23 26  1  0  0  0  0
 23 54  1  0  0  0  0
 24 25  1  0  0  0  0
 24 55  1  0  0  0  0
 24 56  1  0  0  0  0
 25 57  1  0  0  0  0
 26 30  1  0  0  0  0
 26 27  1  0  0  0  0
 26 58  1  0  0  0  0
 27 28  1  0  0  0  0
 27 59  1  0  0  0  0
 27 60  1  0  0  0  0
 28 29  1  0  0  0  0
 28 61  1  0  0  0  0
 28 62  1  0  0  0  0
 29 30  1  0  0  0  0
 30 63  1  0  0  0  0
 30 64  1  0  0  0  0
M  CHG  1   4   1
M  END
> <s_m_source_file>
AV-unprocessed.smi

> <i_m_source_file_index>
212

> <i_lp_mmshare_version>
43012

> <i_f3d_flags>
0

> <s_epik_input>
W0NIM11bQ0BASF0xW0NIMl1OKFtDSDJdQyhbQ0gzXSkoW0NIM10pW09IXSlbQ0gyXVtDSDJdTjFjKG5bY0hdbjIpYyhjMjMpbltjSF1uM1tDSDJdW0NASF0oW0NIMl1bT0hdKVtDQEBIXTRbQ0gyXVtDSDJdT1tDSDJdNA==

> <s_epik_cmdline>
J2VwaWtfcHl0aG9uJywgJy1waCcsICc3LjAnLCAnLXRuJywgJzgnLCAnLW1hJywgJzIwMCcsICctbWV0YWxfYmluZGluZycsICctaW1hZScsICc8aW5maWxlLm1hZT4nLCAnLW9tYWUnLCAnPG91dGZpbGUubWFlPic=

> <r_lp_tautomer_probability>
1

> <r_epik_Ionization_Penalty>
0.00182193

> <r_epik_Ionization_Penalty_Charging>
0.00173996

> <r_epik_Ionization_Penalty_Neutral>
8.19718e-05

> <r_epik_State_Penalty>
-0

> <r_epik_Charging_Adjusted_Penalty>
0.00173996

> <i_epik_Tot_Q>
1

> <i_epik_Tot_abs_Q>
1

> <r_epik_Metal_State_Penalty>
-0

> <b_epik_Metal_Only>
0

> <s_lp_Force_Field>
OPLS_2005

> <r_lp_Energy>
60.482

> <b_lp_Chiralities_Consistent>
1

> <s_lp_Variant>
AV-unprocessed.smi:212-1

> <Gold.Version>
5.8.1

> <Gold.Id.Protein>
6NUR|6NUR_protein|mol2

> <Gold.PLP.Fitness>
41.0062

> <Gold.PLP.PLP>
-37.8389

> <Gold.PLP.part.hbond>
-3.0000

> <Gold.PLP.part.metal>
0.0000

> <Gold.PLP.part.buried>
-5.0605

> <Gold.PLP.part.nonpolar>
-29.9587

> <Gold.PLP.part.repulsive>
0.3391

> <Gold.PLP.ligand.clash>
1.1395

> <Gold.PLP.ligand.torsion>
1.7481

> <Gold.PLP.Chemscore.Hbond>
2.2400

> <Gold.PLP.Chemscore.CHOScore>
0.0000

> <Gold.PLP.Chemscore.Metal>
0.0000

> <Gold.Chemscore.Hbonds>
donor molecule, donor type, donor heavy atom, donor atom, acceptor molecule, acceptor atom, score
      L1  H     9    45       P1 10186  0.98
      L1  H    25    57       P1  8028  1.00
      P1  H  8011  8017       L1    25  0.20

> <Gold.PLP.Chemscore.Internal.Correction>
1.0831

> <Gold.Rescore>
     Score         DG    S(hbond)    S(metal)    S(lipo)     H(rot)  DE(clash)    DE(int)     intcor
      7.74     -14.08       2.05        0.00      95.63       3.68       0.08       6.26       ----

> <Gold.Chemscore.Fitness>
7.7408

> <Gold.Chemscore.DG>
-14.0807

> <Gold.Chemscore.ZeroCoef>
-5.4800

> <Gold.Chemscore.Hbond>
2.0468

> <Gold.Chemscore.Metal>
0.0000

> <Gold.Chemscore.Lipo>
95.6264

> <Gold.Chemscore.Internal_Hbond>
0.0000

> <Gold.Chemscore.DEClash>
0.0827

> <Gold.Chemscore.DEInternal>
6.2573

> <Gold.Chemscore.Rot>
3.6812

> <Gold.Chemscore.Internal.Correction>
   9.000000E+99

> <Gold.Chemscore.Hbonds>
donor molecule, donor type, donor heavy atom, donor atom, acceptor molecule, acceptor atom, score
      L1  H     9    45       P1 10186  0.87
      L1  H    25    57       P1  8028  1.00
      P1  H  8011  8017       L1    25  0.10

> <Gold.Chemscore.Hbond.Weighted>
-6.8364

> <Gold.Chemscore.Metal.Weighted>
-0.0000

> <Gold.Chemscore.Lipo.Weighted>
-11.1883

> <Gold.Chemscore.Internal_Hbond.Weighted>
0.0000

> <Gold.Chemscore.DEClash.Weighted>
0.0827

> <Gold.Chemscore.DEInternal.Weighted>
6.2573

> <Gold.Chemscore.Rot.Weighted>
9.4239

> <Gold.Chemscore.Internal.Correction.Weighted>
   9.000000E+99

> <Gold.Protein.RotatedTorsions>
[ 6907 6896 6895 6894 ] final  155.13 input  -60.11 | X-H torsion
[ 7974 7965 7964 7962 ] final  -98.96 input  175.53 | X-H torsion
[ 8008 7997 7996 7995 ] final  122.42 input   59.86 | X-H torsion
[ 10167 10162 10161 10158 ] final  -16.51 input  -65.29 | X-H torsion
[ 10718 10713 10712 10709 ] final   89.66 input   66.30 | X-H torsion
[ 10763 10752 10751 10750 ] final -173.75 input  -60.55 | X-H torsion
[ 11005 11000 10999 10996 ] final    1.34 input  -57.11 | X-H torsion

> <Gold.Protein.ActiveResidues>
 VAL166  LYS551  ARG553  GLY616  TRP617  ASP618  TYR619  PRO620  LYS621  CYS622 
 ASP623  PHE694  ASN695  SER759  ASP760  ASP761  ALA762  ILE779  LEU786  VAL792 
 PHE793  MET794  SER795  GLU796  ALA797  LYS798  CYS799  TRP800  GLU811  SER814 

> <Gold.Protein.RotatedAtoms>
  152.0486  133.4009  159.4366 H   0  0  0  0  0  0  0  0  0  0  0  0  # atno 6907 bound_to 6896
  150.6871  134.3334  159.4846 H   0  0  0  0  0  0  0  0  0  0  0  0  # atno 6908 bound_to 6896
  152.1141  134.9253  160.0616 H   0  0  0  0  0  0  0  0  0  0  0  0  # atno 6909 bound_to 6896
  145.3138  140.9406  143.2754 H   0  0  0  0  0  0  0  0  0  0  0  0  # atno 7974 bound_to 7965
  156.2726  140.2786  156.1464 H   0  0  0  0  0  0  0  0  0  0  0  0  # atno 8008 bound_to 7997
  155.0899  140.0388  157.2683 H   0  0  0  0  0  0  0  0  0  0  0  0  # atno 8009 bound_to 7997
  154.6897  140.2626  155.6830 H   0  0  0  0  0  0  0  0  0  0  0  0  # atno 8010 bound_to 7997
  140.7235  143.5108  150.9752 H   0  0  0  0  0  0  0  0  0  0  0  0  # atno 10167 bound_to 10162
  157.6956  131.0341  150.3459 H   0  0  0  0  0  0  0  0  0  0  0  0  # atno 10718 bound_to 10713
  154.6042  135.2857  155.0503 H   0  0  0  0  0  0  0  0  0  0  0  0  # atno 10763 bound_to 10752
  154.1756  135.6465  153.5024 H   0  0  0  0  0  0  0  0  0  0  0  0  # atno 10764 bound_to 10752
  153.0169  135.5411  154.6772 H   0  0  0  0  0  0  0  0  0  0  0  0  # atno 10765 bound_to 10752
  140.6165  133.9700  155.8203 H   0  0  0  0  0  0  0  0  0  0  0  0  # atno 11005 bound_to 11000
  144.8994  139.4669  143.6640 LP  0  0  0  0  0  0  0  0  0  0  0  0  # atno 17320 bound_to 7965
  146.3108  139.7739  142.9021 LP  0  0  0  0  0  0  0  0  0  0  0  0  # atno 17321 bound_to 7965
  139.8822  143.7058  152.3155 LP  0  0  0  0  0  0  0  0  0  0  0  0  # atno 17342 bound_to 10162
  139.7344  144.7575  151.0751 LP  0  0  0  0  0  0  0  0  0  0  0  0  # atno 17343 bound_to 10162
  156.3914  130.3898  149.7027 LP  0  0  0  0  0  0  0  0  0  0  0  0  # atno 17370 bound_to 10713
  156.4376  130.7845  151.2866 LP  0  0  0  0  0  0  0  0  0  0  0  0  # atno 17371 bound_to 10713
  141.0772  134.0117  157.3440 LP  0  0  0  0  0  0  0  0  0  0  0  0  # atno 17394 bound_to 11000
  139.9171  135.0198  156.7922 LP  0  0  0  0  0  0  0  0  0  0  0  0  # atno 17395 bound_to 11000

$$$$
