AV-unprocessed.smi:3232|AV-procd|sdf|12345|dock8
  -GOLD-   2272018203D 1   1.00000     0.00000
 Structure written by MMmdl.
 40 41  0  0  0  0  0  0  0  0  2 V2000
  153.4956  143.1009  163.2013 C   0  0  0  0  0  0  0  0  0  0  0  0
  152.9260  142.4630  161.9264 C   0  0  0  0  0  0  0  0  0  0  0  0
  152.9319  143.4011  160.7762 N   0  3  2  0  0  0  0  0  0  0  0  0
  151.7881  144.3406  160.7380 C   0  0  0  0  0  0  0  0  0  0  0  0
  151.5678  144.7029  159.2622 C   0  0  0  0  0  0  0  0  0  0  0  0
  152.7217  144.0327  158.5179 C   0  0  0  0  0  0  0  0  0  0  0  0
  153.0923  142.8407  159.4104 C   0  0  2  0  0  0  0  0  0  0  0  0
  152.2211  141.5818  159.1561 C   0  0  0  0  0  0  0  0  0  0  0  0
  152.1769  141.2280  157.7410 N   0  0  0  0  0  0  0  0  0  0  0  0
  151.4157  140.2599  157.2046 C   0  0  0  0  0  0  0  0  0  0  0  0
  150.7022  139.5160  157.8787 O   0  0  0  0  0  0  0  0  0  0  0  0
  151.4534  140.1396  155.6723 C   0  0  1  0  0  0  0  0  0  0  0  0
  152.0102  138.7866  155.1864 C   0  0  0  0  0  0  0  0  0  0  0  0
  150.1342  140.4118  155.1141 N   0  0  0  0  0  0  0  0  0  0  0  0
  149.3882  141.5171  155.1711 C   0  0  0  0  0  0  0  0  0  0  0  0
  148.2063  141.3996  154.5825 N   0  0  0  0  0  0  0  0  0  0  0  0
  148.2921  140.1056  154.1533 C   0  0  0  0  0  0  0  0  0  0  0  0
  149.4220  139.4653  154.4526 N   0  0  0  0  0  0  0  0  0  0  0  0
  153.4231  142.4107  164.0421 H   0  0  0  0  0  0  0  0  0  0  0  0
  152.9469  144.0049  163.4678 H   0  0  0  0  0  0  0  0  0  0  0  0
  154.5462  143.3676  163.0877 H   0  0  0  0  0  0  0  0  0  0  0  0
  153.4539  141.5410  161.6825 H   0  0  0  0  0  0  0  0  0  0  0  0
  151.8921  142.1745  162.1204 H   0  0  0  0  0  0  0  0  0  0  0  0
  150.8891  143.8748  161.1451 H   0  0  0  0  0  0  0  0  0  0  0  0
  152.0123  145.2196  161.3430 H   0  0  0  0  0  0  0  0  0  0  0  0
  150.6168  144.2939  158.9183 H   0  0  0  0  0  0  0  0  0  0  0  0
  151.5432  145.7802  159.0955 H   0  0  0  0  0  0  0  0  0  0  0  0
  152.4706  143.7734  157.4900 H   0  0  0  0  0  0  0  0  0  0  0  0
  153.5659  144.7220  158.4725 H   0  0  0  0  0  0  0  0  0  0  0  0
  154.1391  142.5769  159.2533 H   0  0  0  0  0  0  0  0  0  0  0  0
  152.6417  140.7182  159.6704 H   0  0  0  0  0  0  0  0  0  0  0  0
  151.2175  141.7165  159.5629 H   0  0  0  0  0  0  0  0  0  0  0  0
  152.7370  141.7878  157.1145 H   0  0  0  0  0  0  0  0  0  0  0  0
  152.1256  140.9177  155.3070 H   0  0  0  0  0  0  0  0  0  0  0  0
  153.0186  138.6163  155.5658 H   0  0  0  0  0  0  0  0  0  0  0  0
  152.0634  138.7581  154.0977 H   0  0  0  0  0  0  0  0  0  0  0  0
  151.3896  137.9490  155.5076 H   0  0  0  0  0  0  0  0  0  0  0  0
  149.7139  142.4248  155.6578 H   0  0  0  0  0  0  0  0  0  0  0  0
  147.4957  139.6186  153.6103 H   0  0  0  0  0  0  0  0  0  0  0  0
  153.7407  143.9919  160.9067 H   0  0  0  0  0  0  0  0  0  0  0  0
  1  2  1  0  0  0  0
  1 19  1  0  0  0  0
  1 20  1  0  0  0  0
  1 21  1  0  0  0  0
  2  3  1  0  0  0  0
  2 22  1  0  0  0  0
  2 23  1  0  0  0  0
  3  7  1  0  0  0  0
  3  4  1  0  0  0  0
  3 40  1  0  0  0  0
  4  5  1  0  0  0  0
  4 24  1  0  0  0  0
  4 25  1  0  0  0  0
  5  6  1  0  0  0  0
  5 26  1  0  0  0  0
  5 27  1  0  0  0  0
  6  7  1  0  0  0  0
  6 28  1  0  0  0  0
  6 29  1  0  0  0  0
  7  8  1  0  0  0  0
  7 30  1  0  0  0  0
  8  9  1  0  0  0  0
  8 31  1  0  0  0  0
  8 32  1  0  0  0  0
  9 10  1  0  0  0  0
  9 33  1  0  0  0  0
 10 11  2  0  0  0  0
 10 12  1  0  0  0  0
 12 13  1  0  0  0  0
 12 14  1  0  0  0  0
 12 34  1  0  0  0  0
 13 35  1  0  0  0  0
 13 36  1  0  0  0  0
 13 37  1  0  0  0  0
 14 18  1  0  0  0  0
 14 15  1  0  0  0  0
 15 16  2  0  0  0  0
 15 38  1  0  0  0  0
 16 17  1  0  0  0  0
 17 18  2  0  0  0  0
 17 39  1  0  0  0  0
M  CHG  1   3   1
M  END
> <s_m_source_file>
AV-unprocessed.smi

> <i_m_source_file_index>
3232

> <i_lp_mmshare_version>
43012

> <i_f3d_flags>
0

> <s_epik_input>
W0NIM11bQ0gyXU4xW0NIMl1bQ0gyXVtDSDJdW0NASF0xW0NIMl1bTkhdQyg9TylbQ0BIXShbQ0gzXSluMltjSF1uW2NIXW4y

> <s_epik_cmdline>
J2VwaWtfcHl0aG9uJywgJy1waCcsICc3LjAnLCAnLXRuJywgJzgnLCAnLW1hJywgJzIwMCcsICctbWV0YWxfYmluZGluZycsICctaW1hZScsICc8aW5maWxlLm1hZT4nLCAnLW9tYWUnLCAnPG91dGZpbGUubWFlPic=

> <r_lp_tautomer_probability>
1

> <r_epik_Ionization_Penalty>
0.00177695

> <r_epik_Ionization_Penalty_Charging>
0.00176881

> <r_epik_Ionization_Penalty_Neutral>
8.13528e-06

> <r_epik_State_Penalty>
0.00119827

> <r_epik_Charging_Adjusted_Penalty>
0.00296709

> <i_epik_Tot_Q>
1

> <i_epik_Tot_abs_Q>
1

> <r_epik_Metal_State_Penalty>
-0

> <b_epik_Metal_Only>
0

> <s_lp_Force_Field>
OPLS_2005

> <r_lp_Energy>
36.5981

> <b_lp_Chiralities_Consistent>
1

> <s_lp_Variant>
AV-unprocessed.smi:3232-7

> <Gold.Version>
5.8.1

> <Gold.Id.Protein>
6NUR|6NUR_protein|mol2

> <Gold.PLP.Fitness>
44.9560

> <Gold.PLP.PLP>
-42.8113

> <Gold.PLP.part.hbond>
0.0000

> <Gold.PLP.part.metal>
0.0000

> <Gold.PLP.part.buried>
-2.1586

> <Gold.PLP.part.nonpolar>
-39.8044

> <Gold.PLP.part.repulsive>
0.3921

> <Gold.PLP.ligand.clash>
0.0000

> <Gold.PLP.ligand.torsion>
0.4920

> <Gold.PLP.Chemscore.Hbond>
0.0000

> <Gold.PLP.Chemscore.CHOScore>
1.0000

> <Gold.PLP.Chemscore.Metal>
0.0000

> <Gold.Chemscore.Hbonds>
donor molecule, donor type, donor heavy atom, donor atom, acceptor molecule, acceptor atom, score
      L1  C    15    38       P1  8028  1.00

> <Gold.PLP.Chemscore.Internal.Correction>
0.1287

> <Gold.Rescore>
     Score         DG    S(hbond)    S(metal)    S(lipo)     H(rot)  DE(clash)    DE(int)     intcor
     10.22     -10.71       0.00        0.00      99.17       2.49       0.08       0.42       ----

> <Gold.Chemscore.Fitness>
10.2166

> <Gold.Chemscore.DG>
-10.7132

> <Gold.Chemscore.ZeroCoef>
-5.4800

> <Gold.Chemscore.Hbond>
0.0000

> <Gold.Chemscore.Metal>
0.0000

> <Gold.Chemscore.Lipo>
99.1704

> <Gold.Chemscore.Internal_Hbond>
0.0000

> <Gold.Chemscore.DEClash>
0.0757

> <Gold.Chemscore.DEInternal>
0.4209

> <Gold.Chemscore.Rot>
2.4882

> <Gold.Chemscore.Internal.Correction>
   9.000000E+99

> <Gold.Chemscore.Hbond.Weighted>
-0.0000

> <Gold.Chemscore.Metal.Weighted>
-0.0000

> <Gold.Chemscore.Lipo.Weighted>
-11.6029

> <Gold.Chemscore.Internal_Hbond.Weighted>
0.0000

> <Gold.Chemscore.DEClash.Weighted>
0.0757

> <Gold.Chemscore.DEInternal.Weighted>
0.4209

> <Gold.Chemscore.Rot.Weighted>
6.3697

> <Gold.Chemscore.Internal.Correction.Weighted>
   9.000000E+99

> <Gold.Protein.RotatedTorsions>
[ 6907 6896 6895 6894 ] final   87.76 input  -60.11 | X-H torsion
[ 7974 7965 7964 7962 ] final  116.49 input  175.53 | X-H torsion
[ 8008 7997 7996 7995 ] final  113.19 input   59.86 | X-H torsion
[ 10167 10162 10161 10158 ] final  -87.66 input  -65.29 | X-H torsion
[ 10718 10713 10712 10709 ] final  -10.17 input   66.30 | X-H torsion
[ 10763 10752 10751 10750 ] final  176.18 input  -60.55 | X-H torsion
[ 11005 11000 10999 10996 ] final  101.47 input  -57.11 | X-H torsion

> <Gold.Protein.ActiveResidues>
 VAL166  LYS551  ARG553  GLY616  TRP617  ASP618  TYR619  PRO620  LYS621  CYS622 
 ASP623  PHE694  ASN695  SER759  ASP760  ASP761  ALA762  ILE779  LEU786  VAL792 
 PHE793  MET794  SER795  GLU796  ALA797  LYS798  CYS799  TRP800  GLU811  SER814 

> <Gold.Protein.RotatedAtoms>
  152.5416  134.2226  159.8793 H   0  0  0  0  0  0  0  0  0  0  0  0  # atno 6907 bound_to 6896
  151.2202  133.4500  159.2608 H   0  0  0  0  0  0  0  0  0  0  0  0  # atno 6908 bound_to 6896
  151.0812  134.9872  159.8413 H   0  0  0  0  0  0  0  0  0  0  0  0  # atno 6909 bound_to 6896
  145.1790  139.3060  143.4428 H   0  0  0  0  0  0  0  0  0  0  0  0  # atno 7974 bound_to 7965
  156.2242  140.2984  156.0025 H   0  0  0  0  0  0  0  0  0  0  0  0  # atno 8008 bound_to 7997
  155.2402  140.0422  157.2991 H   0  0  0  0  0  0  0  0  0  0  0  0  # atno 8009 bound_to 7997
  154.5888  140.2395  155.7958 H   0  0  0  0  0  0  0  0  0  0  0  0  # atno 8010 bound_to 7997
  140.3823  143.2743  151.9368 H   0  0  0  0  0  0  0  0  0  0  0  0  # atno 10167 bound_to 10162
  156.6773  130.5027  149.5982 H   0  0  0  0  0  0  0  0  0  0  0  0  # atno 10718 bound_to 10713
  154.4777  135.2773  155.1595 H   0  0  0  0  0  0  0  0  0  0  0  0  # atno 10763 bound_to 10752
  154.3318  135.6188  153.5558 H   0  0  0  0  0  0  0  0  0  0  0  0  # atno 10764 bound_to 10752
  152.9871  135.5767  154.5171 H   0  0  0  0  0  0  0  0  0  0  0  0  # atno 10765 bound_to 10752
  139.8773  134.9184  156.4912 H   0  0  0  0  0  0  0  0  0  0  0  0  # atno 11005 bound_to 11000
  146.3456  140.1963  142.8589 LP  0  0  0  0  0  0  0  0  0  0  0  0  # atno 17320 bound_to 7965
  145.0155  140.8750  143.5198 LP  0  0  0  0  0  0  0  0  0  0  0  0  # atno 17321 bound_to 7965
  139.4794  144.5807  151.7937 LP  0  0  0  0  0  0  0  0  0  0  0  0  # atno 17342 bound_to 10162
  140.4925  144.1289  150.5953 LP  0  0  0  0  0  0  0  0  0  0  0  0  # atno 17343 bound_to 10162
  156.1893  130.6550  151.1043 LP  0  0  0  0  0  0  0  0  0  0  0  0  # atno 17370 bound_to 10713
  157.7056  131.0758  150.6678 LP  0  0  0  0  0  0  0  0  0  0  0  0  # atno 17371 bound_to 10713
  140.8657  133.8026  155.9311 LP  0  0  0  0  0  0  0  0  0  0  0  0  # atno 17394 bound_to 11000
  140.9004  134.2385  157.5045 LP  0  0  0  0  0  0  0  0  0  0  0  0  # atno 17395 bound_to 11000

$$$$
