AV-unprocessed.smi:2994|AV-procd|sdf|11405|dock3
  -GOLD-   2272016333D 1   1.00000     0.00000
 Structure written by MMmdl.
 47 49  0  0  0  0  0  0  0  0  1 V2000
  153.4262  133.3570  152.9146 C   0  0  0  0  0  0  0  0  0  0  0  0
  151.9707  133.4171  153.3986 C   0  0  1  0  0  0  0  0  0  0  0  0
  151.5991  134.8162  153.5861 N   0  0  0  0  0  0  0  0  0  0  0  0
  152.2337  135.6900  154.3808 C   0  0  0  0  0  0  0  0  0  0  0  0
  153.2219  135.3996  155.0537 O   0  0  0  0  0  0  0  0  0  0  0  0
  151.6401  136.8955  154.3395 N   0  0  0  0  0  0  0  0  0  0  0  0
  151.9870  138.0995  155.0131 C   0  0  0  0  0  0  0  0  0  0  0  0
  151.5462  139.3936  154.6438 C   0  0  0  0  0  0  0  0  0  0  0  0
  151.9623  140.4989  155.4102 C   0  0  0  0  0  0  0  0  0  0  0  0
  152.7941  140.2785  156.5307 C   0  0  0  0  0  0  0  0  0  0  0  0
  153.2759  141.4324  157.3612 C   0  0  0  0  0  0  0  0  0  0  0  0
  154.4563  141.4509  157.7129 O   0  0  0  0  0  0  0  0  0  0  0  0
  152.3919  142.4108  157.6829 N   0  0  0  0  0  0  0  0  0  0  0  0
  150.9276  142.3263  157.5568 C   0  0  0  0  0  0  0  0  0  0  0  0
  150.3097  142.1934  158.9612 C   0  0  0  0  0  0  0  0  0  0  0  0
  150.7475  143.3538  159.8733 C   0  0  0  0  0  0  0  0  0  0  0  0
  152.2755  143.5383  159.8577 C   0  0  0  0  0  0  0  0  0  0  0  0
  152.8009  143.6181  158.4132 C   0  0  0  0  0  0  0  0  0  0  0  0
  153.2253  139.0472  156.8830 N   0  0  0  0  0  0  0  0  0  0  0  0
  152.8240  137.9926  156.1432 C   0  0  0  0  0  0  0  0  0  0  0  0
  151.0525  132.6685  152.4464 C   0  0  0  0  0  0  0  0  0  0  0  0
  149.6817  132.2017  152.8766 C   0  0  0  0  0  0  0  0  0  0  0  0
  150.7804  131.1940  152.6286 C   0  0  0  0  0  0  0  0  0  0  0  0
  153.7642  132.3252  152.8138 H   0  0  0  0  0  0  0  0  0  0  0  0
  154.0963  133.8535  153.6174 H   0  0  0  0  0  0  0  0  0  0  0  0
  153.5427  133.8405  151.9438 H   0  0  0  0  0  0  0  0  0  0  0  0
  151.9322  132.9165  154.3682 H   0  0  0  0  0  0  0  0  0  0  0  0
  150.7937  135.1423  153.0723 H   0  0  0  0  0  0  0  0  0  0  0  0
  150.8157  136.9558  153.7600 H   0  0  0  0  0  0  0  0  0  0  0  0
  150.8984  139.5700  153.8008 H   0  0  0  0  0  0  0  0  0  0  0  0
  151.6428  141.4959  155.1433 H   0  0  0  0  0  0  0  0  0  0  0  0
  150.5577  143.2283  157.0672 H   0  0  0  0  0  0  0  0  0  0  0  0
  150.5823  141.4960  156.9440 H   0  0  0  0  0  0  0  0  0  0  0  0
  149.2220  142.1643  158.8917 H   0  0  0  0  0  0  0  0  0  0  0  0
  150.6168  141.2449  159.4042 H   0  0  0  0  0  0  0  0  0  0  0  0
  150.2737  144.2746  159.5310 H   0  0  0  0  0  0  0  0  0  0  0  0
  150.3976  143.1864  160.8922 H   0  0  0  0  0  0  0  0  0  0  0  0
  152.5489  144.4387  160.4083 H   0  0  0  0  0  0  0  0  0  0  0  0
  152.7511  142.7027  160.3732 H   0  0  0  0  0  0  0  0  0  0  0  0
  153.8824  143.7619  158.4167 H   0  0  0  0  0  0  0  0  0  0  0  0
  152.3897  144.4965  157.9133 H   0  0  0  0  0  0  0  0  0  0  0  0
  153.1867  137.0278  156.4663 H   0  0  0  0  0  0  0  0  0  0  0  0
  151.1372  133.0008  151.4132 H   0  0  0  0  0  0  0  0  0  0  0  0
  149.3850  132.3732  153.9095 H   0  0  0  0  0  0  0  0  0  0  0  0
  148.8792  132.2644  152.1447 H   0  0  0  0  0  0  0  0  0  0  0  0
  150.7093  130.5816  151.7321 H   0  0  0  0  0  0  0  0  0  0  0  0
  151.2134  130.7015  153.4971 H   0  0  0  0  0  0  0  0  0  0  0  0
  1  2  1  0  0  0  0
  1 24  1  0  0  0  0
  1 25  1  0  0  0  0
  1 26  1  0  0  0  0
  2  3  1  0  0  0  0
  2 21  1  0  0  0  0
  2 27  1  0  0  0  0
  3  4  1  0  0  0  0
  3 28  1  0  0  0  0
  4  5  2  0  0  0  0
  4  6  1  0  0  0  0
  6  7  1  0  0  0  0
  6 29  1  0  0  0  0
  7 20  1  0  0  0  0
  7  8  2  0  0  0  0
  8  9  1  0  0  0  0
  8 30  1  0  0  0  0
  9 10  2  0  0  0  0
  9 31  1  0  0  0  0
 10 11  1  0  0  0  0
 10 19  1  0  0  0  0
 11 12  2  0  0  0  0
 11 13  1  0  0  0  0
 13 18  1  0  0  0  0
 13 14  1  0  0  0  0
 14 15  1  0  0  0  0
 14 32  1  0  0  0  0
 14 33  1  0  0  0  0
 15 16  1  0  0  0  0
 15 34  1  0  0  0  0
 15 35  1  0  0  0  0
 16 17  1  0  0  0  0
 16 36  1  0  0  0  0
 16 37  1  0  0  0  0
 17 18  1  0  0  0  0
 17 38  1  0  0  0  0
 17 39  1  0  0  0  0
 18 40  1  0  0  0  0
 18 41  1  0  0  0  0
 19 20  2  0  0  0  0
 20 42  1  0  0  0  0
 21 23  1  0  0  0  0
 21 22  1  0  0  0  0
 21 43  1  0  0  0  0
 22 23  1  0  0  0  0
 22 44  1  0  0  0  0
 22 45  1  0  0  0  0
 23 46  1  0  0  0  0
 23 47  1  0  0  0  0
M  END
> <s_m_source_file>
AV-unprocessed.smi

> <i_m_source_file_index>
2994

> <i_lp_mmshare_version>
43012

> <i_f3d_flags>
0

> <s_epik_input>
W0NIMl0xW0NIMl1bQ0hdMVtDQEhdKFtDSDNdKVtOSF1DKD1PKVtOSF1jMltjSF1bY0hdYyhuW2NIXTIpQyg9TylOM1tDSDJdW0NIMl1bQ0gyXVtDSDJdW0NIMl0z

> <s_epik_cmdline>
J2VwaWtfcHl0aG9uJywgJy1waCcsICc3LjAnLCAnLXRuJywgJzgnLCAnLW1hJywgJzIwMCcsICctbWV0YWxfYmluZGluZycsICctaW1hZScsICc8aW5maWxlLm1hZT4nLCAnLW9tYWUnLCAnPG91dGZpbGUubWFlPic=

> <r_lp_tautomer_probability>
1

> <r_epik_Ionization_Penalty>
4.52104e-05

> <r_epik_Ionization_Penalty_Charging>
0

> <r_epik_Ionization_Penalty_Neutral>
4.52104e-05

> <r_epik_State_Penalty>
-0

> <r_epik_Charging_Adjusted_Penalty>
0

> <i_epik_Tot_Q>
0

> <i_epik_Tot_abs_Q>
0

> <r_epik_Metal_State_Penalty>
-0

> <b_epik_Metal_Only>
0

> <s_lp_Force_Field>
OPLS_2005

> <r_lp_Energy>
45.5302

> <b_lp_Chiralities_Consistent>
1

> <s_lp_Variant>
AV-unprocessed.smi:2994-2

> <Gold.Version>
5.8.1

> <Gold.Id.Protein>
6NUR|6NUR_protein|mol2

> <Gold.PLP.Fitness>
42.6836

> <Gold.PLP.PLP>
-37.4322

> <Gold.PLP.part.hbond>
-2.0000

> <Gold.PLP.part.metal>
0.0000

> <Gold.PLP.part.buried>
-5.6277

> <Gold.PLP.part.nonpolar>
-30.4404

> <Gold.PLP.part.repulsive>
0.0621

> <Gold.PLP.ligand.clash>
0.0000

> <Gold.PLP.ligand.torsion>
1.3572

> <Gold.PLP.Chemscore.Hbond>
1.9760

> <Gold.PLP.Chemscore.CHOScore>
0.0000

> <Gold.PLP.Chemscore.Metal>
0.0000

> <Gold.Chemscore.Hbonds>
donor molecule, donor type, donor heavy atom, donor atom, acceptor molecule, acceptor atom, score
      L1  H     3    28       P1  7949  0.09

> <Gold.PLP.Chemscore.Internal.Correction>
2.0378

> <Gold.Rescore>
     Score         DG    S(hbond)    S(metal)    S(lipo)     H(rot)  DE(clash)    DE(int)     intcor
     15.18     -19.13       1.67        0.00      93.98       1.14       0.01       3.95       ----

> <Gold.Chemscore.Fitness>
15.1751

> <Gold.Chemscore.DG>
-19.1285

> <Gold.Chemscore.ZeroCoef>
-5.4800

> <Gold.Chemscore.Hbond>
1.6680

> <Gold.Chemscore.Metal>
0.0000

> <Gold.Chemscore.Lipo>
93.9789

> <Gold.Chemscore.Internal_Hbond>
0.0000

> <Gold.Chemscore.DEClash>
0.0060

> <Gold.Chemscore.DEInternal>
3.9474

> <Gold.Chemscore.Rot>
1.1399

> <Gold.Chemscore.Internal.Correction>
   9.000000E+99

> <Gold.Chemscore.Hbond.Weighted>
-5.5710

> <Gold.Chemscore.Metal.Weighted>
-0.0000

> <Gold.Chemscore.Lipo.Weighted>
-10.9955

> <Gold.Chemscore.Internal_Hbond.Weighted>
0.0000

> <Gold.Chemscore.DEClash.Weighted>
0.0060

> <Gold.Chemscore.DEInternal.Weighted>
3.9474

> <Gold.Chemscore.Rot.Weighted>
2.9180

> <Gold.Chemscore.Internal.Correction.Weighted>
   9.000000E+99

> <Gold.Protein.RotatedTorsions>
[ 6907 6896 6895 6894 ] final  179.37 input  -60.11 | X-H torsion
[ 7974 7965 7964 7962 ] final   79.53 input  175.53 | X-H torsion
[ 8008 7997 7996 7995 ] final  176.74 input   59.86 | X-H torsion
[ 10167 10162 10161 10158 ] final    4.84 input  -65.29 | X-H torsion
[ 10718 10713 10712 10709 ] final   59.31 input   66.30 | X-H torsion
[ 10763 10752 10751 10750 ] final  -23.02 input  -60.55 | X-H torsion
[ 11005 11000 10999 10996 ] final  -78.36 input  -57.11 | X-H torsion

> <Gold.Protein.ActiveResidues>
 VAL166  LYS551  ARG553  GLY616  TRP617  ASP618  TYR619  PRO620  LYS621  CYS622 
 ASP623  PHE694  ASN695  SER759  ASP760  ASP761  ALA762  ILE779  LEU786  VAL792 
 PHE793  MET794  SER795  GLU796  ALA797  LYS798  CYS799  TRP800  GLU811  SER814 

> <Gold.Protein.RotatedAtoms>
  151.6728  133.3313  159.3200 H   0  0  0  0  0  0  0  0  0  0  0  0  # atno 6907 bound_to 6896
  150.7859  134.6848  159.6473 H   0  0  0  0  0  0  0  0  0  0  0  0  # atno 6908 bound_to 6896
  152.3929  134.6416  160.0152 H   0  0  0  0  0  0  0  0  0  0  0  0  # atno 6909 bound_to 6896
  145.6630  139.2476  143.1912 H   0  0  0  0  0  0  0  0  0  0  0  0  # atno 7974 bound_to 7965
  156.0732  140.1376  156.9803 H   0  0  0  0  0  0  0  0  0  0  0  0  # atno 8008 bound_to 7997
  154.4543  140.0967  156.6762 H   0  0  0  0  0  0  0  0  0  0  0  0  # atno 8009 bound_to 7997
  155.5195  140.3456  155.4406 H   0  0  0  0  0  0  0  0  0  0  0  0  # atno 8010 bound_to 7997
  140.6513  143.7537  150.7580 H   0  0  0  0  0  0  0  0  0  0  0  0  # atno 10167 bound_to 10162
  157.5666  130.8875  149.9197 H   0  0  0  0  0  0  0  0  0  0  0  0  # atno 10718 bound_to 10713
  153.6612  135.6976  153.5177 H   0  0  0  0  0  0  0  0  0  0  0  0  # atno 10763 bound_to 10752
  153.2630  135.4238  155.0912 H   0  0  0  0  0  0  0  0  0  0  0  0  # atno 10764 bound_to 10752
  154.8451  135.3559  154.6156 H   0  0  0  0  0  0  0  0  0  0  0  0  # atno 10765 bound_to 10752
  141.1664  133.7060  156.7959 H   0  0  0  0  0  0  0  0  0  0  0  0  # atno 11005 bound_to 11000
  146.1109  140.7429  142.9503 LP  0  0  0  0  0  0  0  0  0  0  0  0  # atno 17320 bound_to 7965
  144.7082  140.3938  143.7101 LP  0  0  0  0  0  0  0  0  0  0  0  0  # atno 17321 bound_to 7965
  140.1188  143.4631  152.2326 LP  0  0  0  0  0  0  0  0  0  0  0  0  # atno 17342 bound_to 10162
  139.5729  144.7472  151.3842 LP  0  0  0  0  0  0  0  0  0  0  0  0  # atno 17343 bound_to 10162
  156.0713  130.3685  150.0769 LP  0  0  0  0  0  0  0  0  0  0  0  0  # atno 17370 bound_to 10713
  156.8927  130.9594  151.3586 LP  0  0  0  0  0  0  0  0  0  0  0  0  # atno 17371 bound_to 10713
  140.2291  134.8699  157.3458 LP  0  0  0  0  0  0  0  0  0  0  0  0  # atno 17394 bound_to 11000
  140.1909  134.4373  155.7716 LP  0  0  0  0  0  0  0  0  0  0  0  0  # atno 17395 bound_to 11000

$$$$
