AV-unprocessed.smi:2748|AV-procd|sdf|10584|dock2
  -GOLD-   2272015 33D 1   1.00000     0.00000
 Structure written by MMmdl.
 29 31  0  0  0  0  0  0  0  0  2 V2000
  154.1686  135.4207  160.8280 O   0  0  0  0  0  0  0  0  0  0  0  0
  154.1906  136.6472  160.9201 C   0  0  0  0  0  0  0  0  0  0  0  0
  154.1877  137.4680  159.8288 N   0  5  0  0  0  0  0  0  0  0  0  0
  154.2098  138.8343  159.9112 C   0  0  0  0  0  0  0  0  0  0  0  0
  154.2158  139.5544  158.9123 O   0  0  0  0  0  0  0  0  0  0  0  0
  154.2267  139.4181  161.1460 N   0  0  0  0  0  0  0  0  0  0  0  0
  154.2524  140.8757  161.3276 C   0  0  0  0  0  0  0  0  0  0  0  0
  152.8598  141.5008  161.1217 C   0  0  1  0  0  0  0  0  0  0  0  0
  152.7496  142.9224  161.7348 C   0  0  0  0  0  0  0  0  0  0  0  0
  152.4140  143.7457  160.5410 C   0  0  0  0  0  0  0  0  0  0  0  0
  152.1900  145.1312  160.4706 C   0  0  0  0  0  0  0  0  0  0  0  0
  151.8879  145.6866  159.2077 C   0  0  0  0  0  0  0  0  0  0  0  0
  151.8183  144.8611  158.0595 C   0  0  0  0  0  0  0  0  0  0  0  0
  152.0493  143.4704  158.1598 C   0  0  0  0  0  0  0  0  0  0  0  0
  152.3479  142.9322  159.4240 C   0  0  0  0  0  0  0  0  0  0  0  0
  152.5941  141.6198  159.7100 O   0  0  0  0  0  0  0  0  0  0  0  0
  154.2383  138.6189  162.3015 C   0  0  0  0  0  0  0  0  0  0  0  0
  154.2219  137.2733  162.2403 C   0  0  0  0  0  0  0  0  0  0  0  0
  154.2398  136.3159  163.6785 Cl  0  0  0  0  0  0  0  0  0  0  0  0
  154.6258  141.1194  162.3236 H   0  0  0  0  0  0  0  0  0  0  0  0
  154.9658  141.3315  160.6392 H   0  0  0  0  0  0  0  0  0  0  0  0
  152.0912  140.8621  161.5590 H   0  0  0  0  0  0  0  0  0  0  0  0
  151.9553  142.9846  162.4791 H   0  0  0  0  0  0  0  0  0  0  0  0
  153.6832  143.2653  162.1821 H   0  0  0  0  0  0  0  0  0  0  0  0
  152.2474  145.7513  161.3531 H   0  0  0  0  0  0  0  0  0  0  0  0
  151.7092  146.7479  159.1170 H   0  0  0  0  0  0  0  0  0  0  0  0
  151.5867  145.2975  157.0991 H   0  0  0  0  0  0  0  0  0  0  0  0
  151.9970  142.8358  157.2875 H   0  0  0  0  0  0  0  0  0  0  0  0
  154.2678  139.1641  163.2336 H   0  0  0  0  0  0  0  0  0  0  0  0
  1  2  2  0  0  0  0
  2 18  1  0  0  0  0
  2  3  1  0  0  0  0
  3  4  1  0  0  0  0
  4  5  2  0  0  0  0
  4  6  1  0  0  0  0
  6  7  1  0  0  0  0
  6 17  1  0  0  0  0
  7  8  1  0  0  0  0
  7 20  1  0  0  0  0
  7 21  1  0  0  0  0
  8 16  1  0  0  0  0
  8  9  1  0  0  0  0
  8 22  1  0  0  0  0
  9 10  1  0  0  0  0
  9 23  1  0  0  0  0
  9 24  1  0  0  0  0
 10 15  2  0  0  0  0
 10 11  1  0  0  0  0
 11 12  2  0  0  0  0
 11 25  1  0  0  0  0
 12 13  1  0  0  0  0
 12 26  1  0  0  0  0
 13 14  2  0  0  0  0
 13 27  1  0  0  0  0
 14 15  1  0  0  0  0
 14 28  1  0  0  0  0
 15 16  1  0  0  0  0
 17 18  2  0  0  0  0
 17 29  1  0  0  0  0
 18 19  1  0  0  0  0
M  CHG  1   3  -1
M  END
> <s_m_source_file>
AV-unprocessed.smi

> <i_m_source_file_index>
2748

> <i_lp_mmshare_version>
43012

> <i_f3d_flags>
0

> <s_epik_input>
Tz1jMVtuSF1jKD1PKW4oW2NIXWMxQ2wpW0NIMl1bQ0BIXShbQ0gyXTIpT2MoYzIzKVtjSF1bY0hdW2NIXVtjSF0z

> <s_epik_cmdline>
J2VwaWtfcHl0aG9uJywgJy1waCcsICc3LjAnLCAnLXRuJywgJzgnLCAnLW1hJywgJzIwMCcsICctbWV0YWxfYmluZGluZycsICctaW1hZScsICc8aW5maWxlLm1hZT4nLCAnLW9tYWUnLCAnPG91dGZpbGUubWFlPic=

> <r_lp_tautomer_probability>
1

> <r_epik_Ionization_Penalty>
2.00749

> <r_epik_Ionization_Penalty_Charging>
2.26533e-08

> <r_epik_Ionization_Penalty_Neutral>
2.00749

> <r_epik_State_Penalty>
2.13675

> <r_epik_Charging_Adjusted_Penalty>
2.13675

> <i_epik_Tot_Q>
-1

> <i_epik_Tot_abs_Q>
1

> <r_epik_Metal_State_Penalty>
0.0208594

> <b_epik_Metal_Only>
0

> <s_lp_Force_Field>
OPLS_2005

> <r_lp_Energy>
29.9215

> <b_lp_Chiralities_Consistent>
1

> <s_lp_Variant>
AV-unprocessed.smi:2748-4

> <Gold.Version>
5.8.1

> <Gold.Id.Protein>
6NUR|6NUR_protein|mol2

> <Gold.PLP.Fitness>
50.5727

> <Gold.PLP.PLP>
-45.4006

> <Gold.PLP.part.hbond>
-2.0000

> <Gold.PLP.part.metal>
0.0000

> <Gold.PLP.part.buried>
-4.8930

> <Gold.PLP.part.nonpolar>
-38.3448

> <Gold.PLP.part.repulsive>
0.0000

> <Gold.PLP.ligand.clash>
0.0000

> <Gold.PLP.ligand.torsion>
0.4144

> <Gold.PLP.Chemscore.Hbond>
2.0000

> <Gold.PLP.Chemscore.CHOScore>
0.0000

> <Gold.PLP.Chemscore.Metal>
0.0000

> <Gold.Chemscore.Hbonds>
donor molecule, donor type, donor heavy atom, donor atom, acceptor molecule, acceptor atom, score
      P1  H  6896  6907       L1     1  0.99
      P1  H  7997  8010       L1     5  1.00

> <Gold.PLP.Chemscore.Internal.Correction>
0.0009

> <Gold.Rescore>
     Score         DG    S(hbond)    S(metal)    S(lipo)     H(rot)  DE(clash)    DE(int)     intcor
     21.45     -23.39       1.96        0.00     125.40       1.29       0.13       1.81       ----

> <Gold.Chemscore.Fitness>
21.4459

> <Gold.Chemscore.DG>
-23.3884

> <Gold.Chemscore.ZeroCoef>
-5.4800

> <Gold.Chemscore.Hbond>
1.9610

> <Gold.Chemscore.Metal>
0.0000

> <Gold.Chemscore.Lipo>
125.3998

> <Gold.Chemscore.Internal_Hbond>
0.0000

> <Gold.Chemscore.DEClash>
0.1303

> <Gold.Chemscore.DEInternal>
1.8122

> <Gold.Chemscore.Rot>
1.2942

> <Gold.Chemscore.Internal.Correction>
   9.000000E+99

> <Gold.Chemscore.Hbonds>
donor molecule, donor type, donor heavy atom, donor atom, acceptor molecule, acceptor atom, score
      P1  H  6896  6907       L1     1  0.83
      P1  H  7997  8010       L1     5  1.00

> <Gold.Chemscore.Hbond.Weighted>
-6.5497

> <Gold.Chemscore.Metal.Weighted>
-0.0000

> <Gold.Chemscore.Lipo.Weighted>
-14.6718

> <Gold.Chemscore.Internal_Hbond.Weighted>
0.0000

> <Gold.Chemscore.DEClash.Weighted>
0.1303

> <Gold.Chemscore.DEInternal.Weighted>
1.8122

> <Gold.Chemscore.Rot.Weighted>
3.3131

> <Gold.Chemscore.Internal.Correction.Weighted>
   9.000000E+99

> <Gold.Protein.RotatedTorsions>
[ 6907 6896 6895 6894 ] final   60.68 input  -60.11 | X-H torsion
[ 7974 7965 7964 7962 ] final   80.89 input  175.53 | X-H torsion
[ 8008 7997 7996 7995 ] final    0.59 input   59.86 | X-H torsion
[ 10167 10162 10161 10158 ] final  103.36 input  -65.29 | X-H torsion
[ 10718 10713 10712 10709 ] final -125.15 input   66.30 | X-H torsion
[ 10763 10752 10751 10750 ] final   46.78 input  -60.55 | X-H torsion
[ 11005 11000 10999 10996 ] final  -39.12 input  -57.11 | X-H torsion

> <Gold.Protein.ActiveResidues>
 VAL166  LYS551  ARG553  GLY616  TRP617  ASP618  TYR619  PRO620  LYS621  CYS622 
 ASP623  PHE694  ASN695  SER759  ASP760  ASP761  ALA762  ILE779  LEU786  VAL792 
 PHE793  MET794  SER795  GLU796  ALA797  LYS798  CYS799  TRP800  GLU811  SER814 

> <Gold.Protein.RotatedAtoms>
  152.4023  134.6265  160.0064 H   0  0  0  0  0  0  0  0  0  0  0  0  # atno 6907 bound_to 6896
  151.6466  133.3317  159.3150 H   0  0  0  0  0  0  0  0  0  0  0  0  # atno 6908 bound_to 6896
  150.7922  134.6997  159.6588 H   0  0  0  0  0  0  0  0  0  0  0  0  # atno 6909 bound_to 6896
  145.6453  139.2435  143.2007 H   0  0  0  0  0  0  0  0  0  0  0  0  # atno 7974 bound_to 7965
  154.6698  140.2609  155.7019 H   0  0  0  0  0  0  0  0  0  0  0  0  # atno 8008 bound_to 7997
  156.2654  140.2831  156.1125 H   0  0  0  0  0  0  0  0  0  0  0  0  # atno 8009 bound_to 7997
  155.1185  140.0376  157.2733 H   0  0  0  0  0  0  0  0  0  0  0  0  # atno 8010 bound_to 7997
  139.7269  144.7045  151.0783 H   0  0  0  0  0  0  0  0  0  0  0  0  # atno 10167 bound_to 10162
  156.1650  130.6628  151.0102 H   0  0  0  0  0  0  0  0  0  0  0  0  # atno 10718 bound_to 10713
  152.9807  135.5997  154.3656 H   0  0  0  0  0  0  0  0  0  0  0  0  # atno 10763 bound_to 10752
  154.3334  135.2768  155.2462 H   0  0  0  0  0  0  0  0  0  0  0  0  # atno 10764 bound_to 10752
  154.4576  135.5974  153.6289 H   0  0  0  0  0  0  0  0  0  0  0  0  # atno 10765 bound_to 10752
  141.0078  133.6923  156.2144 H   0  0  0  0  0  0  0  0  0  0  0  0  # atno 11005 bound_to 11000
  146.1247  140.7263  142.9440 LP  0  0  0  0  0  0  0  0  0  0  0  0  # atno 17320 bound_to 7965
  144.7142  140.4150  143.7057 LP  0  0  0  0  0  0  0  0  0  0  0  0  # atno 17321 bound_to 7965
  140.7764  143.5093  150.9672 LP  0  0  0  0  0  0  0  0  0  0  0  0  # atno 17342 bound_to 10162
  139.8781  143.7107  152.3160 LP  0  0  0  0  0  0  0  0  0  0  0  0  # atno 17343 bound_to 10162
  157.6761  131.0850  150.7491 LP  0  0  0  0  0  0  0  0  0  0  0  0  # atno 17370 bound_to 10713
  156.7552  130.4781  149.5448 LP  0  0  0  0  0  0  0  0  0  0  0  0  # atno 17371 bound_to 10713
  140.6783  134.4794  157.5588 LP  0  0  0  0  0  0  0  0  0  0  0  0  # atno 17394 bound_to 11000
  139.9073  134.8421  156.1658 LP  0  0  0  0  0  0  0  0  0  0  0  0  # atno 17395 bound_to 11000

$$$$
