#       Name:                AV-unprocessed.smi:3335
#       Creating user name   scv26
#       Creation time:       Fri Mar 27 19:23:58 2020


#       File generated by GOLD software.
#

@<TRIPOS>MOLECULE
AV-unprocessed.smi:3335
    50    51     1
SMALL
NO_CHARGES


@<TRIPOS>ATOM
      1 ****        -5.0763  -2.2611  -3.2920 C.3            1 S1                 0.0000
      2 ****        -3.8598  -1.5927  -2.7192 C.2            1 S1                 0.0000
      3 ****        -2.4939  -1.8821  -2.9965 C.2            1 S1                 0.0000
      4 ****        -1.6576  -1.1083  -2.3248 N.2            1 S1                 0.0000
      5 ****        -2.4562  -0.2986  -1.5935 N.pl3          1 S1                 0.0000
      6 ****        -1.8762   0.7031  -0.7073 C.3            1 S1                 0.0000
      7 ****        -1.0626   1.7230  -1.5274 C.3            1 S1                 0.0000
      8 ****        -1.0535   0.0564   0.4409 C.3            1 S1                 0.0000
      9 ****        -1.7974  -1.0849   1.1606 C.3            1 S1                 0.0000
     10 ****        -0.7513   1.0746   1.4477 N.3            1 S1                 0.0000
     11 ****         0.6735   1.4437   1.5422 C.3            1 S1                 0.0000
     12 ****         0.8308   2.6600   2.4669 C.3            1 S1                 0.0000
     13 ****         1.5659   0.2851   2.0419 C.2            1 S1                 0.0000
     14 ****         1.1646  -0.4094   2.9773 O.2            1 S1                 0.0000
     15 ****         2.7578   0.0573   1.4483 N.am           1 S1                 0.0000
     16 ****         3.6492  -1.0335   1.8405 C.3            1 S1                 0.0000
     17 ****         4.7488  -1.0761   0.7795 C.3            1 S1                 0.0000
     18 ****         4.7941   0.3446   0.2367 C.3            1 S1                 0.0000
     19 ****         3.3532   0.8387   0.3644 C.3            1 S1                 0.0000
     20 ****        -3.7902  -0.5701  -1.8160 C.2            1 S1                 0.0000
     21 ****        -5.1220  -2.1504  -4.3755 H              1 S1                 0.0000
     22 ****        -5.9985  -1.8432  -2.8876 H              1 S1                 0.0000
     23 ****        -5.0864  -3.3297  -3.0765 H              1 S1                 0.0000
     24 ****        -2.0876  -2.6284  -3.6633 H              1 S1                 0.0000
     25 ****        -2.7155   1.2388  -0.2602 H              1 S1                 0.0000
     26 ****        -0.7560   2.5713  -0.9158 H              1 S1                 0.0000
     27 ****        -1.6521   2.1206  -2.3540 H              1 S1                 0.0000
     28 ****        -0.1621   1.2729  -1.9472 H              1 S1                 0.0000
     29 ****        -0.1398  -0.3624   0.0159 H              1 S1                 0.0000
     30 ****        -1.9874  -1.9252   0.4929 H              1 S1                 0.0000
     31 ****        -2.7578  -0.7492   1.5535 H              1 S1                 0.0000
     32 ****        -1.2138  -1.4731   1.9958 H              1 S1                 0.0000
     33 ****        -1.1180   0.7900   2.3449 H              1 S1                 0.0000
     34 ****         0.9848   1.7521   0.5457 H              1 S1                 0.0000
     35 ****         1.8715   2.9810   2.5263 H              1 S1                 0.0000
     36 ****         0.4916   2.4407   3.4804 H              1 S1                 0.0000
     37 ****         0.2499   3.5067   2.0995 H              1 S1                 0.0000
     38 ****         4.0719  -0.8113   2.8214 H              1 S1                 0.0000
     39 ****         3.1254  -1.9886   1.9054 H              1 S1                 0.0000
     40 ****         5.7080  -1.4091   1.1770 H              1 S1                 0.0000
     41 ****         4.4609  -1.7617  -0.0185 H              1 S1                 0.0000
     42 ****         5.4465   0.9536   0.8638 H              1 S1                 0.0000
     43 ****         5.1699   0.3960  -0.7857 H              1 S1                 0.0000
     44 ****         2.8026   0.6455  -0.5576 H              1 S1                 0.0000
     45 ****         3.3259   1.9109   0.5637 H              1 S1                 0.0000
     46 ****        -4.5733  -0.0193  -1.3158 H              1 S1                 0.0000
     47 ****        -0.6581  -1.1195  -2.3518 LP             1 S1                 0.0000
     48 ****        -1.2074   1.9111   1.1438 LP             1 S1                 0.0000
     49 ****         0.2774  -0.2182   3.3974 LP             1 S1                 0.0000
     50 ****         1.7260  -1.1642   3.3164 LP             1 S1                 0.0000
@<TRIPOS>BOND
    1    1    2 1     
    2    1   21 1     
    3    1   22 1     
    4    1   23 1     
    5    2   20 2     
    6    2    3 1     
    7    3    4 2     
    8    3   24 1     
    9    4    5 1     
   10    5    6 1     
   11    5   20 1     
   12    6    7 1     
   13    6    8 1     
   14    6   25 1     
   15    7   26 1     
   16    7   27 1     
   17    7   28 1     
   18    8    9 1     
   19    8   10 1     
   20    8   29 1     
   21    9   30 1     
   22    9   31 1     
   23    9   32 1     
   24   10   11 1     
   25   10   33 1     
   26   11   12 1     
   27   11   13 1     
   28   11   34 1     
   29   12   35 1     
   30   12   36 1     
   31   12   37 1     
   32   13   14 2     
   33   13   15 am    
   34   15   19 1     
   35   15   16 1     
   36   16   17 1     
   37   16   38 1     
   38   16   39 1     
   39   17   18 1     
   40   17   40 1     
   41   17   41 1     
   42   18   19 1     
   43   18   42 1     
   44   18   43 1     
   45   19   44 1     
   46   19   45 1     
   47   20   46 1     
   48    4   47 1     
   49   10   48 1     
   50   14   49 1     
   51   14   50 1     
@<TRIPOS>SUBSTRUCTURE
      1 S1             1
@<TRIPOS>SET
LONE_PAIRS      STATIC     ATOMS    <user>   **** ""
4 47 48 49 50
DONOR_HYDROGENS      STATIC     ATOMS    <user>   **** ""
1 33
ATOM$BLUE        STATIC     ATOMS    COLORGROUP SYSTEM
4 47 48 49 50
ATOM$RED        STATIC     ATOMS    COLORGROUP SYSTEM
1 33
