AV-unprocessed.smi:1973|AV-procd|sdf|7977|dock5
  -GOLD-   2272010153D 1   1.00000     0.00000
 Structure written by MMmdl.
 48 50  0  0  0  0  0  0  0  0  2 V2000
  148.1431  136.6853  162.9351 C   0  0  0  0  0  0  0  0  0  0  0  0
  147.8776  135.7072  161.9452 O   0  0  0  0  0  0  0  0  0  0  0  0
  147.1773  134.5887  162.4624 C   0  0  0  0  0  0  0  0  0  0  0  0
  147.7174  133.3131  161.7993 C   0  0  0  0  0  0  0  0  0  0  0  0
  147.2712  133.2059  160.4069 N   0  0  0  0  0  0  0  0  0  0  0  0
  148.2998  133.2559  159.4812 N   0  0  0  0  0  0  0  0  0  0  0  0
  148.0390  133.1917  158.2155 C   0  0  0  0  0  0  0  0  0  0  0  0
  149.1153  133.2592  157.1885 C   0  0  0  0  0  0  0  0  0  0  0  0
  150.3089  133.2287  157.4926 O   0  0  0  0  0  0  0  0  0  0  0  0
  148.6918  133.3440  155.9144 N   0  0  0  0  0  0  0  0  0  0  0  0
  149.5588  133.3880  154.7424 C   0  0  0  0  0  0  0  0  0  0  0  0
  149.2405  132.2517  153.7521 C   0  0  1  0  0  0  0  0  0  0  0  0
  149.3892  130.8421  154.3252 C   0  0  0  0  0  0  0  0  0  0  0  0
  148.5045  129.9715  153.4241 C   0  0  0  0  0  0  0  0  0  0  0  0
  147.5854  130.8891  152.7106 N   0  3  1  0  0  0  0  0  0  0  0  0
  146.1725  130.4544  152.7068 C   0  0  0  0  0  0  0  0  0  0  0  0
  145.8809  129.3614  151.7066 C   0  0  0  0  0  0  0  0  0  0  0  0
  145.4430  130.7827  151.4261 C   0  0  0  0  0  0  0  0  0  0  0  0
  147.7961  132.2455  153.2554 C   0  0  0  0  0  0  0  0  0  0  0  0
  146.6711  133.0591  157.7432 C   0  0  0  0  0  0  0  0  0  0  0  0
  145.6779  133.0182  158.6583 C   0  0  0  0  0  0  0  0  0  0  0  0
  145.9439  133.1025  160.0952 C   0  0  0  0  0  0  0  0  0  0  0  0
  145.0553  133.0885  160.9463 O   0  0  0  0  0  0  0  0  0  0  0  0
  148.6841  137.5200  162.4897 H   0  0  0  0  0  0  0  0  0  0  0  0
  148.7565  136.2769  163.7392 H   0  0  0  0  0  0  0  0  0  0  0  0
  147.2180  137.0740  163.3629 H   0  0  0  0  0  0  0  0  0  0  0  0
  147.3047  134.5375  163.5450 H   0  0  0  0  0  0  0  0  0  0  0  0
  146.1099  134.6929  162.2605 H   0  0  0  0  0  0  0  0  0  0  0  0
  148.8082  133.3184  161.8375 H   0  0  0  0  0  0  0  0  0  0  0  0
  147.4121  132.4353  162.3715 H   0  0  0  0  0  0  0  0  0  0  0  0
  147.6954  133.3692  155.7492 H   0  0  0  0  0  0  0  0  0  0  0  0
  149.4256  134.3566  154.2597 H   0  0  0  0  0  0  0  0  0  0  0  0
  150.6043  133.3400  155.0519 H   0  0  0  0  0  0  0  0  0  0  0  0
  149.8936  132.3388  152.8819 H   0  0  0  0  0  0  0  0  0  0  0  0
  150.4258  130.5037  154.3481 H   0  0  0  0  0  0  0  0  0  0  0  0
  149.0080  130.8128  155.3470 H   0  0  0  0  0  0  0  0  0  0  0  0
  149.1052  129.4414  152.6844 H   0  0  0  0  0  0  0  0  0  0  0  0
  147.9694  129.2238  154.0119 H   0  0  0  0  0  0  0  0  0  0  0  0
  145.6523  130.4829  153.6628 H   0  0  0  0  0  0  0  0  0  0  0  0
  146.7081  128.9648  151.1203 H   0  0  0  0  0  0  0  0  0  0  0  0
  145.1047  128.6422  151.9605 H   0  0  0  0  0  0  0  0  0  0  0  0
  144.3786  130.9984  151.4953 H   0  0  0  0  0  0  0  0  0  0  0  0
  145.9789  131.3307  150.6531 H   0  0  0  0  0  0  0  0  0  0  0  0
  147.1135  132.4166  154.0899 H   0  0  0  0  0  0  0  0  0  0  0  0
  147.6076  133.0117  152.5026 H   0  0  0  0  0  0  0  0  0  0  0  0
  146.4455  132.9941  156.6888 H   0  0  0  0  0  0  0  0  0  0  0  0
  144.6562  132.9201  158.3216 H   0  0  0  0  0  0  0  0  0  0  0  0
  147.8997  130.9135  151.7509 H   0  0  0  0  0  0  0  0  0  0  0  0
  1  2  1  0  0  0  0
  1 24  1  0  0  0  0
  1 25  1  0  0  0  0
  1 26  1  0  0  0  0
  2  3  1  0  0  0  0
  3  4  1  0  0  0  0
  3 27  1  0  0  0  0
  3 28  1  0  0  0  0
  4  5  1  0  0  0  0
  4 29  1  0  0  0  0
  4 30  1  0  0  0  0
  5 22  1  0  0  0  0
  5  6  1  0  0  0  0
  6  7  2  0  0  0  0
  7  8  1  0  0  0  0
  7 20  1  0  0  0  0
  8  9  2  0  0  0  0
  8 10  1  0  0  0  0
 10 11  1  0  0  0  0
 10 31  1  0  0  0  0
 11 12  1  0  0  0  0
 11 32  1  0  0  0  0
 11 33  1  0  0  0  0
 12 19  1  0  0  0  0
 12 13  1  0  0  0  0
 12 34  1  0  0  0  0
 13 14  1  0  0  0  0
 13 35  1  0  0  0  0
 13 36  1  0  0  0  0
 14 15  1  0  0  0  0
 14 37  1  0  0  0  0
 14 38  1  0  0  0  0
 15 16  1  0  0  0  0
 15 19  1  0  0  0  0
 15 48  1  0  0  0  0
 16 18  1  0  0  0  0
 16 17  1  0  0  0  0
 16 39  1  0  0  0  0
 17 18  1  0  0  0  0
 17 40  1  0  0  0  0
 17 41  1  0  0  0  0
 18 42  1  0  0  0  0
 18 43  1  0  0  0  0
 19 44  1  0  0  0  0
 19 45  1  0  0  0  0
 20 21  2  0  0  0  0
 20 46  1  0  0  0  0
 21 22  1  0  0  0  0
 21 47  1  0  0  0  0
 22 23  2  0  0  0  0
M  CHG  1  15   1
M  END
> <s_m_source_file>
AV-unprocessed.smi

> <i_m_source_file_index>
1973

> <i_lp_mmshare_version>
43012

> <i_f3d_flags>
0

> <s_epik_input>
W0NIM11PW0NIMl1bQ0gyXW4xbmMoW2NIXVtjSF1jMT1PKUMoPU8pW05IXVtDSDJdW0NAQEhdMltDSDJdW0NIMl1OKFtDSDJdMilbQ0hdM1tDSDJdW0NIMl0z

> <s_epik_cmdline>
J2VwaWtfcHl0aG9uJywgJy1waCcsICc3LjAnLCAnLXRuJywgJzgnLCAnLW1hJywgJzIwMCcsICctbWV0YWxfYmluZGluZycsICctaW1hZScsICc8aW5maWxlLm1hZT4nLCAnLW9tYWUnLCAnPG91dGZpbGUubWFlPic=

> <r_lp_tautomer_probability>
1

> <r_epik_Ionization_Penalty>
0.000225706

> <r_epik_Ionization_Penalty_Charging>
0.000223776

> <r_epik_Ionization_Penalty_Neutral>
1.93004e-06

> <r_epik_State_Penalty>
-0

> <r_epik_Charging_Adjusted_Penalty>
0.000223776

> <i_epik_Tot_Q>
1

> <i_epik_Tot_abs_Q>
1

> <r_epik_Metal_State_Penalty>
-0

> <b_epik_Metal_Only>
0

> <s_lp_Force_Field>
OPLS_2005

> <r_lp_Energy>
57.2407

> <b_lp_Chiralities_Consistent>
1

> <s_lp_Variant>
AV-unprocessed.smi:1973-2

> <Gold.Version>
5.8.1

> <Gold.Id.Protein>
6NUR|6NUR_protein|mol2

> <Gold.PLP.Fitness>
44.0891

> <Gold.PLP.PLP>
-39.1595

> <Gold.PLP.part.hbond>
-2.0238

> <Gold.PLP.part.metal>
0.0000

> <Gold.PLP.part.buried>
-4.9990

> <Gold.PLP.part.nonpolar>
-31.6469

> <Gold.PLP.part.repulsive>
0.0567

> <Gold.PLP.ligand.clash>
0.3561

> <Gold.PLP.ligand.torsion>
0.9892

> <Gold.PLP.Chemscore.Hbond>
2.0000

> <Gold.PLP.Chemscore.CHOScore>
0.0000

> <Gold.PLP.Chemscore.Metal>
0.0000

> <Gold.Chemscore.Hbonds>
donor molecule, donor type, donor heavy atom, donor atom, acceptor molecule, acceptor atom, score
      L1  H    15    48       P1 10747  1.00
      P1  H  6896  6908       L1     9  1.00

> <Gold.PLP.Chemscore.Internal.Correction>
1.2641

> <Gold.Rescore>
     Score         DG    S(hbond)    S(metal)    S(lipo)     H(rot)  DE(clash)    DE(int)     intcor
     16.24     -17.21       2.00        0.00      86.44       1.97       0.00       0.97       ----

> <Gold.Chemscore.Fitness>
16.2449

> <Gold.Chemscore.DG>
-17.2132

> <Gold.Chemscore.ZeroCoef>
-5.4800

> <Gold.Chemscore.Hbond>
1.9957

> <Gold.Chemscore.Metal>
0.0000

> <Gold.Chemscore.Lipo>
86.4401

> <Gold.Chemscore.Internal_Hbond>
0.0000

> <Gold.Chemscore.DEClash>
0.0021

> <Gold.Chemscore.DEInternal>
0.9662

> <Gold.Chemscore.Rot>
1.9711

> <Gold.Chemscore.Internal.Correction>
   9.000000E+99

> <Gold.Chemscore.Hbonds>
donor molecule, donor type, donor heavy atom, donor atom, acceptor molecule, acceptor atom, score
      L1  H    15    48       P1 10747  1.00
      P1  H  6896  6908       L1     9  0.96

> <Gold.Chemscore.Hbond.Weighted>
-6.6657

> <Gold.Chemscore.Metal.Weighted>
-0.0000

> <Gold.Chemscore.Lipo.Weighted>
-10.1135

> <Gold.Chemscore.Internal_Hbond.Weighted>
0.0000

> <Gold.Chemscore.DEClash.Weighted>
0.0021

> <Gold.Chemscore.DEInternal.Weighted>
0.9662

> <Gold.Chemscore.Rot.Weighted>
5.0460

> <Gold.Chemscore.Internal.Correction.Weighted>
   9.000000E+99

> <Gold.Protein.RotatedTorsions>
[ 6907 6896 6895 6894 ] final  112.10 input  -60.11 | X-H torsion
[ 7974 7965 7964 7962 ] final  -84.19 input  175.53 | X-H torsion
[ 8008 7997 7996 7995 ] final  -85.10 input   59.86 | X-H torsion
[ 10167 10162 10161 10158 ] final  -93.73 input  -65.29 | X-H torsion
[ 10718 10713 10712 10709 ] final   25.27 input   66.30 | X-H torsion
[ 10763 10752 10751 10750 ] final  133.33 input  -60.55 | X-H torsion
[ 11005 11000 10999 10996 ] final  144.16 input  -57.11 | X-H torsion

> <Gold.Protein.ActiveResidues>
 VAL166  LYS551  ARG553  GLY616  TRP617  ASP618  TYR619  PRO620  LYS621  CYS622 
 ASP623  PHE694  ASN695  SER759  ASP760  ASP761  ALA762  ILE779  LEU786  VAL792 
 PHE793  MET794  SER795  GLU796  ALA797  LYS798  CYS799  TRP800  GLU811  SER814 

> <Gold.Protein.RotatedAtoms>
  152.4935  133.8564  159.7227 H   0  0  0  0  0  0  0  0  0  0  0  0  # atno 6907 bound_to 6896
  150.9087  133.7015  159.2867 H   0  0  0  0  0  0  0  0  0  0  0  0  # atno 6908 bound_to 6896
  151.4432  135.1026  159.9728 H   0  0  0  0  0  0  0  0  0  0  0  0  # atno 6909 bound_to 6896
  145.5099  140.9541  143.1713 H   0  0  0  0  0  0  0  0  0  0  0  0  # atno 7974 bound_to 7965
  154.6371  140.0596  156.9801 H   0  0  0  0  0  0  0  0  0  0  0  0  # atno 8008 bound_to 7997
  155.1575  140.3279  155.4400 H   0  0  0  0  0  0  0  0  0  0  0  0  # atno 8009 bound_to 7997
  156.2512  140.1936  156.6684 H   0  0  0  0  0  0  0  0  0  0  0  0  # atno 8010 bound_to 7997
  140.3217  143.3045  152.0039 H   0  0  0  0  0  0  0  0  0  0  0  0  # atno 10167 bound_to 10162
  157.1911  130.6846  149.6150 H   0  0  0  0  0  0  0  0  0  0  0  0  # atno 10718 bound_to 10713
  153.8053  135.3136  155.3395 H   0  0  0  0  0  0  0  0  0  0  0  0  # atno 10763 bound_to 10752
  154.8073  135.4690  154.0428 H   0  0  0  0  0  0  0  0  0  0  0  0  # atno 10764 bound_to 10752
  153.1789  135.6890  153.8593 H   0  0  0  0  0  0  0  0  0  0  0  0  # atno 10765 bound_to 10752
  140.0610  134.9204  157.1184 H   0  0  0  0  0  0  0  0  0  0  0  0  # atno 11005 bound_to 11000
  144.7733  139.6685  143.7185 LP  0  0  0  0  0  0  0  0  0  0  0  0  # atno 17320 bound_to 7965
  146.2173  139.5572  142.9641 LP  0  0  0  0  0  0  0  0  0  0  0  0  # atno 17321 bound_to 7965
  139.4873  144.6306  151.7078 LP  0  0  0  0  0  0  0  0  0  0  0  0  # atno 17342 bound_to 10162
  140.5477  144.0476  150.6114 LP  0  0  0  0  0  0  0  0  0  0  0  0  # atno 17343 bound_to 10162
  155.9711  130.4614  150.6109 LP  0  0  0  0  0  0  0  0  0  0  0  0  # atno 17370 bound_to 10713
  157.3860  131.0788  151.1436 LP  0  0  0  0  0  0  0  0  0  0  0  0  # atno 17371 bound_to 10713
  140.3770  134.2328  155.7173 LP  0  0  0  0  0  0  0  0  0  0  0  0  # atno 17394 bound_to 11000
  141.1973  133.8062  157.0633 LP  0  0  0  0  0  0  0  0  0  0  0  0  # atno 17395 bound_to 11000

$$$$
