#       Name:                AV-unprocessed.smi:100
#       Creating user name   scv26
#       Creation time:       Thu Mar 26 17:39:23 2020


#       File generated by GOLD software.
#

@<TRIPOS>MOLECULE
AV-unprocessed.smi:100
    40    42     1
SMALL
NO_CHARGES


@<TRIPOS>ATOM
      1 ****        -5.2969   0.3977   0.2327 N.pl3          1 S1                 0.0000
      2 ****        -4.0618   0.9135   0.1669 C.ar           1 S1                 0.0000
      3 ****        -3.9204   2.2581   0.2420 N.ar           1 S1                 0.0000
      4 ****        -2.6979   2.7970   0.1806 C.ar           1 S1                 0.0000
      5 ****        -1.5185   2.1826   0.0489 N.ar           1 S1                 0.0000
      6 ****        -1.6666   0.8276  -0.0297 C.ar           1 S1                 0.0000
      7 ****        -2.8974   0.1177   0.0237 C.ar           1 S1                 0.0000
      8 ****        -2.6612  -1.2471  -0.0788 N.2            1 S1                 0.0000
      9 ****        -1.3620  -1.3336  -0.1868 C.2            1 S1                 0.0000
     10 ****        -0.6875  -0.1312  -0.1697 N.pl3          1 S1                 0.0000
     11 ****         0.7814   0.1151  -0.2621 C.3            1 S1                 0.0000
     12 ****         1.3107  -0.8491  -1.1227 O.3            1 S1                 0.0000
     13 ****         2.4810  -1.4368  -0.5641 C.3            1 S1                 0.0000
     14 ****         3.7173  -0.6381  -1.0210 C.3            1 S1                 0.0000
     15 ****         4.1121  -1.0561  -2.3098 O.3            1 S1                 0.0000
     16 ****         2.2317  -1.3527   0.9435 C.3            1 S1                 0.0000
     17 ****         1.4947  -2.3966   1.3270 F              1 S1                 0.0000
     18 ****         1.4259  -0.0754   1.1205 C.3            1 S1                 0.0000
     19 ****         2.2685   1.0043   1.4708 O.3            1 S1                 0.0000
     20 ****        -5.4267  -0.6024   0.1797 H              1 S1                 0.0000
     21 ****        -6.0942   1.0088   0.3343 H              1 S1                 0.0000
     22 ****        -2.6587   3.8744   0.2458 H              1 S1                 0.0000
     23 ****        -0.8565  -2.2837  -0.2821 H              1 S1                 0.0000
     24 ****         0.8880   1.1175  -0.6799 H              1 S1                 0.0000
     25 ****         2.5759  -2.4781  -0.8758 H              1 S1                 0.0000
     26 ****         3.5348   0.4368  -1.0155 H              1 S1                 0.0000
     27 ****         4.5557  -0.8257  -0.3497 H              1 S1                 0.0000
     28 ****         4.8779  -0.5644  -2.5642 H              1 S1                 0.0000
     29 ****         3.1440  -1.3841   1.5406 H              1 S1                 0.0000
     30 ****         0.6682  -0.1789   1.8991 H              1 S1                 0.0000
     31 ****         1.7375   1.7820   1.5554 H              1 S1                 0.0000
     32 ****        -4.7244   2.8441   0.3427 LP             1 S1                 0.0000
     33 ****        -0.6382   2.6558   0.0125 LP             1 S1                 0.0000
     34 ****        -3.3299  -1.9905  -0.0716 LP             1 S1                 0.0000
     35 ****         1.5443  -0.4180  -1.9942 LP             1 S1                 0.0000
     36 ****         0.6269  -1.5624  -1.2763 LP             1 S1                 0.0000
     37 ****         3.3717  -0.8873  -2.9604 LP             1 S1                 0.0000
     38 ****         4.3277  -2.0325  -2.2961 LP             1 S1                 0.0000
     39 ****         2.9564   1.1410   0.7580 LP             1 S1                 0.0000
     40 ****         2.7233   0.8097   2.3399 LP             1 S1                 0.0000
@<TRIPOS>BOND
    1    1    2 1     
    2    1   20 1     
    3    1   21 1     
    4    2    7 ar    
    5    2    3 ar    
    6    3    4 ar    
    7    4    5 ar    
    8    4   22 1     
    9    5    6 ar    
   10    6   10 1     
   11    6    7 ar    
   12    7    8 1     
   13    8    9 2     
   14    9   10 1     
   15    9   23 1     
   16   10   11 1     
   17   11   18 1     
   18   11   12 1     
   19   11   24 1     
   20   12   13 1     
   21   13   14 1     
   22   13   16 1     
   23   13   25 1     
   24   14   15 1     
   25   14   26 1     
   26   14   27 1     
   27   15   28 1     
   28   16   17 1     
   29   16   18 1     
   30   16   29 1     
   31   18   19 1     
   32   18   30 1     
   33   19   31 1     
   34    3   32 1     
   35    5   33 1     
   36    8   34 1     
   37   12   35 1     
   38   12   36 1     
   39   15   37 1     
   40   15   38 1     
   41   19   39 1     
   42   19   40 1     
@<TRIPOS>SUBSTRUCTURE
      1 S1             1
@<TRIPOS>SET
LONE_PAIRS      STATIC     ATOMS    <user>   **** ""
9 32 33 34 35 36 37 38 39 40
DONOR_HYDROGENS      STATIC     ATOMS    <user>   **** ""
4 20 21 28 31
ATOM$BLUE        STATIC     ATOMS    COLORGROUP SYSTEM
9 32 33 34 35 36 37 38 39 40
ATOM$RED        STATIC     ATOMS    COLORGROUP SYSTEM
4 20 21 28 31
