AV-unprocessed.smi:2079|AV-procd|sdf|8477|dock3
  -GOLD-   2272011183D 1   1.00000     0.00000
 Structure written by MMmdl.
 42 43  0  0  0  0  0  0  0  0  2 V2000
  151.9585  140.6122  157.5932 C   0  0  0  0  0  0  0  0  0  0  0  0
  151.3670  139.8333  156.4686 C   0  0  0  0  0  0  0  0  0  0  0  0
  151.0095  138.5213  156.3324 C   0  0  0  0  0  0  0  0  0  0  0  0
  150.5197  138.4602  155.0007 C   0  0  0  0  0  0  0  0  0  0  0  0
  150.0431  137.2409  154.4551 N   0  0  0  0  0  0  0  0  0  0  0  0
  150.0104  136.0363  155.0502 C   0  0  0  0  0  0  0  0  0  0  0  0
  150.4014  135.7970  156.1931 O   0  0  0  0  0  0  0  0  0  0  0  0
  149.4944  135.1018  154.2384 N   0  0  0  0  0  0  0  0  0  0  0  0
  149.3151  133.6993  154.5953 C   0  0  0  0  0  0  0  0  0  0  0  0
  148.5371  132.9344  153.5059 C   0  0  0  0  0  0  0  0  0  0  0  0
  147.6212  133.8000  152.7151 N   0  3  2  0  0  0  0  0  0  0  0  0
  146.6097  134.4716  153.5760 C   0  0  0  0  0  0  0  0  0  0  0  0
  145.8172  135.5291  152.7916 C   0  0  0  0  0  0  0  0  0  0  0  0
  145.1584  134.9167  151.5508 C   0  0  0  0  0  0  0  0  0  0  0  0
  146.2185  134.2158  150.6906 C   0  0  0  0  0  0  0  0  0  0  0  0
  147.0254  133.1723  151.4930 C   0  0  2  0  0  0  0  0  0  0  0  0
  146.2015  131.9003  151.7887 C   0  0  0  0  0  0  0  0  0  0  0  0
  150.5686  139.6300  154.3816 N   0  0  0  0  0  0  0  0  0  0  0  0
  151.1132  140.5157  155.3190 O   0  0  0  0  0  0  0  0  0  0  0  0
  151.9090  140.0489  158.5252 H   0  0  0  0  0  0  0  0  0  0  0  0
  151.4247  141.5519  157.7371 H   0  0  0  0  0  0  0  0  0  0  0  0
  153.0047  140.8438  157.3931 H   0  0  0  0  0  0  0  0  0  0  0  0
  151.0897  137.7346  157.0680 H   0  0  0  0  0  0  0  0  0  0  0  0
  149.6850  137.2938  153.5129 H   0  0  0  0  0  0  0  0  0  0  0  0
  149.1969  135.3813  153.3148 H   0  0  0  0  0  0  0  0  0  0  0  0
  150.2850  133.2325  154.7764 H   0  0  0  0  0  0  0  0  0  0  0  0
  148.7759  133.6824  155.5418 H   0  0  0  0  0  0  0  0  0  0  0  0
  149.2218  132.4014  152.8459 H   0  0  0  0  0  0  0  0  0  0  0  0
  147.9333  132.1665  153.9913 H   0  0  0  0  0  0  0  0  0  0  0  0
  145.9347  133.7322  154.0078 H   0  0  0  0  0  0  0  0  0  0  0  0
  147.1086  134.9601  154.4140 H   0  0  0  0  0  0  0  0  0  0  0  0
  145.0588  135.9785  153.4335 H   0  0  0  0  0  0  0  0  0  0  0  0
  146.4853  136.3371  152.4904 H   0  0  0  0  0  0  0  0  0  0  0  0
  144.3864  134.2071  151.8500 H   0  0  0  0  0  0  0  0  0  0  0  0
  144.6578  135.6921  150.9702 H   0  0  0  0  0  0  0  0  0  0  0  0
  145.7479  133.7487  149.8249 H   0  0  0  0  0  0  0  0  0  0  0  0
  146.9027  134.9664  150.2920 H   0  0  0  0  0  0  0  0  0  0  0  0
  147.8448  132.8738  150.8405 H   0  0  0  0  0  0  0  0  0  0  0  0
  145.7752  131.4975  150.8696 H   0  0  0  0  0  0  0  0  0  0  0  0
  145.3740  132.0901  152.4716 H   0  0  0  0  0  0  0  0  0  0  0  0
  146.8158  131.1103  152.2198 H   0  0  0  0  0  0  0  0  0  0  0  0
  148.2042  134.5489  152.3693 H   0  0  0  0  0  0  0  0  0  0  0  0
  1  2  1  0  0  0  0
  1 20  1  0  0  0  0
  1 21  1  0  0  0  0
  1 22  1  0  0  0  0
  2 19  1  0  0  0  0
  2  3  2  0  0  0  0
  3  4  1  0  0  0  0
  3 23  1  0  0  0  0
  4  5  1  0  0  0  0
  4 18  2  0  0  0  0
  5  6  1  0  0  0  0
  5 24  1  0  0  0  0
  6  7  2  0  0  0  0
  6  8  1  0  0  0  0
  8  9  1  0  0  0  0
  8 25  1  0  0  0  0
  9 10  1  0  0  0  0
  9 26  1  0  0  0  0
  9 27  1  0  0  0  0
 10 11  1  0  0  0  0
 10 28  1  0  0  0  0
 10 29  1  0  0  0  0
 11 16  1  0  0  0  0
 11 12  1  0  0  0  0
 11 42  1  0  0  0  0
 12 13  1  0  0  0  0
 12 30  1  0  0  0  0
 12 31  1  0  0  0  0
 13 14  1  0  0  0  0
 13 32  1  0  0  0  0
 13 33  1  0  0  0  0
 14 15  1  0  0  0  0
 14 34  1  0  0  0  0
 14 35  1  0  0  0  0
 15 16  1  0  0  0  0
 15 36  1  0  0  0  0
 15 37  1  0  0  0  0
 16 17  1  0  0  0  0
 16 38  1  0  0  0  0
 17 39  1  0  0  0  0
 17 40  1  0  0  0  0
 17 41  1  0  0  0  0
 18 19  1  0  0  0  0
M  CHG  1  11   1
M  END
> <s_m_source_file>
AV-unprocessed.smi

> <i_m_source_file_index>
2079

> <i_lp_mmshare_version>
43012

> <i_f3d_flags>
0

> <s_epik_input>
W0NIM11jMVtjSF1jKG5vMSlbTkhdQyg9TylbTkhdW0NIMl1bQ0gyXU4yW0NIMl1bQ0gyXVtDSDJdW0NIMl1bQ0BIXTJbQ0gzXQ==

> <s_epik_cmdline>
J2VwaWtfcHl0aG9uJywgJy1waCcsICc3LjAnLCAnLXRuJywgJzgnLCAnLW1hJywgJzIwMCcsICctbWV0YWxfYmluZGluZycsICctaW1hZScsICc8aW5maWxlLm1hZT4nLCAnLW9tYWUnLCAnPG91dGZpbGUubWFlPic=

> <r_epik_Ionization_Penalty>
0.00265971

> <r_epik_Ionization_Penalty_Charging>
0.00262393

> <r_epik_Ionization_Penalty_Neutral>
3.57846e-05

> <r_epik_State_Penalty>
0.00182566

> <r_epik_Charging_Adjusted_Penalty>
0.00444959

> <i_epik_Tot_Q>
1

> <i_epik_Tot_abs_Q>
1

> <r_epik_Metal_State_Penalty>
0.0216344

> <b_epik_Metal_Only>
0

> <s_lp_Force_Field>
OPLS_2005

> <r_lp_Energy>
16.7127

> <b_lp_Chiralities_Consistent>
1

> <s_lp_Variant>
AV-unprocessed.smi:2079-3

> <Gold.Version>
5.8.1

> <Gold.Id.Protein>
6NUR|6NUR_protein|mol2

> <Gold.PLP.Fitness>
41.2854

> <Gold.PLP.PLP>
-30.0465

> <Gold.PLP.part.hbond>
-5.2561

> <Gold.PLP.part.metal>
0.0000

> <Gold.PLP.part.buried>
-3.4497

> <Gold.PLP.part.nonpolar>
-20.8797

> <Gold.PLP.part.repulsive>
0.2849

> <Gold.PLP.ligand.clash>
0.0000

> <Gold.PLP.ligand.torsion>
0.2680

> <Gold.PLP.Chemscore.Hbond>
3.9048

> <Gold.PLP.Chemscore.CHOScore>
0.0000

> <Gold.PLP.Chemscore.Metal>
0.0000

> <Gold.Chemscore.Hbonds>
donor molecule, donor type, donor heavy atom, donor atom, acceptor molecule, acceptor atom, score
      L1  H     5    24       P1  7948  0.86
      L1  H     8    25       P1  7948  1.00
      L1  H    11    42       P1  7948  1.90

> <Gold.PLP.Chemscore.Internal.Correction>
0.0605

> <Gold.Rescore>
     Score         DG    S(hbond)    S(metal)    S(lipo)     H(rot)  DE(clash)    DE(int)     intcor
     13.15     -15.79       2.51        0.00      50.93       1.57       0.00       2.64       ----

> <Gold.Chemscore.Fitness>
13.1491

> <Gold.Chemscore.DG>
-15.7918

> <Gold.Chemscore.ZeroCoef>
-5.4800

> <Gold.Chemscore.Hbond>
2.5064

> <Gold.Chemscore.Metal>
0.0000

> <Gold.Chemscore.Lipo>
50.9311

> <Gold.Chemscore.Internal_Hbond>
0.0000

> <Gold.Chemscore.DEClash>
0.0047

> <Gold.Chemscore.DEInternal>
2.6380

> <Gold.Chemscore.Rot>
1.5697

> <Gold.Chemscore.Internal.Correction>
   9.000000E+99

> <Gold.Chemscore.Hbonds>
donor molecule, donor type, donor heavy atom, donor atom, acceptor molecule, acceptor atom, score
      L1  H     5    24       P1  7948  0.60
      L1  H     8    25       P1  7948  0.30
      L1  H    11    42       P1  7948  0.22

> <Gold.Chemscore.Hbond.Weighted>
-8.3714

> <Gold.Chemscore.Metal.Weighted>
-0.0000

> <Gold.Chemscore.Lipo.Weighted>
-5.9589

> <Gold.Chemscore.Internal_Hbond.Weighted>
0.0000

> <Gold.Chemscore.DEClash.Weighted>
0.0047

> <Gold.Chemscore.DEInternal.Weighted>
2.6380

> <Gold.Chemscore.Rot.Weighted>
4.0185

> <Gold.Chemscore.Internal.Correction.Weighted>
   9.000000E+99

> <Gold.Protein.RotatedTorsions>
[ 6907 6896 6895 6894 ] final   29.04 input  -60.11 | X-H torsion
[ 7974 7965 7964 7962 ] final  134.69 input  175.53 | X-H torsion
[ 8008 7997 7996 7995 ] final   33.05 input   59.86 | X-H torsion
[ 10167 10162 10161 10158 ] final -118.96 input  -65.29 | X-H torsion
[ 10718 10713 10712 10709 ] final  178.68 input   66.30 | X-H torsion
[ 10763 10752 10751 10750 ] final    7.16 input  -60.55 | X-H torsion
[ 11005 11000 10999 10996 ] final   75.04 input  -57.11 | X-H torsion

> <Gold.Protein.ActiveResidues>
 VAL166  LYS551  ARG553  GLY616  TRP617  ASP618  TYR619  PRO620  LYS621  CYS622 
 ASP623  PHE694  ASN695  SER759  ASP760  ASP761  ALA762  ILE779  LEU786  VAL792 
 PHE793  MET794  SER795  GLU796  ALA797  LYS798  CYS799  TRP800  GLU811  SER814 

> <Gold.Protein.RotatedAtoms>
  152.0257  134.9797  160.0571 H   0  0  0  0  0  0  0  0  0  0  0  0  # atno 6907 bound_to 6896
  152.1293  133.4394  159.4721 H   0  0  0  0  0  0  0  0  0  0  0  0  # atno 6908 bound_to 6896
  150.6855  134.2358  159.4496 H   0  0  0  0  0  0  0  0  0  0  0  0  # atno 6909 bound_to 6896
  144.9739  139.4576  143.5419 H   0  0  0  0  0  0  0  0  0  0  0  0  # atno 7974 bound_to 7965
  155.1324  140.3258  155.4471 H   0  0  0  0  0  0  0  0  0  0  0  0  # atno 8008 bound_to 7997
  156.2630  140.2008  156.6392 H   0  0  0  0  0  0  0  0  0  0  0  0  # atno 8009 bound_to 7997
  154.6602  140.0548  157.0041 H   0  0  0  0  0  0  0  0  0  0  0  0  # atno 8010 bound_to 7997
  140.0518  143.5053  152.2078 H   0  0  0  0  0  0  0  0  0  0  0  0  # atno 10167 bound_to 10162
  156.8870  130.9834  151.3054 H   0  0  0  0  0  0  0  0  0  0  0  0  # atno 10718 bound_to 10713
  153.2394  135.6902  153.7800 H   0  0  0  0  0  0  0  0  0  0  0  0  # atno 10763 bound_to 10752
  153.6935  135.3309  155.3208 H   0  0  0  0  0  0  0  0  0  0  0  0  # atno 10764 bound_to 10752
  154.8349  135.4551  154.1310 H   0  0  0  0  0  0  0  0  0  0  0  0  # atno 10765 bound_to 10752
  139.9362  134.7484  156.1222 H   0  0  0  0  0  0  0  0  0  0  0  0  # atno 11005 bound_to 11000
  146.3390  139.8968  142.8800 LP  0  0  0  0  0  0  0  0  0  0  0  0  # atno 17320 bound_to 7965
  145.2519  141.0047  143.3876 LP  0  0  0  0  0  0  0  0  0  0  0  0  # atno 17321 bound_to 7965
  139.5948  144.7563  151.3312 LP  0  0  0  0  0  0  0  0  0  0  0  0  # atno 17342 bound_to 10162
  140.7213  143.7127  150.7757 LP  0  0  0  0  0  0  0  0  0  0  0  0  # atno 17343 bound_to 10162
  157.6106  130.8580  149.8946 LP  0  0  0  0  0  0  0  0  0  0  0  0  # atno 17370 bound_to 10713
  156.0648  130.3694  150.0902 LP  0  0  0  0  0  0  0  0  0  0  0  0  # atno 17371 bound_to 10713
  141.0977  133.6689  156.2682 LP  0  0  0  0  0  0  0  0  0  0  0  0  # atno 17394 bound_to 11000
  140.6069  134.5497  157.5527 LP  0  0  0  0  0  0  0  0  0  0  0  0  # atno 17395 bound_to 11000

$$$$
