#       Name:                AV-unprocessed.smi:658
#       Creating user name   scv26
#       Creation time:       Fri Mar 27 00:18:40 2020


#       File generated by GOLD software.
#

@<TRIPOS>MOLECULE
AV-unprocessed.smi:658
    39    39     1
SMALL
NO_CHARGES


@<TRIPOS>ATOM
      1 ****        -2.1252  -0.3636   1.5113 C.3            1 S1                 0.0000
      2 ****        -1.7517   0.0757   0.0821 C.3            1 S1                 0.0000
      3 ****        -0.2870   0.2608  -0.0482 N.4            1 S1                 1.0000
      4 ****         0.2647   1.4629   0.6088 C.3            1 S1                 0.0000
      5 ****         1.7662   1.5882   0.3316 C.3            1 S1                 0.0000
      6 ****         2.3824   2.8296   0.9915 C.3            1 S1                 0.0000
      7 ****         4.2052   2.9109   0.7196 S.o2           1 S1                 0.0000
      8 ****         4.7212   1.8621   1.8323 N.pl3          1 S1                -1.0000
      9 ****         4.4467   2.4293  -0.6491 O.2            1 S1                 0.0000
     10 ****         4.5932   4.2929   1.0391 O.2            1 S1                 0.0000
     11 ****        -2.2839  -0.9081  -0.9927 C.3            1 S1                 0.0000
     12 ****        -2.0882  -0.3921  -2.4298 C.3            1 S1                 0.0000
     13 ****        -1.7608  -2.2625  -0.8343 N.pl3          1 S1                 0.0000
     14 ****        -0.5380  -2.7763  -1.2228 C.2            1 S1                 0.0000
     15 ****        -0.4991  -4.0837  -0.8323 C.2            1 S1                 0.0000
     16 ****        -1.7562  -4.2844  -0.1984 C.2            1 S1                 0.0000
     17 ****        -2.5047  -3.1936  -0.1965 N.2            1 S1                 0.0000
     18 ****        -3.1947  -0.5592   1.5915 H              1 S1                 0.0000
     19 ****        -1.8872   0.4055   2.2456 H              1 S1                 0.0000
     20 ****        -1.5998  -1.2733   1.8038 H              1 S1                 0.0000
     21 ****        -2.2261   1.0402  -0.1055 H              1 S1                 0.0000
     22 ****         0.1800  -0.5580   0.3148 H              1 S1                 0.0000
     23 ****        -0.2554   2.3481   0.2405 H              1 S1                 0.0000
     24 ****         0.0951   1.4092   1.6840 H              1 S1                 0.0000
     25 ****         2.2766   0.6950   0.6944 H              1 S1                 0.0000
     26 ****         1.9344   1.6255  -0.7453 H              1 S1                 0.0000
     27 ****         1.9486   3.7318   0.5601 H              1 S1                 0.0000
     28 ****         2.1932   2.8574   2.0649 H              1 S1                 0.0000
     29 ****         4.9618   2.3886   2.6808 H              1 S1                 0.0000
     30 ****        -3.3645  -0.9711  -0.8499 H              1 S1                 0.0000
     31 ****        -2.5632   0.5801  -2.5632 H              1 S1                 0.0000
     32 ****        -2.5349  -1.0753  -3.1531 H              1 S1                 0.0000
     33 ****        -1.0345  -0.2820  -2.6868 H              1 S1                 0.0000
     34 ****         0.1977  -2.1781  -1.7398 H              1 S1                 0.0000
     35 ****         0.3057  -4.7895  -0.9761 H              1 S1                 0.0000
     36 ****        -2.1433  -5.1825   0.2599 H              1 S1                 0.0000
     37 ****        -0.0759   0.3383  -1.0328 H              1 S1                 0.0000
     38 ****         4.7941   0.8716   1.7159 LP             1 S1                 0.0000
     39 ****        -3.4196  -3.0823   0.1915 LP             1 S1                 0.0000
@<TRIPOS>BOND
    1    1    2 1     
    2    1   18 1     
    3    1   19 1     
    4    1   20 1     
    5    2    3 1     
    6    2   11 1     
    7    2   21 1     
    8    3    4 1     
    9    3   22 1     
   10    3   37 1     
   11    4    5 1     
   12    4   23 1     
   13    4   24 1     
   14    5    6 1     
   15    5   25 1     
   16    5   26 1     
   17    6    7 1     
   18    6   27 1     
   19    6   28 1     
   20    7    8 1     
   21    7    9 2     
   22    7   10 2     
   23    8   29 1     
   24   11   12 1     
   25   11   13 1     
   26   11   30 1     
   27   12   31 1     
   28   12   32 1     
   29   12   33 1     
   30   13   17 1     
   31   13   14 1     
   32   14   15 2     
   33   14   34 1     
   34   15   16 1     
   35   15   35 1     
   36   16   17 2     
   37   16   36 1     
   38    8   38 1     
   39   17   39 1     
@<TRIPOS>SUBSTRUCTURE
      1 S1             1
@<TRIPOS>SET
LONE_PAIRS      STATIC     ATOMS    <user>   **** ""
4 38 9 10 39
DONOR_HYDROGENS      STATIC     ATOMS    <user>   **** ""
3 22 37 29
ATOM$BLUE        STATIC     ATOMS    COLORGROUP SYSTEM
4 38 9 10 39
ATOM$RED        STATIC     ATOMS    COLORGROUP SYSTEM
3 22 37 29
