AV-unprocessed.smi:1534|AV-procd|sdf|6169|dock7
  -GOLD-   22720 6313D 1   1.00000     0.00000
 Structure written by MMmdl.
 37 38  0  0  0  0  0  0  0  0  2 V2000
  147.1078  139.3803  154.2555 O   0  0  0  0  0  0  0  0  0  0  0  0
  147.6828  138.5692  153.5331 C   0  0  0  0  0  0  0  0  0  0  0  0
  147.0375  137.7095  152.7277 N   0  0  0  0  0  0  0  0  0  0  0  0
  145.5895  137.5415  152.6651 C   0  0  0  0  0  0  0  0  0  0  0  0
  145.1183  136.9231  151.3330 C   0  0  0  0  0  0  0  0  0  0  0  0
  145.2966  135.4152  151.2635 C   0  0  0  0  0  0  0  0  0  0  0  0
  144.2272  134.5479  150.9516 C   0  0  0  0  0  0  0  0  0  0  0  0
  144.4648  133.1593  150.8788 C   0  0  0  0  0  0  0  0  0  0  0  0
  145.7653  132.6676  151.1161 C   0  0  0  0  0  0  0  0  0  0  0  0
  146.7967  133.5779  151.4240 C   0  0  0  0  0  0  0  0  0  0  0  0
  146.5284  134.9004  151.4869 N   0  3  0  0  0  0  0  0  0  0  0  0
  149.0236  138.4747  153.4947 N   0  0  0  0  0  0  0  0  0  0  0  0
  150.0010  139.2630  154.2469 C   0  0  1  0  0  0  0  0  0  0  0  0
  149.5078  140.6979  154.5252 C   0  0  0  0  0  0  0  0  0  0  0  0
  150.3820  141.3232  155.6220 C   0  0  0  0  0  0  0  0  0  0  0  0
  151.0357  139.9314  156.6228 S   0  0  0  0  0  0  0  0  0  0  0  0
  152.4990  139.8939  156.4778 O   0  0  0  0  0  0  0  0  0  0  0  0
  150.4040  139.9284  157.9507 O   0  0  0  0  0  0  0  0  0  0  0  0
  150.3000  138.6058  155.5985 C   0  0  0  0  0  0  0  0  0  0  0  0
  147.5916  137.0957  152.1485 H   0  0  0  0  0  0  0  0  0  0  0  0
  145.2384  136.9442  153.5081 H   0  0  0  0  0  0  0  0  0  0  0  0
  145.1433  138.5294  152.7821 H   0  0  0  0  0  0  0  0  0  0  0  0
  144.0650  137.1584  151.1718 H   0  0  0  0  0  0  0  0  0  0  0  0
  145.6576  137.3840  150.5047 H   0  0  0  0  0  0  0  0  0  0  0  0
  143.2376  134.9400  150.7664 H   0  0  0  0  0  0  0  0  0  0  0  0
  143.6595  132.4796  150.6409 H   0  0  0  0  0  0  0  0  0  0  0  0
  145.9681  131.6078  151.0626 H   0  0  0  0  0  0  0  0  0  0  0  0
  147.8197  133.2910  151.6194 H   0  0  0  0  0  0  0  0  0  0  0  0
  149.4077  137.8312  152.8174 H   0  0  0  0  0  0  0  0  0  0  0  0
  150.9440  139.3169  153.6991 H   0  0  0  0  0  0  0  0  0  0  0  0
  149.5043  141.3113  153.6237 H   0  0  0  0  0  0  0  0  0  0  0  0
  148.4778  140.6576  154.8831 H   0  0  0  0  0  0  0  0  0  0  0  0
  151.2306  141.8545  155.1907 H   0  0  0  0  0  0  0  0  0  0  0  0
  149.8275  142.0138  156.2577 H   0  0  0  0  0  0  0  0  0  0  0  0
  149.3839  138.2760  156.0901 H   0  0  0  0  0  0  0  0  0  0  0  0
  150.9842  137.7601  155.5279 H   0  0  0  0  0  0  0  0  0  0  0  0
  147.2898  135.5422  151.7096 H   0  0  0  0  0  0  0  0  0  0  0  0
  1  2  2  0  0  0  0
  2  3  1  0  0  0  0
  2 12  1  0  0  0  0
  3  4  1  0  0  0  0
  3 20  1  0  0  0  0
  4  5  1  0  0  0  0
  4 21  1  0  0  0  0
  4 22  1  0  0  0  0
  5  6  1  0  0  0  0
  5 23  1  0  0  0  0
  5 24  1  0  0  0  0
  6 11  1  0  0  0  0
  6  7  2  0  0  0  0
  7  8  1  0  0  0  0
  7 25  1  0  0  0  0
  8  9  2  0  0  0  0
  8 26  1  0  0  0  0
  9 10  1  0  0  0  0
  9 27  1  0  0  0  0
 10 11  2  0  0  0  0
 10 28  1  0  0  0  0
 11 37  1  0  0  0  0
 12 13  1  0  0  0  0
 12 29  1  0  0  0  0
 13 19  1  0  0  0  0
 13 14  1  0  0  0  0
 13 30  1  0  0  0  0
 14 15  1  0  0  0  0
 14 31  1  0  0  0  0
 14 32  1  0  0  0  0
 15 16  1  0  0  0  0
 15 33  1  0  0  0  0
 15 34  1  0  0  0  0
 16 17  2  0  0  0  0
 16 18  2  0  0  0  0
 16 19  1  0  0  0  0
 19 35  1  0  0  0  0
 19 36  1  0  0  0  0
M  CHG  1  11   1
M  END
> <s_m_source_file>
AV-unprocessed.smi

> <i_m_source_file_index>
1534

> <i_lp_mmshare_version>
43012

> <i_f3d_flags>
0

> <s_epik_input>
Tz1TMSg9TylbQ0gyXVtDSDJdW0NASF0oW0NIMl0xKVtOSF1DKD1PKVtOSF1bQ0gyXVtDSDJdYzJbY0hdW2NIXVtjSF1bY0hdbjI=

> <s_epik_cmdline>
J2VwaWtfcHl0aG9uJywgJy1waCcsICc3LjAnLCAnLXRuJywgJzgnLCAnLW1hJywgJzIwMCcsICctbWV0YWxfYmluZGluZycsICctaW1hZScsICc8aW5maWxlLm1hZT4nLCAnLW9tYWUnLCAnPG91dGZpbGUubWFlPic=

> <r_epik_Ionization_Penalty>
1.58466

> <r_epik_Ionization_Penalty_Charging>
1.58462

> <r_epik_Ionization_Penalty_Neutral>
3.4911e-05

> <r_epik_State_Penalty>
1.6815

> <r_epik_Charging_Adjusted_Penalty>
3.26612

> <i_epik_Tot_Q>
1

> <i_epik_Tot_abs_Q>
1

> <r_epik_Metal_State_Penalty>
1.72144

> <b_epik_Metal_Only>
0

> <s_lp_Force_Field>
OPLS_2005

> <r_lp_Energy>
19.4727

> <b_lp_Chiralities_Consistent>
1

> <s_lp_Variant>
AV-unprocessed.smi:1534-4

> <Gold.Version>
5.8.1

> <Gold.Id.Protein>
6NUR|6NUR_protein|mol2

> <Gold.PLP.Fitness>
44.0800

> <Gold.PLP.PLP>
-30.7657

> <Gold.PLP.part.hbond>
-5.0000

> <Gold.PLP.part.metal>
0.0000

> <Gold.PLP.part.buried>
1.6003

> <Gold.PLP.part.nonpolar>
-26.3489

> <Gold.PLP.part.repulsive>
0.3177

> <Gold.PLP.ligand.clash>
0.0000

> <Gold.PLP.ligand.torsion>
0.6466

> <Gold.PLP.Chemscore.Hbond>
4.8640

> <Gold.PLP.Chemscore.CHOScore>
0.0000

> <Gold.PLP.Chemscore.Metal>
0.0000

> <Gold.Chemscore.Hbonds>
donor molecule, donor type, donor heavy atom, donor atom, acceptor molecule, acceptor atom, score
      L1  H     3    20       P1  7948  1.00
      L1  H    11    37       P1  7948  2.00
      L1  H    12    29       P1  7948  0.85
      P1  H  7997  8010       L1    17  1.00

> <Gold.PLP.Chemscore.Internal.Correction>
0.0154

> <Gold.Rescore>
     Score         DG    S(hbond)    S(metal)    S(lipo)     H(rot)  DE(clash)    DE(int)     intcor
     18.08     -21.60       3.73        0.00      71.05       1.82       1.41       2.11       ----

> <Gold.Chemscore.Fitness>
18.0753

> <Gold.Chemscore.DG>
-21.5955

> <Gold.Chemscore.ZeroCoef>
-5.4800

> <Gold.Chemscore.Hbond>
3.7327

> <Gold.Chemscore.Metal>
0.0000

> <Gold.Chemscore.Lipo>
71.0470

> <Gold.Chemscore.Internal_Hbond>
0.0000

> <Gold.Chemscore.DEClash>
1.4118

> <Gold.Chemscore.DEInternal>
2.1083

> <Gold.Chemscore.Rot>
1.8220

> <Gold.Chemscore.Internal.Correction>
   9.000000E+99

> <Gold.Chemscore.Hbonds>
donor molecule, donor type, donor heavy atom, donor atom, acceptor molecule, acceptor atom, score
      L1  H     3    20       P1  7948  0.95
      L1  H    11    37       P1  7948  0.99
      L1  H    12    29       P1  7948  0.75
      P1  H  7997  8010       L1    17  0.99

> <Gold.Chemscore.Hbond.Weighted>
-12.4672

> <Gold.Chemscore.Metal.Weighted>
-0.0000

> <Gold.Chemscore.Lipo.Weighted>
-8.3125

> <Gold.Chemscore.Internal_Hbond.Weighted>
0.0000

> <Gold.Chemscore.DEClash.Weighted>
1.4118

> <Gold.Chemscore.DEInternal.Weighted>
2.1083

> <Gold.Chemscore.Rot.Weighted>
4.6642

> <Gold.Chemscore.Internal.Correction.Weighted>
   9.000000E+99

> <Gold.Protein.RotatedTorsions>
[ 6907 6896 6895 6894 ] final -167.86 input  -60.11 | X-H torsion
[ 7974 7965 7964 7962 ] final   51.67 input  175.53 | X-H torsion
[ 8008 7997 7996 7995 ] final   61.98 input   59.86 | X-H torsion
[ 10167 10162 10161 10158 ] final  142.18 input  -65.29 | X-H torsion
[ 10718 10713 10712 10709 ] final   33.33 input   66.30 | X-H torsion
[ 10763 10752 10751 10750 ] final  -38.74 input  -60.55 | X-H torsion
[ 11005 11000 10999 10996 ] final  -39.51 input  -57.11 | X-H torsion

> <Gold.Protein.ActiveResidues>
 VAL166  LYS551  ARG553  GLY616  TRP617  ASP618  TYR619  PRO620  LYS621  CYS622 
 ASP623  PHE694  ASN695  SER759  ASP760  ASP761  ALA762  ILE779  LEU786  VAL792 
 PHE793  MET794  SER795  GLU796  ALA797  LYS798  CYS799  TRP800  GLU811  SER814 

> <Gold.Protein.RotatedAtoms>
  151.4663  133.3580  159.2816 H   0  0  0  0  0  0  0  0  0  0  0  0  # atno 6907 bound_to 6896
  150.8991  134.8404  159.7358 H   0  0  0  0  0  0  0  0  0  0  0  0  # atno 6908 bound_to 6896
  152.4869  134.4581  159.9648 H   0  0  0  0  0  0  0  0  0  0  0  0  # atno 6909 bound_to 6896
  145.9890  139.4319  143.0085 H   0  0  0  0  0  0  0  0  0  0  0  0  # atno 7974 bound_to 7965
  155.6071  140.3494  155.4611 H   0  0  0  0  0  0  0  0  0  0  0  0  # atno 8008 bound_to 7997
  156.0183  140.1248  157.0407 H   0  0  0  0  0  0  0  0  0  0  0  0  # atno 8009 bound_to 7997
  154.4306  140.1067  156.5914 H   0  0  0  0  0  0  0  0  0  0  0  0  # atno 8010 bound_to 7997
  139.5001  144.6123  151.6242 H   0  0  0  0  0  0  0  0  0  0  0  0  # atno 10167 bound_to 10162
  157.2965  130.7329  149.6641 H   0  0  0  0  0  0  0  0  0  0  0  0  # atno 10718 bound_to 10713
  153.9179  135.6785  153.4748 H   0  0  0  0  0  0  0  0  0  0  0  0  # atno 10763 bound_to 10752
  153.1044  135.4812  154.8922 H   0  0  0  0  0  0  0  0  0  0  0  0  # atno 10764 bound_to 10752
  154.7493  135.3180  154.8543 H   0  0  0  0  0  0  0  0  0  0  0  0  # atno 10765 bound_to 10752
  141.0107  133.6909  156.2196 H   0  0  0  0  0  0  0  0  0  0  0  0  # atno 11005 bound_to 11000
  145.7658  140.9917  143.1175 LP  0  0  0  0  0  0  0  0  0  0  0  0  # atno 17320 bound_to 7965
  144.6883  139.9386  143.7474 LP  0  0  0  0  0  0  0  0  0  0  0  0  # atno 17321 bound_to 7965
  140.5802  143.9960  150.6264 LP  0  0  0  0  0  0  0  0  0  0  0  0  # atno 17342 bound_to 10162
  140.3106  143.3200  152.0883 LP  0  0  0  0  0  0  0  0  0  0  0  0  # atno 17343 bound_to 10162
  155.9669  130.4293  150.4826 LP  0  0  0  0  0  0  0  0  0  0  0  0  # atno 17370 bound_to 10713
  157.2799  131.0604  151.2205 LP  0  0  0  0  0  0  0  0  0  0  0  0  # atno 17371 bound_to 10713
  140.6738  134.4839  157.5588 LP  0  0  0  0  0  0  0  0  0  0  0  0  # atno 17394 bound_to 11000
  139.9088  134.8390  156.1605 LP  0  0  0  0  0  0  0  0  0  0  0  0  # atno 17395 bound_to 11000

$$$$
