AV-unprocessed.smi:1251|AV-procd|sdf|5257|dock9
  -GOLD-   22720 4363D 1   1.00000     0.00000
 Structure written by MMmdl.
 39 40  0  0  0  0  0  0  0  0  1 V2000
  151.6068  143.3733  157.7042 C   0  0  0  0  0  0  0  0  0  0  0  0
  150.5943  142.2751  157.3608 C   0  0  0  0  0  0  0  0  0  0  0  0
  151.0873  141.3482  156.2411 C   0  0  0  0  0  0  0  0  0  0  0  0
  150.0045  140.4735  155.7025 C   0  0  0  0  0  0  0  0  0  0  0  0
  148.7596  140.4767  156.1950 N   0  0  0  0  0  0  0  0  0  0  0  0
  147.9371  139.5621  155.5525 N   0  0  0  0  0  0  0  0  0  0  0  0
  148.5923  138.8817  154.6020 C   0  0  0  0  0  0  0  0  0  0  0  0
  147.9926  137.8815  153.7916 N   0  0  0  0  0  0  0  0  0  0  0  0
  146.7216  137.4433  153.8124 C   0  0  0  0  0  0  0  0  0  0  0  0
  145.8413  137.8508  154.5707 O   0  0  0  0  0  0  0  0  0  0  0  0
  146.5243  136.4885  152.8908 N   0  0  0  0  0  0  0  0  0  0  0  0
  145.2667  135.7829  152.6524 C   0  0  1  0  0  0  0  0  0  0  0  0
  144.1294  136.8147  152.6003 C   0  0  0  0  0  0  0  0  0  0  0  0
  145.3667  134.9536  151.3546 C   0  0  2  0  0  0  0  0  0  0  0  0
  144.1324  134.1004  151.0500 C   0  0  0  0  0  0  0  0  0  0  0  0
  144.7206  132.9808  150.2234 C   0  0  0  0  0  0  0  0  0  0  0  0
  146.0469  132.7467  150.9353 C   0  0  0  0  0  0  0  0  0  0  0  0
  146.4455  134.0208  151.4314 O   0  0  0  0  0  0  0  0  0  0  0  0
  150.2847  139.3078  154.4140 S   0  0  0  0  0  0  0  0  0  0  0  0
  151.2282  144.0154  158.4999 H   0  0  0  0  0  0  0  0  0  0  0  0
  151.8142  144.0029  156.8385 H   0  0  0  0  0  0  0  0  0  0  0  0
  152.5512  142.9462  158.0428 H   0  0  0  0  0  0  0  0  0  0  0  0
  150.3860  141.6877  158.2559 H   0  0  0  0  0  0  0  0  0  0  0  0
  149.6499  142.7348  157.0667 H   0  0  0  0  0  0  0  0  0  0  0  0
  151.5026  141.9375  155.4221 H   0  0  0  0  0  0  0  0  0  0  0  0
  151.8947  140.7134  156.6078 H   0  0  0  0  0  0  0  0  0  0  0  0
  148.6033  137.4504  153.1137 H   0  0  0  0  0  0  0  0  0  0  0  0
  147.3083  136.2169  152.3162 H   0  0  0  0  0  0  0  0  0  0  0  0
  145.0602  135.1072  153.4845 H   0  0  0  0  0  0  0  0  0  0  0  0
  143.1588  136.3318  152.4865 H   0  0  0  0  0  0  0  0  0  0  0  0
  144.2571  137.5060  151.7666 H   0  0  0  0  0  0  0  0  0  0  0  0
  144.0921  137.4025  153.5181 H   0  0  0  0  0  0  0  0  0  0  0  0
  145.5633  135.6085  150.5040 H   0  0  0  0  0  0  0  0  0  0  0  0
  143.7058  133.6961  151.9692 H   0  0  0  0  0  0  0  0  0  0  0  0
  143.3524  134.6523  150.5249 H   0  0  0  0  0  0  0  0  0  0  0  0
  144.0903  132.0916  150.1906 H   0  0  0  0  0  0  0  0  0  0  0  0
  144.8944  133.3187  149.2008 H   0  0  0  0  0  0  0  0  0  0  0  0
  145.9101  132.0735  151.7824 H   0  0  0  0  0  0  0  0  0  0  0  0
  146.8042  132.3175  150.2788 H   0  0  0  0  0  0  0  0  0  0  0  0
  1  2  1  0  0  0  0
  1 20  1  0  0  0  0
  1 21  1  0  0  0  0
  1 22  1  0  0  0  0
  2  3  1  0  0  0  0
  2 23  1  0  0  0  0
  2 24  1  0  0  0  0
  3  4  1  0  0  0  0
  3 25  1  0  0  0  0
  3 26  1  0  0  0  0
  4 19  1  0  0  0  0
  4  5  2  0  0  0  0
  5  6  1  0  0  0  0
  6  7  2  0  0  0  0
  7  8  1  0  0  0  0
  7 19  1  0  0  0  0
  8  9  1  0  0  0  0
  8 27  1  0  0  0  0
  9 10  2  0  0  0  0
  9 11  1  0  0  0  0
 11 12  1  0  0  0  0
 11 28  1  0  0  0  0
 12 13  1  0  0  0  0
 12 14  1  0  0  0  0
 12 29  1  0  0  0  0
 13 30  1  0  0  0  0
 13 31  1  0  0  0  0
 13 32  1  0  0  0  0
 14 18  1  0  0  0  0
 14 15  1  0  0  0  0
 14 33  1  0  0  0  0
 15 16  1  0  0  0  0
 15 34  1  0  0  0  0
 15 35  1  0  0  0  0
 16 17  1  0  0  0  0
 16 36  1  0  0  0  0
 16 37  1  0  0  0  0
 17 18  1  0  0  0  0
 17 38  1  0  0  0  0
 17 39  1  0  0  0  0
M  END
> <s_m_source_file>
AV-unprocessed.smi

> <i_m_source_file_index>
1251

> <i_lp_mmshare_version>
43012

> <i_f3d_flags>
0

> <s_epik_input>
W0NIM11bQ0gyXVtDSDJdYzFubmMoczEpW05IXUMoPU8pW05IXVtDQEhdKFtDSDNdKVtDQEBIXTJbQ0gyXVtDSDJdW0NIMl1PMg==

> <s_epik_cmdline>
J2VwaWtfcHl0aG9uJywgJy1waCcsICc3LjAnLCAnLXRuJywgJzgnLCAnLW1hJywgJzIwMCcsICctbWV0YWxfYmluZGluZycsICctaW1hZScsICc8aW5maWxlLm1hZT4nLCAnLW9tYWUnLCAnPG91dGZpbGUubWFlPic=

> <r_lp_tautomer_probability>
1

> <r_epik_Ionization_Penalty>
0.000503621

> <r_epik_Ionization_Penalty_Charging>
0

> <r_epik_Ionization_Penalty_Neutral>
0.000503621

> <r_epik_State_Penalty>
-0

> <r_epik_Charging_Adjusted_Penalty>
0

> <i_epik_Tot_Q>
0

> <i_epik_Tot_abs_Q>
0

> <r_epik_Metal_State_Penalty>
0.219912

> <b_epik_Metal_Only>
0

> <s_lp_Force_Field>
OPLS_2005

> <r_lp_Energy>
12.879

> <b_lp_Chiralities_Consistent>
1

> <s_lp_Variant>
AV-unprocessed.smi:1251-2

> <Gold.Version>
5.8.1

> <Gold.Id.Protein>
6NUR|6NUR_protein|mol2

> <Gold.PLP.Fitness>
34.9228

> <Gold.PLP.PLP>
-29.2566

> <Gold.PLP.part.hbond>
-2.0000

> <Gold.PLP.part.metal>
0.0000

> <Gold.PLP.part.buried>
-4.4342

> <Gold.PLP.part.nonpolar>
-23.3210

> <Gold.PLP.part.repulsive>
0.3459

> <Gold.PLP.ligand.clash>
0.0000

> <Gold.PLP.ligand.torsion>
0.1777

> <Gold.PLP.Chemscore.Hbond>
2.0000

> <Gold.PLP.Chemscore.CHOScore>
0.0000

> <Gold.PLP.Chemscore.Metal>
0.0000

> <Gold.Chemscore.Hbonds>
donor molecule, donor type, donor heavy atom, donor atom, acceptor molecule, acceptor atom, score
      L1  H     8    27       P1  7948  1.00
      L1  H    11    28       P1  7948  1.00

> <Gold.PLP.Chemscore.Internal.Correction>
0.0216

> <Gold.Rescore>
     Score         DG    S(hbond)    S(metal)    S(lipo)     H(rot)  DE(clash)    DE(int)     intcor
     13.87     -16.44       1.95        0.00      72.70       1.58       0.04       2.53       ----

> <Gold.Chemscore.Fitness>
13.8743

> <Gold.Chemscore.DG>
-16.4431

> <Gold.Chemscore.ZeroCoef>
-5.4800

> <Gold.Chemscore.Hbond>
1.9499

> <Gold.Chemscore.Metal>
0.0000

> <Gold.Chemscore.Lipo>
72.7027

> <Gold.Chemscore.Internal_Hbond>
0.0000

> <Gold.Chemscore.DEClash>
0.0377

> <Gold.Chemscore.DEInternal>
2.5311

> <Gold.Chemscore.Rot>
1.5843

> <Gold.Chemscore.Internal.Correction>
   9.000000E+99

> <Gold.Chemscore.Hbonds>
donor molecule, donor type, donor heavy atom, donor atom, acceptor molecule, acceptor atom, score
      L1  H     8    27       P1  7948  0.97
      L1  H    11    28       P1  7948  0.98

> <Gold.Chemscore.Hbond.Weighted>
-6.5127

> <Gold.Chemscore.Metal.Weighted>
-0.0000

> <Gold.Chemscore.Lipo.Weighted>
-8.5062

> <Gold.Chemscore.Internal_Hbond.Weighted>
0.0000

> <Gold.Chemscore.DEClash.Weighted>
0.0377

> <Gold.Chemscore.DEInternal.Weighted>
2.5311

> <Gold.Chemscore.Rot.Weighted>
4.0558

> <Gold.Chemscore.Internal.Correction.Weighted>
   9.000000E+99

> <Gold.Protein.RotatedTorsions>
[ 6907 6896 6895 6894 ] final  155.02 input  -60.11 | X-H torsion
[ 7974 7965 7964 7962 ] final  -47.59 input  175.53 | X-H torsion
[ 8008 7997 7996 7995 ] final  -30.04 input   59.86 | X-H torsion
[ 10167 10162 10161 10158 ] final  -18.17 input  -65.29 | X-H torsion
[ 10718 10713 10712 10709 ] final  145.75 input   66.30 | X-H torsion
[ 10763 10752 10751 10750 ] final  133.77 input  -60.55 | X-H torsion
[ 11005 11000 10999 10996 ] final  147.08 input  -57.11 | X-H torsion

> <Gold.Protein.ActiveResidues>
 VAL166  LYS551  ARG553  GLY616  TRP617  ASP618  TYR619  PRO620  LYS621  CYS622 
 ASP623  PHE694  ASN695  SER759  ASP760  ASP761  ALA762  ILE779  LEU786  VAL792 
 PHE793  MET794  SER795  GLU796  ALA797  LYS798  CYS799  TRP800  GLU811  SER814 

> <Gold.Protein.RotatedAtoms>
  152.0501  133.4015  159.4373 H   0  0  0  0  0  0  0  0  0  0  0  0  # atno 6907 bound_to 6896
  150.6870  134.3317  159.4839 H   0  0  0  0  0  0  0  0  0  0  0  0  # atno 6908 bound_to 6896
  152.1126  134.9263  160.0617 H   0  0  0  0  0  0  0  0  0  0  0  0  # atno 6909 bound_to 6896
  145.9600  140.7488  142.9462 H   0  0  0  0  0  0  0  0  0  0  0  0  # atno 7974 bound_to 7965
  154.4266  140.1802  156.1344 H   0  0  0  0  0  0  0  0  0  0  0  0  # atno 8008 bound_to 7997
  156.0042  140.3357  155.6850 H   0  0  0  0  0  0  0  0  0  0  0  0  # atno 8009 bound_to 7997
  155.6201  140.0659  157.2671 H   0  0  0  0  0  0  0  0  0  0  0  0  # atno 8010 bound_to 7997
  140.7255  143.4943  150.9951 H   0  0  0  0  0  0  0  0  0  0  0  0  # atno 10167 bound_to 10162
  157.3415  131.0936  151.1078 H   0  0  0  0  0  0  0  0  0  0  0  0  # atno 10718 bound_to 10713
  153.8126  135.3127  155.3402 H   0  0  0  0  0  0  0  0  0  0  0  0  # atno 10763 bound_to 10752
  154.8045  135.4706  154.0361 H   0  0  0  0  0  0  0  0  0  0  0  0  # atno 10764 bound_to 10752
  153.1744  135.6883  153.8652 H   0  0  0  0  0  0  0  0  0  0  0  0  # atno 10765 bound_to 10752
  140.0846  134.9077  157.1555 H   0  0  0  0  0  0  0  0  0  0  0  0  # atno 11005 bound_to 11000
  144.6813  140.2575  143.7323 LP  0  0  0  0  0  0  0  0  0  0  0  0  # atno 17320 bound_to 7965
  145.8053  139.1981  143.2024 LP  0  0  0  0  0  0  0  0  0  0  0  0  # atno 17321 bound_to 7965
  139.8649  143.7266  152.3171 LP  0  0  0  0  0  0  0  0  0  0  0  0  # atno 17342 bound_to 10162
  139.7495  144.7538  151.0528 LP  0  0  0  0  0  0  0  0  0  0  0  0  # atno 17343 bound_to 10162
  157.2288  130.6515  149.5841 LP  0  0  0  0  0  0  0  0  0  0  0  0  # atno 17370 bound_to 10713
  155.9708  130.4605  150.6076 LP  0  0  0  0  0  0  0  0  0  0  0  0  # atno 17371 bound_to 10713
  140.3439  134.2673  155.7208 LP  0  0  0  0  0  0  0  0  0  0  0  0  # atno 17394 bound_to 11000
  141.2058  133.7850  157.0212 LP  0  0  0  0  0  0  0  0  0  0  0  0  # atno 17395 bound_to 11000

$$$$
