AV-unprocessed.smi:1830|AV-procd|sdf|7443|dock5
  -GOLD-   22720 9133D 1   1.00000     0.00000
 Structure written by MMmdl.
 52 55  0  0  0  0  0  0  0  0  1 V2000
  149.2984  141.4343  153.8712 O   0  0  0  0  0  0  0  0  0  0  0  0
  149.2664  140.6627  154.8296 C   0  0  0  0  0  0  0  0  0  0  0  0
  149.9930  140.8339  155.9428 N   0  0  0  0  0  0  0  0  0  0  0  0
  150.9226  141.9326  156.1920 C   0  0  0  0  0  0  0  0  0  0  0  0
  150.9687  142.3399  157.6759 C   0  0  1  0  0  0  0  0  0  0  0  0
  152.0030  141.5525  158.5171 C   0  0  0  0  0  0  0  0  0  0  0  0
  152.0147  142.0604  159.8751 N   0  0  0  0  0  0  0  0  0  0  0  0
  152.9804  141.4843  160.7815 C   0  0  0  0  0  0  0  0  0  0  0  0
  153.0307  142.4743  161.9586 C   0  0  0  0  0  0  0  0  0  0  0  0
  152.4779  143.7942  161.3758 C   0  0  0  0  0  0  0  0  0  0  0  0
  152.3140  143.4671  159.8902 C   0  0  2  0  0  0  0  0  0  0  0  0
  151.2591  144.2565  159.1006 C   0  0  0  0  0  0  0  0  0  0  0  0
  151.2261  143.7475  157.7641 O   0  0  0  0  0  0  0  0  0  0  0  0
  148.5239  139.5456  154.9060 N   0  0  0  0  0  0  0  0  0  0  0  0
  147.6430  138.9885  153.9336 C   0  0  0  0  0  0  0  0  0  0  0  0
  147.4514  139.5640  152.6533 C   0  0  0  0  0  0  0  0  0  0  0  0
  146.5569  138.9574  151.7536 C   0  0  0  0  0  0  0  0  0  0  0  0
  145.8754  137.8002  152.1679 C   0  0  0  0  0  0  0  0  0  0  0  0
  146.0324  137.2501  153.3886 N   0  0  0  0  0  0  0  0  0  0  0  0
  146.8962  137.8243  154.2614 C   0  0  0  0  0  0  0  0  0  0  0  0
  147.0092  137.2472  155.5437 N   0  0  0  0  0  0  0  0  0  0  0  0
  148.3290  136.6802  155.8088 C   0  0  0  0  0  0  0  0  0  0  0  0
  148.6455  136.9809  157.2753 C   0  0  0  0  0  0  0  0  0  0  0  0
  147.8366  138.2423  157.5513 C   0  0  0  0  0  0  0  0  0  0  0  0
  146.5815  138.0172  156.7107 C   0  0  0  0  0  0  0  0  0  0  0  0
  149.8983  140.1502  156.6796 H   0  0  0  0  0  0  0  0  0  0  0  0
  151.9138  141.6073  155.8754 H   0  0  0  0  0  0  0  0  0  0  0  0
  150.6797  142.7987  155.5744 H   0  0  0  0  0  0  0  0  0  0  0  0
  149.9777  142.1607  158.0968 H   0  0  0  0  0  0  0  0  0  0  0  0
  151.7586  140.4900  158.5180 H   0  0  0  0  0  0  0  0  0  0  0  0
  152.9983  141.6495  158.0823 H   0  0  0  0  0  0  0  0  0  0  0  0
  152.6943  140.4783  161.0895 H   0  0  0  0  0  0  0  0  0  0  0  0
  153.9594  141.4269  160.3029 H   0  0  0  0  0  0  0  0  0  0  0  0
  152.4024  142.1331  162.7820 H   0  0  0  0  0  0  0  0  0  0  0  0
  154.0474  142.5858  162.3363 H   0  0  0  0  0  0  0  0  0  0  0  0
  151.5140  144.0303  161.8288 H   0  0  0  0  0  0  0  0  0  0  0  0
  153.1465  144.6397  161.5400 H   0  0  0  0  0  0  0  0  0  0  0  0
  153.2817  143.6263  159.4090 H   0  0  0  0  0  0  0  0  0  0  0  0
  150.2731  144.1622  159.5583 H   0  0  0  0  0  0  0  0  0  0  0  0
  151.5085  145.3173  159.0772 H   0  0  0  0  0  0  0  0  0  0  0  0
  148.6700  138.9757  155.7263 H   0  0  0  0  0  0  0  0  0  0  0  0
  147.9602  140.4648  152.3475 H   0  0  0  0  0  0  0  0  0  0  0  0
  146.3939  139.3728  150.7702 H   0  0  0  0  0  0  0  0  0  0  0  0
  145.1792  137.3075  151.5057 H   0  0  0  0  0  0  0  0  0  0  0  0
  148.3416  135.6081  155.6119 H   0  0  0  0  0  0  0  0  0  0  0  0
  149.0772  137.1460  155.1645 H   0  0  0  0  0  0  0  0  0  0  0  0
  148.2860  136.1671  157.9069 H   0  0  0  0  0  0  0  0  0  0  0  0
  149.7123  137.1079  157.4611 H   0  0  0  0  0  0  0  0  0  0  0  0
  147.6190  138.3897  158.6096 H   0  0  0  0  0  0  0  0  0  0  0  0
  148.3762  139.1183  157.1880 H   0  0  0  0  0  0  0  0  0  0  0  0
  146.0773  138.9541  156.4732 H   0  0  0  0  0  0  0  0  0  0  0  0
  145.8682  137.4069  157.2656 H   0  0  0  0  0  0  0  0  0  0  0  0
  1  2  2  0  0  0  0
  2  3  1  0  0  0  0
  2 14  1  0  0  0  0
  3  4  1  0  0  0  0
  3 26  1  0  0  0  0
  4  5  1  0  0  0  0
  4 27  1  0  0  0  0
  4 28  1  0  0  0  0
  5 13  1  0  0  0  0
  5  6  1  0  0  0  0
  5 29  1  0  0  0  0
  6  7  1  0  0  0  0
  6 30  1  0  0  0  0
  6 31  1  0  0  0  0
  7 11  1  0  0  0  0
  7  8  1  0  0  0  0
  8  9  1  0  0  0  0
  8 32  1  0  0  0  0
  8 33  1  0  0  0  0
  9 10  1  0  0  0  0
  9 34  1  0  0  0  0
  9 35  1  0  0  0  0
 10 11  1  0  0  0  0
 10 36  1  0  0  0  0
 10 37  1  0  0  0  0
 11 12  1  0  0  0  0
 11 38  1  0  0  0  0
 12 13  1  0  0  0  0
 12 39  1  0  0  0  0
 12 40  1  0  0  0  0
 14 15  1  0  0  0  0
 14 41  1  0  0  0  0
 15 20  1  0  0  0  0
 15 16  2  0  0  0  0
 16 17  1  0  0  0  0
 16 42  1  0  0  0  0
 17 18  2  0  0  0  0
 17 43  1  0  0  0  0
 18 19  1  0  0  0  0
 18 44  1  0  0  0  0
 19 20  2  0  0  0  0
 20 21  1  0  0  0  0
 21 25  1  0  0  0  0
 21 22  1  0  0  0  0
 22 23  1  0  0  0  0
 22 45  1  0  0  0  0
 22 46  1  0  0  0  0
 23 24  1  0  0  0  0
 23 47  1  0  0  0  0
 23 48  1  0  0  0  0
 24 25  1  0  0  0  0
 24 49  1  0  0  0  0
 24 50  1  0  0  0  0
 25 51  1  0  0  0  0
 25 52  1  0  0  0  0
M  END
> <s_m_source_file>
AV-unprocessed.smi

> <i_m_source_file_index>
1830

> <i_lp_mmshare_version>
43012

> <i_f3d_flags>
0

> <s_epik_input>
W0NIMl0xW0NIMl1bQ0gyXVtDQEhdKE4xMilbQ0gyXU9bQ0BASF0oW0NIMl0yKVtDSDJdW05IXUMoPU8pW05IXWMzW2NIXVtjSF1bY0hdbmMzTjRbQ0gyXVtDSDJdW0NIMl1bQ0gyXTQ=

> <s_epik_cmdline>
J2VwaWtfcHl0aG9uJywgJy1waCcsICc3LjAnLCAnLXRuJywgJzgnLCAnLW1hJywgJzIwMCcsICctbWV0YWxfYmluZGluZycsICctaW1hZScsICc8aW5maWxlLm1hZT4nLCAnLW9tYWUnLCAnPG91dGZpbGUubWFlPic=

> <r_lp_tautomer_probability>
1

> <r_epik_Ionization_Penalty>
1.16487

> <r_epik_Ionization_Penalty_Charging>
0

> <r_epik_Ionization_Penalty_Neutral>
1.16487

> <r_epik_State_Penalty>
1.21807

> <r_epik_Charging_Adjusted_Penalty>
1.21807

> <i_epik_Tot_Q>
0

> <i_epik_Tot_abs_Q>
0

> <r_epik_Metal_State_Penalty>
1.19922

> <b_epik_Metal_Only>
0

> <s_lp_Force_Field>
OPLS_2005

> <r_lp_Energy>
78.4181

> <b_lp_Chiralities_Consistent>
1

> <s_lp_Variant>
AV-unprocessed.smi:1830-12

> <Gold.Version>
5.8.1

> <Gold.Id.Protein>
6NUR|6NUR_protein|mol2

> <Gold.PLP.Fitness>
43.5552

> <Gold.PLP.PLP>
-40.0318

> <Gold.PLP.part.hbond>
-2.0000

> <Gold.PLP.part.metal>
0.0000

> <Gold.PLP.part.buried>
-2.9102

> <Gold.PLP.part.nonpolar>
-36.4676

> <Gold.PLP.part.repulsive>
0.9109

> <Gold.PLP.ligand.clash>
0.0000

> <Gold.PLP.ligand.torsion>
0.6190

> <Gold.PLP.Chemscore.Hbond>
0.7360

> <Gold.PLP.Chemscore.CHOScore>
0.8122

> <Gold.PLP.Chemscore.Metal>
0.0000

> <Gold.Chemscore.Hbonds>
donor molecule, donor type, donor heavy atom, donor atom, acceptor molecule, acceptor atom, score
      P1  H  7989  7998       L1     1  0.01
      P1  H  8011  8017       L1     1  0.75
      L1  C    18    44       P1 10171  0.83

> <Gold.PLP.Chemscore.Internal.Correction>
0.1168

> <Gold.Rescore>
     Score         DG    S(hbond)    S(metal)    S(lipo)     H(rot)  DE(clash)    DE(int)     intcor
     13.37     -17.93       0.72        0.00     115.93       1.37       1.35       3.21       ----

> <Gold.Chemscore.Fitness>
13.3745

> <Gold.Chemscore.DG>
-17.9259

> <Gold.Chemscore.ZeroCoef>
-5.4800

> <Gold.Chemscore.Hbond>
0.7188

> <Gold.Chemscore.Metal>
0.0000

> <Gold.Chemscore.Lipo>
115.9324

> <Gold.Chemscore.Internal_Hbond>
0.0000

> <Gold.Chemscore.DEClash>
1.3464

> <Gold.Chemscore.DEInternal>
3.2051

> <Gold.Chemscore.Rot>
1.3746

> <Gold.Chemscore.Internal.Correction>
   9.000000E+99

> <Gold.Chemscore.Hbonds>
donor molecule, donor type, donor heavy atom, donor atom, acceptor molecule, acceptor atom, score
      P1  H  8011  8017       L1     1  0.76

> <Gold.Chemscore.Hbond.Weighted>
-2.4007

> <Gold.Chemscore.Metal.Weighted>
-0.0000

> <Gold.Chemscore.Lipo.Weighted>
-13.5641

> <Gold.Chemscore.Internal_Hbond.Weighted>
0.0000

> <Gold.Chemscore.DEClash.Weighted>
1.3464

> <Gold.Chemscore.DEInternal.Weighted>
3.2051

> <Gold.Chemscore.Rot.Weighted>
3.5189

> <Gold.Chemscore.Internal.Correction.Weighted>
   9.000000E+99

> <Gold.Protein.RotatedTorsions>
[ 6907 6896 6895 6894 ] final  -94.08 input  -60.11 | X-H torsion
[ 7974 7965 7964 7962 ] final  164.86 input  175.53 | X-H torsion
[ 8008 7997 7996 7995 ] final   16.18 input   59.86 | X-H torsion
[ 10167 10162 10161 10158 ] final  108.91 input  -65.29 | X-H torsion
[ 10718 10713 10712 10709 ] final  -92.88 input   66.30 | X-H torsion
[ 10763 10752 10751 10750 ] final   85.74 input  -60.55 | X-H torsion
[ 11005 11000 10999 10996 ] final   28.48 input  -57.11 | X-H torsion

> <Gold.Protein.ActiveResidues>
 VAL166  LYS551  ARG553  GLY616  TRP617  ASP618  TYR619  PRO620  LYS621  CYS622 
 ASP623  PHE694  ASN695  SER759  ASP760  ASP761  ALA762  ILE779  LEU786  VAL792 
 PHE793  MET794  SER795  GLU796  ALA797  LYS798  CYS799  TRP800  GLU811  SER814 

> <Gold.Protein.RotatedAtoms>
  150.6934  134.1868  159.4269 H   0  0  0  0  0  0  0  0  0  0  0  0  # atno 6907 bound_to 6896
  151.9840  135.0011  160.0568 H   0  0  0  0  0  0  0  0  0  0  0  0  # atno 6908 bound_to 6896
  152.1729  133.4620  159.4955 H   0  0  0  0  0  0  0  0  0  0  0  0  # atno 6909 bound_to 6896
  144.7527  139.8386  143.6360 H   0  0  0  0  0  0  0  0  0  0  0  0  # atno 7974 bound_to 7965
  154.8733  140.2962  155.5468 H   0  0  0  0  0  0  0  0  0  0  0  0  # atno 8008 bound_to 7997
  156.3021  140.2456  156.3658 H   0  0  0  0  0  0  0  0  0  0  0  0  # atno 8009 bound_to 7997
  154.8794  140.0398  157.1762 H   0  0  0  0  0  0  0  0  0  0  0  0  # atno 8010 bound_to 7997
  139.6808  144.7118  151.1519 H   0  0  0  0  0  0  0  0  0  0  0  0  # atno 10167 bound_to 10162
  156.0007  130.5004  150.5692 H   0  0  0  0  0  0  0  0  0  0  0  0  # atno 10718 bound_to 10713
  153.1503  135.4606  154.9627 H   0  0  0  0  0  0  0  0  0  0  0  0  # atno 10763 bound_to 10752
  154.7820  135.3191  154.7972 H   0  0  0  0  0  0  0  0  0  0  0  0  # atno 10764 bound_to 10752
  153.8479  135.6924  153.4850 H   0  0  0  0  0  0  0  0  0  0  0  0  # atno 10765 bound_to 10752
  140.3151  134.2606  155.7727 H   0  0  0  0  0  0  0  0  0  0  0  0  # atno 11005 bound_to 11000
  146.1498  139.4578  143.0056 LP  0  0  0  0  0  0  0  0  0  0  0  0  # atno 17320 bound_to 7965
  145.6887  141.0170  143.1567 LP  0  0  0  0  0  0  0  0  0  0  0  0  # atno 17321 bound_to 7965
  140.7651  143.5702  150.9004 LP  0  0  0  0  0  0  0  0  0  0  0  0  # atno 17342 bound_to 10162
  139.9374  143.6422  152.3062 LP  0  0  0  0  0  0  0  0  0  0  0  0  # atno 17343 bound_to 10162
  157.3589  131.0746  151.1652 LP  0  0  0  0  0  0  0  0  0  0  0  0  # atno 17370 bound_to 10713
  157.2443  130.6584  149.5903 LP  0  0  0  0  0  0  0  0  0  0  0  0  # atno 17371 bound_to 10713
  141.2099  133.7734  156.9965 LP  0  0  0  0  0  0  0  0  0  0  0  0  # atno 17394 bound_to 11000
  140.0990  134.9546  157.1894 LP  0  0  0  0  0  0  0  0  0  0  0  0  # atno 17395 bound_to 11000

$$$$
