AV-unprocessed.smi:1272|AV-procd|sdf|5335|dock5
  -GOLD-   22720 4463D 1   1.00000     0.00000
 Structure written by MMmdl.
 45 47  0  0  0  0  0  0  0  0  1 V2000
  150.9144  141.9047  156.1565 C   0  0  0  0  0  0  0  0  0  0  0  0
  150.8560  140.9006  157.3144 C   0  0  0  0  0  0  0  0  0  0  0  0
  151.5695  141.4022  158.4864 N   0  0  0  0  0  0  0  0  0  0  0  0
  152.4312  140.7068  159.2656 C   0  0  0  0  0  0  0  0  0  0  0  0
  152.7664  139.5333  159.1047 O   0  0  0  0  0  0  0  0  0  0  0  0
  152.8589  141.5261  160.2552 N   0  0  0  0  0  0  0  0  0  0  0  0
  153.8026  141.1852  161.3193 C   0  0  0  0  0  0  0  0  0  0  0  0
  155.0074  140.3854  160.7813 C   0  0  1  0  0  0  0  0  0  0  0  0
  155.7928  141.2752  160.0118 O   0  0  0  0  0  0  0  0  0  0  0  0
  155.8936  139.8399  161.9229 C   0  0  0  0  0  0  0  0  0  0  0  0
  155.2133  138.9660  162.8799 N   0  0  0  0  0  0  0  0  0  0  0  0
  156.0875  138.6417  164.0027 C   0  0  0  0  0  0  0  0  0  0  0  0
  155.3956  137.7258  165.0269 C   0  0  0  0  0  0  0  0  0  0  0  0
  154.9491  136.5396  164.3781 O   0  0  0  0  0  0  0  0  0  0  0  0
  154.0534  136.8070  163.3044 C   0  0  0  0  0  0  0  0  0  0  0  0
  154.7374  137.7239  162.2749 C   0  0  0  0  0  0  0  0  0  0  0  0
  152.2504  142.7811  160.1071 C   0  0  0  0  0  0  0  0  0  0  0  0
  152.3625  143.9604  160.8642 C   0  0  0  0  0  0  0  0  0  0  0  0
  151.5977  145.0739  160.4443 C   0  0  0  0  0  0  0  0  0  0  0  0
  150.7567  144.9902  159.3043 C   0  0  0  0  0  0  0  0  0  0  0  0
  150.6645  143.7919  158.5586 C   0  0  0  0  0  0  0  0  0  0  0  0
  151.4366  142.7016  158.9961 C   0  0  0  0  0  0  0  0  0  0  0  0
  150.3753  141.5261  155.2879 H   0  0  0  0  0  0  0  0  0  0  0  0
  151.9435  142.0967  155.8515 H   0  0  0  0  0  0  0  0  0  0  0  0
  150.4640  142.8571  156.4375 H   0  0  0  0  0  0  0  0  0  0  0  0
  149.8163  140.6945  157.5729 H   0  0  0  0  0  0  0  0  0  0  0  0
  151.2842  139.9469  157.0047 H   0  0  0  0  0  0  0  0  0  0  0  0
  154.1286  142.0775  161.8549 H   0  0  0  0  0  0  0  0  0  0  0  0
  153.2609  140.5870  162.0535 H   0  0  0  0  0  0  0  0  0  0  0  0
  154.6589  139.5608  160.1576 H   0  0  0  0  0  0  0  0  0  0  0  0
  155.4207  141.3269  159.1446 H   0  0  0  0  0  0  0  0  0  0  0  0
  156.7817  139.3502  161.5196 H   0  0  0  0  0  0  0  0  0  0  0  0
  156.2706  140.6967  162.4825 H   0  0  0  0  0  0  0  0  0  0  0  0
  156.9926  138.1532  163.6378 H   0  0  0  0  0  0  0  0  0  0  0  0
  156.4074  139.5581  164.5003 H   0  0  0  0  0  0  0  0  0  0  0  0
  156.0880  137.4575  165.8250 H   0  0  0  0  0  0  0  0  0  0  0  0
  154.5505  138.2353  165.4927 H   0  0  0  0  0  0  0  0  0  0  0  0
  153.7628  135.8648  162.8393 H   0  0  0  0  0  0  0  0  0  0  0  0
  153.1424  137.2693  163.6879 H   0  0  0  0  0  0  0  0  0  0  0  0
  154.0259  137.9408  161.4787 H   0  0  0  0  0  0  0  0  0  0  0  0
  155.5721  137.1924  161.8155 H   0  0  0  0  0  0  0  0  0  0  0  0
  153.0050  144.0203  161.7300 H   0  0  0  0  0  0  0  0  0  0  0  0
  151.6546  145.9990  160.9987 H   0  0  0  0  0  0  0  0  0  0  0  0
  150.1803  145.8521  159.0018 H   0  0  0  0  0  0  0  0  0  0  0  0
  150.0265  143.7222  157.6901 H   0  0  0  0  0  0  0  0  0  0  0  0
  1  2  1  0  0  0  0
  1 23  1  0  0  0  0
  1 24  1  0  0  0  0
  1 25  1  0  0  0  0
  2  3  1  0  0  0  0
  2 26  1  0  0  0  0
  2 27  1  0  0  0  0
  3 22  1  0  0  0  0
  3  4  1  0  0  0  0
  4  5  2  0  0  0  0
  4  6  1  0  0  0  0
  6  7  1  0  0  0  0
  6 17  1  0  0  0  0
  7  8  1  0  0  0  0
  7 28  1  0  0  0  0
  7 29  1  0  0  0  0
  8  9  1  0  0  0  0
  8 10  1  0  0  0  0
  8 30  1  0  0  0  0
  9 31  1  0  0  0  0
 10 11  1  0  0  0  0
 10 32  1  0  0  0  0
 10 33  1  0  0  0  0
 11 16  1  0  0  0  0
 11 12  1  0  0  0  0
 12 13  1  0  0  0  0
 12 34  1  0  0  0  0
 12 35  1  0  0  0  0
 13 14  1  0  0  0  0
 13 36  1  0  0  0  0
 13 37  1  0  0  0  0
 14 15  1  0  0  0  0
 15 16  1  0  0  0  0
 15 38  1  0  0  0  0
 15 39  1  0  0  0  0
 16 40  1  0  0  0  0
 16 41  1  0  0  0  0
 17 22  2  0  0  0  0
 17 18  1  0  0  0  0
 18 19  2  0  0  0  0
 18 42  1  0  0  0  0
 19 20  1  0  0  0  0
 19 43  1  0  0  0  0
 20 21  2  0  0  0  0
 20 44  1  0  0  0  0
 21 22  1  0  0  0  0
 21 45  1  0  0  0  0
M  END
> <s_m_source_file>
AV-unprocessed.smi

> <i_m_source_file_index>
1272

> <i_lp_mmshare_version>
43012

> <i_f3d_flags>
0

> <s_epik_input>
W2NIXTFbY0hdW2NIXVtjSF1jKGMxMiluKFtDSDJdW0NIM10pYyg9TyluMltDSDJdW0NASF0oW09IXSlbQ0gyXU4zW0NIMl1bQ0gyXU9bQ0gyXVtDSDJdMw==

> <s_epik_cmdline>
J2VwaWtfcHl0aG9uJywgJy1waCcsICc3LjAnLCAnLXRuJywgJzgnLCAnLW1hJywgJzIwMCcsICctbWV0YWxfYmluZGluZycsICctaW1hZScsICc8aW5maWxlLm1hZT4nLCAnLW9tYWUnLCAnPG91dGZpbGUubWFlPic=

> <r_epik_Ionization_Penalty>
0.214359

> <r_epik_Ionization_Penalty_Charging>
2.31431e-09

> <r_epik_Ionization_Penalty_Neutral>
0.214359

> <r_epik_State_Penalty>
0.204533

> <r_epik_Charging_Adjusted_Penalty>
0.204533

> <i_epik_Tot_Q>
0

> <i_epik_Tot_abs_Q>
0

> <r_epik_Metal_State_Penalty>
0.204533

> <b_epik_Metal_Only>
0

> <s_lp_Force_Field>
OPLS_2005

> <r_lp_Energy>
62.2606

> <b_lp_Chiralities_Consistent>
1

> <s_lp_Variant>
AV-unprocessed.smi:1272-2

> <Gold.Version>
5.8.1

> <Gold.Id.Protein>
6NUR|6NUR_protein|mol2

> <Gold.PLP.Fitness>
47.9440

> <Gold.PLP.PLP>
-48.8476

> <Gold.PLP.part.hbond>
-0.9398

> <Gold.PLP.part.metal>
0.0000

> <Gold.PLP.part.buried>
-6.7551

> <Gold.PLP.part.nonpolar>
-40.9973

> <Gold.PLP.part.repulsive>
0.0928

> <Gold.PLP.ligand.clash>
0.0000

> <Gold.PLP.ligand.torsion>
0.4620

> <Gold.PLP.Chemscore.Hbond>
0.0000

> <Gold.PLP.Chemscore.CHOScore>
0.0000

> <Gold.PLP.Chemscore.Metal>
0.0000

> <Gold.PLP.Chemscore.Internal.Correction>
0.0204

> <Gold.Rescore>
     Score         DG    S(hbond)    S(metal)    S(lipo)     H(rot)  DE(clash)    DE(int)     intcor
     13.54     -15.26       0.00        0.00     130.38       2.14       0.10       1.62       ----

> <Gold.Chemscore.Fitness>
13.5381

> <Gold.Chemscore.DG>
-15.2599

> <Gold.Chemscore.ZeroCoef>
-5.4800

> <Gold.Chemscore.Hbond>
0.0000

> <Gold.Chemscore.Metal>
0.0000

> <Gold.Chemscore.Lipo>
130.3830

> <Gold.Chemscore.Internal_Hbond>
0.0000

> <Gold.Chemscore.DEClash>
0.1044

> <Gold.Chemscore.DEInternal>
1.6175

> <Gold.Chemscore.Rot>
2.1386

> <Gold.Chemscore.Internal.Correction>
   9.000000E+99

> <Gold.Chemscore.Hbond.Weighted>
-0.0000

> <Gold.Chemscore.Metal.Weighted>
-0.0000

> <Gold.Chemscore.Lipo.Weighted>
-15.2548

> <Gold.Chemscore.Internal_Hbond.Weighted>
0.0000

> <Gold.Chemscore.DEClash.Weighted>
0.1044

> <Gold.Chemscore.DEInternal.Weighted>
1.6175

> <Gold.Chemscore.Rot.Weighted>
5.4749

> <Gold.Chemscore.Internal.Correction.Weighted>
   9.000000E+99

> <Gold.Protein.RotatedTorsions>
[ 6907 6896 6895 6894 ] final  110.69 input  -60.11 | X-H torsion
[ 7974 7965 7964 7962 ] final -158.80 input  175.53 | X-H torsion
[ 8008 7997 7996 7995 ] final  175.83 input   59.86 | X-H torsion
[ 10167 10162 10161 10158 ] final   23.04 input  -65.29 | X-H torsion
[ 10718 10713 10712 10709 ] final   14.43 input   66.30 | X-H torsion
[ 10763 10752 10751 10750 ] final   59.78 input  -60.55 | X-H torsion
[ 11005 11000 10999 10996 ] final  167.80 input  -57.11 | X-H torsion

> <Gold.Protein.ActiveResidues>
 VAL166  LYS551  ARG553  GLY616  TRP617  ASP618  TYR619  PRO620  LYS621  CYS622 
 ASP623  PHE694  ASN695  SER759  ASP760  ASP761  ALA762  ILE779  LEU786  VAL792 
 PHE793  MET794  SER795  GLU796  ALA797  LYS798  CYS799  TRP800  GLU811  SER814 

> <Gold.Protein.RotatedAtoms>
  152.5007  133.8765  159.7324 H   0  0  0  0  0  0  0  0  0  0  0  0  # atno 6907 bound_to 6896
  150.9238  133.6839  159.2833 H   0  0  0  0  0  0  0  0  0  0  0  0  # atno 6908 bound_to 6896
  151.4207  135.1002  159.9665 H   0  0  0  0  0  0  0  0  0  0  0  0  # atno 6909 bound_to 6896
  144.7491  140.3776  143.6062 H   0  0  0  0  0  0  0  0  0  0  0  0  # atno 7974 bound_to 7965
  156.0829  140.1399  156.9689 H   0  0  0  0  0  0  0  0  0  0  0  0  # atno 8008 bound_to 7997
  154.4596  140.0948  156.6903 H   0  0  0  0  0  0  0  0  0  0  0  0  # atno 8009 bound_to 7997
  155.5046  140.3452  155.4379 H   0  0  0  0  0  0  0  0  0  0  0  0  # atno 8010 bound_to 7997
  140.5301  143.9857  150.6461 H   0  0  0  0  0  0  0  0  0  0  0  0  # atno 10167 bound_to 10162
  157.0390  130.6223  149.5747 H   0  0  0  0  0  0  0  0  0  0  0  0  # atno 10718 bound_to 10713
  152.9903  135.5559  154.5768 H   0  0  0  0  0  0  0  0  0  0  0  0  # atno 10763 bound_to 10752
  154.5157  135.2805  155.1307 H   0  0  0  0  0  0  0  0  0  0  0  0  # atno 10764 bound_to 10752
  154.2680  135.6368  153.5352 H   0  0  0  0  0  0  0  0  0  0  0  0  # atno 10765 bound_to 10752
  140.2806  134.7753  157.3755 H   0  0  0  0  0  0  0  0  0  0  0  0  # atno 11005 bound_to 11000
  145.7011  139.1661  143.2592 LP  0  0  0  0  0  0  0  0  0  0  0  0  # atno 17320 bound_to 7965
  146.1415  140.7051  142.9365 LP  0  0  0  0  0  0  0  0  0  0  0  0  # atno 17321 bound_to 7965
  140.3229  143.3126  152.0766 LP  0  0  0  0  0  0  0  0  0  0  0  0  # atno 17342 bound_to 10162
  139.4951  144.6561  151.6568 LP  0  0  0  0  0  0  0  0  0  0  0  0  # atno 17343 bound_to 10162
  156.0044  130.5129  150.7779 LP  0  0  0  0  0  0  0  0  0  0  0  0  # atno 17370 bound_to 10713
  157.5119  131.0926  151.0187 LP  0  0  0  0  0  0  0  0  0  0  0  0  # atno 17371 bound_to 10713
  140.1287  134.5124  155.8123 LP  0  0  0  0  0  0  0  0  0  0  0  0  # atno 17394 bound_to 11000
  141.2163  133.6782  156.6999 LP  0  0  0  0  0  0  0  0  0  0  0  0  # atno 17395 bound_to 11000

$$$$
