#       Name:                AV-unprocessed.smi:193
#       Creating user name   scv26
#       Creation time:       Thu Mar 26 19:34:41 2020


#       File generated by GOLD software.
#

@<TRIPOS>MOLECULE
AV-unprocessed.smi:193
    69    73     1
SMALL
NO_CHARGES


@<TRIPOS>ATOM
      1 ****        -2.8149  -1.8138  -3.3319 C.3            1 S1                 0.0000
      2 ****        -2.5376  -0.5020  -2.5806 C.3            1 S1                 0.0000
      3 ****        -1.5655  -0.7749  -1.4123 C.3            1 S1                 0.0000
      4 ****        -0.8897   0.4170  -0.8941 N.pl3          1 S1                 0.0000
      5 ****         0.4310   0.3085  -0.5868 C.ar           1 S1                 0.0000
      6 ****         1.2727   1.3253  -0.9151 N.ar           1 S1                 0.0000
      7 ****         2.5771   1.2442  -0.6392 C.ar           1 S1                 0.0000
      8 ****         3.2431   0.2534  -0.0451 N.ar           1 S1                 0.0000
      9 ****         2.4079  -0.7680   0.2977 C.ar           1 S1                 0.0000
     10 ****         1.0034  -0.8236   0.0657 C.ar           1 S1                 0.0000
     11 ****         0.4953  -2.0194   0.5619 N.2            1 S1                 0.0000
     12 ****         1.5378  -2.6378   1.0440 C.2            1 S1                 0.0000
     13 ****         2.7269  -1.9528   0.9389 N.pl3          1 S1                 0.0000
     14 ****         4.0343  -2.4042   1.3933 C.3            1 S1                 0.0000
     15 ****         4.3152  -2.1317   2.8966 C.3            1 S1                 0.0000
     16 ****         3.3419  -2.8327   3.6486 O.3            1 S1                 0.0000
     17 ****         5.6958  -2.6673   3.3253 C.3            1 S1                 0.0000
     18 ****         6.8373  -1.7692   2.8151 C.3            1 S1                 0.0000
     19 ****         6.6436  -0.4320   3.2632 O.3            1 S1                 0.0000
     20 ****         5.4393   0.1504   2.7768 C.3            1 S1                 0.0000
     21 ****         4.2267  -0.6428   3.2954 C.3            1 S1                 0.0000
     22 ****        -1.4733   1.7503  -1.0436 C.3            1 S1                 0.0000
     23 ****        -2.9569   1.8002  -0.6533 C.3            1 S1                 0.0000
     24 ****        -3.8038   1.5344  -1.8122 N.3            1 S1                 0.0000
     25 ****        -5.1503   1.9961  -1.5103 C.3            1 S1                 0.0000
     26 ****        -6.0364   2.3736  -2.6759 C.3            1 S1                 0.0000
     27 ****        -5.4699   3.4510  -1.7817 C.3            1 S1                 0.0000
     28 ****        -6.3731   4.2297  -0.8503 C.3            1 S1                 0.0000
     29 ****        -3.8742   0.1018  -2.0955 C.3            1 S1                 0.0000
     30 ****        -3.2790  -2.5538  -2.6792 H              1 S1                 0.0000
     31 ****        -1.8942  -2.2463  -3.7243 H              1 S1                 0.0000
     32 ****        -3.4825  -1.6509  -4.1785 H              1 S1                 0.0000
     33 ****        -2.0685   0.1728  -3.2985 H              1 S1                 0.0000
     34 ****        -2.0856  -1.2752  -0.5949 H              1 S1                 0.0000
     35 ****        -0.8087  -1.4753  -1.7678 H              1 S1                 0.0000
     36 ****         3.1719   2.0948  -0.9384 H              1 S1                 0.0000
     37 ****         1.4663  -3.6154   1.4986 H              1 S1                 0.0000
     38 ****         4.1075  -3.4733   1.1888 H              1 S1                 0.0000
     39 ****         4.7895  -1.9316   0.7658 H              1 S1                 0.0000
     40 ****         2.4914  -2.4755   3.4436 H              1 S1                 0.0000
     41 ****         5.7527  -2.7041   4.4145 H              1 S1                 0.0000
     42 ****         5.8373  -3.6916   2.9784 H              1 S1                 0.0000
     43 ****         7.7921  -2.1294   3.1983 H              1 S1                 0.0000
     44 ****         6.9082  -1.7939   1.7272 H              1 S1                 0.0000
     45 ****         5.3845   1.1821   3.1243 H              1 S1                 0.0000
     46 ****         5.4568   0.1872   1.6876 H              1 S1                 0.0000
     47 ****         3.2983  -0.1904   2.9472 H              1 S1                 0.0000
     48 ****         4.2087  -0.5582   4.3832 H              1 S1                 0.0000
     49 ****        -0.9481   2.4362  -0.3777 H              1 S1                 0.0000
     50 ****        -1.3137   2.1247  -2.0557 H              1 S1                 0.0000
     51 ****        -3.1879   1.1434   0.1872 H              1 S1                 0.0000
     52 ****        -3.1636   2.8168  -0.3157 H              1 S1                 0.0000
     53 ****        -5.6692   1.5547  -0.6607 H              1 S1                 0.0000
     54 ****        -5.6242   2.2893  -3.6797 H              1 S1                 0.0000
     55 ****        -7.0970   2.1464  -2.5895 H              1 S1                 0.0000
     56 ****        -4.6685   4.0499  -2.2109 H              1 S1                 0.0000
     57 ****        -7.1596   3.5905  -0.4483 H              1 S1                 0.0000
     58 ****        -6.8373   5.0582  -1.3853 H              1 S1                 0.0000
     59 ****        -5.7939   4.6325  -0.0193 H              1 S1                 0.0000
     60 ****        -4.6154  -0.0339  -2.8844 H              1 S1                 0.0000
     61 ****        -4.2501  -0.4433  -1.2281 H              1 S1                 0.0000
     62 ****         0.9116   2.1410  -1.3672 LP             1 S1                 0.0000
     63 ****         4.2282   0.2589   0.1268 LP             1 S1                 0.0000
     64 ****        -0.4540  -2.3338   0.5514 LP             1 S1                 0.0000
     65 ****         3.5272  -2.7240   4.6252 LP             1 S1                 0.0000
     66 ****         3.3664  -3.8037   3.4107 LP             1 S1                 0.0000
     67 ****         7.4145   0.1232   2.9509 LP             1 S1                 0.0000
     68 ****         6.6161  -0.4321   4.2628 LP             1 S1                 0.0000
     69 ****        -3.4177   2.0060  -2.6050 LP             1 S1                 0.0000
@<TRIPOS>BOND
    1    1    2 1     
    2    1   30 1     
    3    1   31 1     
    4    1   32 1     
    5    2   29 1     
    6    2    3 1     
    7    2   33 1     
    8    3    4 1     
    9    3   34 1     
   10    3   35 1     
   11    4    5 1     
   12    4   22 1     
   13    5   10 ar    
   14    5    6 ar    
   15    6    7 ar    
   16    7    8 ar    
   17    7   36 1     
   18    8    9 ar    
   19    9   13 1     
   20    9   10 ar    
   21   10   11 1     
   22   11   12 2     
   23   12   13 1     
   24   12   37 1     
   25   13   14 1     
   26   14   15 1     
   27   14   38 1     
   28   14   39 1     
   29   15   21 1     
   30   15   16 1     
   31   15   17 1     
   32   16   40 1     
   33   17   18 1     
   34   17   41 1     
   35   17   42 1     
   36   18   19 1     
   37   18   43 1     
   38   18   44 1     
   39   19   20 1     
   40   20   21 1     
   41   20   45 1     
   42   20   46 1     
   43   21   47 1     
   44   21   48 1     
   45   22   23 1     
   46   22   49 1     
   47   22   50 1     
   48   23   24 1     
   49   23   51 1     
   50   23   52 1     
   51   24   25 1     
   52   24   29 1     
   53   25   27 1     
   54   25   26 1     
   55   25   53 1     
   56   26   27 1     
   57   26   54 1     
   58   26   55 1     
   59   27   28 1     
   60   27   56 1     
   61   28   57 1     
   62   28   58 1     
   63   28   59 1     
   64   29   60 1     
   65   29   61 1     
   66    6   62 1     
   67    8   63 1     
   68   11   64 1     
   69   16   65 1     
   70   16   66 1     
   71   19   67 1     
   72   19   68 1     
   73   24   69 1     
@<TRIPOS>SUBSTRUCTURE
      1 S1             1
@<TRIPOS>SET
LONE_PAIRS      STATIC     ATOMS    <user>   **** ""
8 62 63 64 65 66 67 68 69
DONOR_HYDROGENS      STATIC     ATOMS    <user>   **** ""
1 40
ATOM$BLUE        STATIC     ATOMS    COLORGROUP SYSTEM
8 62 63 64 65 66 67 68 69
ATOM$RED        STATIC     ATOMS    COLORGROUP SYSTEM
1 40
