AV-unprocessed.smi:3252|AV-procd|sdf|12441|dock7
  -GOLD-   2272018333D 1   1.00000     0.00000
 Structure written by MMmdl.
 37 38  0  0  0  0  0  0  0  0  2 V2000
  143.3654  132.4164  150.5304 C   0  0  0  0  0  0  0  0  0  0  0  0
  144.0712  133.1090  149.3564 C   0  0  0  0  0  0  0  0  0  0  0  0
  145.1457  134.0332  149.8067 N   0  3  1  0  0  0  0  0  0  0  0  0
  144.6365  135.2321  150.5154 C   0  0  0  0  0  0  0  0  0  0  0  0
  144.2523  134.8963  151.9666 C   0  0  0  0  0  0  0  0  0  0  0  0
  145.3789  134.3390  152.6300 O   0  0  0  0  0  0  0  0  0  0  0  0
  145.8108  133.1131  152.0476 C   0  0  2  0  0  0  0  0  0  0  0  0
  146.9833  132.5534  152.8728 C   0  0  0  0  0  0  0  0  0  0  0  0
  147.9750  133.5721  153.1993 N   0  0  0  0  0  0  0  0  0  0  0  0
  148.9719  133.3523  154.1614 C   0  0  0  0  0  0  0  0  0  0  0  0
  149.3282  132.0223  154.4688 C   0  0  0  0  0  0  0  0  0  0  0  0
  150.3286  131.7913  155.4335 C   0  0  0  0  0  0  0  0  0  0  0  0
  150.9378  132.8982  156.0567 C   0  0  0  0  0  0  0  0  0  0  0  0
  151.9728  132.7130  157.0592 C   0  0  0  0  0  0  0  0  0  0  0  0
  152.7971  132.5657  157.8575 N   0  0  0  0  0  0  0  0  0  0  0  0
  150.5177  134.1904  155.6827 C   0  0  0  0  0  0  0  0  0  0  0  0
  149.5602  134.4168  154.7575 N   0  0  0  0  0  0  0  0  0  0  0  0
  146.2352  133.3920  150.5882 C   0  0  0  0  0  0  0  0  0  0  0  0
  142.6545  131.6747  150.1655 H   0  0  0  0  0  0  0  0  0  0  0  0
  142.8082  133.1205  151.1473 H   0  0  0  0  0  0  0  0  0  0  0  0
  144.0811  131.8991  151.1704 H   0  0  0  0  0  0  0  0  0  0  0  0
  144.5123  132.3300  148.7335 H   0  0  0  0  0  0  0  0  0  0  0  0
  143.3466  133.6266  148.7282 H   0  0  0  0  0  0  0  0  0  0  0  0
  145.4227  135.9881  150.5185 H   0  0  0  0  0  0  0  0  0  0  0  0
  143.7933  135.6706  149.9806 H   0  0  0  0  0  0  0  0  0  0  0  0
  143.9484  135.8017  152.4924 H   0  0  0  0  0  0  0  0  0  0  0  0
  143.4073  134.2075  152.0075 H   0  0  0  0  0  0  0  0  0  0  0  0
  144.9941  132.3897  152.0664 H   0  0  0  0  0  0  0  0  0  0  0  0
  146.6020  132.1747  153.8213 H   0  0  0  0  0  0  0  0  0  0  0  0
  147.4413  131.6998  152.3724 H   0  0  0  0  0  0  0  0  0  0  0  0
  148.0249  134.3974  152.6194 H   0  0  0  0  0  0  0  0  0  0  0  0
  148.8456  131.1899  153.9775 H   0  0  0  0  0  0  0  0  0  0  0  0
  150.6182  130.7814  155.6866 H   0  0  0  0  0  0  0  0  0  0  0  0
  150.9568  135.0688  156.1337 H   0  0  0  0  0  0  0  0  0  0  0  0
  146.5763  132.4775  150.1045 H   0  0  0  0  0  0  0  0  0  0  0  0
  147.0906  134.0692  150.5869 H   0  0  0  0  0  0  0  0  0  0  0  0
  145.5671  134.3774  148.9556 H   0  0  0  0  0  0  0  0  0  0  0  0
  1  2  1  0  0  0  0
  1 19  1  0  0  0  0
  1 20  1  0  0  0  0
  1 21  1  0  0  0  0
  2  3  1  0  0  0  0
  2 22  1  0  0  0  0
  2 23  1  0  0  0  0
  3 18  1  0  0  0  0
  3  4  1  0  0  0  0
  3 37  1  0  0  0  0
  4  5  1  0  0  0  0
  4 24  1  0  0  0  0
  4 25  1  0  0  0  0
  5  6  1  0  0  0  0
  5 26  1  0  0  0  0
  5 27  1  0  0  0  0
  6  7  1  0  0  0  0
  7  8  1  0  0  0  0
  7 18  1  0  0  0  0
  7 28  1  0  0  0  0
  8  9  1  0  0  0  0
  8 29  1  0  0  0  0
  8 30  1  0  0  0  0
  9 10  1  0  0  0  0
  9 31  1  0  0  0  0
 10 17  1  0  0  0  0
 10 11  2  0  0  0  0
 11 12  1  0  0  0  0
 11 32  1  0  0  0  0
 12 13  2  0  0  0  0
 12 33  1  0  0  0  0
 13 14  1  0  0  0  0
 13 16  1  0  0  0  0
 14 15  3  0  0  0  0
 16 17  2  0  0  0  0
 16 34  1  0  0  0  0
 18 35  1  0  0  0  0
 18 36  1  0  0  0  0
M  CHG  1   3   1
M  END
> <s_m_source_file>
AV-unprocessed.smi

> <i_m_source_file_index>
3252

> <i_lp_mmshare_version>
43012

> <i_f3d_flags>
0

> <s_epik_input>
W0NIM11bQ0gyXU4xW0NIMl1bQ0gyXU9bQ0BIXShbQ0gyXTEpW0NIMl1bTkhdYzJbY0hdW2NIXWMoQyNOKVtjSF1uMg==

> <s_epik_cmdline>
J2VwaWtfcHl0aG9uJywgJy1waCcsICc3LjAnLCAnLXRuJywgJzgnLCAnLW1hJywgJzIwMCcsICctbWV0YWxfYmluZGluZycsICctaW1hZScsICc8aW5maWxlLm1hZT4nLCAnLW9tYWUnLCAnPG91dGZpbGUubWFlPic=

> <r_epik_Ionization_Penalty>
0.178512

> <r_epik_Ionization_Penalty_Charging>
0.178504

> <r_epik_Ionization_Penalty_Neutral>
8.15545e-06

> <r_epik_State_Penalty>
0.167974

> <r_epik_Charging_Adjusted_Penalty>
0.346478

> <i_epik_Tot_Q>
1

> <i_epik_Tot_abs_Q>
1

> <r_epik_Metal_State_Penalty>
0.167974

> <b_epik_Metal_Only>
0

> <s_lp_Force_Field>
OPLS_2005

> <r_lp_Energy>
19.5584

> <b_lp_Chiralities_Consistent>
1

> <s_lp_Variant>
AV-unprocessed.smi:3252-3

> <Gold.Version>
5.8.1

> <Gold.Id.Protein>
6NUR|6NUR_protein|mol2

> <Gold.PLP.Fitness>
40.0219

> <Gold.PLP.PLP>
-32.9237

> <Gold.PLP.part.hbond>
-3.0000

> <Gold.PLP.part.metal>
0.0000

> <Gold.PLP.part.buried>
-4.6056

> <Gold.PLP.part.nonpolar>
-25.2306

> <Gold.PLP.part.repulsive>
0.3362

> <Gold.PLP.ligand.clash>
1.2951

> <Gold.PLP.ligand.torsion>
0.3020

> <Gold.PLP.Chemscore.Hbond>
2.9920

> <Gold.PLP.Chemscore.CHOScore>
0.0000

> <Gold.PLP.Chemscore.Metal>
0.0000

> <Gold.Chemscore.Hbonds>
donor molecule, donor type, donor heavy atom, donor atom, acceptor molecule, acceptor atom, score
      L1  H     3    37       P1  7921  0.93
      L1  H     9    31       P1  7948  0.71
      P1  H  6896  6907       L1    15  1.00

> <Gold.PLP.Chemscore.Internal.Correction>
0.0214

> <Gold.Rescore>
     Score         DG    S(hbond)    S(metal)    S(lipo)     H(rot)  DE(clash)    DE(int)     intcor
     15.64     -17.45       2.22        0.00      71.11       1.47       0.08       1.73       ----

> <Gold.Chemscore.Fitness>
15.6418

> <Gold.Chemscore.DG>
-17.4503

> <Gold.Chemscore.ZeroCoef>
-5.4800

> <Gold.Chemscore.Hbond>
2.2183

> <Gold.Chemscore.Metal>
0.0000

> <Gold.Chemscore.Lipo>
71.1065

> <Gold.Chemscore.Internal_Hbond>
0.0000

> <Gold.Chemscore.DEClash>
0.0811

> <Gold.Chemscore.DEInternal>
1.7275

> <Gold.Chemscore.Rot>
1.4681

> <Gold.Chemscore.Internal.Correction>
   9.000000E+99

> <Gold.Chemscore.Hbonds>
donor molecule, donor type, donor heavy atom, donor atom, acceptor molecule, acceptor atom, score
      L1  H     3    37       P1  7921  0.82
      L1  H     9    31       P1  7948  0.28
      P1  H  6896  6907       L1    15  0.53

> <Gold.Chemscore.Hbond.Weighted>
-7.4093

> <Gold.Chemscore.Metal.Weighted>
-0.0000

> <Gold.Chemscore.Lipo.Weighted>
-8.3195

> <Gold.Chemscore.Internal_Hbond.Weighted>
0.0000

> <Gold.Chemscore.DEClash.Weighted>
0.0811

> <Gold.Chemscore.DEInternal.Weighted>
1.7275

> <Gold.Chemscore.Rot.Weighted>
3.7584

> <Gold.Chemscore.Internal.Correction.Weighted>
   9.000000E+99

> <Gold.Protein.RotatedTorsions>
[ 6907 6896 6895 6894 ] final  147.44 input  -60.11 | X-H torsion
[ 7974 7965 7964 7962 ] final   22.43 input  175.53 | X-H torsion
[ 8008 7997 7996 7995 ] final   97.74 input   59.86 | X-H torsion
[ 10167 10162 10161 10158 ] final  107.29 input  -65.29 | X-H torsion
[ 10718 10713 10712 10709 ] final   71.78 input   66.30 | X-H torsion
[ 10763 10752 10751 10750 ] final  163.01 input  -60.55 | X-H torsion
[ 11005 11000 10999 10996 ] final -161.30 input  -57.11 | X-H torsion

> <Gold.Protein.ActiveResidues>
 VAL166  LYS551  ARG553  GLY616  TRP617  ASP618  TYR619  PRO620  LYS621  CYS622 
 ASP623  PHE694  ASN695  SER759  ASP760  ASP761  ALA762  ILE779  LEU786  VAL792 
 PHE793  MET794  SER795  GLU796  ALA797  LYS798  CYS799  TRP800  GLU811  SER814 

> <Gold.Protein.RotatedAtoms>
  152.1548  133.4544  159.4830 H   0  0  0  0  0  0  0  0  0  0  0  0  # atno 6907 bound_to 6896
  150.6899  134.2145  159.4381 H   0  0  0  0  0  0  0  0  0  0  0  0  # atno 6908 bound_to 6896
  152.0044  134.9910  160.0617 H   0  0  0  0  0  0  0  0  0  0  0  0  # atno 6909 bound_to 6896
  146.2029  139.7887  142.8748 H   0  0  0  0  0  0  0  0  0  0  0  0  # atno 7974 bound_to 7965
  156.0933  140.3254  155.7844 H   0  0  0  0  0  0  0  0  0  0  0  0  # atno 8008 bound_to 7997
  155.4961  140.0565  157.2963 H   0  0  0  0  0  0  0  0  0  0  0  0  # atno 8009 bound_to 7997
  154.4651  140.1985  156.0157 H   0  0  0  0  0  0  0  0  0  0  0  0  # atno 8010 bound_to 7997
  139.6939  144.7104  151.1300 H   0  0  0  0  0  0  0  0  0  0  0  0  # atno 10167 bound_to 10162
  157.6469  130.9546  150.0837 H   0  0  0  0  0  0  0  0  0  0  0  0  # atno 10718 bound_to 10713
  154.2872  135.2762  155.2671 H   0  0  0  0  0  0  0  0  0  0  0  0  # atno 10763 bound_to 10752
  154.5166  135.5768  153.6650 H   0  0  0  0  0  0  0  0  0  0  0  0  # atno 10764 bound_to 10752
  152.9920  135.6194  154.3034 H   0  0  0  0  0  0  0  0  0  0  0  0  # atno 10765 bound_to 10752
  140.6220  134.4741  157.5224 H   0  0  0  0  0  0  0  0  0  0  0  0  # atno 11005 bound_to 11000
  145.3421  141.0290  143.3386 LP  0  0  0  0  0  0  0  0  0  0  0  0  # atno 17320 bound_to 7965
  144.8725  139.5018  143.6761 LP  0  0  0  0  0  0  0  0  0  0  0  0  # atno 17321 bound_to 7965
  140.7691  143.5519  150.9195 LP  0  0  0  0  0  0  0  0  0  0  0  0  # atno 17342 bound_to 10162
  139.9198  143.6620  152.3099 LP  0  0  0  0  0  0  0  0  0  0  0  0  # atno 17343 bound_to 10162
  156.1806  130.3650  149.9040 LP  0  0  0  0  0  0  0  0  0  0  0  0  # atno 17370 bound_to 10713
  156.6993  130.8927  151.3597 LP  0  0  0  0  0  0  0  0  0  0  0  0  # atno 17371 bound_to 10713
  139.9150  134.8266  156.1398 LP  0  0  0  0  0  0  0  0  0  0  0  0  # atno 17394 bound_to 11000
  141.0736  133.6785  156.2190 LP  0  0  0  0  0  0  0  0  0  0  0  0  # atno 17395 bound_to 11000

$$$$
