AV-unprocessed.smi:599|AV-procd|sdf|3029|dock7
  -GOLD-   2262023543D 1   1.00000     0.00000
 Structure written by MMmdl.
 36 37  0  0  0  0  0  0  0  0  1 V2000
  148.8146  139.2541  157.3314 N   0  0  0  0  0  0  0  0  0  0  0  0
  148.8240  140.2100  156.6794 C   0  0  0  0  0  0  0  0  0  0  0  0
  148.8367  141.4298  155.8484 C   0  0  0  0  0  0  0  0  0  0  0  0
  149.6761  142.4771  156.4302 N   0  0  0  0  0  0  0  0  0  0  0  0
  150.9332  142.3219  156.8749 C   0  0  0  0  0  0  0  0  0  0  0  0
  151.5373  141.2501  156.8275 O   0  0  0  0  0  0  0  0  0  0  0  0
  151.6092  143.5778  157.4417 C   0  0  0  0  0  0  0  0  0  0  0  0
  152.0030  143.4323  158.8530 N   0  0  0  0  0  0  0  0  0  0  0  0
  152.8426  142.3488  159.1784 C   0  0  0  0  0  0  0  0  0  0  0  0
  153.2814  142.1116  160.4297 C   0  0  0  0  0  0  0  0  0  0  0  0
  154.1349  140.8979  160.7628 C   0  0  0  0  0  0  0  0  0  0  0  0
  154.4085  140.8474  162.0665 F   0  0  0  0  0  0  0  0  0  0  0  0
  153.5192  139.7657  160.4197 F   0  0  0  0  0  0  0  0  0  0  0  0
  155.2884  140.9602  160.0992 F   0  0  0  0  0  0  0  0  0  0  0  0
  152.8189  143.0221  161.4588 C   0  0  0  0  0  0  0  0  0  0  0  0
  152.0042  144.0547  161.1670 C   0  0  0  0  0  0  0  0  0  0  0  0
  151.5480  144.3081  159.7985 C   0  0  0  0  0  0  0  0  0  0  0  0
  150.8035  145.2483  159.5191 O   0  0  0  0  0  0  0  0  0  0  0  0
  149.3417  141.0947  154.4387 C   0  0  0  0  0  0  0  0  0  0  0  0
  148.1297  140.5101  153.7148 C   0  0  0  0  0  0  0  0  0  0  0  0
  146.9209  141.2549  154.2881 C   0  0  0  0  0  0  0  0  0  0  0  0
  147.4009  141.9292  155.5824 C   0  0  0  0  0  0  0  0  0  0  0  0
  149.2632  143.3956  156.5031 H   0  0  0  0  0  0  0  0  0  0  0  0
  152.4778  143.8039  156.8222 H   0  0  0  0  0  0  0  0  0  0  0  0
  150.9451  144.4367  157.3253 H   0  0  0  0  0  0  0  0  0  0  0  0
  153.0987  141.7128  158.3434 H   0  0  0  0  0  0  0  0  0  0  0  0
  153.1335  142.8762  162.4818 H   0  0  0  0  0  0  0  0  0  0  0  0
  151.6804  144.7135  161.9594 H   0  0  0  0  0  0  0  0  0  0  0  0
  149.6574  142.0032  153.9225 H   0  0  0  0  0  0  0  0  0  0  0  0
  150.1918  140.4113  154.4453 H   0  0  0  0  0  0  0  0  0  0  0  0
  148.2047  140.6062  152.6313 H   0  0  0  0  0  0  0  0  0  0  0  0
  148.0457  139.4473  153.9457 H   0  0  0  0  0  0  0  0  0  0  0  0
  146.5613  142.0070  153.5847 H   0  0  0  0  0  0  0  0  0  0  0  0
  146.0970  140.5662  154.4779 H   0  0  0  0  0  0  0  0  0  0  0  0
  146.7341  141.7221  156.4206 H   0  0  0  0  0  0  0  0  0  0  0  0
  147.3945  143.0105  155.4340 H   0  0  0  0  0  0  0  0  0  0  0  0
  1  2  3  0  0  0  0
  2  3  1  0  0  0  0
  3 22  1  0  0  0  0
  3  4  1  0  0  0  0
  3 19  1  0  0  0  0
  4  5  1  0  0  0  0
  4 23  1  0  0  0  0
  5  6  2  0  0  0  0
  5  7  1  0  0  0  0
  7  8  1  0  0  0  0
  7 24  1  0  0  0  0
  7 25  1  0  0  0  0
  8 17  1  0  0  0  0
  8  9  1  0  0  0  0
  9 10  2  0  0  0  0
  9 26  1  0  0  0  0
 10 11  1  0  0  0  0
 10 15  1  0  0  0  0
 11 12  1  0  0  0  0
 11 13  1  0  0  0  0
 11 14  1  0  0  0  0
 15 16  2  0  0  0  0
 15 27  1  0  0  0  0
 16 17  1  0  0  0  0
 16 28  1  0  0  0  0
 17 18  2  0  0  0  0
 19 20  1  0  0  0  0
 19 29  1  0  0  0  0
 19 30  1  0  0  0  0
 20 21  1  0  0  0  0
 20 31  1  0  0  0  0
 20 32  1  0  0  0  0
 21 22  1  0  0  0  0
 21 33  1  0  0  0  0
 21 34  1  0  0  0  0
 22 35  1  0  0  0  0
 22 36  1  0  0  0  0
M  END
> <s_m_source_file>
AV-unprocessed.smi

> <i_m_source_file_index>
599

> <i_lp_mmshare_version>
43012

> <i_f3d_flags>
0

> <s_epik_input>
W0NIMl0xW0NIMl1bQ0gyXVtDSDJdQzEoQyNOKVtOSF1DKD1PKVtDSDJdbjJbY0hdYyhDKEYpKEYpRilbY0hdW2NIXWMyPU8=

> <s_epik_cmdline>
J2VwaWtfcHl0aG9uJywgJy1waCcsICc3LjAnLCAnLXRuJywgJzgnLCAnLW1hJywgJzIwMCcsICctbWV0YWxfYmluZGluZycsICctaW1hZScsICc8aW5maWxlLm1hZT4nLCAnLW9tYWUnLCAnPG91dGZpbGUubWFlPic=

> <r_lp_tautomer_probability>
1

> <r_epik_Ionization_Penalty>
4.74739e-07

> <r_epik_Ionization_Penalty_Charging>
1.48482e-08

> <r_epik_Ionization_Penalty_Neutral>
4.59891e-07

> <r_epik_State_Penalty>
-0

> <r_epik_Charging_Adjusted_Penalty>
1.48482e-08

> <i_epik_Tot_Q>
0

> <i_epik_Tot_abs_Q>
0

> <r_epik_Metal_State_Penalty>
-0

> <b_epik_Metal_Only>
0

> <s_lp_Force_Field>
OPLS_2005

> <r_lp_Energy>
29.4695

> <b_lp_Chiralities_Consistent>
1

> <s_lp_Variant>
AV-unprocessed.smi:599-1

> <Gold.Version>
5.8.1

> <Gold.Id.Protein>
6NUR|6NUR_protein|mol2

> <Gold.PLP.Fitness>
50.5752

> <Gold.PLP.PLP>
-48.3651

> <Gold.PLP.part.hbond>
-0.7452

> <Gold.PLP.part.metal>
0.0000

> <Gold.PLP.part.buried>
-2.9299

> <Gold.PLP.part.nonpolar>
-44.8395

> <Gold.PLP.part.repulsive>
0.2621

> <Gold.PLP.ligand.clash>
0.0000

> <Gold.PLP.ligand.torsion>
0.1748

> <Gold.PLP.Chemscore.Hbond>
0.8320

> <Gold.PLP.Chemscore.CHOScore>
0.0000

> <Gold.PLP.Chemscore.Metal>
0.0000

> <Gold.Chemscore.Hbonds>
donor molecule, donor type, donor heavy atom, donor atom, acceptor molecule, acceptor atom, score
      L1  H     4    23       P1  8028  0.88

> <Gold.PLP.Chemscore.Internal.Correction>
0.0636

> <Gold.Rescore>
     Score         DG    S(hbond)    S(metal)    S(lipo)     H(rot)  DE(clash)    DE(int)     intcor
     13.21     -15.38       0.96        0.00      93.54       1.66       0.03       2.14       ----

> <Gold.Chemscore.Fitness>
13.2070

> <Gold.Chemscore.DG>
-15.3835

> <Gold.Chemscore.ZeroCoef>
-5.4800

> <Gold.Chemscore.Hbond>
0.9606

> <Gold.Chemscore.Metal>
0.0000

> <Gold.Chemscore.Lipo>
93.5422

> <Gold.Chemscore.Internal_Hbond>
0.0000

> <Gold.Chemscore.DEClash>
0.0329

> <Gold.Chemscore.DEInternal>
2.1436

> <Gold.Chemscore.Rot>
1.6599

> <Gold.Chemscore.Internal.Correction>
   9.000000E+99

> <Gold.Chemscore.Hbonds>
donor molecule, donor type, donor heavy atom, donor atom, acceptor molecule, acceptor atom, score
      L1  H     4    23       P1  8028  0.85

> <Gold.Chemscore.Hbond.Weighted>
-3.2083

> <Gold.Chemscore.Metal.Weighted>
-0.0000

> <Gold.Chemscore.Lipo.Weighted>
-10.9444

> <Gold.Chemscore.Internal_Hbond.Weighted>
0.0000

> <Gold.Chemscore.DEClash.Weighted>
0.0329

> <Gold.Chemscore.DEInternal.Weighted>
2.1436

> <Gold.Chemscore.Rot.Weighted>
4.2492

> <Gold.Chemscore.Internal.Correction.Weighted>
   9.000000E+99

> <Gold.Protein.RotatedTorsions>
[ 6907 6896 6895 6894 ] final   44.06 input  -60.11 | X-H torsion
[ 7974 7965 7964 7962 ] final   -6.04 input  175.53 | X-H torsion
[ 8008 7997 7996 7995 ] final  136.44 input   59.86 | X-H torsion
[ 10167 10162 10161 10158 ] final  136.76 input  -65.29 | X-H torsion
[ 10718 10713 10712 10709 ] final -163.84 input   66.30 | X-H torsion
[ 10763 10752 10751 10750 ] final  136.75 input  -60.55 | X-H torsion
[ 11005 11000 10999 10996 ] final  -93.76 input  -57.11 | X-H torsion

> <Gold.Protein.ActiveResidues>
 VAL166  LYS551  ARG553  GLY616  TRP617  ASP618  TYR619  PRO620  LYS621  CYS622 
 ASP623  PHE694  ASN695  SER759  ASP760  ASP761  ALA762  ILE779  LEU786  VAL792 
 PHE793  MET794  SER795  GLU796  ALA797  LYS798  CYS799  TRP800  GLU811  SER814 

> <Gold.Protein.RotatedAtoms>
  152.2279  134.8350  160.0477 H   0  0  0  0  0  0  0  0  0  0  0  0  # atno 6907 bound_to 6896
  151.9109  133.3556  159.3871 H   0  0  0  0  0  0  0  0  0  0  0  0  # atno 6908 bound_to 6896
  150.7017  134.4658  159.5446 H   0  0  0  0  0  0  0  0  0  0  0  0  # atno 6909 bound_to 6896
  146.2340  140.2112  142.8335 H   0  0  0  0  0  0  0  0  0  0  0  0  # atno 7974 bound_to 7965
  156.3004  140.2445  156.3746 H   0  0  0  0  0  0  0  0  0  0  0  0  # atno 8008 bound_to 7997
  154.8757  140.0414  157.1771 H   0  0  0  0  0  0  0  0  0  0  0  0  # atno 8009 bound_to 7997
  154.8748  140.2940  155.5463 H   0  0  0  0  0  0  0  0  0  0  0  0  # atno 8010 bound_to 7997
  139.5168  144.6447  151.5473 H   0  0  0  0  0  0  0  0  0  0  0  0  # atno 10167 bound_to 10162
  156.6304  130.8927  151.2976 H   0  0  0  0  0  0  0  0  0  0  0  0  # atno 10718 bound_to 10713
  153.8616  135.3066  155.3438 H   0  0  0  0  0  0  0  0  0  0  0  0  # atno 10763 bound_to 10752
  154.7846  135.4817  153.9921 H   0  0  0  0  0  0  0  0  0  0  0  0  # atno 10764 bound_to 10752
  153.1458  135.6833  153.9051 H   0  0  0  0  0  0  0  0  0  0  0  0  # atno 10765 bound_to 10752
  141.1488  133.7910  157.0204 H   0  0  0  0  0  0  0  0  0  0  0  0  # atno 11005 bound_to 11000
  144.9705  140.8364  143.5458 LP  0  0  0  0  0  0  0  0  0  0  0  0  # atno 17320 bound_to 7965
  145.2093  139.2213  143.5152 LP  0  0  0  0  0  0  0  0  0  0  0  0  # atno 17321 bound_to 7965
  140.6227  143.9228  150.6539 LP  0  0  0  0  0  0  0  0  0  0  0  0  # atno 17342 bound_to 10162
  140.2506  143.3596  152.1409 LP  0  0  0  0  0  0  0  0  0  0  0  0  # atno 17343 bound_to 10162
  157.7201  130.9548  150.1407 LP  0  0  0  0  0  0  0  0  0  0  0  0  # atno 17370 bound_to 10713
  156.2239  130.3676  149.8524 LP  0  0  0  0  0  0  0  0  0  0  0  0  # atno 17371 bound_to 10713
  140.0819  134.9643  157.1638 LP  0  0  0  0  0  0  0  0  0  0  0  0  # atno 17394 bound_to 11000
  140.3565  134.2542  155.7192 LP  0  0  0  0  0  0  0  0  0  0  0  0  # atno 17395 bound_to 11000

$$$$
