#       Name:                AV-unprocessed.smi:1803
#       Creating user name   scv26
#       Creation time:       Fri Mar 27 08:54:19 2020


#       File generated by GOLD software.
#

@<TRIPOS>MOLECULE
AV-unprocessed.smi:1803
    40    42     1
SMALL
NO_CHARGES


@<TRIPOS>ATOM
      1 ****        -1.8613  -2.4627   0.0016 O.2            1 S1                 0.0000
      2 ****        -0.7090  -2.4547   0.4305 C.2            1 S1                 0.0000
      3 ****         0.0270  -3.5864   0.4689 N.am           1 S1                 0.0000
      4 ****        -0.2705  -4.9252   0.0786 C.2            1 S1                 0.0000
      5 ****        -1.4684  -5.3419  -0.3644 N.2            1 S1                 0.0000
      6 ****        -1.4747  -6.6981  -0.6608 N.2            1 S1                 0.0000
      7 ****        -0.2843  -7.2560  -0.4244 C.2            1 S1                 0.0000
      8 ****         0.9598  -6.1774   0.1828 S.3            1 S1                 0.0000
      9 ****        -0.1140  -1.3396   0.8851 N.am           1 S1                 0.0000
     10 ****        -0.7144  -0.0103   0.9260 C.3            1 S1                 0.0000
     11 ****        -0.1366   0.8709   2.0480 C.3            1 S1                 0.0000
     12 ****        -0.0431   2.2881   1.4489 C.3            1 S1                 0.0000
     13 ****        -0.6476   2.1857   0.1071 N.4            1 S1                 1.0000
     14 ****        -0.2333   3.1896  -0.8973 C.3            1 S1                 0.0000
     15 ****        -1.0327   2.9679  -2.1968 C.3            1 S1                 0.0000
     16 ****        -0.9196   1.5132  -2.6967 C.3            1 S1                 0.0000
     17 ****        -1.2710   0.5114  -1.5796 C.3            1 S1                 0.0000
     18 ****        -0.4141   0.8028  -0.3359 C.3            1 S1                 0.0000
     19 ****         0.9453  -3.4695   0.8724 H              1 S1                 0.0000
     20 ****        -0.1383  -8.3103  -0.6075 H              1 S1                 0.0000
     21 ****         0.8345  -1.4217   1.2237 H              1 S1                 0.0000
     22 ****        -1.7952  -0.0804   1.0670 H              1 S1                 0.0000
     23 ****        -0.7734   0.8451   2.9330 H              1 S1                 0.0000
     24 ****         0.8562   0.5338   2.3502 H              1 S1                 0.0000
     25 ****        -0.5647   3.0312   2.0527 H              1 S1                 0.0000
     26 ****         1.0021   2.5907   1.3668 H              1 S1                 0.0000
     27 ****        -0.4149   4.1926  -0.5096 H              1 S1                 0.0000
     28 ****         0.8379   3.1054  -1.0875 H              1 S1                 0.0000
     29 ****        -2.0824   3.2047  -2.0177 H              1 S1                 0.0000
     30 ****        -0.6901   3.6570  -2.9692 H              1 S1                 0.0000
     31 ****        -1.5713   1.3600  -3.5574 H              1 S1                 0.0000
     32 ****         0.0980   1.3273  -3.0429 H              1 S1                 0.0000
     33 ****        -2.3309   0.5859  -1.3324 H              1 S1                 0.0000
     34 ****        -1.1009  -0.5072  -1.9290 H              1 S1                 0.0000
     35 ****         0.6432   0.6932  -0.5895 H              1 S1                 0.0000
     36 ****        -1.6452   2.2796   0.2334 H              1 S1                 0.0000
     37 ****        -2.2671  -3.3161  -0.3257 LP             1 S1                 0.0000
     38 ****        -2.3927  -1.6158  -0.0199 LP             1 S1                 0.0000
     39 ****        -2.2635  -4.7443  -0.4686 LP             1 S1                 0.0000
     40 ****        -2.2702  -7.1949  -1.0076 LP             1 S1                 0.0000
@<TRIPOS>BOND
    1    1    2 2     
    2    2    3 am    
    3    2    9 am    
    4    3    4 1     
    5    3   19 1     
    6    4    8 1     
    7    4    5 2     
    8    5    6 1     
    9    6    7 2     
   10    7    8 1     
   11    7   20 1     
   12    9   10 1     
   13    9   21 1     
   14   10   18 1     
   15   10   11 1     
   16   10   22 1     
   17   11   12 1     
   18   11   23 1     
   19   11   24 1     
   20   12   13 1     
   21   12   25 1     
   22   12   26 1     
   23   13   18 1     
   24   13   14 1     
   25   13   36 1     
   26   14   15 1     
   27   14   27 1     
   28   14   28 1     
   29   15   16 1     
   30   15   29 1     
   31   15   30 1     
   32   16   17 1     
   33   16   31 1     
   34   16   32 1     
   35   17   18 1     
   36   17   33 1     
   37   17   34 1     
   38   18   35 1     
   39    1   37 1     
   40    1   38 1     
   41    5   39 1     
   42    6   40 1     
@<TRIPOS>SUBSTRUCTURE
      1 S1             1
@<TRIPOS>SET
LONE_PAIRS      STATIC     ATOMS    <user>   **** ""
4 37 38 39 40
DONOR_HYDROGENS      STATIC     ATOMS    <user>   **** ""
3 19 21 36
ATOM$BLUE        STATIC     ATOMS    COLORGROUP SYSTEM
4 37 38 39 40
ATOM$RED        STATIC     ATOMS    COLORGROUP SYSTEM
3 19 21 36
