#       Name:                AV-unprocessed.smi:867
#       Creating user name   scv26
#       Creation time:       Fri Mar 27 01:48:22 2020


#       File generated by GOLD software.
#

@<TRIPOS>MOLECULE
AV-unprocessed.smi:867
    56    59     1
SMALL
NO_CHARGES


@<TRIPOS>ATOM
      1 ****         2.0407   0.7137  -1.7630 O.2            1 S1                 0.0000
      2 ****         1.5836  -0.2795  -1.1958 C.2            1 S1                 0.0000
      3 ****         2.3034  -1.4018  -1.0223 N.am           1 S1                 0.0000
      4 ****         3.6970  -1.5968  -1.4151 C.3            1 S1                 0.0000
      5 ****         3.8327  -2.2683  -2.7952 C.3            1 S1                 0.0000
      6 ****         3.2466  -1.4491  -3.9319 C.ar           1 S1                 0.0000
      7 ****         2.0171  -1.8110  -4.5267 C.ar           1 S1                 0.0000
      8 ****         1.4904  -1.0146  -5.5648 C.ar           1 S1                 0.0000
      9 ****         2.2060   0.1247  -5.9866 C.ar           1 S1                 0.0000
     10 ****         3.3805   0.4374  -5.3968 N.pl3          1 S1                 1.0000
     11 ****         3.9186  -0.2993  -4.4006 C.ar           1 S1                 0.0000
     12 ****         0.3029  -0.3566  -0.7555 N.am           1 S1                 0.0000
     13 ****        -0.2235  -1.3353   0.2047 C.3            1 S1                 0.0000
     14 ****        -0.4088  -0.6452   1.5689 C.3            1 S1                 0.0000
     15 ****        -1.2848   0.5581   1.4668 N.4            1 S1                 1.0000
     16 ****        -1.4685   1.2664   2.7662 C.3            1 S1                 0.0000
     17 ****        -2.5797   2.3446   2.7516 C.3            1 S1                 0.0000
     18 ****        -3.4100   2.0076   4.0048 C.3            1 S1                 0.0000
     19 ****        -4.2727   0.7691   3.7083 C.3            1 S1                 0.0000
     20 ****        -3.2289  -0.3606   3.6622 C.3            1 S1                 0.0000
     21 ****        -1.9043   0.3768   3.9575 C.3            1 S1                 0.0000
     22 ****        -2.3628   1.4366   4.9538 C.3            1 S1                 0.0000
     23 ****        -0.8539   1.4785   0.3749 C.3            1 S1                 0.0000
     24 ****        -0.6559   0.7319  -0.9569 C.3            1 S1                 0.0000
     25 ****         1.8504  -2.1832  -0.5706 H              1 S1                 0.0000
     26 ****         4.2400  -0.6503  -1.3964 H              1 S1                 0.0000
     27 ****         4.1673  -2.2277  -0.6607 H              1 S1                 0.0000
     28 ****         4.8870  -2.4471  -3.0092 H              1 S1                 0.0000
     29 ****         3.3590  -3.2507  -2.7748 H              1 S1                 0.0000
     30 ****         1.4775  -2.6835  -4.1879 H              1 S1                 0.0000
     31 ****         0.5501  -1.2731  -6.0295 H              1 S1                 0.0000
     32 ****         1.8774   0.7900  -6.7716 H              1 S1                 0.0000
     33 ****         4.8586   0.0569  -4.0048 H              1 S1                 0.0000
     34 ****        -1.1830  -1.7086  -0.1564 H              1 S1                 0.0000
     35 ****         0.4027  -2.2193   0.3242 H              1 S1                 0.0000
     36 ****        -0.8328  -1.3677   2.2654 H              1 S1                 0.0000
     37 ****         0.5627  -0.3513   1.9695 H              1 S1                 0.0000
     38 ****        -0.5192   1.7396   3.0253 H              1 S1                 0.0000
     39 ****        -2.1448   3.3422   2.8243 H              1 S1                 0.0000
     40 ****        -3.2005   2.3182   1.8553 H              1 S1                 0.0000
     41 ****        -3.9786   2.8519   4.3959 H              1 S1                 0.0000
     42 ****        -4.9914   0.5947   4.5102 H              1 S1                 0.0000
     43 ****        -4.8300   0.8615   2.7754 H              1 S1                 0.0000
     44 ****        -3.4372  -1.1001   4.4365 H              1 S1                 0.0000
     45 ****        -3.2242  -0.8811   2.7044 H              1 S1                 0.0000
     46 ****        -1.1144  -0.2727   4.3361 H              1 S1                 0.0000
     47 ****        -1.5827   2.1524   5.2191 H              1 S1                 0.0000
     48 ****        -2.7886   1.0177   5.8674 H              1 S1                 0.0000
     49 ****        -1.5879   2.2707   0.2305 H              1 S1                 0.0000
     50 ****         0.0793   1.9658   0.6624 H              1 S1                 0.0000
     51 ****        -0.3418   1.4296  -1.7346 H              1 S1                 0.0000
     52 ****        -1.6054   0.3184  -1.3000 H              1 S1                 0.0000
     53 ****        -2.1963   0.2129   1.2013 H              1 S1                 0.0000
     54 ****         3.8817   1.2670  -5.7154 H              1 S1                 0.0000
     55 ****         2.9774   0.7028  -2.1129 LP             1 S1                 0.0000
     56 ****         1.4751   1.5309  -1.8736 LP             1 S1                 0.0000
@<TRIPOS>BOND
    1    1    2 2     
    2    2    3 am    
    3    2   12 am    
    4    3    4 1     
    5    3   25 1     
    6    4    5 1     
    7    4   26 1     
    8    4   27 1     
    9    5    6 1     
   10    5   28 1     
   11    5   29 1     
   12    6   11 ar    
   13    6    7 ar    
   14    7    8 ar    
   15    7   30 1     
   16    8    9 ar    
   17    8   31 1     
   18    9   10 ar    
   19    9   32 1     
   20   10   11 ar    
   21   10   54 1     
   22   11   33 1     
   23   12   24 1     
   24   12   13 1     
   25   13   14 1     
   26   13   34 1     
   27   13   35 1     
   28   14   15 1     
   29   14   36 1     
   30   14   37 1     
   31   15   16 1     
   32   15   23 1     
   33   15   53 1     
   34   16   21 1     
   35   16   17 1     
   36   16   38 1     
   37   17   18 1     
   38   17   39 1     
   39   17   40 1     
   40   18   22 1     
   41   18   19 1     
   42   18   41 1     
   43   19   20 1     
   44   19   42 1     
   45   19   43 1     
   46   20   21 1     
   47   20   44 1     
   48   20   45 1     
   49   21   22 1     
   50   21   46 1     
   51   22   47 1     
   52   22   48 1     
   53   23   24 1     
   54   23   49 1     
   55   23   50 1     
   56   24   51 1     
   57   24   52 1     
   58    1   55 1     
   59    1   56 1     
@<TRIPOS>SUBSTRUCTURE
      1 S1             1
@<TRIPOS>SET
LONE_PAIRS      STATIC     ATOMS    <user>   **** ""
2 55 56
DONOR_HYDROGENS      STATIC     ATOMS    <user>   **** ""
3 25 54 53
ATOM$BLUE        STATIC     ATOMS    COLORGROUP SYSTEM
2 55 56
ATOM$RED        STATIC     ATOMS    COLORGROUP SYSTEM
3 25 54 53
