AV-unprocessed.smi:212|AV-procd|sdf|1623|dock6
  -GOLD-   2262019563D 1   1.00000     0.00000
 Structure written by MMmdl.
 65 68  0  0  0  0  0  0  0  0  2 V2000
  143.9869  135.8137  154.2475 C   0  0  0  0  0  0  0  0  0  0  0  0
  145.4018  136.1219  153.7289 C   0  0  2  0  0  0  0  0  0  0  0  0
  145.5601  135.7853  152.2311 C   0  0  0  0  0  0  0  0  0  0  0  0
  145.6006  134.3166  152.0010 N   0  3  1  0  0  0  0  0  0  0  0  0
  145.6231  133.9454  150.5615 C   0  0  0  0  0  0  0  0  0  0  0  0
  144.9932  132.5578  150.2945 C   0  0  0  0  0  0  0  0  0  0  0  0
  145.8636  131.4541  150.9189 C   0  0  0  0  0  0  0  0  0  0  0  0
  143.5490  132.4600  150.8210 C   0  0  0  0  0  0  0  0  0  0  0  0
  144.9748  132.3159  148.9017 O   0  0  0  0  0  0  0  0  0  0  0  0
  146.6695  133.6568  152.7920 C   0  0  0  0  0  0  0  0  0  0  0  0
  146.5312  133.9858  154.2899 C   0  0  0  0  0  0  0  0  0  0  0  0
  146.4283  135.4291  154.5122 N   0  0  0  0  0  0  0  0  0  0  0  0
  147.5630  136.1345  154.7615 C   0  0  0  0  0  0  0  0  0  0  0  0
  148.7093  135.4823  155.0931 N   0  0  0  0  0  0  0  0  0  0  0  0
  149.8330  136.1665  155.3281 C   0  0  0  0  0  0  0  0  0  0  0  0
  150.0300  137.4854  155.2891 N   0  0  0  0  0  0  0  0  0  0  0  0
  148.8822  138.1461  154.9654 C   0  0  0  0  0  0  0  0  0  0  0  0
  147.6171  137.5553  154.6891 C   0  0  0  0  0  0  0  0  0  0  0  0
  146.6836  138.5469  154.4093 N   0  0  0  0  0  0  0  0  0  0  0  0
  147.3598  139.6592  154.5079 C   0  0  0  0  0  0  0  0  0  0  0  0
  148.6891  139.5087  154.8320 N   0  0  0  0  0  0  0  0  0  0  0  0
  149.6708  140.5646  155.0046 C   0  0  0  0  0  0  0  0  0  0  0  0
  150.7563  140.2217  156.0550 C   0  0  1  0  0  0  0  0  0  0  0  0
  152.0788  139.7393  155.4107 C   0  0  0  0  0  0  0  0  0  0  0  0
  152.9039  139.0838  156.3523 O   0  0  0  0  0  0  0  0  0  0  0  0
  150.9743  141.3911  157.0480 C   0  0  2  0  0  0  0  0  0  0  0  0
  151.7276  141.0257  158.3150 C   0  0  0  0  0  0  0  0  0  0  0  0
  151.3728  142.1807  159.2445 C   0  0  0  0  0  0  0  0  0  0  0  0
  150.0527  142.5708  158.8842 O   0  0  0  0  0  0  0  0  0  0  0  0
  149.6862  141.9652  157.6482 C   0  0  0  0  0  0  0  0  0  0  0  0
  143.2381  136.3821  153.6953 H   0  0  0  0  0  0  0  0  0  0  0  0
  143.8920  136.0837  155.2997 H   0  0  0  0  0  0  0  0  0  0  0  0
  143.7336  134.7579  154.1501 H   0  0  0  0  0  0  0  0  0  0  0  0
  145.5340  137.1998  153.8210 H   0  0  0  0  0  0  0  0  0  0  0  0
  144.7487  136.2389  151.6622 H   0  0  0  0  0  0  0  0  0  0  0  0
  146.4853  136.2255  151.8553 H   0  0  0  0  0  0  0  0  0  0  0  0
  145.1304  134.7162  149.9657 H   0  0  0  0  0  0  0  0  0  0  0  0
  146.6546  133.9221  150.2059 H   0  0  0  0  0  0  0  0  0  0  0  0
  145.9226  131.5640  152.0022 H   0  0  0  0  0  0  0  0  0  0  0  0
  146.8824  131.4813  150.5303 H   0  0  0  0  0  0  0  0  0  0  0  0
  145.4603  130.4619  150.7124 H   0  0  0  0  0  0  0  0  0  0  0  0
  143.5067  132.6570  151.8929 H   0  0  0  0  0  0  0  0  0  0  0  0
  143.1334  131.4654  150.6545 H   0  0  0  0  0  0  0  0  0  0  0  0
  142.8866  133.1725  150.3278 H   0  0  0  0  0  0  0  0  0  0  0  0
  145.2810  133.0917  148.4567 H   0  0  0  0  0  0  0  0  0  0  0  0
  146.6172  132.5761  152.6546 H   0  0  0  0  0  0  0  0  0  0  0  0
  147.6428  133.9779  152.4185 H   0  0  0  0  0  0  0  0  0  0  0  0
  145.6328  133.5128  154.6871 H   0  0  0  0  0  0  0  0  0  0  0  0
  147.3618  133.5599  154.8544 H   0  0  0  0  0  0  0  0  0  0  0  0
  150.6981  135.5727  155.5838 H   0  0  0  0  0  0  0  0  0  0  0  0
  146.9069  140.6259  154.3403 H   0  0  0  0  0  0  0  0  0  0  0  0
  150.1314  140.7705  154.0375 H   0  0  0  0  0  0  0  0  0  0  0  0
  149.1332  141.4698  155.2877 H   0  0  0  0  0  0  0  0  0  0  0  0
  150.3777  139.3789  156.6350 H   0  0  0  0  0  0  0  0  0  0  0  0
  151.8821  139.0579  154.5834 H   0  0  0  0  0  0  0  0  0  0  0  0
  152.6325  140.5741  154.9814 H   0  0  0  0  0  0  0  0  0  0  0  0
  153.0690  138.2047  156.0472 H   0  0  0  0  0  0  0  0  0  0  0  0
  151.5114  142.1995  156.5494 H   0  0  0  0  0  0  0  0  0  0  0  0
  151.3534  140.0866  158.7253 H   0  0  0  0  0  0  0  0  0  0  0  0
  152.8034  140.9297  158.1652 H   0  0  0  0  0  0  0  0  0  0  0  0
  151.4356  141.9045  160.2974 H   0  0  0  0  0  0  0  0  0  0  0  0
  152.0427  143.0245  159.0743 H   0  0  0  0  0  0  0  0  0  0  0  0
  149.2049  142.6872  156.9880 H   0  0  0  0  0  0  0  0  0  0  0  0
  148.9684  141.1712  157.8584 H   0  0  0  0  0  0  0  0  0  0  0  0
  144.7306  133.9522  152.3621 H   0  0  0  0  0  0  0  0  0  0  0  0
  1  2  1  0  0  0  0
  1 31  1  0  0  0  0
  1 32  1  0  0  0  0
  1 33  1  0  0  0  0
  2 12  1  0  0  0  0
  2  3  1  0  0  0  0
  2 34  1  0  0  0  0
  3  4  1  0  0  0  0
  3 35  1  0  0  0  0
  3 36  1  0  0  0  0
  4  5  1  0  0  0  0
  4 10  1  0  0  0  0
  4 65  1  0  0  0  0
  5  6  1  0  0  0  0
  5 37  1  0  0  0  0
  5 38  1  0  0  0  0
  6  7  1  0  0  0  0
  6  8  1  0  0  0  0
  6  9  1  0  0  0  0
  7 39  1  0  0  0  0
  7 40  1  0  0  0  0
  7 41  1  0  0  0  0
  8 42  1  0  0  0  0
  8 43  1  0  0  0  0
  8 44  1  0  0  0  0
  9 45  1  0  0  0  0
 10 11  1  0  0  0  0
 10 46  1  0  0  0  0
 10 47  1  0  0  0  0
 11 12  1  0  0  0  0
 11 48  1  0  0  0  0
 11 49  1  0  0  0  0
 12 13  1  0  0  0  0
 13 18  1  0  0  0  0
 13 14  2  0  0  0  0
 14 15  1  0  0  0  0
 15 16  2  0  0  0  0
 15 50  1  0  0  0  0
 16 17  1  0  0  0  0
 17 21  1  0  0  0  0
 17 18  2  0  0  0  0
 18 19  1  0  0  0  0
 19 20  2  0  0  0  0
 20 21  1  0  0  0  0
 20 51  1  0  0  0  0
 21 22  1  0  0  0  0
 22 23  1  0  0  0  0
 22 52  1  0  0  0  0
 22 53  1  0  0  0  0
 23 24  1  0  0  0  0
 23 26  1  0  0  0  0
 23 54  1  0  0  0  0
 24 25  1  0  0  0  0
 24 55  1  0  0  0  0
 24 56  1  0  0  0  0
 25 57  1  0  0  0  0
 26 30  1  0  0  0  0
 26 27  1  0  0  0  0
 26 58  1  0  0  0  0
 27 28  1  0  0  0  0
 27 59  1  0  0  0  0
 27 60  1  0  0  0  0
 28 29  1  0  0  0  0
 28 61  1  0  0  0  0
 28 62  1  0  0  0  0
 29 30  1  0  0  0  0
 30 63  1  0  0  0  0
 30 64  1  0  0  0  0
M  CHG  1   4   1
M  END
> <s_m_source_file>
AV-unprocessed.smi

> <i_m_source_file_index>
212

> <i_lp_mmshare_version>
43012

> <i_f3d_flags>
0

> <s_epik_input>
W0NIM11bQ0BASF0xW0NIMl1OKFtDSDJdQyhbQ0gzXSkoW0NIM10pW09IXSlbQ0gyXVtDSDJdTjFjKG5bY0hdbjIpYyhjMjMpbltjSF1uM1tDSDJdW0NASF0oW0NIMl1bT0hdKVtDQEBIXTRbQ0gyXVtDSDJdT1tDSDJdNA==

> <s_epik_cmdline>
J2VwaWtfcHl0aG9uJywgJy1waCcsICc3LjAnLCAnLXRuJywgJzgnLCAnLW1hJywgJzIwMCcsICctbWV0YWxfYmluZGluZycsICctaW1hZScsICc8aW5maWxlLm1hZT4nLCAnLW9tYWUnLCAnPG91dGZpbGUubWFlPic=

> <r_lp_tautomer_probability>
1

> <r_epik_Ionization_Penalty>
0.00182193

> <r_epik_Ionization_Penalty_Charging>
0.00173996

> <r_epik_Ionization_Penalty_Neutral>
8.19718e-05

> <r_epik_State_Penalty>
-0

> <r_epik_Charging_Adjusted_Penalty>
0.00173996

> <i_epik_Tot_Q>
1

> <i_epik_Tot_abs_Q>
1

> <r_epik_Metal_State_Penalty>
-0

> <b_epik_Metal_Only>
0

> <s_lp_Force_Field>
OPLS_2005

> <r_lp_Energy>
57.8669

> <b_lp_Chiralities_Consistent>
1

> <s_lp_Variant>
AV-unprocessed.smi:212-7

> <Gold.Version>
5.8.1

> <Gold.Id.Protein>
6NUR|6NUR_protein|mol2

> <Gold.PLP.Fitness>
42.4532

> <Gold.PLP.PLP>
-38.5267

> <Gold.PLP.part.hbond>
-2.7387

> <Gold.PLP.part.metal>
0.0000

> <Gold.PLP.part.buried>
-3.9457

> <Gold.PLP.part.nonpolar>
-31.6789

> <Gold.PLP.part.repulsive>
0.4258

> <Gold.PLP.ligand.clash>
0.0000

> <Gold.PLP.ligand.torsion>
1.6046

> <Gold.PLP.Chemscore.Hbond>
2.0000

> <Gold.PLP.Chemscore.CHOScore>
0.0000

> <Gold.PLP.Chemscore.Metal>
0.0000

> <Gold.Chemscore.Hbonds>
donor molecule, donor type, donor heavy atom, donor atom, acceptor molecule, acceptor atom, score
      L1  H     9    45       P1  7921  0.77
      P1  H  7997  8008       L1    25  1.00

> <Gold.PLP.Chemscore.Internal.Correction>
1.1358

> <Gold.Rescore>
     Score         DG    S(hbond)    S(metal)    S(lipo)     H(rot)  DE(clash)    DE(int)     intcor
      8.73     -13.54       1.71        0.00      94.39       3.40       0.35       4.46       ----

> <Gold.Chemscore.Fitness>
8.7284

> <Gold.Chemscore.DG>
-13.5352

> <Gold.Chemscore.ZeroCoef>
-5.4800

> <Gold.Chemscore.Hbond>
1.7104

> <Gold.Chemscore.Metal>
0.0000

> <Gold.Chemscore.Lipo>
94.3856

> <Gold.Chemscore.Internal_Hbond>
0.0000

> <Gold.Chemscore.DEClash>
0.3509

> <Gold.Chemscore.DEInternal>
4.4559

> <Gold.Chemscore.Rot>
3.3986

> <Gold.Chemscore.Internal.Correction>
   9.000000E+99

> <Gold.Chemscore.Hbonds>
donor molecule, donor type, donor heavy atom, donor atom, acceptor molecule, acceptor atom, score
      L1  H     9    45       P1  7921  0.13
      P1  H  7997  8008       L1    25  0.39

> <Gold.Chemscore.Hbond.Weighted>
-5.7126

> <Gold.Chemscore.Metal.Weighted>
-0.0000

> <Gold.Chemscore.Lipo.Weighted>
-11.0431

> <Gold.Chemscore.Internal_Hbond.Weighted>
0.0000

> <Gold.Chemscore.DEClash.Weighted>
0.3509

> <Gold.Chemscore.DEInternal.Weighted>
4.4559

> <Gold.Chemscore.Rot.Weighted>
8.7005

> <Gold.Chemscore.Internal.Correction.Weighted>
   9.000000E+99

> <Gold.Protein.RotatedTorsions>
[ 6907 6896 6895 6894 ] final  152.03 input  -60.11 | X-H torsion
[ 7974 7965 7964 7962 ] final  -59.56 input  175.53 | X-H torsion
[ 8008 7997 7996 7995 ] final  -48.65 input   59.86 | X-H torsion
[ 10167 10162 10161 10158 ] final -127.82 input  -65.29 | X-H torsion
[ 10718 10713 10712 10709 ] final   51.39 input   66.30 | X-H torsion
[ 10763 10752 10751 10750 ] final   16.92 input  -60.55 | X-H torsion
[ 11005 11000 10999 10996 ] final  142.66 input  -57.11 | X-H torsion

> <Gold.Protein.ActiveResidues>
 VAL166  LYS551  ARG553  GLY616  TRP617  ASP618  TYR619  PRO620  LYS621  CYS622 
 ASP623  PHE694  ASN695  SER759  ASP760  ASP761  ALA762  ILE779  LEU786  VAL792 
 PHE793  MET794  SER795  GLU796  ALA797  LYS798  CYS799  TRP800  GLU811  SER814 

> <Gold.Protein.RotatedAtoms>
  152.0925  133.4207  159.4549 H   0  0  0  0  0  0  0  0  0  0  0  0  # atno 6907 bound_to 6896
  150.6862  134.2856  159.4654 H   0  0  0  0  0  0  0  0  0  0  0  0  # atno 6908 bound_to 6896
  152.0708  134.9534  160.0625 H   0  0  0  0  0  0  0  0  0  0  0  0  # atno 6909 bound_to 6896
  145.8260  140.8510  143.0108 H   0  0  0  0  0  0  0  0  0  0  0  0  # atno 7974 bound_to 7965
  154.4032  140.1316  156.4374 H   0  0  0  0  0  0  0  0  0  0  0  0  # atno 8008 bound_to 7997
  155.7492  140.3488  155.5122 H   0  0  0  0  0  0  0  0  0  0  0  0  # atno 8009 bound_to 7997
  155.8966  140.1012  157.1371 H   0  0  0  0  0  0  0  0  0  0  0  0  # atno 8010 bound_to 7997
  139.9568  143.5994  152.2458 H   0  0  0  0  0  0  0  0  0  0  0  0  # atno 10167 bound_to 10162
  157.4976  130.8417  149.8278 H   0  0  0  0  0  0  0  0  0  0  0  0  # atno 10718 bound_to 10713
  153.1386  135.6755  153.9063 H   0  0  0  0  0  0  0  0  0  0  0  0  # atno 10763 bound_to 10752
  153.8527  135.3091  155.3434 H   0  0  0  0  0  0  0  0  0  0  0  0  # atno 10764 bound_to 10752
  154.7769  135.4910  153.9845 H   0  0  0  0  0  0  0  0  0  0  0  0  # atno 10765 bound_to 10752
  140.0494  134.9263  157.0989 H   0  0  0  0  0  0  0  0  0  0  0  0  # atno 11005 bound_to 11000
  144.6743  140.0602  143.7476 LP  0  0  0  0  0  0  0  0  0  0  0  0  # atno 17320 bound_to 7965
  145.9623  139.2809  143.1148 LP  0  0  0  0  0  0  0  0  0  0  0  0  # atno 17321 bound_to 7965
  139.6585  144.7662  151.2009 LP  0  0  0  0  0  0  0  0  0  0  0  0  # atno 17342 bound_to 10162
  140.7566  143.6048  150.8664 LP  0  0  0  0  0  0  0  0  0  0  0  0  # atno 17343 bound_to 10162
  156.0210  130.3795  150.1963 LP  0  0  0  0  0  0  0  0  0  0  0  0  # atno 17370 bound_to 10713
  157.0152  130.9963  151.3355 LP  0  0  0  0  0  0  0  0  0  0  0  0  # atno 17371 bound_to 10713
  140.3941  134.2152  155.7165 LP  0  0  0  0  0  0  0  0  0  0  0  0  # atno 17394 bound_to 11000
  141.1923  133.8176  157.0845 LP  0  0  0  0  0  0  0  0  0  0  0  0  # atno 17395 bound_to 11000

$$$$
