AV-unprocessed.smi:3232|AV-procd|sdf|12340|dock6
  -GOLD-   2272018203D 1   1.00000     0.00000
 Structure written by MMmdl.
 40 41  0  0  0  0  0  0  0  0  2 V2000
  151.5514  131.9932  157.6228 C   0  0  0  0  0  0  0  0  0  0  0  0
  150.7735  133.0241  156.7919 C   0  0  0  0  0  0  0  0  0  0  0  0
  150.6834  132.6425  155.3574 N   0  3  1  0  0  0  0  0  0  0  0  0
  150.0831  131.3088  155.1189 C   0  0  0  0  0  0  0  0  0  0  0  0
  149.5018  131.3608  153.7111 C   0  0  0  0  0  0  0  0  0  0  0  0
  148.9899  132.7898  153.6291 C   0  0  0  0  0  0  0  0  0  0  0  0
  150.0328  133.6047  154.4142 C   0  0  1  0  0  0  0  0  0  0  0  0
  149.4654  134.9056  155.0376 C   0  0  0  0  0  0  0  0  0  0  0  0
  150.0953  136.0886  154.4599 N   0  0  0  0  0  0  0  0  0  0  0  0
  150.9585  136.9014  155.0913 C   0  0  0  0  0  0  0  0  0  0  0  0
  151.3822  136.6806  156.2264 O   0  0  0  0  0  0  0  0  0  0  0  0
  151.3776  138.1669  154.3264 C   0  0  2  0  0  0  0  0  0  0  0  0
  152.5669  138.9001  154.9792 C   0  0  0  0  0  0  0  0  0  0  0  0
  150.2263  139.0440  154.1492 N   0  0  0  0  0  0  0  0  0  0  0  0
  149.0054  138.7737  153.6824 C   0  0  0  0  0  0  0  0  0  0  0  0
  148.1758  139.8070  153.7135 N   0  0  0  0  0  0  0  0  0  0  0  0
  149.0053  140.7497  154.2509 C   0  0  0  0  0  0  0  0  0  0  0  0
  150.2402  140.3422  154.5428 N   0  0  0  0  0  0  0  0  0  0  0  0
  151.6656  132.3371  158.6510 H   0  0  0  0  0  0  0  0  0  0  0  0
  152.5502  131.8308  157.2166 H   0  0  0  0  0  0  0  0  0  0  0  0
  151.0404  131.0307  157.6583 H   0  0  0  0  0  0  0  0  0  0  0  0
  149.7752  133.1613  157.2098 H   0  0  0  0  0  0  0  0  0  0  0  0
  151.2968  133.9756  156.8820 H   0  0  0  0  0  0  0  0  0  0  0  0
  150.8156  130.5095  155.2339 H   0  0  0  0  0  0  0  0  0  0  0  0
  149.2779  131.1338  155.8346 H   0  0  0  0  0  0  0  0  0  0  0  0
  150.2874  131.2003  152.9714 H   0  0  0  0  0  0  0  0  0  0  0  0
  148.7204  130.6184  153.5458 H   0  0  0  0  0  0  0  0  0  0  0  0
  148.8671  133.1359  152.6019 H   0  0  0  0  0  0  0  0  0  0  0  0
  148.0166  132.8476  154.1185 H   0  0  0  0  0  0  0  0  0  0  0  0
  150.8197  133.8895  153.7143 H   0  0  0  0  0  0  0  0  0  0  0  0
  148.3812  134.9530  154.9251 H   0  0  0  0  0  0  0  0  0  0  0  0
  149.6715  134.9360  156.1072 H   0  0  0  0  0  0  0  0  0  0  0  0
  149.8117  136.3418  153.5244 H   0  0  0  0  0  0  0  0  0  0  0  0
  151.6977  137.8508  153.3323 H   0  0  0  0  0  0  0  0  0  0  0  0
  153.4379  138.2483  155.0540 H   0  0  0  0  0  0  0  0  0  0  0  0
  152.3300  139.2521  155.9842 H   0  0  0  0  0  0  0  0  0  0  0  0
  152.8596  139.7678  154.3873 H   0  0  0  0  0  0  0  0  0  0  0  0
  148.7138  137.7983  153.3211 H   0  0  0  0  0  0  0  0  0  0  0  0
  148.6868  141.7640  154.4419 H   0  0  0  0  0  0  0  0  0  0  0  0
  151.6371  132.5735  155.0319 H   0  0  0  0  0  0  0  0  0  0  0  0
  1  2  1  0  0  0  0
  1 19  1  0  0  0  0
  1 20  1  0  0  0  0
  1 21  1  0  0  0  0
  2  3  1  0  0  0  0
  2 22  1  0  0  0  0
  2 23  1  0  0  0  0
  3  7  1  0  0  0  0
  3  4  1  0  0  0  0
  3 40  1  0  0  0  0
  4  5  1  0  0  0  0
  4 24  1  0  0  0  0
  4 25  1  0  0  0  0
  5  6  1  0  0  0  0
  5 26  1  0  0  0  0
  5 27  1  0  0  0  0
  6  7  1  0  0  0  0
  6 28  1  0  0  0  0
  6 29  1  0  0  0  0
  7  8  1  0  0  0  0
  7 30  1  0  0  0  0
  8  9  1  0  0  0  0
  8 31  1  0  0  0  0
  8 32  1  0  0  0  0
  9 10  1  0  0  0  0
  9 33  1  0  0  0  0
 10 11  2  0  0  0  0
 10 12  1  0  0  0  0
 12 13  1  0  0  0  0
 12 14  1  0  0  0  0
 12 34  1  0  0  0  0
 13 35  1  0  0  0  0
 13 36  1  0  0  0  0
 13 37  1  0  0  0  0
 14 18  1  0  0  0  0
 14 15  1  0  0  0  0
 15 16  2  0  0  0  0
 15 38  1  0  0  0  0
 16 17  1  0  0  0  0
 17 18  2  0  0  0  0
 17 39  1  0  0  0  0
M  CHG  1   3   1
M  END
> <s_m_source_file>
AV-unprocessed.smi

> <i_m_source_file_index>
3232

> <i_lp_mmshare_version>
43012

> <i_f3d_flags>
0

> <s_epik_input>
W0NIM11bQ0gyXU4xW0NIMl1bQ0gyXVtDSDJdW0NASF0xW0NIMl1bTkhdQyg9TylbQ0BIXShbQ0gzXSluMltjSF1uW2NIXW4y

> <s_epik_cmdline>
J2VwaWtfcHl0aG9uJywgJy1waCcsICc3LjAnLCAnLXRuJywgJzgnLCAnLW1hJywgJzIwMCcsICctbWV0YWxfYmluZGluZycsICctaW1hZScsICc8aW5maWxlLm1hZT4nLCAnLW9tYWUnLCAnPG91dGZpbGUubWFlPic=

> <r_lp_tautomer_probability>
1

> <r_epik_Ionization_Penalty>
0.00177695

> <r_epik_Ionization_Penalty_Charging>
0.00176881

> <r_epik_Ionization_Penalty_Neutral>
8.13528e-06

> <r_epik_State_Penalty>
0.00119827

> <r_epik_Charging_Adjusted_Penalty>
0.00296709

> <i_epik_Tot_Q>
1

> <i_epik_Tot_abs_Q>
1

> <r_epik_Metal_State_Penalty>
-0

> <b_epik_Metal_Only>
0

> <s_lp_Force_Field>
OPLS_2005

> <r_lp_Energy>
36.2264

> <b_lp_Chiralities_Consistent>
1

> <s_lp_Variant>
AV-unprocessed.smi:3232-2

> <Gold.Version>
5.8.1

> <Gold.Id.Protein>
6NUR|6NUR_protein|mol2

> <Gold.PLP.Fitness>
45.3407

> <Gold.PLP.PLP>
-35.2876

> <Gold.PLP.part.hbond>
-3.5984

> <Gold.PLP.part.metal>
0.0000

> <Gold.PLP.part.buried>
-2.3378

> <Gold.PLP.part.nonpolar>
-29.2509

> <Gold.PLP.part.repulsive>
0.3063

> <Gold.PLP.ligand.clash>
0.0000

> <Gold.PLP.ligand.torsion>
1.0409

> <Gold.PLP.Chemscore.Hbond>
3.0000

> <Gold.PLP.Chemscore.CHOScore>
0.9966

> <Gold.PLP.Chemscore.Metal>
0.0000

> <Gold.Chemscore.Hbonds>
donor molecule, donor type, donor heavy atom, donor atom, acceptor molecule, acceptor atom, score
      L1  H     9    33       P1  7948  0.95
      P1  H  7989  7998       L1    18  0.85
      L1  C    15    38       P1  7948  1.00

> <Gold.PLP.Chemscore.Internal.Correction>
0.1451

> <Gold.Rescore>
     Score         DG    S(hbond)    S(metal)    S(lipo)     H(rot)  DE(clash)    DE(int)     intcor
     10.52     -13.49       2.48        0.00      52.20       2.49       1.75       1.22       ----

> <Gold.Chemscore.Fitness>
10.5196

> <Gold.Chemscore.DG>
-13.4898

> <Gold.Chemscore.ZeroCoef>
-5.4800

> <Gold.Chemscore.Hbond>
2.4767

> <Gold.Chemscore.Metal>
0.0000

> <Gold.Chemscore.Lipo>
52.1988

> <Gold.Chemscore.Internal_Hbond>
0.0000

> <Gold.Chemscore.DEClash>
1.7504

> <Gold.Chemscore.DEInternal>
1.2198

> <Gold.Chemscore.Rot>
2.4882

> <Gold.Chemscore.Internal.Correction>
   9.000000E+99

> <Gold.Chemscore.Hbonds>
donor molecule, donor type, donor heavy atom, donor atom, acceptor molecule, acceptor atom, score
      L1  H     9    33       P1  7948  0.21
      P1  H  7989  7998       L1    18  0.14

> <Gold.Chemscore.Hbond.Weighted>
-8.2723

> <Gold.Chemscore.Metal.Weighted>
-0.0000

> <Gold.Chemscore.Lipo.Weighted>
-6.1073

> <Gold.Chemscore.Internal_Hbond.Weighted>
0.0000

> <Gold.Chemscore.DEClash.Weighted>
1.7504

> <Gold.Chemscore.DEInternal.Weighted>
1.2198

> <Gold.Chemscore.Rot.Weighted>
6.3697

> <Gold.Chemscore.Internal.Correction.Weighted>
   9.000000E+99

> <Gold.Protein.RotatedTorsions>
[ 6907 6896 6895 6894 ] final   81.43 input  -60.11 | X-H torsion
[ 7974 7965 7964 7962 ] final -122.67 input  175.53 | X-H torsion
[ 8008 7997 7996 7995 ] final    7.06 input   59.86 | X-H torsion
[ 10167 10162 10161 10158 ] final  127.86 input  -65.29 | X-H torsion
[ 10718 10713 10712 10709 ] final -119.24 input   66.30 | X-H torsion
[ 10763 10752 10751 10750 ] final   97.21 input  -60.55 | X-H torsion
[ 11005 11000 10999 10996 ] final  141.16 input  -57.11 | X-H torsion

> <Gold.Protein.ActiveResidues>
 VAL166  LYS551  ARG553  GLY616  TRP617  ASP618  TYR619  PRO620  LYS621  CYS622 
 ASP623  PHE694  ASN695  SER759  ASP760  ASP761  ALA762  ILE779  LEU786  VAL792 
 PHE793  MET794  SER795  GLU796  ALA797  LYS798  CYS799  TRP800  GLU811  SER814 

> <Gold.Protein.RotatedAtoms>
  152.5268  134.3205  159.9146 H   0  0  0  0  0  0  0  0  0  0  0  0  # atno 6907 bound_to 6896
  151.3154  133.4056  159.2658 H   0  0  0  0  0  0  0  0  0  0  0  0  # atno 6908 bound_to 6896
  151.0003  134.9333  159.8007 H   0  0  0  0  0  0  0  0  0  0  0  0  # atno 6909 bound_to 6896
  145.0269  140.8035  143.4347 H   0  0  0  0  0  0  0  0  0  0  0  0  # atno 7974 bound_to 7965
  154.7490  140.2763  155.6308 H   0  0  0  0  0  0  0  0  0  0  0  0  # atno 8008 bound_to 7997
  156.2891  140.2682  156.2165 H   0  0  0  0  0  0  0  0  0  0  0  0  # atno 8009 bound_to 7997
  155.0161  140.0372  157.2408 H   0  0  0  0  0  0  0  0  0  0  0  0  # atno 8010 bound_to 7997
  139.5556  144.6846  151.4192 H   0  0  0  0  0  0  0  0  0  0  0  0  # atno 10167 bound_to 10162
  156.1166  130.6291  150.9392 H   0  0  0  0  0  0  0  0  0  0  0  0  # atno 10718 bound_to 10713
  153.2742  135.4191  155.1017 H   0  0  0  0  0  0  0  0  0  0  0  0  # atno 10763 bound_to 10752
  154.8467  135.3479  154.6202 H   0  0  0  0  0  0  0  0  0  0  0  0  # atno 10764 bound_to 10752
  153.6622  135.7048  153.5231 H   0  0  0  0  0  0  0  0  0  0  0  0  # atno 10765 bound_to 10752
  140.0381  134.9319  157.0791 H   0  0  0  0  0  0  0  0  0  0  0  0  # atno 11005 bound_to 11000
  145.1821  139.2346  143.5287 LP  0  0  0  0  0  0  0  0  0  0  0  0  # atno 17320 bound_to 7965
  146.3493  140.1597  142.8591 LP  0  0  0  0  0  0  0  0  0  0  0  0  # atno 17321 bound_to 7965
  140.6828  143.8042  150.7145 LP  0  0  0  0  0  0  0  0  0  0  0  0  # atno 17342 bound_to 10162
  140.1501  143.4365  152.2137 LP  0  0  0  0  0  0  0  0  0  0  0  0  # atno 17343 bound_to 10162
  157.6349  131.0917  150.8367 LP  0  0  0  0  0  0  0  0  0  0  0  0  # atno 17370 bound_to 10713
  156.8470  130.5067  149.5315 LP  0  0  0  0  0  0  0  0  0  0  0  0  # atno 17371 bound_to 10713
  140.4114  134.1977  155.7163 LP  0  0  0  0  0  0  0  0  0  0  0  0  # atno 17394 bound_to 11000
  141.1868  133.8294  157.1055 LP  0  0  0  0  0  0  0  0  0  0  0  0  # atno 17395 bound_to 11000

$$$$
