AV-unprocessed.smi:567|AV-procd|sdf|2956|dock8
  -GOLD-   2262023463D 1   1.00000     0.00000
 Structure written by MMmdl.
 53 54  0  0  0  0  0  0  0  0  2 V2000
  151.4442  138.1979  154.5530 C   0  0  0  0  0  0  0  0  0  0  0  0
  151.5909  136.8906  155.0778 O   0  0  0  0  0  0  0  0  0  0  0  0
  150.4156  136.1085  154.9298 C   0  0  0  0  0  0  0  0  0  0  0  0
  150.6266  134.7367  155.5898 C   0  0  0  0  0  0  0  0  0  0  0  0
  149.3671  133.9937  155.7109 N   0  0  0  0  0  0  0  0  0  0  0  0
  148.4500  134.2928  154.7202 N   0  0  0  0  0  0  0  0  0  0  0  0
  147.2951  133.7110  154.7022 C   0  0  0  0  0  0  0  0  0  0  0  0
  146.2842  134.0301  153.6590 C   0  0  0  0  0  0  0  0  0  0  0  0
  145.2327  133.3985  153.5487 O   0  0  0  0  0  0  0  0  0  0  0  0
  146.6207  135.0472  152.8471 N   0  0  0  0  0  0  0  0  0  0  0  0
  145.8729  135.5202  151.6890 C   0  0  0  0  0  0  0  0  0  0  0  0
  146.4347  136.8352  151.1215 C   0  0  0  0  0  0  0  0  0  0  0  0
  146.1188  138.1006  151.9608 C   0  0  0  0  0  0  0  0  0  0  0  0
  147.0488  138.2470  153.1867 C   0  0  0  0  0  0  0  0  0  0  0  0
  146.3728  139.3330  151.0710 C   0  0  0  0  0  0  0  0  0  0  0  0
  144.6816  138.1437  152.3548 N   0  3  0  0  0  0  0  0  0  0  0  0
  144.0081  136.9139  152.8617 C   0  0  0  0  0  0  0  0  0  0  0  0
  144.2783  136.6955  154.3685 C   0  0  0  0  0  0  0  0  0  0  0  0
  142.4919  137.1504  152.7204 C   0  0  0  0  0  0  0  0  0  0  0  0
  144.3768  135.6746  152.0046 C   0  0  0  0  0  0  0  0  0  0  0  0
  146.9445  132.7206  155.7046 C   0  0  0  0  0  0  0  0  0  0  0  0
  147.8419  132.4541  156.6796 C   0  0  0  0  0  0  0  0  0  0  0  0
  149.1436  133.1229  156.7410 C   0  0  0  0  0  0  0  0  0  0  0  0
  149.9612  132.9219  157.6385 O   0  0  0  0  0  0  0  0  0  0  0  0
  152.3693  138.7558  154.6973 H   0  0  0  0  0  0  0  0  0  0  0  0
  150.6423  138.7384  155.0577 H   0  0  0  0  0  0  0  0  0  0  0  0
  151.2303  138.1706  153.4839 H   0  0  0  0  0  0  0  0  0  0  0  0
  149.5812  136.6193  155.4126 H   0  0  0  0  0  0  0  0  0  0  0  0
  150.1587  135.9905  153.8758 H   0  0  0  0  0  0  0  0  0  0  0  0
  151.3476  134.1554  155.0122 H   0  0  0  0  0  0  0  0  0  0  0  0
  151.0899  134.8717  156.5684 H   0  0  0  0  0  0  0  0  0  0  0  0
  147.4978  135.5115  153.0354 H   0  0  0  0  0  0  0  0  0  0  0  0
  145.9600  134.7547  150.9158 H   0  0  0  0  0  0  0  0  0  0  0  0
  147.5100  136.7482  150.9565 H   0  0  0  0  0  0  0  0  0  0  0  0
  146.0020  136.9607  150.1275 H   0  0  0  0  0  0  0  0  0  0  0  0
  148.0874  138.3591  152.8732 H   0  0  0  0  0  0  0  0  0  0  0  0
  147.0298  137.3973  153.8605 H   0  0  0  0  0  0  0  0  0  0  0  0
  146.7924  139.1296  153.7736 H   0  0  0  0  0  0  0  0  0  0  0  0
  147.4053  139.3652  150.7201 H   0  0  0  0  0  0  0  0  0  0  0  0
  146.1816  140.2623  151.6093 H   0  0  0  0  0  0  0  0  0  0  0  0
  145.7301  139.3314  150.1896 H   0  0  0  0  0  0  0  0  0  0  0  0
  144.5440  138.8921  153.0190 H   0  0  0  0  0  0  0  0  0  0  0  0
  143.6608  135.8861  154.7598 H   0  0  0  0  0  0  0  0  0  0  0  0
  144.0387  137.5893  154.9455 H   0  0  0  0  0  0  0  0  0  0  0  0
  145.3034  136.4286  154.6019 H   0  0  0  0  0  0  0  0  0  0  0  0
  141.9201  136.2815  153.0495 H   0  0  0  0  0  0  0  0  0  0  0  0
  142.2114  137.3514  151.6855 H   0  0  0  0  0  0  0  0  0  0  0  0
  142.1625  138.0028  153.3161 H   0  0  0  0  0  0  0  0  0  0  0  0
  143.8580  135.7473  151.0471 H   0  0  0  0  0  0  0  0  0  0  0  0
  143.9947  134.7642  152.4690 H   0  0  0  0  0  0  0  0  0  0  0  0
  145.9910  132.2133  155.6816 H   0  0  0  0  0  0  0  0  0  0  0  0
  147.5951  131.7232  157.4358 H   0  0  0  0  0  0  0  0  0  0  0  0
  144.1834  138.3901  151.5113 H   0  0  0  0  0  0  0  0  0  0  0  0
  1  2  1  0  0  0  0
  1 25  1  0  0  0  0
  1 26  1  0  0  0  0
  1 27  1  0  0  0  0
  2  3  1  0  0  0  0
  3  4  1  0  0  0  0
  3 28  1  0  0  0  0
  3 29  1  0  0  0  0
  4  5  1  0  0  0  0
  4 30  1  0  0  0  0
  4 31  1  0  0  0  0
  5 23  1  0  0  0  0
  5  6  1  0  0  0  0
  6  7  2  0  0  0  0
  7  8  1  0  0  0  0
  7 21  1  0  0  0  0
  8  9  2  0  0  0  0
  8 10  1  0  0  0  0
 10 11  1  0  0  0  0
 10 32  1  0  0  0  0
 11 20  1  0  0  0  0
 11 12  1  0  0  0  0
 11 33  1  0  0  0  0
 12 13  1  0  0  0  0
 12 34  1  0  0  0  0
 12 35  1  0  0  0  0
 13 14  1  0  0  0  0
 13 15  1  0  0  0  0
 13 16  1  0  0  0  0
 14 36  1  0  0  0  0
 14 37  1  0  0  0  0
 14 38  1  0  0  0  0
 15 39  1  0  0  0  0
 15 40  1  0  0  0  0
 15 41  1  0  0  0  0
 16 17  1  0  0  0  0
 16 42  1  0  0  0  0
 16 53  1  0  0  0  0
 17 18  1  0  0  0  0
 17 19  1  0  0  0  0
 17 20  1  0  0  0  0
 18 43  1  0  0  0  0
 18 44  1  0  0  0  0
 18 45  1  0  0  0  0
 19 46  1  0  0  0  0
 19 47  1  0  0  0  0
 19 48  1  0  0  0  0
 20 49  1  0  0  0  0
 20 50  1  0  0  0  0
 21 22  2  0  0  0  0
 21 51  1  0  0  0  0
 22 23  1  0  0  0  0
 22 52  1  0  0  0  0
 23 24  2  0  0  0  0
M  CHG  1  16   1
M  END
> <s_m_source_file>
AV-unprocessed.smi

> <i_m_source_file_index>
567

> <i_lp_mmshare_version>
43012

> <i_f3d_flags>
0

> <s_epik_input>
W0NIM11PW0NIMl1bQ0gyXW4xbmMoW2NIXVtjSF1jMT1PKUMoPU8pW05IXVtDSF0oW0NIMl1DMihbQ0gzXSlbQ0gzXSlbQ0gyXUMoW05IXTIpKFtDSDNdKVtDSDNd

> <s_epik_cmdline>
J2VwaWtfcHl0aG9uJywgJy1waCcsICc3LjAnLCAnLXRuJywgJzgnLCAnLW1hJywgJzIwMCcsICctbWV0YWxfYmluZGluZycsICctaW1hZScsICc8aW5maWxlLm1hZT4nLCAnLW9tYWUnLCAnPG91dGZpbGUubWFlPic=

> <r_lp_tautomer_probability>
1

> <r_epik_Ionization_Penalty>
0.000138804

> <r_epik_Ionization_Penalty_Charging>
0.000136152

> <r_epik_Ionization_Penalty_Neutral>
2.65225e-06

> <r_epik_State_Penalty>
-0

> <r_epik_Charging_Adjusted_Penalty>
0.000136152

> <i_epik_Tot_Q>
1

> <i_epik_Tot_abs_Q>
1

> <r_epik_Metal_State_Penalty>
-0

> <b_epik_Metal_Only>
0

> <s_lp_Force_Field>
OPLS_2005

> <r_lp_Energy>
46.3617

> <b_lp_Chiralities_Consistent>
1

> <s_lp_Variant>
AV-unprocessed.smi:567-1

> <Gold.Version>
5.8.1

> <Gold.Id.Protein>
6NUR|6NUR_protein|mol2

> <Gold.PLP.Fitness>
38.1259

> <Gold.PLP.PLP>
-25.9420

> <Gold.PLP.part.hbond>
-4.9975

> <Gold.PLP.part.metal>
0.0000

> <Gold.PLP.part.buried>
5.7332

> <Gold.PLP.part.nonpolar>
-27.0153

> <Gold.PLP.part.repulsive>
0.3625

> <Gold.PLP.ligand.clash>
0.0000

> <Gold.PLP.ligand.torsion>
0.5457

> <Gold.PLP.Chemscore.Hbond>
4.4153

> <Gold.PLP.Chemscore.CHOScore>
0.0000

> <Gold.PLP.Chemscore.Metal>
0.0000

> <Gold.Chemscore.Hbonds>
donor molecule, donor type, donor heavy atom, donor atom, acceptor molecule, acceptor atom, score
      L1  H    10    32       P1  7948  0.66
      L1  H    16    42       P1 10175  0.77
      L1  H    16    53       P1 10171  1.00
      P1  H  6896  6908       L1    24  0.96
      P1  H 10752 10763       L1     2  1.00

> <Gold.PLP.Chemscore.Internal.Correction>
0.0297

> <Gold.Rescore>
     Score         DG    S(hbond)    S(metal)    S(lipo)     H(rot)  DE(clash)    DE(int)     intcor
     17.76     -22.61       3.61        0.00      78.62       1.61       2.96       1.89       ----

> <Gold.Chemscore.Fitness>
17.7607

> <Gold.Chemscore.DG>
-22.6130

> <Gold.Chemscore.ZeroCoef>
-5.4800

> <Gold.Chemscore.Hbond>
3.6106

> <Gold.Chemscore.Metal>
0.0000

> <Gold.Chemscore.Lipo>
78.6162

> <Gold.Chemscore.Internal_Hbond>
0.0000

> <Gold.Chemscore.DEClash>
2.9627

> <Gold.Chemscore.DEInternal>
1.8895

> <Gold.Chemscore.Rot>
1.6112

> <Gold.Chemscore.Internal.Correction>
   9.000000E+99

> <Gold.Chemscore.Hbonds>
donor molecule, donor type, donor heavy atom, donor atom, acceptor molecule, acceptor atom, score
      L1  H    10    32       P1  7948  0.64
      L1  H    16    42       P1 10175  0.38
      L1  H    16    53       P1 10171  0.99
      P1  H  6896  6908       L1    24  0.88
      P1  H 10752 10763       L1     2  0.29

> <Gold.Chemscore.Hbond.Weighted>
-12.0595

> <Gold.Chemscore.Metal.Weighted>
-0.0000

> <Gold.Chemscore.Lipo.Weighted>
-9.1981

> <Gold.Chemscore.Internal_Hbond.Weighted>
0.0000

> <Gold.Chemscore.DEClash.Weighted>
2.9627

> <Gold.Chemscore.DEInternal.Weighted>
1.8895

> <Gold.Chemscore.Rot.Weighted>
4.1247

> <Gold.Chemscore.Internal.Correction.Weighted>
   9.000000E+99

> <Gold.Protein.RotatedTorsions>
[ 6907 6896 6895 6894 ] final   88.60 input  -60.11 | X-H torsion
[ 7974 7965 7964 7962 ] final  -37.96 input  175.53 | X-H torsion
[ 8008 7997 7996 7995 ] final -174.34 input   59.86 | X-H torsion
[ 10167 10162 10161 10158 ] final  174.12 input  -65.29 | X-H torsion
[ 10718 10713 10712 10709 ] final  -43.66 input   66.30 | X-H torsion
[ 10763 10752 10751 10750 ] final   69.38 input  -60.55 | X-H torsion
[ 11005 11000 10999 10996 ] final  -87.23 input  -57.11 | X-H torsion

> <Gold.Protein.ActiveResidues>
 VAL166  LYS551  ARG553  GLY616  TRP617  ASP618  TYR619  PRO620  LYS621  CYS622 
 ASP623  PHE694  ASN695  SER759  ASP760  ASP761  ALA762  ILE779  LEU786  VAL792 
 PHE793  MET794  SER795  GLU796  ALA797  LYS798  CYS799  TRP800  GLU811  SER814 

> <Gold.Protein.RotatedAtoms>
  152.5427  134.2096  159.8744 H   0  0  0  0  0  0  0  0  0  0  0  0  # atno 6907 bound_to 6896
  151.2080  133.4565  159.2605 H   0  0  0  0  0  0  0  0  0  0  0  0  # atno 6908 bound_to 6896
  151.0924  134.9937  159.8465 H   0  0  0  0  0  0  0  0  0  0  0  0  # atno 6909 bound_to 6896
  146.0529  140.6456  142.9033 H   0  0  0  0  0  0  0  0  0  0  0  0  # atno 7974 bound_to 7965
  155.9688  140.1159  157.0831 H   0  0  0  0  0  0  0  0  0  0  0  0  # atno 8008 bound_to 7997
  154.4151  140.1167  156.5346 H   0  0  0  0  0  0  0  0  0  0  0  0  # atno 8009 bound_to 7997
  155.6624  140.3473  155.4790 H   0  0  0  0  0  0  0  0  0  0  0  0  # atno 8010 bound_to 7997
  139.5131  144.3183  152.0227 H   0  0  0  0  0  0  0  0  0  0  0  0  # atno 10167 bound_to 10162
  156.2467  130.4184  149.8697 H   0  0  0  0  0  0  0  0  0  0  0  0  # atno 10718 bound_to 10713
  153.0284  135.5213  154.7279 H   0  0  0  0  0  0  0  0  0  0  0  0  # atno 10763 bound_to 10752
  154.6315  135.2901  155.0212 H   0  0  0  0  0  0  0  0  0  0  0  0  # atno 10764 bound_to 10752
  154.1163  135.6614  153.4947 H   0  0  0  0  0  0  0  0  0  0  0  0  # atno 10765 bound_to 10752
  141.1619  133.7499  156.9277 H   0  0  0  0  0  0  0  0  0  0  0  0  # atno 11005 bound_to 11000
  144.7132  140.4116  143.7064 LP  0  0  0  0  0  0  0  0  0  0  0  0  # atno 17320 bound_to 7965
  145.6694  139.1596  143.2763 LP  0  0  0  0  0  0  0  0  0  0  0  0  # atno 17321 bound_to 7965
  140.2626  144.4051  150.6180 LP  0  0  0  0  0  0  0  0  0  0  0  0  # atno 17342 bound_to 10162
  140.6146  143.2171  151.6817 LP  0  0  0  0  0  0  0  0  0  0  0  0  # atno 17343 bound_to 10162
  156.6260  130.8646  151.3485 LP  0  0  0  0  0  0  0  0  0  0  0  0  # atno 17370 bound_to 10713
  157.7198  130.9543  150.1393 LP  0  0  0  0  0  0  0  0  0  0  0  0  # atno 17371 bound_to 10713
  140.1408  134.9295  157.2464 LP  0  0  0  0  0  0  0  0  0  0  0  0  # atno 17394 bound_to 11000
  140.2839  134.3318  155.7335 LP  0  0  0  0  0  0  0  0  0  0  0  0  # atno 17395 bound_to 11000

$$$$
