AV-unprocessed.smi:3342|AV-procd|sdf|12890|dock5
  -GOLD-   2272019293D 1   1.00000     0.00000
 Structure written by MMmdl.
 41 42  0  0  0  0  0  0  0  0  1 V2000
  149.8014  142.0896  157.1228 C   0  0  0  0  0  0  0  0  0  0  0  0
  151.2879  141.7759  157.3534 C   0  0  1  0  0  0  0  0  0  0  0  0
  151.6979  142.0351  158.8154 C   0  0  0  0  0  0  0  0  0  0  0  0
  151.8106  143.4510  159.1141 N   0  0  0  0  0  0  0  0  0  0  0  0
  151.2784  144.1223  160.2074 C   0  0  0  0  0  0  0  0  0  0  0  0
  151.6429  145.4430  160.0726 C   0  0  0  0  0  0  0  0  0  0  0  0
  152.3932  145.6060  158.9104 N   0  0  0  0  0  0  0  0  0  0  0  0
  152.4499  144.3843  158.3961 C   0  0  0  0  0  0  0  0  0  0  0  0
  151.5673  140.3865  156.9989 N   0  0  0  0  0  0  0  0  0  0  0  0
  151.2015  139.7747  155.8599 C   0  0  0  0  0  0  0  0  0  0  0  0
  150.5371  140.3462  154.9944 O   0  0  0  0  0  0  0  0  0  0  0  0
  151.6260  138.4905  155.7459 N   0  0  0  0  0  0  0  0  0  0  0  0
  152.2094  137.6638  156.8164 C   0  0  0  0  0  0  0  0  0  0  0  0
  151.1788  136.6007  157.2362 C   0  0  0  0  0  0  0  0  0  0  0  0
  150.7466  135.7378  156.0271 C   0  0  0  0  0  0  0  0  0  0  0  0
  149.6241  134.7665  156.4164 C   0  0  0  0  0  0  0  0  0  0  0  0
  149.2463  133.8733  155.4985 N   0  0  0  0  0  0  0  0  0  0  0  0
  149.1041  134.8187  157.5294 O   0  0  0  0  0  0  0  0  0  0  0  0
  150.3226  136.6310  154.8372 C   0  0  0  0  0  0  0  0  0  0  0  0
  151.3915  137.6969  154.5334 C   0  0  0  0  0  0  0  0  0  0  0  0
  149.5778  143.1277  157.3692 H   0  0  0  0  0  0  0  0  0  0  0  0
  149.1617  141.4564  157.7385 H   0  0  0  0  0  0  0  0  0  0  0  0
  149.5206  141.9334  156.0807 H   0  0  0  0  0  0  0  0  0  0  0  0
  151.8785  142.4356  156.7147 H   0  0  0  0  0  0  0  0  0  0  0  0
  150.9610  141.6051  159.4951 H   0  0  0  0  0  0  0  0  0  0  0  0
  152.6501  141.5520  159.0400 H   0  0  0  0  0  0  0  0  0  0  0  0
  150.7035  143.6187  160.9706 H   0  0  0  0  0  0  0  0  0  0  0  0
  151.4247  146.2815  160.7175 H   0  0  0  0  0  0  0  0  0  0  0  0
  152.9713  144.1624  157.4763 H   0  0  0  0  0  0  0  0  0  0  0  0
  152.1078  139.8511  157.6623 H   0  0  0  0  0  0  0  0  0  0  0  0
  153.1110  137.1782  156.4404 H   0  0  0  0  0  0  0  0  0  0  0  0
  152.5345  138.2301  157.6892 H   0  0  0  0  0  0  0  0  0  0  0  0
  151.6029  135.9661  158.0153 H   0  0  0  0  0  0  0  0  0  0  0  0
  150.3136  137.0974  157.6784 H   0  0  0  0  0  0  0  0  0  0  0  0
  151.6129  135.1545  155.7100 H   0  0  0  0  0  0  0  0  0  0  0  0
  148.5128  133.2122  155.7088 H   0  0  0  0  0  0  0  0  0  0  0  0
  149.6984  133.8619  154.5958 H   0  0  0  0  0  0  0  0  0  0  0  0
  150.1539  136.0181  153.9510 H   0  0  0  0  0  0  0  0  0  0  0  0
  149.3752  137.1284  155.0531 H   0  0  0  0  0  0  0  0  0  0  0  0
  151.0773  138.3043  153.6835 H   0  0  0  0  0  0  0  0  0  0  0  0
  152.3229  137.2193  154.2257 H   0  0  0  0  0  0  0  0  0  0  0  0
  1  2  1  0  0  0  0
  1 21  1  0  0  0  0
  1 22  1  0  0  0  0
  1 23  1  0  0  0  0
  2  3  1  0  0  0  0
  2  9  1  0  0  0  0
  2 24  1  0  0  0  0
  3  4  1  0  0  0  0
  3 25  1  0  0  0  0
  3 26  1  0  0  0  0
  4  8  1  0  0  0  0
  4  5  1  0  0  0  0
  5  6  2  0  0  0  0
  5 27  1  0  0  0  0
  6  7  1  0  0  0  0
  6 28  1  0  0  0  0
  7  8  2  0  0  0  0
  8 29  1  0  0  0  0
  9 10  1  0  0  0  0
  9 30  1  0  0  0  0
 10 11  2  0  0  0  0
 10 12  1  0  0  0  0
 12 20  1  0  0  0  0
 12 13  1  0  0  0  0
 13 14  1  0  0  0  0
 13 31  1  0  0  0  0
 13 32  1  0  0  0  0
 14 15  1  0  0  0  0
 14 33  1  0  0  0  0
 14 34  1  0  0  0  0
 15 16  1  0  0  0  0
 15 19  1  0  0  0  0
 15 35  1  0  0  0  0
 16 17  1  0  0  0  0
 16 18  2  0  0  0  0
 17 36  1  0  0  0  0
 17 37  1  0  0  0  0
 19 20  1  0  0  0  0
 19 38  1  0  0  0  0
 19 39  1  0  0  0  0
 20 40  1  0  0  0  0
 20 41  1  0  0  0  0
M  END
> <s_m_source_file>
AV-unprocessed.smi

> <i_m_source_file_index>
3342

> <i_lp_mmshare_version>
43012

> <i_f3d_flags>
0

> <s_epik_input>
W2NIXTFuW2NIXVtjSF1uMVtDSDJdW0NAQEhdKFtDSDNdKVtOSF1DKD1PKU4yW0NIMl1bQ0gyXVtDSF0oQyg9TylbTkgyXSlbQ0gyXVtDSDJdMg==

> <s_epik_cmdline>
J2VwaWtfcHl0aG9uJywgJy1waCcsICc3LjAnLCAnLXRuJywgJzgnLCAnLW1hJywgJzIwMCcsICctbWV0YWxfYmluZGluZycsICctaW1hZScsICc8aW5maWxlLm1hZT4nLCAnLW9tYWUnLCAnPG91dGZpbGUubWFlPic=

> <r_lp_tautomer_probability>
1

> <r_epik_Ionization_Penalty>
0.624431

> <r_epik_Ionization_Penalty_Charging>
0.624374

> <r_epik_Ionization_Penalty_Neutral>
5.67186e-05

> <r_epik_State_Penalty>
0.640677

> <r_epik_Charging_Adjusted_Penalty>
1.26505

> <i_epik_Tot_Q>
0

> <i_epik_Tot_abs_Q>
0

> <r_epik_Metal_State_Penalty>
0.307574

> <b_epik_Metal_Only>
0

> <s_lp_Force_Field>
OPLS_2005

> <r_lp_Energy>
30.3525

> <b_lp_Chiralities_Consistent>
1

> <s_lp_Variant>
AV-unprocessed.smi:3342-4

> <Gold.Version>
5.8.1

> <Gold.Id.Protein>
6NUR|6NUR_protein|mol2

> <Gold.PLP.Fitness>
42.9038

> <Gold.PLP.PLP>
-37.9788

> <Gold.PLP.part.hbond>
-3.0000

> <Gold.PLP.part.metal>
0.0000

> <Gold.PLP.part.buried>
-2.8802

> <Gold.PLP.part.nonpolar>
-32.6736

> <Gold.PLP.part.repulsive>
0.3134

> <Gold.PLP.ligand.clash>
0.0000

> <Gold.PLP.ligand.torsion>
0.4146

> <Gold.PLP.Chemscore.Hbond>
1.8882

> <Gold.PLP.Chemscore.CHOScore>
0.0000

> <Gold.PLP.Chemscore.Metal>
0.0000

> <Gold.Chemscore.Hbonds>
donor molecule, donor type, donor heavy atom, donor atom, acceptor molecule, acceptor atom, score
      P1  H  7989  7998       L1    11  1.00

> <Gold.PLP.Chemscore.Internal.Correction>
0.0897

> <Gold.Rescore>
     Score         DG    S(hbond)    S(metal)    S(lipo)     H(rot)  DE(clash)    DE(int)     intcor
     12.16     -14.20       1.95        0.00      68.54       2.28       0.08       1.96       ----

> <Gold.Chemscore.Fitness>
12.1643

> <Gold.Chemscore.DG>
-14.2003

> <Gold.Chemscore.ZeroCoef>
-5.4800

> <Gold.Chemscore.Hbond>
1.9542

> <Gold.Chemscore.Metal>
0.0000

> <Gold.Chemscore.Lipo>
68.5404

> <Gold.Chemscore.Internal_Hbond>
0.0000

> <Gold.Chemscore.DEClash>
0.0756

> <Gold.Chemscore.DEInternal>
1.9604

> <Gold.Chemscore.Rot>
2.2757

> <Gold.Chemscore.Internal.Correction>
   9.000000E+99

> <Gold.Chemscore.Hbonds>
donor molecule, donor type, donor heavy atom, donor atom, acceptor molecule, acceptor atom, score
      P1  H  6896  6908       L1    18  0.02
      P1  H  7989  7998       L1    11  0.80

> <Gold.Chemscore.Hbond.Weighted>
-6.5270

> <Gold.Chemscore.Metal.Weighted>
-0.0000

> <Gold.Chemscore.Lipo.Weighted>
-8.0192

> <Gold.Chemscore.Internal_Hbond.Weighted>
0.0000

> <Gold.Chemscore.DEClash.Weighted>
0.0756

> <Gold.Chemscore.DEInternal.Weighted>
1.9604

> <Gold.Chemscore.Rot.Weighted>
5.8259

> <Gold.Chemscore.Internal.Correction.Weighted>
   9.000000E+99

> <Gold.Protein.RotatedTorsions>
[ 6907 6896 6895 6894 ] final  143.46 input  -60.11 | X-H torsion
[ 7974 7965 7964 7962 ] final   74.61 input  175.53 | X-H torsion
[ 8008 7997 7996 7995 ] final   59.48 input   59.86 | X-H torsion
[ 10167 10162 10161 10158 ] final  -73.16 input  -65.29 | X-H torsion
[ 10718 10713 10712 10709 ] final   16.18 input   66.30 | X-H torsion
[ 10763 10752 10751 10750 ] final   63.09 input  -60.55 | X-H torsion
[ 11005 11000 10999 10996 ] final  102.79 input  -57.11 | X-H torsion

> <Gold.Protein.ActiveResidues>
 VAL166  LYS551  ARG553  GLY616  TRP617  ASP618  TYR619  PRO620  LYS621  CYS622 
 ASP623  PHE694  ASN695  SER759  ASP760  ASP761  ALA762  ILE779  LEU786  VAL792 
 PHE793  MET794  SER795  GLU796  ALA797  LYS798  CYS799  TRP800  GLU811  SER814 

> <Gold.Protein.RotatedAtoms>
  152.2060  133.4876  159.5084 H   0  0  0  0  0  0  0  0  0  0  0  0  # atno 6907 bound_to 6896
  150.6980  134.1529  159.4156 H   0  0  0  0  0  0  0  0  0  0  0  0  # atno 6908 bound_to 6896
  151.9447  135.0197  160.0589 H   0  0  0  0  0  0  0  0  0  0  0  0  # atno 6909 bound_to 6896
  145.7260  139.2666  143.1568 H   0  0  0  0  0  0  0  0  0  0  0  0  # atno 7974 bound_to 7965
  155.5669  140.3489  155.4505 H   0  0  0  0  0  0  0  0  0  0  0  0  # atno 8008 bound_to 7997
  156.0473  140.1309  157.0115 H   0  0  0  0  0  0  0  0  0  0  0  0  # atno 8009 bound_to 7997
  154.4418  140.1012  156.6309 H   0  0  0  0  0  0  0  0  0  0  0  0  # atno 8010 bound_to 7997
  140.5133  143.2341  151.7556 H   0  0  0  0  0  0  0  0  0  0  0  0  # atno 10167 bound_to 10162
  157.0641  130.6321  149.5792 H   0  0  0  0  0  0  0  0  0  0  0  0  # atno 10718 bound_to 10713
  153.0005  135.5442  154.6296 H   0  0  0  0  0  0  0  0  0  0  0  0  # atno 10763 bound_to 10752
  154.5577  135.2831  155.0951 H   0  0  0  0  0  0  0  0  0  0  0  0  # atno 10764 bound_to 10752
  154.2166  135.6458  153.5184 H   0  0  0  0  0  0  0  0  0  0  0  0  # atno 10765 bound_to 10752
  139.8779  134.9238  156.5112 H   0  0  0  0  0  0  0  0  0  0  0  0  # atno 11005 bound_to 11000
  146.0581  140.7999  142.9748 LP  0  0  0  0  0  0  0  0  0  0  0  0  # atno 17320 bound_to 7965
  144.6904  140.3155  143.7241 LP  0  0  0  0  0  0  0  0  0  0  0  0  # atno 17321 bound_to 7965
  139.4902  144.4359  151.9819 LP  0  0  0  0  0  0  0  0  0  0  0  0  # atno 17342 bound_to 10162
  140.3452  144.3155  150.5959 LP  0  0  0  0  0  0  0  0  0  0  0  0  # atno 17343 bound_to 10162
  155.9970  130.5040  150.7516 LP  0  0  0  0  0  0  0  0  0  0  0  0  # atno 17370 bound_to 10713
  157.4931  131.0912  151.0403 LP  0  0  0  0  0  0  0  0  0  0  0  0  # atno 17371 bound_to 10713
  140.8519  133.8125  155.9177 LP  0  0  0  0  0  0  0  0  0  0  0  0  # atno 17394 bound_to 11000
  140.9136  134.2230  157.4970 LP  0  0  0  0  0  0  0  0  0  0  0  0  # atno 17395 bound_to 11000

$$$$
