AV-unprocessed.smi:2878|AV-procd|sdf|11048|dock3
  -GOLD-   2272015513D 1   1.00000     0.00000
 Structure written by MMmdl.
 42 43  0  0  0  0  0  0  0  0  1 V2000
  147.1921  131.6275  154.0960 C   0  0  0  0  0  0  0  0  0  0  0  0
  148.0874  132.6585  152.9025 S   0  0  0  0  0  0  0  0  0  0  0  0
  146.7370  133.1467  151.7819 C   0  0  1  0  0  0  0  0  0  0  0  0
  145.9425  131.8964  151.3592 C   0  0  0  0  0  0  0  0  0  0  0  0
  144.7686  132.2491  150.4343 C   0  0  0  0  0  0  0  0  0  0  0  0
  143.8385  133.2730  151.0978 C   0  0  0  0  0  0  0  0  0  0  0  0
  144.6124  134.5341  151.5066 C   0  0  0  0  0  0  0  0  0  0  0  0
  145.8073  134.2030  152.4282 C   0  0  2  0  0  0  0  0  0  0  0  0
  146.5503  135.4270  152.7165 N   0  0  0  0  0  0  0  0  0  0  0  0
  146.0525  136.4996  153.3451 C   0  0  0  0  0  0  0  0  0  0  0  0
  144.9054  136.5695  153.7869 O   0  0  0  0  0  0  0  0  0  0  0  0
  146.9422  137.5014  153.3980 N   0  0  0  0  0  0  0  0  0  0  0  0
  146.6683  138.8441  153.9064 C   0  0  0  0  0  0  0  0  0  0  0  0
  147.8905  139.7777  153.7956 C   0  0  0  0  0  0  0  0  0  0  0  0
  149.1768  139.1526  154.2332 C   0  0  0  0  0  0  0  0  0  0  0  0
  150.3964  139.6765  154.1414 N   0  0  0  0  0  0  0  0  0  0  0  0
  151.1589  138.6408  154.5871 C   0  0  0  0  0  0  0  0  0  0  0  0
  152.6445  138.7164  154.6775 C   0  0  0  0  0  0  0  0  0  0  0  0
  150.5004  137.5439  154.9414 N   0  0  0  0  0  0  0  0  0  0  0  0
  149.1613  137.8794  154.6981 O   0  0  0  0  0  0  0  0  0  0  0  0
  147.8779  131.2595  154.8589 H   0  0  0  0  0  0  0  0  0  0  0  0
  146.7349  130.7696  153.6047 H   0  0  0  0  0  0  0  0  0  0  0  0
  146.4097  132.2060  154.5874 H   0  0  0  0  0  0  0  0  0  0  0  0
  147.1856  133.5708  150.8824 H   0  0  0  0  0  0  0  0  0  0  0  0
  146.6029  131.1892  150.8563 H   0  0  0  0  0  0  0  0  0  0  0  0
  145.5625  131.3861  152.2453 H   0  0  0  0  0  0  0  0  0  0  0  0
  145.1488  132.6518  149.4947 H   0  0  0  0  0  0  0  0  0  0  0  0
  144.2097  131.3475  150.1822 H   0  0  0  0  0  0  0  0  0  0  0  0
  143.0296  133.5379  150.4165 H   0  0  0  0  0  0  0  0  0  0  0  0
  143.3707  132.8291  151.9774 H   0  0  0  0  0  0  0  0  0  0  0  0
  144.9689  135.0429  150.6098 H   0  0  0  0  0  0  0  0  0  0  0  0
  143.9338  135.2294  152.0026 H   0  0  0  0  0  0  0  0  0  0  0  0
  145.4235  133.7898  153.3632 H   0  0  0  0  0  0  0  0  0  0  0  0
  147.5033  135.4675  152.3864 H   0  0  0  0  0  0  0  0  0  0  0  0
  147.8598  137.3412  153.0088 H   0  0  0  0  0  0  0  0  0  0  0  0
  145.8175  139.2836  153.3829 H   0  0  0  0  0  0  0  0  0  0  0  0
  146.3685  138.7584  154.9509 H   0  0  0  0  0  0  0  0  0  0  0  0
  148.0024  140.1155  152.7650 H   0  0  0  0  0  0  0  0  0  0  0  0
  147.7235  140.6737  154.3946 H   0  0  0  0  0  0  0  0  0  0  0  0
  153.0778  137.7238  154.8056 H   0  0  0  0  0  0  0  0  0  0  0  0
  152.9376  139.3349  155.5259 H   0  0  0  0  0  0  0  0  0  0  0  0
  153.0565  139.1556  153.7686 H   0  0  0  0  0  0  0  0  0  0  0  0
  1  2  1  0  0  0  0
  1 21  1  0  0  0  0
  1 22  1  0  0  0  0
  1 23  1  0  0  0  0
  2  3  1  0  0  0  0
  3  8  1  0  0  0  0
  3  4  1  0  0  0  0
  3 24  1  0  0  0  0
  4  5  1  0  0  0  0
  4 25  1  0  0  0  0
  4 26  1  0  0  0  0
  5  6  1  0  0  0  0
  5 27  1  0  0  0  0
  5 28  1  0  0  0  0
  6  7  1  0  0  0  0
  6 29  1  0  0  0  0
  6 30  1  0  0  0  0
  7  8  1  0  0  0  0
  7 31  1  0  0  0  0
  7 32  1  0  0  0  0
  8  9  1  0  0  0  0
  8 33  1  0  0  0  0
  9 10  1  0  0  0  0
  9 34  1  0  0  0  0
 10 11  2  0  0  0  0
 10 12  1  0  0  0  0
 12 13  1  0  0  0  0
 12 35  1  0  0  0  0
 13 14  1  0  0  0  0
 13 36  1  0  0  0  0
 13 37  1  0  0  0  0
 14 15  1  0  0  0  0
 14 38  1  0  0  0  0
 14 39  1  0  0  0  0
 15 20  1  0  0  0  0
 15 16  2  0  0  0  0
 16 17  1  0  0  0  0
 17 18  1  0  0  0  0
 17 19  2  0  0  0  0
 18 40  1  0  0  0  0
 18 41  1  0  0  0  0
 18 42  1  0  0  0  0
 19 20  1  0  0  0  0
M  END
> <s_m_source_file>
AV-unprocessed.smi

> <i_m_source_file_index>
2878

> <i_lp_mmshare_version>
43012

> <i_f3d_flags>
0

> <s_epik_input>
W0NIM11TW0NAQEhdMVtDSDJdW0NIMl1bQ0gyXVtDSDJdW0NASF0xW05IXUMoPU8pW05IXVtDSDJdW0NIMl1jMm5jKFtDSDNdKW5vMg==

> <s_epik_cmdline>
J2VwaWtfcHl0aG9uJywgJy1waCcsICc3LjAnLCAnLXRuJywgJzgnLCAnLW1hJywgJzIwMCcsICctbWV0YWxfYmluZGluZycsICctaW1hZScsICc8aW5maWxlLm1hZT4nLCAnLW9tYWUnLCAnPG91dGZpbGUubWFlPic=

> <r_lp_tautomer_probability>
1

> <r_epik_Ionization_Penalty>
4.9299e-05

> <r_epik_Ionization_Penalty_Charging>
0

> <r_epik_Ionization_Penalty_Neutral>
4.9299e-05

> <r_epik_State_Penalty>
-0

> <r_epik_Charging_Adjusted_Penalty>
0

> <i_epik_Tot_Q>
0

> <i_epik_Tot_abs_Q>
0

> <r_epik_Metal_State_Penalty>
-0

> <b_epik_Metal_Only>
0

> <s_lp_Force_Field>
OPLS_2005

> <r_lp_Energy>
3.16315

> <b_lp_Chiralities_Consistent>
1

> <s_lp_Variant>
AV-unprocessed.smi:2878-4

> <Gold.Version>
5.8.1

> <Gold.Id.Protein>
6NUR|6NUR_protein|mol2

> <Gold.PLP.Fitness>
41.8762

> <Gold.PLP.PLP>
-33.3228

> <Gold.PLP.part.hbond>
-3.0000

> <Gold.PLP.part.metal>
0.0000

> <Gold.PLP.part.buried>
-5.3029

> <Gold.PLP.part.nonpolar>
-26.2980

> <Gold.PLP.part.repulsive>
0.6596

> <Gold.PLP.ligand.clash>
0.0000

> <Gold.PLP.ligand.torsion>
0.1609

> <Gold.PLP.Chemscore.Hbond>
2.9440

> <Gold.PLP.Chemscore.CHOScore>
0.0000

> <Gold.PLP.Chemscore.Metal>
0.0000

> <Gold.Chemscore.Hbonds>
donor molecule, donor type, donor heavy atom, donor atom, acceptor molecule, acceptor atom, score
      L1  H     9    34       P1  7948  1.00
      L1  H    12    35       P1  7948  0.94
      P1  H  7989  7998       L1    16  1.00

> <Gold.PLP.Chemscore.Internal.Correction>
0.0432

> <Gold.Rescore>
     Score         DG    S(hbond)    S(metal)    S(lipo)     H(rot)  DE(clash)    DE(int)     intcor
     15.62     -17.34       2.86        0.00      65.47       2.09       0.04       1.69       ----

> <Gold.Chemscore.Fitness>
15.6201

> <Gold.Chemscore.DG>
-17.3408

> <Gold.Chemscore.ZeroCoef>
-5.4800

> <Gold.Chemscore.Hbond>
2.8613

> <Gold.Chemscore.Metal>
0.0000

> <Gold.Chemscore.Lipo>
65.4728

> <Gold.Chemscore.Internal_Hbond>
0.0000

> <Gold.Chemscore.DEClash>
0.0351

> <Gold.Chemscore.DEInternal>
1.6857

> <Gold.Chemscore.Rot>
2.0923

> <Gold.Chemscore.Internal.Correction>
   9.000000E+99

> <Gold.Chemscore.Hbonds>
donor molecule, donor type, donor heavy atom, donor atom, acceptor molecule, acceptor atom, score
      L1  H     9    34       P1  7948  0.99
      L1  H    12    35       P1  7948  0.90
      P1  H  7989  7998       L1    16  0.45

> <Gold.Chemscore.Hbond.Weighted>
-9.5567

> <Gold.Chemscore.Metal.Weighted>
-0.0000

> <Gold.Chemscore.Lipo.Weighted>
-7.6603

> <Gold.Chemscore.Internal_Hbond.Weighted>
0.0000

> <Gold.Chemscore.DEClash.Weighted>
0.0351

> <Gold.Chemscore.DEInternal.Weighted>
1.6857

> <Gold.Chemscore.Rot.Weighted>
5.3562

> <Gold.Chemscore.Internal.Correction.Weighted>
   9.000000E+99

> <Gold.Protein.RotatedTorsions>
[ 6907 6896 6895 6894 ] final  -16.00 input  -60.11 | X-H torsion
[ 7974 7965 7964 7962 ] final    5.90 input  175.53 | X-H torsion
[ 8008 7997 7996 7995 ] final -138.07 input   59.86 | X-H torsion
[ 10167 10162 10161 10158 ] final  124.23 input  -65.29 | X-H torsion
[ 10718 10713 10712 10709 ] final -159.16 input   66.30 | X-H torsion
[ 10763 10752 10751 10750 ] final  -63.01 input  -60.55 | X-H torsion
[ 11005 11000 10999 10996 ] final -131.00 input  -57.11 | X-H torsion

> <Gold.Protein.ActiveResidues>
 VAL166  LYS551  ARG553  GLY616  TRP617  ASP618  TYR619  PRO620  LYS621  CYS622 
 ASP623  PHE694  ASN695  SER759  ASP760  ASP761  ALA762  ILE779  LEU786  VAL792 
 PHE793  MET794  SER795  GLU796  ALA797  LYS798  CYS799  TRP800  GLU811  SER814 

> <Gold.Protein.RotatedAtoms>
  151.3154  135.0805  159.9286 H   0  0  0  0  0  0  0  0  0  0  0  0  # atno 6907 bound_to 6896
  152.5268  133.9693  159.7765 H   0  0  0  0  0  0  0  0  0  0  0  0  # atno 6908 bound_to 6896
  151.0004  133.6009  159.2726 H   0  0  0  0  0  0  0  0  0  0  0  0  # atno 6909 bound_to 6896
  146.2438  140.0315  142.8389 H   0  0  0  0  0  0  0  0  0  0  0  0  # atno 7974 bound_to 7965
  155.4222  140.0519  157.3025 H   0  0  0  0  0  0  0  0  0  0  0  0  # atno 8008 bound_to 7997
  154.4897  140.2115  155.9534 H   0  0  0  0  0  0  0  0  0  0  0  0  # atno 8009 bound_to 7997
  156.1325  140.3169  155.8376 H   0  0  0  0  0  0  0  0  0  0  0  0  # atno 8010 bound_to 7997
  139.5754  144.6960  151.3668 H   0  0  0  0  0  0  0  0  0  0  0  0  # atno 10167 bound_to 10162
  156.5642  130.8660  151.2818 H   0  0  0  0  0  0  0  0  0  0  0  0  # atno 10718 bound_to 10713
  154.3085  135.6220  153.5455 H   0  0  0  0  0  0  0  0  0  0  0  0  # atno 10763 bound_to 10752
  152.9832  135.5695  154.5204 H   0  0  0  0  0  0  0  0  0  0  0  0  # atno 10764 bound_to 10752
  154.4848  135.2864  155.1519 H   0  0  0  0  0  0  0  0  0  0  0  0  # atno 10765 bound_to 10752
  140.9297  134.1335  157.4245 H   0  0  0  0  0  0  0  0  0  0  0  0  # atno 11005 bound_to 11000
  145.1151  140.9428  143.4633 LP  0  0  0  0  0  0  0  0  0  0  0  0  # atno 17320 bound_to 7965
  145.0537  139.3161  143.5915 LP  0  0  0  0  0  0  0  0  0  0  0  0  # atno 17321 bound_to 7965
  140.7036  143.7569  150.7445 LP  0  0  0  0  0  0  0  0  0  0  0  0  # atno 17342 bound_to 10162
  140.1087  143.4719  152.2383 LP  0  0  0  0  0  0  0  0  0  0  0  0  # atno 17343 bound_to 10162
  157.7362  130.9775  150.2124 LP  0  0  0  0  0  0  0  0  0  0  0  0  # atno 17370 bound_to 10713
  156.2772  130.3729  149.7971 LP  0  0  0  0  0  0  0  0  0  0  0  0  # atno 17371 bound_to 10713
  139.8793  135.0001  156.5990 LP  0  0  0  0  0  0  0  0  0  0  0  0  # atno 17394 bound_to 11000
  140.7879  133.8606  155.8621 LP  0  0  0  0  0  0  0  0  0  0  0  0  # atno 17395 bound_to 11000

$$$$
