AV-unprocessed.smi:34|AV-procd|sdf|242|dock9
  -GOLD-   2262015593D 1   1.00000     0.00000
 Structure written by MMmdl.
 54 58  0  0  0  0  0  0  0  0  2 V2000
  147.2748  135.8147  161.0398 O   0  0  0  0  0  0  0  0  0  0  0  0
  146.1331  136.1483  160.7156 C   0  0  0  0  0  0  0  0  0  0  0  0
  145.7603  136.9492  159.6853 N   0  5  0  0  0  0  0  0  0  0  0  0
  146.6977  137.5335  158.9236 C   0  0  0  0  0  0  0  0  0  0  0  0
  148.0052  137.1951  159.0627 N   0  0  0  0  0  0  0  0  0  0  0  0
  148.9389  137.7727  158.2971 C   0  0  0  0  0  0  0  0  0  0  0  0
  148.7906  138.7026  157.3480 N   0  0  0  0  0  0  0  0  0  0  0  0
  147.4811  139.0604  157.2098 C   0  0  0  0  0  0  0  0  0  0  0  0
  146.3899  138.5281  157.9552 C   0  0  0  0  0  0  0  0  0  0  0  0
  145.1947  139.1078  157.5569 N   0  0  0  0  0  0  0  0  0  0  0  0
  145.6050  139.9421  156.6038 C   0  0  0  0  0  0  0  0  0  0  0  0
  146.9291  139.9876  156.3433 N   0  0  0  0  0  0  0  0  0  0  0  0
  147.6731  140.7969  155.3246 C   0  0  1  0  0  0  0  0  0  0  0  0
  148.6439  141.5548  155.9835 O   0  0  0  0  0  0  0  0  0  0  0  0
  149.8703  140.8370  155.9796 C   0  0  2  0  0  0  0  0  0  0  0  0
  151.0370  141.7834  156.2816 C   0  0  0  0  0  0  0  0  0  0  0  0
  151.2759  141.8109  157.6791 O   0  0  0  0  0  0  0  0  0  0  0  0
  151.4595  142.9880  158.3080 C   0  0  0  0  0  0  0  0  0  0  0  0
  151.1365  144.0758  157.8264 O   0  0  0  0  0  0  0  0  0  0  0  0
  152.0921  142.8375  159.6500 C   0  0  0  0  0  0  0  0  0  0  0  0
  151.9236  143.8593  160.6139 C   0  0  0  0  0  0  0  0  0  0  0  0
  152.5063  143.7443  161.8908 C   0  0  0  0  0  0  0  0  0  0  0  0
  153.2665  142.6069  162.2194 C   0  0  0  0  0  0  0  0  0  0  0  0
  153.4437  141.5847  161.2687 C   0  0  0  0  0  0  0  0  0  0  0  0
  152.8609  141.6973  159.9912 C   0  0  0  0  0  0  0  0  0  0  0  0
  149.8804  140.2445  154.5732 C   0  0  1  0  0  0  0  0  0  0  0  0
  150.6814  139.1819  154.4866 F   0  0  0  0  0  0  0  0  0  0  0  0
  148.4217  139.8671  154.3479 C   0  0  2  0  0  0  0  0  0  0  0  0
  148.0553  140.0930  153.0023 O   0  0  0  0  0  0  0  0  0  0  0  0
  144.9774  135.6936  161.5656 C   0  0  0  0  0  0  0  0  0  0  0  0
  143.7822  136.4481  161.5832 C   0  0  0  0  0  0  0  0  0  0  0  0
  142.6991  136.0557  162.3936 C   0  0  0  0  0  0  0  0  0  0  0  0
  142.8036  134.9093  163.2032 C   0  0  0  0  0  0  0  0  0  0  0  0
  143.9934  134.1573  163.2042 C   0  0  0  0  0  0  0  0  0  0  0  0
  145.0768  134.5485  162.3934 C   0  0  0  0  0  0  0  0  0  0  0  0
  149.9518  137.4406  158.4692 H   0  0  0  0  0  0  0  0  0  0  0  0
  144.8955  140.5524  156.0649 H   0  0  0  0  0  0  0  0  0  0  0  0
  146.9091  141.4280  154.8681 H   0  0  0  0  0  0  0  0  0  0  0  0
  149.8223  140.0428  156.7265 H   0  0  0  0  0  0  0  0  0  0  0  0
  151.9337  141.4619  155.7499 H   0  0  0  0  0  0  0  0  0  0  0  0
  150.7952  142.7902  155.9386 H   0  0  0  0  0  0  0  0  0  0  0  0
  151.3439  144.7422  160.3849 H   0  0  0  0  0  0  0  0  0  0  0  0
  152.3689  144.5301  162.6190 H   0  0  0  0  0  0  0  0  0  0  0  0
  153.7132  142.5187  163.1987 H   0  0  0  0  0  0  0  0  0  0  0  0
  154.0276  140.7115  161.5197 H   0  0  0  0  0  0  0  0  0  0  0  0
  153.0176  140.8950  159.2850 H   0  0  0  0  0  0  0  0  0  0  0  0
  150.2192  140.9868  153.8486 H   0  0  0  0  0  0  0  0  0  0  0  0
  148.2466  138.8223  154.6103 H   0  0  0  0  0  0  0  0  0  0  0  0
  148.8425  140.1670  152.4849 H   0  0  0  0  0  0  0  0  0  0  0  0
  143.6870  137.3321  160.9690 H   0  0  0  0  0  0  0  0  0  0  0  0
  141.7890  136.6368  162.3950 H   0  0  0  0  0  0  0  0  0  0  0  0
  141.9738  134.6094  163.8258 H   0  0  0  0  0  0  0  0  0  0  0  0
  144.0780  133.2815  163.8304 H   0  0  0  0  0  0  0  0  0  0  0  0
  145.9854  133.9641  162.4175 H   0  0  0  0  0  0  0  0  0  0  0  0
  1  2  2  0  0  0  0
  2  3  1  0  0  0  0
  2 30  1  0  0  0  0
  3  4  1  0  0  0  0
  4  9  1  0  0  0  0
  4  5  2  0  0  0  0
  5  6  1  0  0  0  0
  6  7  2  0  0  0  0
  6 36  1  0  0  0  0
  7  8  1  0  0  0  0
  8 12  1  0  0  0  0
  8  9  2  0  0  0  0
  9 10  1  0  0  0  0
 10 11  2  0  0  0  0
 11 12  1  0  0  0  0
 11 37  1  0  0  0  0
 12 13  1  0  0  0  0
 13 28  1  0  0  0  0
 13 14  1  0  0  0  0
 13 38  1  0  0  0  0
 14 15  1  0  0  0  0
 15 16  1  0  0  0  0
 15 26  1  0  0  0  0
 15 39  1  0  0  0  0
 16 17  1  0  0  0  0
 16 40  1  0  0  0  0
 16 41  1  0  0  0  0
 17 18  1  0  0  0  0
 18 19  2  0  0  0  0
 18 20  1  0  0  0  0
 20 25  1  0  0  0  0
 20 21  2  0  0  0  0
 21 22  1  0  0  0  0
 21 42  1  0  0  0  0
 22 23  2  0  0  0  0
 22 43  1  0  0  0  0
 23 24  1  0  0  0  0
 23 44  1  0  0  0  0
 24 25  2  0  0  0  0
 24 45  1  0  0  0  0
 25 46  1  0  0  0  0
 26 27  1  0  0  0  0
 26 28  1  0  0  0  0
 26 47  1  0  0  0  0
 28 29  1  0  0  0  0
 28 48  1  0  0  0  0
 29 49  1  0  0  0  0
 30 35  1  0  0  0  0
 30 31  2  0  0  0  0
 31 32  1  0  0  0  0
 31 50  1  0  0  0  0
 32 33  2  0  0  0  0
 32 51  1  0  0  0  0
 33 34  1  0  0  0  0
 33 52  1  0  0  0  0
 34 35  2  0  0  0  0
 34 53  1  0  0  0  0
 35 54  1  0  0  0  0
M  CHG  1   3  -1
M  END
> <s_m_source_file>
AV-unprocessed.smi

> <i_m_source_file_index>
34

> <i_lp_mmshare_version>
43012

> <i_f3d_flags>
0

> <s_epik_input>
W2NIXTFbY0hdW2NIXVtjSF1bY0hdYzFDKD1PKVtOSF1jKG5bY0hdbjIpYyhjMjMpbltjSF1uM1tDQEBIXTRPW0NASF0oW0NAQEhdKEYpW0NASF00W09IXSlbQ0gyXU9DKD1PKWM1W2NIXVtjSF1bY0hdW2NIXVtjSF01

> <s_epik_cmdline>
J2VwaWtfcHl0aG9uJywgJy1waCcsICc3LjAnLCAnLXRuJywgJzgnLCAnLW1hJywgJzIwMCcsICctbWV0YWxfYmluZGluZycsICctaW1hZScsICc8aW5maWxlLm1hZT4nLCAnLW9tYWUnLCAnPG91dGZpbGUubWFlPic=

> <r_lp_tautomer_probability>
1

> <r_epik_Ionization_Penalty>
4.33227

> <r_epik_Ionization_Penalty_Charging>
3.41027

> <r_epik_Ionization_Penalty_Neutral>
0.922001

> <r_epik_State_Penalty>
3.41358

> <r_epik_Charging_Adjusted_Penalty>
6.82385

> <i_epik_Tot_Q>
-1

> <i_epik_Tot_abs_Q>
1

> <r_epik_Metal_State_Penalty>
0.496292

> <b_epik_Metal_Only>
1

> <s_epik_Chemistry_Notes>
This compound has an ester and may undergo hydrolysis at high or low pH. This compound contains an acetal/aminal-like group ( X-CH(R)-Y where X, Y are N, S, or O) that may be acid/base labile, releasing an aldehyde.

> <s_lp_Force_Field>
OPLS_2005

> <r_lp_Energy>
39.213

> <b_lp_Chiralities_Consistent>
1

> <s_lp_Variant>
AV-unprocessed.smi:34-28

> <Gold.Version>
5.8.1

> <Gold.Id.Protein>
6NUR|6NUR_protein|mol2

> <Gold.PLP.Fitness>
55.4257

> <Gold.PLP.PLP>
-54.5966

> <Gold.PLP.part.hbond>
-0.6845

> <Gold.PLP.part.metal>
0.0000

> <Gold.PLP.part.buried>
-8.9458

> <Gold.PLP.part.nonpolar>
-45.2701

> <Gold.PLP.part.repulsive>
0.3152

> <Gold.PLP.ligand.clash>
0.0000

> <Gold.PLP.ligand.torsion>
1.3819

> <Gold.PLP.Chemscore.Hbond>
1.0000

> <Gold.PLP.Chemscore.CHOScore>
0.0000

> <Gold.PLP.Chemscore.Metal>
0.0000

> <Gold.Chemscore.Hbonds>
donor molecule, donor type, donor heavy atom, donor atom, acceptor molecule, acceptor atom, score
      L1  H    29    49       P1  7957  1.00

> <Gold.PLP.Chemscore.Internal.Correction>
0.5928

> <Gold.Rescore>
     Score         DG    S(hbond)    S(metal)    S(lipo)     H(rot)  DE(clash)    DE(int)     intcor
     12.86     -17.18       0.99        0.00     130.67       2.69       0.03       4.29       ----

> <Gold.Chemscore.Fitness>
12.8604

> <Gold.Chemscore.DG>
-17.1822

> <Gold.Chemscore.ZeroCoef>
-5.4800

> <Gold.Chemscore.Hbond>
0.9915

> <Gold.Chemscore.Metal>
0.0000

> <Gold.Chemscore.Lipo>
130.6692

> <Gold.Chemscore.Internal_Hbond>
0.0000

> <Gold.Chemscore.DEClash>
0.0272

> <Gold.Chemscore.DEInternal>
4.2946

> <Gold.Chemscore.Rot>
2.6944

> <Gold.Chemscore.Internal.Correction>
   9.000000E+99

> <Gold.Chemscore.Hbonds>
donor molecule, donor type, donor heavy atom, donor atom, acceptor molecule, acceptor atom, score
      L1  H    29    49       P1  7957  0.89

> <Gold.Chemscore.Hbond.Weighted>
-3.3115

> <Gold.Chemscore.Metal.Weighted>
-0.0000

> <Gold.Chemscore.Lipo.Weighted>
-15.2883

> <Gold.Chemscore.Internal_Hbond.Weighted>
0.0000

> <Gold.Chemscore.DEClash.Weighted>
0.0272

> <Gold.Chemscore.DEInternal.Weighted>
4.2946

> <Gold.Chemscore.Rot.Weighted>
6.8975

> <Gold.Chemscore.Internal.Correction.Weighted>
   9.000000E+99

> <Gold.Protein.RotatedTorsions>
[ 6907 6896 6895 6894 ] final -158.27 input  -60.11 | X-H torsion
[ 7974 7965 7964 7962 ] final -103.00 input  175.53 | X-H torsion
[ 8008 7997 7996 7995 ] final -172.34 input   59.86 | X-H torsion
[ 10167 10162 10161 10158 ] final   56.36 input  -65.29 | X-H torsion
[ 10718 10713 10712 10709 ] final  -39.06 input   66.30 | X-H torsion
[ 10763 10752 10751 10750 ] final  -33.07 input  -60.55 | X-H torsion
[ 11005 11000 10999 10996 ] final  -98.98 input  -57.11 | X-H torsion

> <Gold.Protein.ActiveResidues>
 VAL166  LYS551  ARG553  GLY616  TRP617  ASP618  TYR619  PRO620  LYS621  CYS622 
 ASP623  PHE694  ASN695  SER759  ASP760  ASP761  ALA762  ILE779  LEU786  VAL792 
 PHE793  MET794  SER795  GLU796  ALA797  LYS798  CYS799  TRP800  GLU811  SER814 

> <Gold.Protein.RotatedAtoms>
  151.3156  133.4062  159.2650 H   0  0  0  0  0  0  0  0  0  0  0  0  # atno 6907 bound_to 6896
  151.0077  134.9373  159.8000 H   0  0  0  0  0  0  0  0  0  0  0  0  # atno 6908 bound_to 6896
  152.5292  134.3121  159.9169 H   0  0  0  0  0  0  0  0  0  0  0  0  # atno 6909 bound_to 6896
  145.2616  140.9271  143.3038 H   0  0  0  0  0  0  0  0  0  0  0  0  # atno 7974 bound_to 7965
  155.9433  140.1112  157.1038 H   0  0  0  0  0  0  0  0  0  0  0  0  # atno 8008 bound_to 7997
  154.4094  140.1215  156.5021 H   0  0  0  0  0  0  0  0  0  0  0  0  # atno 8009 bound_to 7997
  155.6935  140.3472  155.4905 H   0  0  0  0  0  0  0  0  0  0  0  0  # atno 8010 bound_to 7997
  140.2095  144.3904  150.6495 H   0  0  0  0  0  0  0  0  0  0  0  0  # atno 10167 bound_to 10162
  156.2968  130.4235  149.8183 H   0  0  0  0  0  0  0  0  0  0  0  0  # atno 10718 bound_to 10713
  153.8242  135.6871  153.4823 H   0  0  0  0  0  0  0  0  0  0  0  0  # atno 10763 bound_to 10752
  153.1550  135.4602  154.9690 H   0  0  0  0  0  0  0  0  0  0  0  0  # atno 10764 bound_to 10752
  154.7914  135.3303  154.7711 H   0  0  0  0  0  0  0  0  0  0  0  0  # atno 10765 bound_to 10752
  141.1325  133.8287  157.0912 H   0  0  0  0  0  0  0  0  0  0  0  0  # atno 11005 bound_to 11000
  144.9414  139.4185  143.6447 LP  0  0  0  0  0  0  0  0  0  0  0  0  # atno 17320 bound_to 7965
  146.3273  139.8375  142.8896 LP  0  0  0  0  0  0  0  0  0  0  0  0  # atno 17321 bound_to 7965
  140.6333  143.2191  151.6448 LP  0  0  0  0  0  0  0  0  0  0  0  0  # atno 17342 bound_to 10162
  139.5185  144.3281  152.0851 LP  0  0  0  0  0  0  0  0  0  0  0  0  # atno 17343 bound_to 10162
  156.5576  130.8369  151.3319 LP  0  0  0  0  0  0  0  0  0  0  0  0  # atno 17370 bound_to 10713
  157.7357  130.9767  150.2097 LP  0  0  0  0  0  0  0  0  0  0  0  0  # atno 17371 bound_to 10713
  140.0391  134.9863  157.0928 LP  0  0  0  0  0  0  0  0  0  0  0  0  # atno 17394 bound_to 11000
  140.4163  134.1928  155.7163 LP  0  0  0  0  0  0  0  0  0  0  0  0  # atno 17395 bound_to 11000

$$$$
