#       Name:                AV-unprocessed.smi:1093
#       Creating user name   scv26
#       Creation time:       Fri Mar 27 03:28:07 2020


#       File generated by GOLD software.
#

@<TRIPOS>MOLECULE
AV-unprocessed.smi:1093
    50    51     1
SMALL
NO_CHARGES


@<TRIPOS>ATOM
      1 ****        -4.6719  -0.2885   2.7529 C.3            1 S1                 0.0000
      2 ****        -5.2350  -0.1220   1.3339 C.3            1 S1                 0.0000
      3 ****        -4.4164   0.7923   0.4980 N.4            1 S1                 1.0000
      4 ****        -5.1850   1.3360  -0.6521 C.3            1 S1                 0.0000
      5 ****        -4.3661   2.3828  -1.4255 C.3            1 S1                 0.0000
      6 ****        -3.0272   1.7989  -1.8936 C.3            1 S1                 0.0000
      7 ****        -2.2600   1.2219  -0.6942 C.3            1 S1                 0.0000
      8 ****        -1.0102   0.6186  -1.1473 N.am           1 S1                 0.0000
      9 ****         0.0759   0.4326  -0.3836 C.2            1 S1                 0.0000
     10 ****         0.1248   0.7350   0.8085 O.2            1 S1                 0.0000
     11 ****         1.0706  -0.1415  -1.0810 N.am           1 S1                 0.0000
     12 ****         2.3886  -0.4434  -0.6453 C.ar           1 S1                 0.0000
     13 ****         3.0456   0.2212   0.4153 C.ar           1 S1                 0.0000
     14 ****         4.3656  -0.1468   0.7391 C.ar           1 S1                 0.0000
     15 ****         5.0058  -1.1681  -0.0066 C.ar           1 S1                 0.0000
     16 ****         6.3299  -1.5721   0.2801 N.pl3          1 S1                 0.0000
     17 ****         7.0760  -0.9302   1.3552 C.3            1 S1                 0.0000
     18 ****         6.9272  -2.6796  -0.4589 C.3            1 S1                 0.0000
     19 ****         4.3725  -1.7933  -1.0292 N.ar           1 S1                 0.0000
     20 ****         3.1091  -1.4352  -1.3386 C.ar           1 S1                 0.0000
     21 ****        -3.1286   0.1914   0.0580 C.3            1 S1                 0.0000
     22 ****        -5.3506  -0.8825   3.3654 H              1 S1                 0.0000
     23 ****        -4.5462   0.6773   3.2429 H              1 S1                 0.0000
     24 ****        -3.7084  -0.7971   2.7567 H              1 S1                 0.0000
     25 ****        -5.3358  -1.0908   0.8426 H              1 S1                 0.0000
     26 ****        -6.2433   0.2839   1.4252 H              1 S1                 0.0000
     27 ****        -5.4753   0.5196  -1.3156 H              1 S1                 0.0000
     28 ****        -6.1066   1.7977  -0.2959 H              1 S1                 0.0000
     29 ****        -4.9357   2.7424  -2.2830 H              1 S1                 0.0000
     30 ****        -4.1854   3.2503  -0.7890 H              1 S1                 0.0000
     31 ****        -3.2070   1.0188  -2.6350 H              1 S1                 0.0000
     32 ****        -2.4358   2.5710  -2.3876 H              1 S1                 0.0000
     33 ****        -2.0247   2.0454  -0.0167 H              1 S1                 0.0000
     34 ****        -0.9642   0.3352  -2.1153 H              1 S1                 0.0000
     35 ****         0.8493  -0.4307  -2.0227 H              1 S1                 0.0000
     36 ****         2.5720   1.0136   0.9739 H              1 S1                 0.0000
     37 ****         4.8606   0.3661   1.5496 H              1 S1                 0.0000
     38 ****         6.5701  -1.0715   2.3107 H              1 S1                 0.0000
     39 ****         7.1761   0.1390   1.1664 H              1 S1                 0.0000
     40 ****         8.0798  -1.3457   1.4457 H              1 S1                 0.0000
     41 ****         6.3455  -3.5908  -0.3161 H              1 S1                 0.0000
     42 ****         7.9453  -2.8782  -0.1243 H              1 S1                 0.0000
     43 ****         6.9648  -2.4553  -1.5255 H              1 S1                 0.0000
     44 ****         2.6586  -1.9636  -2.1662 H              1 S1                 0.0000
     45 ****        -2.5775  -0.1768   0.9227 H              1 S1                 0.0000
     46 ****        -3.3294  -0.6725  -0.5782 H              1 S1                 0.0000
     47 ****        -4.1867   1.5840   1.0820 H              1 S1                 0.0000
     48 ****        -0.6726   1.1418   1.2543 LP             1 S1                 0.0000
     49 ****         0.9619   0.5740   1.3313 LP             1 S1                 0.0000
     50 ****         4.8363  -2.5114  -1.5480 LP             1 S1                 0.0000
@<TRIPOS>BOND
    1    1    2 1     
    2    1   22 1     
    3    1   23 1     
    4    1   24 1     
    5    2    3 1     
    6    2   25 1     
    7    2   26 1     
    8    3   21 1     
    9    3    4 1     
   10    3   47 1     
   11    4    5 1     
   12    4   27 1     
   13    4   28 1     
   14    5    6 1     
   15    5   29 1     
   16    5   30 1     
   17    6    7 1     
   18    6   31 1     
   19    6   32 1     
   20    7    8 1     
   21    7   21 1     
   22    7   33 1     
   23    8    9 am    
   24    8   34 1     
   25    9   10 2     
   26    9   11 am    
   27   11   12 1     
   28   11   35 1     
   29   12   20 ar    
   30   12   13 ar    
   31   13   14 ar    
   32   13   36 1     
   33   14   15 ar    
   34   14   37 1     
   35   15   16 1     
   36   15   19 ar    
   37   16   17 1     
   38   16   18 1     
   39   17   38 1     
   40   17   39 1     
   41   17   40 1     
   42   18   41 1     
   43   18   42 1     
   44   18   43 1     
   45   19   20 ar    
   46   20   44 1     
   47   21   45 1     
   48   21   46 1     
   49   10   48 1     
   50   10   49 1     
   51   19   50 1     
@<TRIPOS>SUBSTRUCTURE
      1 S1             1
@<TRIPOS>SET
LONE_PAIRS      STATIC     ATOMS    <user>   **** ""
3 48 49 50
DONOR_HYDROGENS      STATIC     ATOMS    <user>   **** ""
3 47 34 35
ATOM$BLUE        STATIC     ATOMS    COLORGROUP SYSTEM
3 48 49 50
ATOM$RED        STATIC     ATOMS    COLORGROUP SYSTEM
3 47 34 35
