AV-unprocessed.smi:218|AV-procd|sdf|1675|dock6
  -GOLD-   2262020103D 1   1.00000     0.00000
 Structure written by MMmdl.
 54 57  0  0  0  0  0  0  0  0  1 V2000
  151.5530  144.0272  158.3571 C   0  0  0  0  0  0  0  0  0  0  0  0
  150.9163  142.7315  157.8402 C   0  0  0  0  0  0  0  0  0  0  0  0
  151.4675  141.5048  158.5874 C   0  0  0  0  0  0  0  0  0  0  0  0
  151.2230  142.6453  156.4470 O   0  0  0  0  0  0  0  0  0  0  0  0
  150.7920  141.5610  155.7070 C   0  0  0  0  0  0  0  0  0  0  0  0
  149.5012  141.6088  155.1422 C   0  0  0  0  0  0  0  0  0  0  0  0
  149.0461  140.5099  154.3824 C   0  0  0  0  0  0  0  0  0  0  0  0
  147.6648  140.5038  153.7554 C   0  0  0  0  0  0  0  0  0  0  0  0
  147.4405  139.3950  152.8367 N   0  0  0  0  0  0  0  0  0  0  0  0
  146.6182  138.3828  153.1854 C   0  0  0  0  0  0  0  0  0  0  0  0
  146.0355  138.3466  154.4116 N   0  0  0  0  0  0  0  0  0  0  0  0
  145.2335  137.3294  154.7375 C   0  0  0  0  0  0  0  0  0  0  0  0
  144.8857  136.2733  153.9998 N   0  0  0  0  0  0  0  0  0  0  0  0
  145.4596  136.3056  152.7608 C   0  0  0  0  0  0  0  0  0  0  0  0
  146.3386  137.3206  152.2870 C   0  0  0  0  0  0  0  0  0  0  0  0
  146.7483  137.0253  150.9949 N   0  0  0  0  0  0  0  0  0  0  0  0
  146.1494  135.8974  150.7260 C   0  0  0  0  0  0  0  0  0  0  0  0
  145.3293  135.4026  151.7189 N   0  0  0  0  0  0  0  0  0  0  0  0
  144.5500  134.1142  151.6939 C   0  0  1  0  0  0  0  0  0  0  0  0
  143.7414  134.0872  150.5573 O   0  0  0  0  0  0  0  0  0  0  0  0
  144.4270  133.4158  149.5096 C   0  0  2  0  0  0  0  0  0  0  0  0
  143.4717  133.0662  148.3548 C   0  0  0  0  0  0  0  0  0  0  0  0
  143.4773  134.0913  147.3839 O   0  0  0  0  0  0  0  0  0  0  0  0
  145.0825  132.2496  150.2591 C   0  0  2  0  0  0  0  0  0  0  0  0
  144.1582  131.1911  150.4520 O   0  0  0  0  0  0  0  0  0  0  0  0
  145.5101  132.9093  151.5723 C   0  0  2  0  0  0  0  0  0  0  0  0
  145.4471  132.0280  152.6787 O   0  0  0  0  0  0  0  0  0  0  0  0
  149.9001  139.3996  154.2292 C   0  0  0  0  0  0  0  0  0  0  0  0
  151.1711  139.4416  154.8338 C   0  0  0  0  0  0  0  0  0  0  0  0
  151.6137  140.4925  155.5556 N   0  0  0  0  0  0  0  0  0  0  0  0
  143.9543  134.1378  152.6072 H   0  0  0  0  0  0  0  0  0  0  0  0
  145.2057  134.0849  149.1372 H   0  0  0  0  0  0  0  0  0  0  0  0
  145.9401  131.8531  149.7145 H   0  0  0  0  0  0  0  0  0  0  0  0
  146.5365  133.2617  151.4658 H   0  0  0  0  0  0  0  0  0  0  0  0
  151.3520  144.1676  159.4195 H   0  0  0  0  0  0  0  0  0  0  0  0
  151.1565  144.8942  157.8279 H   0  0  0  0  0  0  0  0  0  0  0  0
  152.6345  144.0192  158.2189 H   0  0  0  0  0  0  0  0  0  0  0  0
  149.8405  142.8147  158.0018 H   0  0  0  0  0  0  0  0  0  0  0  0
  151.2717  141.5803  159.6572 H   0  0  0  0  0  0  0  0  0  0  0  0
  152.5456  141.4142  158.4523 H   0  0  0  0  0  0  0  0  0  0  0  0
  151.0121  140.5787  158.2382 H   0  0  0  0  0  0  0  0  0  0  0  0
  148.8758  142.4760  155.2954 H   0  0  0  0  0  0  0  0  0  0  0  0
  146.9154  140.4684  154.5475 H   0  0  0  0  0  0  0  0  0  0  0  0
  147.5277  141.4465  153.2239 H   0  0  0  0  0  0  0  0  0  0  0  0
  147.9131  139.4509  151.9459 H   0  0  0  0  0  0  0  0  0  0  0  0
  144.8092  137.3663  155.7300 H   0  0  0  0  0  0  0  0  0  0  0  0
  146.2899  135.3913  149.7819 H   0  0  0  0  0  0  0  0  0  0  0  0
  143.7333  132.1167  147.8873 H   0  0  0  0  0  0  0  0  0  0  0  0
  142.4558  132.9607  148.7362 H   0  0  0  0  0  0  0  0  0  0  0  0
  144.2562  134.6127  147.5054 H   0  0  0  0  0  0  0  0  0  0  0  0
  143.7690  131.2894  151.3078 H   0  0  0  0  0  0  0  0  0  0  0  0
  146.0232  131.2970  152.5144 H   0  0  0  0  0  0  0  0  0  0  0  0
  149.5921  138.5338  153.6616 H   0  0  0  0  0  0  0  0  0  0  0  0
  151.8505  138.6079  154.7358 H   0  0  0  0  0  0  0  0  0  0  0  0
  1  2  1  0  0  0  0
  1 35  1  0  0  0  0
  1 36  1  0  0  0  0
  1 37  1  0  0  0  0
  2  3  1  0  0  0  0
  2  4  1  0  0  0  0
  2 38  1  0  0  0  0
  3 39  1  0  0  0  0
  3 40  1  0  0  0  0
  3 41  1  0  0  0  0
  4  5  1  0  0  0  0
  5 30  1  0  0  0  0
  5  6  2  0  0  0  0
  6  7  1  0  0  0  0
  6 42  1  0  0  0  0
  7  8  1  0  0  0  0
  7 28  2  0  0  0  0
  8  9  1  0  0  0  0
  8 43  1  0  0  0  0
  8 44  1  0  0  0  0
  9 10  1  0  0  0  0
  9 45  1  0  0  0  0
 10 15  1  0  0  0  0
 10 11  2  0  0  0  0
 11 12  1  0  0  0  0
 12 13  2  0  0  0  0
 12 46  1  0  0  0  0
 13 14  1  0  0  0  0
 14 18  1  0  0  0  0
 14 15  2  0  0  0  0
 15 16  1  0  0  0  0
 16 17  2  0  0  0  0
 17 18  1  0  0  0  0
 17 47  1  0  0  0  0
 18 19  1  0  0  0  0
 19 31  1  0  0  0  0
 19 26  1  0  0  0  0
 19 20  1  0  0  0  0
 20 21  1  0  0  0  0
 21 32  1  0  0  0  0
 21 22  1  0  0  0  0
 21 24  1  0  0  0  0
 22 23  1  0  0  0  0
 22 48  1  0  0  0  0
 22 49  1  0  0  0  0
 23 50  1  0  0  0  0
 24 33  1  0  0  0  0
 24 25  1  0  0  0  0
 24 26  1  0  0  0  0
 25 51  1  0  0  0  0
 26 34  1  0  0  0  0
 26 27  1  0  0  0  0
 27 52  1  0  0  0  0
 28 29  1  0  0  0  0
 28 53  1  0  0  0  0
 29 30  2  0  0  0  0
 29 54  1  0  0  0  0
M  END
> <s_m_source_file>
AV-unprocessed.smi

> <i_m_source_file_index>
218

> <i_lp_mmshare_version>
43012

> <i_f3d_flags>
0

> <s_epik_input>
W0NIM11bQ0hdKFtDSDNdKU9jMVtjSF1jKFtjSF1bY0hdbjEpW0NIMl1bTkhdYyhuW2NIXW4yKWMoYzIzKW5bY0hdbjNbQ0BASF00T1tDQEhdKFtDSDJdW09IXSlbQ0BASF0oW09IXSlbQ0BIXTRbT0hd

> <s_epik_cmdline>
J2VwaWtfcHl0aG9uJywgJy1waCcsICc3LjAnLCAnLXRuJywgJzgnLCAnLW1hJywgJzIwMCcsICctbWV0YWxfYmluZGluZycsICctaW1hZScsICc8aW5maWxlLm1hZT4nLCAnLW9tYWUnLCAnPG91dGZpbGUubWFlPic=

> <r_lp_tautomer_probability>
1

> <r_epik_Ionization_Penalty>
0.00457014

> <r_epik_Ionization_Penalty_Charging>
0

> <r_epik_Ionization_Penalty_Neutral>
0.00457014

> <r_epik_State_Penalty>
-0

> <r_epik_Charging_Adjusted_Penalty>
0

> <i_epik_Tot_Q>
0

> <i_epik_Tot_abs_Q>
0

> <r_epik_Metal_State_Penalty>
-0

> <b_epik_Metal_Only>
0

> <s_epik_Chemistry_Notes>
This compound contains an acetal/aminal-like group ( X-CH(R)-Y where X, Y are N, S, or O) that may be acid/base labile, releasing an aldehyde.

> <s_lp_Force_Field>
OPLS_2005

> <r_lp_Energy>
43.0364

> <b_lp_Chiralities_Consistent>
1

> <s_lp_Variant>
AV-unprocessed.smi:218-14

> <Gold.Version>
5.8.1

> <Gold.Id.Protein>
6NUR|6NUR_protein|mol2

> <Gold.PLP.Fitness>
54.9769

> <Gold.PLP.PLP>
-41.0952

> <Gold.PLP.part.hbond>
-7.2055

> <Gold.PLP.part.metal>
0.0000

> <Gold.PLP.part.buried>
1.0732

> <Gold.PLP.part.nonpolar>
-40.5282

> <Gold.PLP.part.repulsive>
6.5394

> <Gold.PLP.ligand.clash>
0.0000

> <Gold.PLP.ligand.torsion>
0.9863

> <Gold.PLP.Chemscore.Hbond>
4.2402

> <Gold.PLP.Chemscore.CHOScore>
1.0000

> <Gold.PLP.Chemscore.Metal>
0.0000

> <Gold.Chemscore.Hbonds>
donor molecule, donor type, donor heavy atom, donor atom, acceptor molecule, acceptor atom, score
      L1  H     9    45       P1  7957  0.85
      L1  H    23    50       P1  7921  1.00
      P1  H  7954  7966       L1    16  1.00
      P1  H 10192 10197       L1    23  1.00
      P1  H 10785 10796       L1    25  0.29
      L1  C    17    47       P1  7921  1.00

> <Gold.PLP.Chemscore.Internal.Correction>
0.1337

> <Gold.Rescore>
     Score         DG    S(hbond)    S(metal)    S(lipo)     H(rot)  DE(clash)    DE(int)     intcor
     12.01     -18.37       3.94        0.00     104.99       4.90       5.66       0.70       ----

> <Gold.Chemscore.Fitness>
12.0095

> <Gold.Chemscore.DG>
-18.3659

> <Gold.Chemscore.ZeroCoef>
-5.4800

> <Gold.Chemscore.Hbond>
3.9383

> <Gold.Chemscore.Metal>
0.0000

> <Gold.Chemscore.Lipo>
104.9883

> <Gold.Chemscore.Internal_Hbond>
0.0000

> <Gold.Chemscore.DEClash>
5.6607

> <Gold.Chemscore.DEInternal>
0.6958

> <Gold.Chemscore.Rot>
4.9029

> <Gold.Chemscore.Internal.Correction>
   9.000000E+99

> <Gold.Chemscore.Hbonds>
donor molecule, donor type, donor heavy atom, donor atom, acceptor molecule, acceptor atom, score
      L1  H     9    45       P1  7957  0.83
      L1  H    23    50       P1  7921  0.96
      P1  H  7954  7966       L1    16  0.96
      P1  H 10192 10197       L1    23  0.77
      P1  H 10785 10796       L1    25  0.30

> <Gold.Chemscore.Hbond.Weighted>
-13.1538

> <Gold.Chemscore.Metal.Weighted>
-0.0000

> <Gold.Chemscore.Lipo.Weighted>
-12.2836

> <Gold.Chemscore.Internal_Hbond.Weighted>
0.0000

> <Gold.Chemscore.DEClash.Weighted>
5.6607

> <Gold.Chemscore.DEInternal.Weighted>
0.6958

> <Gold.Chemscore.Rot.Weighted>
12.5515

> <Gold.Chemscore.Internal.Correction.Weighted>
   9.000000E+99

> <Gold.Protein.RotatedTorsions>
[ 6907 6896 6895 6894 ] final  -49.29 input  -60.11 | X-H torsion
[ 7974 7965 7964 7962 ] final  134.83 input  175.53 | X-H torsion
[ 8008 7997 7996 7995 ] final   89.12 input   59.86 | X-H torsion
[ 10167 10162 10161 10158 ] final   31.91 input  -65.29 | X-H torsion
[ 10718 10713 10712 10709 ] final  167.85 input   66.30 | X-H torsion
[ 10763 10752 10751 10750 ] final -178.07 input  -60.55 | X-H torsion
[ 11005 11000 10999 10996 ] final   -0.49 input  -57.11 | X-H torsion

> <Gold.Protein.ActiveResidues>
 VAL166  LYS551  ARG553  GLY616  TRP617  ASP618  TYR619  PRO620  LYS621  CYS622 
 ASP623  PHE694  ASN695  SER759  ASP760  ASP761  ALA762  ILE779  LEU786  VAL792 
 PHE793  MET794  SER795  GLU796  ALA797  LYS798  CYS799  TRP800  GLU811  SER814 

> <Gold.Protein.RotatedAtoms>
  150.8819  134.8212  159.7231 H   0  0  0  0  0  0  0  0  0  0  0  0  # atno 6907 bound_to 6896
  152.4783  134.4782  159.9667 H   0  0  0  0  0  0  0  0  0  0  0  0  # atno 6908 bound_to 6896
  151.4856  133.3498  159.2880 H   0  0  0  0  0  0  0  0  0  0  0  0  # atno 6909 bound_to 6896
  144.9724  139.4591  143.5426 H   0  0  0  0  0  0  0  0  0  0  0  0  # atno 7974 bound_to 7965
  155.9960  140.3364  155.6799 H   0  0  0  0  0  0  0  0  0  0  0  0  # atno 8008 bound_to 7997
  155.6355  140.0689  157.2653 H   0  0  0  0  0  0  0  0  0  0  0  0  # atno 8009 bound_to 7997
  154.4234  140.1752  156.1505 H   0  0  0  0  0  0  0  0  0  0  0  0  # atno 8010 bound_to 7997
  140.4546  144.0997  150.6199 H   0  0  0  0  0  0  0  0  0  0  0  0  # atno 10167 bound_to 10162
  157.0456  131.0299  151.2698 H   0  0  0  0  0  0  0  0  0  0  0  0  # atno 10718 bound_to 10713
  154.5523  135.2814  155.0997 H   0  0  0  0  0  0  0  0  0  0  0  0  # atno 10763 bound_to 10752
  154.2438  135.6352  153.5220 H   0  0  0  0  0  0  0  0  0  0  0  0  # atno 10764 bound_to 10752
  153.0006  135.5566  154.6092 H   0  0  0  0  0  0  0  0  0  0  0  0  # atno 10765 bound_to 10752
  140.6368  133.9525  155.8304 H   0  0  0  0  0  0  0  0  0  0  0  0  # atno 11005 bound_to 11000
  146.3386  139.8945  142.8804 LP  0  0  0  0  0  0  0  0  0  0  0  0  # atno 17320 bound_to 7965
  145.2539  141.0053  143.3865 LP  0  0  0  0  0  0  0  0  0  0  0  0  # atno 17321 bound_to 7965
  140.4166  143.2631  151.9767 LP  0  0  0  0  0  0  0  0  0  0  0  0  # atno 17342 bound_to 10162
  139.4800  144.5868  151.7840 LP  0  0  0  0  0  0  0  0  0  0  0  0  # atno 17343 bound_to 10162
  157.5070  130.7915  149.7665 LP  0  0  0  0  0  0  0  0  0  0  0  0  # atno 17370 bound_to 10713
  156.0024  130.3873  150.2556 LP  0  0  0  0  0  0  0  0  0  0  0  0  # atno 17371 bound_to 10713
  141.0635  134.0310  157.3625 LP  0  0  0  0  0  0  0  0  0  0  0  0  # atno 17394 bound_to 11000
  139.9095  135.0187  156.7631 LP  0  0  0  0  0  0  0  0  0  0  0  0  # atno 17395 bound_to 11000

$$$$
