AV-unprocessed.smi:100|AV-procd|sdf|897|dock2
  -GOLD-   2262017393D 1   1.00000     0.00000
 Structure written by MMmdl.
 31 33  0  0  0  0  0  0  0  0  1 V2000
  152.7128  142.5979  161.9608 N   0  0  0  0  0  0  0  0  0  0  0  0
  152.2218  142.8970  160.7503 C   0  0  0  0  0  0  0  0  0  0  0  0
  151.9570  144.1939  160.4651 N   0  0  0  0  0  0  0  0  0  0  0  0
  151.4682  144.5182  159.2632 C   0  0  0  0  0  0  0  0  0  0  0  0
  151.1812  143.7170  158.2329 N   0  0  0  0  0  0  0  0  0  0  0  0
  151.4468  142.4103  158.5265 C   0  0  0  0  0  0  0  0  0  0  0  0
  151.9682  141.9199  159.7550 C   0  0  0  0  0  0  0  0  0  0  0  0
  152.1158  140.5405  159.6893 N   0  0  0  0  0  0  0  0  0  0  0  0
  151.7030  140.2375  158.4873 C   0  0  0  0  0  0  0  0  0  0  0  0
  151.2796  141.3041  157.7229 N   0  0  0  0  0  0  0  0  0  0  0  0
  150.7642  141.3009  156.3225 C   0  0  2  0  0  0  0  0  0  0  0  0
  149.4695  141.8237  156.3554 O   0  0  0  0  0  0  0  0  0  0  0  0
  148.5778  141.0123  155.5981 C   0  0  1  0  0  0  0  0  0  0  0  0
  148.5339  141.5260  154.1458 C   0  0  0  0  0  0  0  0  0  0  0  0
  147.6956  142.6579  154.0598 O   0  0  0  0  0  0  0  0  0  0  0  0
  149.1824  139.6121  155.7249 C   0  0  2  0  0  0  0  0  0  0  0  0
  148.7644  139.0531  156.8619 F   0  0  0  0  0  0  0  0  0  0  0  0
  150.6812  139.8558  155.8050 C   0  0  1  0  0  0  0  0  0  0  0  0
  151.2816  139.7079  154.5337 O   0  0  0  0  0  0  0  0  0  0  0  0
  152.9188  141.6376  162.1957 H   0  0  0  0  0  0  0  0  0  0  0  0
  152.8751  143.3318  162.6350 H   0  0  0  0  0  0  0  0  0  0  0  0
  151.2795  145.5697  159.1040 H   0  0  0  0  0  0  0  0  0  0  0  0
  151.6965  139.2205  158.1225 H   0  0  0  0  0  0  0  0  0  0  0  0
  151.4366  141.9488  155.7578 H   0  0  0  0  0  0  0  0  0  0  0  0
  147.5760  141.0339  156.0299 H   0  0  0  0  0  0  0  0  0  0  0  0
  149.5275  141.7662  153.7667 H   0  0  0  0  0  0  0  0  0  0  0  0
  148.1147  140.7630  153.4893 H   0  0  0  0  0  0  0  0  0  0  0  0
  148.1909  143.4197  154.3193 H   0  0  0  0  0  0  0  0  0  0  0  0
  148.8887  138.9341  154.9225 H   0  0  0  0  0  0  0  0  0  0  0  0
  151.1685  139.1613  156.4915 H   0  0  0  0  0  0  0  0  0  0  0  0
  150.6625  139.2836  153.9588 H   0  0  0  0  0  0  0  0  0  0  0  0
  1  2  1  0  0  0  0
  1 20  1  0  0  0  0
  1 21  1  0  0  0  0
  2  7  1  0  0  0  0
  2  3  2  0  0  0  0
  3  4  1  0  0  0  0
  4  5  2  0  0  0  0
  4 22  1  0  0  0  0
  5  6  1  0  0  0  0
  6 10  1  0  0  0  0
  6  7  2  0  0  0  0
  7  8  1  0  0  0  0
  8  9  2  0  0  0  0
  9 10  1  0  0  0  0
  9 23  1  0  0  0  0
 10 11  1  0  0  0  0
 11 18  1  0  0  0  0
 11 12  1  0  0  0  0
 11 24  1  0  0  0  0
 12 13  1  0  0  0  0
 13 14  1  0  0  0  0
 13 16  1  0  0  0  0
 13 25  1  0  0  0  0
 14 15  1  0  0  0  0
 14 26  1  0  0  0  0
 14 27  1  0  0  0  0
 15 28  1  0  0  0  0
 16 17  1  0  0  0  0
 16 18  1  0  0  0  0
 16 29  1  0  0  0  0
 18 19  1  0  0  0  0
 18 30  1  0  0  0  0
 19 31  1  0  0  0  0
M  END
> <s_m_source_file>
AV-unprocessed.smi

> <i_m_source_file_index>
100

> <i_lp_mmshare_version>
43012

> <i_f3d_flags>
0

> <s_epik_input>
bjFbY0hdbmMoW05IMl0pYyhjMTIpbltjSF1uMltDQEBIXTNPW0NAQEhdKFtDSDJdW09IXSlbQ0BIXShGKVtDQEhdM1tPSF0=

> <s_epik_cmdline>
J2VwaWtfcHl0aG9uJywgJy1waCcsICc3LjAnLCAnLXRuJywgJzgnLCAnLW1hJywgJzIwMCcsICctbWV0YWxfYmluZGluZycsICctaW1hZScsICc8aW5maWxlLm1hZT4nLCAnLW9tYWUnLCAnPG91dGZpbGUubWFlPic=

> <r_lp_tautomer_probability>
1

> <r_epik_Ionization_Penalty>
0.000750324

> <r_epik_Ionization_Penalty_Charging>
0

> <r_epik_Ionization_Penalty_Neutral>
0.000750324

> <r_epik_State_Penalty>
-0

> <r_epik_Charging_Adjusted_Penalty>
0

> <i_epik_Tot_Q>
0

> <i_epik_Tot_abs_Q>
0

> <r_epik_Metal_State_Penalty>
-0

> <b_epik_Metal_Only>
0

> <s_epik_Chemistry_Notes>
This compound contains an acetal/aminal-like group ( X-CH(R)-Y where X, Y are N, S, or O) that may be acid/base labile, releasing an aldehyde.

> <s_lp_Force_Field>
OPLS_2005

> <r_lp_Energy>
27.7777

> <b_lp_Chiralities_Consistent>
1

> <s_lp_Variant>
AV-unprocessed.smi:100-1

> <Gold.Version>
5.8.1

> <Gold.Id.Protein>
6NUR|6NUR_protein|mol2

> <Gold.PLP.Fitness>
38.0555

> <Gold.PLP.PLP>
-32.3244

> <Gold.PLP.part.hbond>
-2.1758

> <Gold.PLP.part.metal>
0.0000

> <Gold.PLP.part.buried>
-5.4865

> <Gold.PLP.part.nonpolar>
-24.7694

> <Gold.PLP.part.repulsive>
0.5965

> <Gold.PLP.ligand.clash>
0.0000

> <Gold.PLP.ligand.torsion>
0.1431

> <Gold.PLP.Chemscore.Hbond>
2.0000

> <Gold.PLP.Chemscore.CHOScore>
0.0000

> <Gold.PLP.Chemscore.Metal>
0.0000

> <Gold.Chemscore.Hbonds>
donor molecule, donor type, donor heavy atom, donor atom, acceptor molecule, acceptor atom, score
      L1  H    15    28       P1  8028  1.00
      P1  H  7989  7998       L1    19  0.70

> <Gold.PLP.Chemscore.Internal.Correction>
0.0172

> <Gold.Rescore>
     Score         DG    S(hbond)    S(metal)    S(lipo)     H(rot)  DE(clash)    DE(int)     intcor
      4.14      -4.48       0.97        0.00      33.57       3.19       0.03       0.30       ----

> <Gold.Chemscore.Fitness>
4.1387

> <Gold.Chemscore.DG>
-4.4783

> <Gold.Chemscore.ZeroCoef>
-5.4800

> <Gold.Chemscore.Hbond>
0.9693

> <Gold.Chemscore.Metal>
0.0000

> <Gold.Chemscore.Lipo>
33.5697

> <Gold.Chemscore.Internal_Hbond>
0.0000

> <Gold.Chemscore.DEClash>
0.0348

> <Gold.Chemscore.DEInternal>
0.3049

> <Gold.Chemscore.Rot>
3.1901

> <Gold.Chemscore.Internal.Correction>
   9.000000E+99

> <Gold.Chemscore.Hbonds>
donor molecule, donor type, donor heavy atom, donor atom, acceptor molecule, acceptor atom, score
      L1  H    15    28       P1  8028  0.92
      P1  H  7989  7998       L1    19  0.07

> <Gold.Chemscore.Hbond.Weighted>
-3.2373

> <Gold.Chemscore.Metal.Weighted>
-0.0000

> <Gold.Chemscore.Lipo.Weighted>
-3.9277

> <Gold.Chemscore.Internal_Hbond.Weighted>
0.0000

> <Gold.Chemscore.DEClash.Weighted>
0.0348

> <Gold.Chemscore.DEInternal.Weighted>
0.3049

> <Gold.Chemscore.Rot.Weighted>
8.1667

> <Gold.Chemscore.Internal.Correction.Weighted>
   9.000000E+99

> <Gold.Protein.RotatedTorsions>
[ 6907 6896 6895 6894 ] final   20.10 input  -60.11 | X-H torsion
[ 7974 7965 7964 7962 ] final -148.14 input  175.53 | X-H torsion
[ 8008 7997 7996 7995 ] final  -70.91 input   59.86 | X-H torsion
[ 10167 10162 10161 10158 ] final  105.62 input  -65.29 | X-H torsion
[ 10718 10713 10712 10709 ] final  -25.38 input   66.30 | X-H torsion
[ 10763 10752 10751 10750 ] final -125.19 input  -60.55 | X-H torsion
[ 11005 11000 10999 10996 ] final   31.02 input  -57.11 | X-H torsion

> <Gold.Protein.ActiveResidues>
 VAL166  LYS551  ARG553  GLY616  TRP617  ASP618  TYR619  PRO620  LYS621  CYS622 
 ASP623  PHE694  ASN695  SER759  ASP760  ASP761  ALA762  ILE779  LEU786  VAL792 
 PHE793  MET794  SER795  GLU796  ALA797  LYS798  CYS799  TRP800  GLU811  SER814 

> <Gold.Protein.RotatedAtoms>
  151.8911  135.0416  160.0497 H   0  0  0  0  0  0  0  0  0  0  0  0  # atno 6907 bound_to 6896
  152.2435  133.5151  159.5292 H   0  0  0  0  0  0  0  0  0  0  0  0  # atno 6908 bound_to 6896
  150.7061  134.0973  159.3995 H   0  0  0  0  0  0  0  0  0  0  0  0  # atno 6909 bound_to 6896
  144.8048  140.5236  143.5682 H   0  0  0  0  0  0  0  0  0  0  0  0  # atno 7974 bound_to 7965
  154.5047  140.0825  156.7871 H   0  0  0  0  0  0  0  0  0  0  0  0  # atno 8008 bound_to 7997
  155.3920  140.3433  155.4234 H   0  0  0  0  0  0  0  0  0  0  0  0  # atno 8009 bound_to 7997
  156.1501  140.1556  156.8771 H   0  0  0  0  0  0  0  0  0  0  0  0  # atno 8010 bound_to 7997
  139.7077  144.7083  151.1078 H   0  0  0  0  0  0  0  0  0  0  0  0  # atno 10167 bound_to 10162
  156.4651  130.4512  149.6904 H   0  0  0  0  0  0  0  0  0  0  0  0  # atno 10718 bound_to 10713
  154.8733  135.4038  154.3228 H   0  0  0  0  0  0  0  0  0  0  0  0  # atno 10763 bound_to 10752
  153.4054  135.7019  153.6402 H   0  0  0  0  0  0  0  0  0  0  0  0  # atno 10764 bound_to 10752
  153.5127  135.3704  155.2565 H   0  0  0  0  0  0  0  0  0  0  0  0  # atno 10765 bound_to 10752
  140.2883  134.2894  155.7782 H   0  0  0  0  0  0  0  0  0  0  0  0  # atno 11005 bound_to 11000
  145.5464  139.1476  143.3418 LP  0  0  0  0  0  0  0  0  0  0  0  0  # atno 17320 bound_to 7965
  146.2338  140.5603  142.8964 LP  0  0  0  0  0  0  0  0  0  0  0  0  # atno 17321 bound_to 7965
  140.7726  143.5335  150.9395 LP  0  0  0  0  0  0  0  0  0  0  0  0  # atno 17342 bound_to 10162
  139.9019  143.6825  152.3130 LP  0  0  0  0  0  0  0  0  0  0  0  0  # atno 17343 bound_to 10162
  156.3676  130.7514  151.2493 LP  0  0  0  0  0  0  0  0  0  0  0  0  # atno 17370 bound_to 10713
  157.7495  131.0332  150.4262 LP  0  0  0  0  0  0  0  0  0  0  0  0  # atno 17371 bound_to 10713
  141.2151  133.7569  156.9586 LP  0  0  0  0  0  0  0  0  0  0  0  0  # atno 17394 bound_to 11000
  140.1219  134.9411  157.2215 LP  0  0  0  0  0  0  0  0  0  0  0  0  # atno 17395 bound_to 11000

$$$$
