AV-unprocessed.smi:1735|AV-procd|sdf|6988|dock3
  -GOLD-   22720 8203D 1   1.00000     0.00000
 Structure written by MMmdl.
 32 33  0  0  0  0  0  0  0  0  1 V2000
  147.5309  132.3408  153.9989 O   0  0  0  0  0  0  0  0  0  0  0  0
  147.8755  133.3750  153.4263 C   0  0  0  0  0  0  0  0  0  0  0  0
  148.9996  134.0631  153.6851 N   0  0  0  0  0  0  0  0  0  0  0  0
  149.9941  133.7568  154.6484 C   0  0  0  0  0  0  0  0  0  0  0  0
  150.7512  134.7225  155.3655 C   0  0  0  0  0  0  0  0  0  0  0  0
  151.6046  134.1460  156.1998 N   0  0  0  0  0  0  0  0  0  0  0  0
  151.3995  132.8214  156.0218 N   0  0  0  0  0  0  0  0  0  0  0  0
  150.4285  132.5373  155.0870 C   0  0  0  0  0  0  0  0  0  0  0  0
  147.1614  133.9573  152.4523 N   0  0  0  0  0  0  0  0  0  0  0  0
  145.8865  133.4694  151.9345 C   0  0  2  0  0  0  0  0  0  0  0  0
  146.0509  132.0660  151.3142 C   0  0  0  0  0  0  0  0  0  0  0  0
  144.7347  131.5680  150.6951 C   0  0  0  0  0  0  0  0  0  0  0  0
  144.1939  132.5690  149.6598 C   0  0  1  0  0  0  0  0  0  0  0  0
  142.9527  132.1128  149.1649 O   0  0  0  0  0  0  0  0  0  0  0  0
  144.0193  133.9662  150.2795 C   0  0  0  0  0  0  0  0  0  0  0  0
  145.3359  134.4654  150.8961 C   0  0  0  0  0  0  0  0  0  0  0  0
  151.9235  132.1308  156.5405 H   0  0  0  0  0  0  0  0  0  0  0  0
  149.1609  134.8951  153.1366 H   0  0  0  0  0  0  0  0  0  0  0  0
  150.7105  135.8005  155.3103 H   0  0  0  0  0  0  0  0  0  0  0  0
  150.1488  131.5258  154.8326 H   0  0  0  0  0  0  0  0  0  0  0  0
  147.5238  134.8047  152.0405 H   0  0  0  0  0  0  0  0  0  0  0  0
  145.1704  133.4089  152.7566 H   0  0  0  0  0  0  0  0  0  0  0  0
  146.8255  132.0896  150.5462 H   0  0  0  0  0  0  0  0  0  0  0  0
  146.3884  131.3560  152.0701 H   0  0  0  0  0  0  0  0  0  0  0  0
  144.8914  130.5941  150.2296 H   0  0  0  0  0  0  0  0  0  0  0  0
  143.9990  131.4185  151.4869 H   0  0  0  0  0  0  0  0  0  0  0  0
  144.8869  132.6307  148.8198 H   0  0  0  0  0  0  0  0  0  0  0  0
  142.2967  132.7683  149.3473 H   0  0  0  0  0  0  0  0  0  0  0  0
  143.6758  134.6722  149.5224 H   0  0  0  0  0  0  0  0  0  0  0  0
  143.2471  133.9381  151.0499 H   0  0  0  0  0  0  0  0  0  0  0  0
  145.1766  135.4396  151.3600 H   0  0  0  0  0  0  0  0  0  0  0  0
  146.0695  134.6172  150.1030 H   0  0  0  0  0  0  0  0  0  0  0  0
  1  2  2  0  0  0  0
  2  3  1  0  0  0  0
  2  9  1  0  0  0  0
  3  4  1  0  0  0  0
  3 18  1  0  0  0  0
  4  8  2  0  0  0  0
  4  5  1  0  0  0  0
  5  6  2  0  0  0  0
  5 19  1  0  0  0  0
  6  7  1  0  0  0  0
  7 17  1  0  0  0  0
  7  8  1  0  0  0  0
  8 20  1  0  0  0  0
  9 10  1  0  0  0  0
  9 21  1  0  0  0  0
 10 16  1  0  0  0  0
 10 11  1  0  0  0  0
 10 22  1  0  0  0  0
 11 12  1  0  0  0  0
 11 23  1  0  0  0  0
 11 24  1  0  0  0  0
 12 13  1  0  0  0  0
 12 25  1  0  0  0  0
 12 26  1  0  0  0  0
 13 14  1  0  0  0  0
 13 15  1  0  0  0  0
 13 27  1  0  0  0  0
 14 28  1  0  0  0  0
 15 16  1  0  0  0  0
 15 29  1  0  0  0  0
 15 30  1  0  0  0  0
 16 31  1  0  0  0  0
 16 32  1  0  0  0  0
M  END
> <s_m_source_file>
AV-unprocessed.smi

> <i_m_source_file_index>
1735

> <i_lp_mmshare_version>
43012

> <i_f3d_flags>
0

> <s_epik_input>
W2NIXTFbbkhdbltjSF1jMVtOSF1DKD1PKVtOSF1bQ0BASF0yW0NIMl1bQ0gyXVtDQEBIXShbT0hdKVtDSDJdW0NIMl0y

> <s_epik_cmdline>
J2VwaWtfcHl0aG9uJywgJy1waCcsICc3LjAnLCAnLXRuJywgJzgnLCAnLW1hJywgJzIwMCcsICctbWV0YWxfYmluZGluZycsICctaW1hZScsICc8aW5maWxlLm1hZT4nLCAnLW9tYWUnLCAnPG91dGZpbGUubWFlPic=

> <r_lp_tautomer_probability>
1

> <r_epik_Ionization_Penalty>
5.59555e-05

> <r_epik_Ionization_Penalty_Charging>
0

> <r_epik_Ionization_Penalty_Neutral>
5.59555e-05

> <r_epik_State_Penalty>
-0

> <r_epik_Charging_Adjusted_Penalty>
0

> <i_epik_Tot_Q>
0

> <i_epik_Tot_abs_Q>
0

> <r_epik_Metal_State_Penalty>
-0

> <b_epik_Metal_Only>
0

> <s_lp_Force_Field>
OPLS_2005

> <r_lp_Energy>
10.2998

> <b_lp_Chiralities_Consistent>
1

> <s_lp_Variant>
AV-unprocessed.smi:1735-1

> <Gold.Version>
5.8.1

> <Gold.Id.Protein>
6NUR|6NUR_protein|mol2

> <Gold.PLP.Fitness>
40.6721

> <Gold.PLP.PLP>
-30.1031

> <Gold.PLP.part.hbond>
-5.1531

> <Gold.PLP.part.metal>
0.0000

> <Gold.PLP.part.buried>
-4.7638

> <Gold.PLP.part.nonpolar>
-20.9440

> <Gold.PLP.part.repulsive>
0.1796

> <Gold.PLP.ligand.clash>
0.0000

> <Gold.PLP.ligand.torsion>
0.2352

> <Gold.PLP.Chemscore.Hbond>
3.6787

> <Gold.PLP.Chemscore.CHOScore>
0.0000

> <Gold.PLP.Chemscore.Metal>
0.0000

> <Gold.Chemscore.Hbonds>
donor molecule, donor type, donor heavy atom, donor atom, acceptor molecule, acceptor atom, score
      L1  H     3    18       P1  7948  0.60
      L1  H     9    21       P1  7948  1.00
      L1  H    14    28       P1 10186  0.83
      P1  H 10785 10796       L1    14  1.00

> <Gold.PLP.Chemscore.Internal.Correction>
0.0032

> <Gold.Rescore>
     Score         DG    S(hbond)    S(metal)    S(lipo)     H(rot)  DE(clash)    DE(int)     intcor
     18.29     -18.62       3.08        0.00      57.44       1.51       0.07       0.27       ----

> <Gold.Chemscore.Fitness>
18.2852

> <Gold.Chemscore.DG>
-18.6155

> <Gold.Chemscore.ZeroCoef>
-5.4800

> <Gold.Chemscore.Hbond>
3.0808

> <Gold.Chemscore.Metal>
0.0000

> <Gold.Chemscore.Lipo>
57.4371

> <Gold.Chemscore.Internal_Hbond>
0.0000

> <Gold.Chemscore.DEClash>
0.0650

> <Gold.Chemscore.DEInternal>
0.2653

> <Gold.Chemscore.Rot>
1.5135

> <Gold.Chemscore.Internal.Correction>
   9.000000E+99

> <Gold.Chemscore.Hbonds>
donor molecule, donor type, donor heavy atom, donor atom, acceptor molecule, acceptor atom, score
      L1  H     3    18       P1  7948  0.04
      L1  H     9    21       P1  7948  0.73
      L1  H    14    28       P1 10186  0.82
      P1  H 10785 10796       L1    14  0.56

> <Gold.Chemscore.Hbond.Weighted>
-10.2899

> <Gold.Chemscore.Metal.Weighted>
-0.0000

> <Gold.Chemscore.Lipo.Weighted>
-6.7201

> <Gold.Chemscore.Internal_Hbond.Weighted>
0.0000

> <Gold.Chemscore.DEClash.Weighted>
0.0650

> <Gold.Chemscore.DEInternal.Weighted>
0.2653

> <Gold.Chemscore.Rot.Weighted>
3.8745

> <Gold.Chemscore.Internal.Correction.Weighted>
   9.000000E+99

> <Gold.Protein.RotatedTorsions>
[ 6907 6896 6895 6894 ] final  117.17 input  -60.11 | X-H torsion
[ 7974 7965 7964 7962 ] final -116.34 input  175.53 | X-H torsion
[ 8008 7997 7996 7995 ] final  -25.96 input   59.86 | X-H torsion
[ 10167 10162 10161 10158 ] final  109.47 input  -65.29 | X-H torsion
[ 10718 10713 10712 10709 ] final -125.18 input   66.30 | X-H torsion
[ 10763 10752 10751 10750 ] final  149.73 input  -60.55 | X-H torsion
[ 11005 11000 10999 10996 ] final -138.20 input  -57.11 | X-H torsion

> <Gold.Protein.ActiveResidues>
 VAL166  LYS551  ARG553  GLY616  TRP617  ASP618  TYR619  PRO620  LYS621  CYS622 
 ASP623  PHE694  ASN695  SER759  ASP760  ASP761  ALA762  ILE779  LEU786  VAL792 
 PHE793  MET794  SER795  GLU796  ALA797  LYS798  CYS799  TRP800  GLU811  SER814 

> <Gold.Protein.RotatedAtoms>
  152.4630  133.7862  159.6877 H   0  0  0  0  0  0  0  0  0  0  0  0  # atno 6907 bound_to 6896
  150.8582  133.7674  159.3008 H   0  0  0  0  0  0  0  0  0  0  0  0  # atno 6908 bound_to 6896
  151.5247  135.1070  159.9939 H   0  0  0  0  0  0  0  0  0  0  0  0  # atno 6909 bound_to 6896
  145.0979  140.8532  143.3944 H   0  0  0  0  0  0  0  0  0  0  0  0  # atno 7974 bound_to 7965
  154.4449  140.1912  156.0701 H   0  0  0  0  0  0  0  0  0  0  0  0  # atno 8008 bound_to 7997
  156.0517  140.3307  155.7332 H   0  0  0  0  0  0  0  0  0  0  0  0  # atno 8009 bound_to 7997
  155.5546  140.0598  157.2833 H   0  0  0  0  0  0  0  0  0  0  0  0  # atno 8010 bound_to 7997
  139.6764  144.7122  151.1594 H   0  0  0  0  0  0  0  0  0  0  0  0  # atno 10167 bound_to 10162
  156.1653  130.6630  151.0106 H   0  0  0  0  0  0  0  0  0  0  0  0  # atno 10718 bound_to 10713
  154.0760  135.2863  155.3299 H   0  0  0  0  0  0  0  0  0  0  0  0  # atno 10763 bound_to 10752
  154.6715  135.5297  153.8148 H   0  0  0  0  0  0  0  0  0  0  0  0  # atno 10764 bound_to 10752
  153.0467  135.6559  154.0938 H   0  0  0  0  0  0  0  0  0  0  0  0  # atno 10765 bound_to 10752
  140.8638  134.2135  157.4692 H   0  0  0  0  0  0  0  0  0  0  0  0  # atno 11005 bound_to 11000
  145.0990  139.2836  143.5696 LP  0  0  0  0  0  0  0  0  0  0  0  0  # atno 17320 bound_to 7965
  146.3530  140.0551  142.8633 LP  0  0  0  0  0  0  0  0  0  0  0  0  # atno 17321 bound_to 7965
  140.7637  143.5765  150.8940 LP  0  0  0  0  0  0  0  0  0  0  0  0  # atno 17342 bound_to 10162
  139.9434  143.6356  152.3048 LP  0  0  0  0  0  0  0  0  0  0  0  0  # atno 17343 bound_to 10162
  157.6763  131.0849  150.7486 LP  0  0  0  0  0  0  0  0  0  0  0  0  # atno 17370 bound_to 10713
  156.7547  130.4779  149.5449 LP  0  0  0  0  0  0  0  0  0  0  0  0  # atno 17371 bound_to 10713
  139.8708  134.9742  156.4838 LP  0  0  0  0  0  0  0  0  0  0  0  0  # atno 17394 bound_to 11000
  140.8652  133.8030  155.9306 LP  0  0  0  0  0  0  0  0  0  0  0  0  # atno 17395 bound_to 11000

$$$$
