AV-unprocessed.smi:1173|AV-procd|sdf|4945|dock7
  -GOLD-   22720 3533D 1   1.00000     0.00000
 Structure written by MMmdl.
 37 38  0  0  0  0  0  0  0  0  1 V2000
  147.7672  141.5471  156.7819 C   0  0  0  0  0  0  0  0  0  0  0  0
  148.0235  141.4066  155.3434 N   0  0  0  0  0  0  0  0  0  0  0  0
  146.8550  141.5145  154.4541 C   0  0  0  0  0  0  0  0  0  0  0  0
  146.0516  142.8049  154.6691 C   0  0  0  0  0  0  0  0  0  0  0  0
  145.7620  143.5171  153.5775 N   0  0  0  0  0  0  0  0  0  0  0  0
  145.7113  143.1675  155.7942 O   0  0  0  0  0  0  0  0  0  0  0  0
  149.2668  141.2083  154.8363 C   0  0  0  0  0  0  0  0  0  0  0  0
  149.5084  141.1648  153.6293 O   0  0  0  0  0  0  0  0  0  0  0  0
  150.3979  141.0308  155.8064 C   0  0  0  0  0  0  0  0  0  0  0  0
  150.5410  141.9791  156.7594 N   0  0  0  0  0  0  0  0  0  0  0  0
  151.5462  141.8529  157.6353 C   0  0  0  0  0  0  0  0  0  0  0  0
  151.6770  142.8432  158.6182 N   0  0  0  0  0  0  0  0  0  0  0  0
  151.1857  144.2075  158.4063 C   0  0  0  0  0  0  0  0  0  0  0  0
  150.7788  144.8583  159.7390 C   0  0  0  0  0  0  0  0  0  0  0  0
  151.8683  144.8105  160.6514 O   0  0  0  0  0  0  0  0  0  0  0  0
  152.2440  143.4708  160.9445 C   0  0  0  0  0  0  0  0  0  0  0  0
  152.7062  142.7649  159.6584 C   0  0  0  0  0  0  0  0  0  0  0  0
  152.4345  140.8503  157.6400 N   0  0  0  0  0  0  0  0  0  0  0  0
  152.3170  139.8993  156.6893 C   0  0  0  0  0  0  0  0  0  0  0  0
  151.2965  139.9406  155.7207 C   0  0  0  0  0  0  0  0  0  0  0  0
  151.1915  138.7209  154.4986 Cl  0  0  0  0  0  0  0  0  0  0  0  0
  147.9605  140.6099  157.3037 H   0  0  0  0  0  0  0  0  0  0  0  0
  146.7332  141.8188  156.9949 H   0  0  0  0  0  0  0  0  0  0  0  0
  148.3983  142.3224  157.2186 H   0  0  0  0  0  0  0  0  0  0  0  0
  147.1622  141.4755  153.4087 H   0  0  0  0  0  0  0  0  0  0  0  0
  146.1974  140.6533  154.5873 H   0  0  0  0  0  0  0  0  0  0  0  0
  145.2385  144.3766  153.6587 H   0  0  0  0  0  0  0  0  0  0  0  0
  146.0714  143.1940  152.6721 H   0  0  0  0  0  0  0  0  0  0  0  0
  151.9742  144.7913  157.9302 H   0  0  0  0  0  0  0  0  0  0  0  0
  150.3250  144.2348  157.7386 H   0  0  0  0  0  0  0  0  0  0  0  0
  150.4993  145.8994  159.5767 H   0  0  0  0  0  0  0  0  0  0  0  0
  149.9079  144.3584  160.1663 H   0  0  0  0  0  0  0  0  0  0  0  0
  153.0521  143.4820  161.6760 H   0  0  0  0  0  0  0  0  0  0  0  0
  151.4091  142.9374  161.4022 H   0  0  0  0  0  0  0  0  0  0  0  0
  152.9567  141.7344  159.9090 H   0  0  0  0  0  0  0  0  0  0  0  0
  153.6176  143.2308  159.2821 H   0  0  0  0  0  0  0  0  0  0  0  0
  153.0472  139.1037  156.6995 H   0  0  0  0  0  0  0  0  0  0  0  0
  1  2  1  0  0  0  0
  1 22  1  0  0  0  0
  1 23  1  0  0  0  0
  1 24  1  0  0  0  0
  2  3  1  0  0  0  0
  2  7  1  0  0  0  0
  3  4  1  0  0  0  0
  3 25  1  0  0  0  0
  3 26  1  0  0  0  0
  4  5  1  0  0  0  0
  4  6  2  0  0  0  0
  5 27  1  0  0  0  0
  5 28  1  0  0  0  0
  7  8  2  0  0  0  0
  7  9  1  0  0  0  0
  9 20  1  0  0  0  0
  9 10  2  0  0  0  0
 10 11  1  0  0  0  0
 11 12  1  0  0  0  0
 11 18  2  0  0  0  0
 12 17  1  0  0  0  0
 12 13  1  0  0  0  0
 13 14  1  0  0  0  0
 13 29  1  0  0  0  0
 13 30  1  0  0  0  0
 14 15  1  0  0  0  0
 14 31  1  0  0  0  0
 14 32  1  0  0  0  0
 15 16  1  0  0  0  0
 16 17  1  0  0  0  0
 16 33  1  0  0  0  0
 16 34  1  0  0  0  0
 17 35  1  0  0  0  0
 17 36  1  0  0  0  0
 18 19  1  0  0  0  0
 19 20  2  0  0  0  0
 19 37  1  0  0  0  0
 20 21  1  0  0  0  0
M  END
> <s_m_source_file>
AV-unprocessed.smi

> <i_m_source_file_index>
1173

> <i_lp_mmshare_version>
43012

> <i_f3d_flags>
0

> <s_epik_input>
W05IMl1DKD1PKVtDSDJdTihbQ0gzXSlDKD1PKWMxbmMobltjSF1jMUNsKU4yW0NIMl1bQ0gyXU9bQ0gyXVtDSDJdMg==

> <s_epik_cmdline>
J2VwaWtfcHl0aG9uJywgJy1waCcsICc3LjAnLCAnLXRuJywgJzgnLCAnLW1hJywgJzIwMCcsICctbWV0YWxfYmluZGluZycsICctaW1hZScsICc8aW5maWxlLm1hZT4nLCAnLW9tYWUnLCAnPG91dGZpbGUubWFlPic=

> <r_lp_tautomer_probability>
1

> <r_epik_Ionization_Penalty>
9.52456e-08

> <r_epik_Ionization_Penalty_Charging>
0

> <r_epik_Ionization_Penalty_Neutral>
9.52456e-08

> <r_epik_State_Penalty>
-0

> <r_epik_Charging_Adjusted_Penalty>
0

> <i_epik_Tot_Q>
0

> <i_epik_Tot_abs_Q>
0

> <r_epik_Metal_State_Penalty>
-0

> <b_epik_Metal_Only>
0

> <s_lp_Force_Field>
OPLS_2005

> <r_lp_Energy>
19.8888

> <b_lp_Chiralities_Consistent>
1

> <s_lp_Variant>
AV-unprocessed.smi:1173-1

> <Gold.Version>
5.8.1

> <Gold.Id.Protein>
6NUR|6NUR_protein|mol2

> <Gold.PLP.Fitness>
43.9242

> <Gold.PLP.PLP>
-41.0110

> <Gold.PLP.part.hbond>
-2.5548

> <Gold.PLP.part.metal>
0.0000

> <Gold.PLP.part.buried>
-5.1152

> <Gold.PLP.part.nonpolar>
-36.1203

> <Gold.PLP.part.repulsive>
3.3502

> <Gold.PLP.ligand.clash>
0.0000

> <Gold.PLP.ligand.torsion>
1.2152

> <Gold.PLP.Chemscore.Hbond>
1.1926

> <Gold.PLP.Chemscore.CHOScore>
0.0000

> <Gold.PLP.Chemscore.Metal>
0.0000

> <Gold.Chemscore.Hbonds>
donor molecule, donor type, donor heavy atom, donor atom, acceptor molecule, acceptor atom, score
      P1  H  7989  7998       L1     8  0.19
      P1  H  8011  8017       L1     8  0.96

> <Gold.PLP.Chemscore.Internal.Correction>
1.7659

> <Gold.Rescore>
     Score         DG    S(hbond)    S(metal)    S(lipo)     H(rot)  DE(clash)    DE(int)     intcor
      9.61     -13.52       0.89        0.00      76.90       1.54       0.09       3.82       ----

> <Gold.Chemscore.Fitness>
9.6138

> <Gold.Chemscore.DG>
-13.5205

> <Gold.Chemscore.ZeroCoef>
-5.4800

> <Gold.Chemscore.Hbond>
0.8923

> <Gold.Chemscore.Metal>
0.0000

> <Gold.Chemscore.Lipo>
76.8966

> <Gold.Chemscore.Internal_Hbond>
0.0000

> <Gold.Chemscore.DEClash>
0.0853

> <Gold.Chemscore.DEInternal>
3.8214

> <Gold.Chemscore.Rot>
1.5377

> <Gold.Chemscore.Internal.Correction>
   9.000000E+99

> <Gold.Chemscore.Hbonds>
donor molecule, donor type, donor heavy atom, donor atom, acceptor molecule, acceptor atom, score
      P1  H  7989  7998       L1     8  0.11
      P1  H  8011  8017       L1     8  0.92

> <Gold.Chemscore.Hbond.Weighted>
-2.9801

> <Gold.Chemscore.Metal.Weighted>
-0.0000

> <Gold.Chemscore.Lipo.Weighted>
-8.9969

> <Gold.Chemscore.Internal_Hbond.Weighted>
0.0000

> <Gold.Chemscore.DEClash.Weighted>
0.0853

> <Gold.Chemscore.DEInternal.Weighted>
3.8214

> <Gold.Chemscore.Rot.Weighted>
3.9366

> <Gold.Chemscore.Internal.Correction.Weighted>
   9.000000E+99

> <Gold.Protein.RotatedTorsions>
[ 6907 6896 6895 6894 ] final   31.30 input  -60.11 | X-H torsion
[ 7974 7965 7964 7962 ] final    8.76 input  175.53 | X-H torsion
[ 8008 7997 7996 7995 ] final   37.27 input   59.86 | X-H torsion
[ 10167 10162 10161 10158 ] final  -96.53 input  -65.29 | X-H torsion
[ 10718 10713 10712 10709 ] final  -53.18 input   66.30 | X-H torsion
[ 10763 10752 10751 10750 ] final  128.69 input  -60.55 | X-H torsion
[ 11005 11000 10999 10996 ] final   92.09 input  -57.11 | X-H torsion

> <Gold.Protein.ActiveResidues>
 VAL166  LYS551  ARG553  GLY616  TRP617  ASP618  TYR619  PRO620  LYS621  CYS622 
 ASP623  PHE694  ASN695  SER759  ASP760  ASP761  ALA762  ILE779  LEU786  VAL792 
 PHE793  MET794  SER795  GLU796  ALA797  LYS798  CYS799  TRP800  GLU811  SER814 

> <Gold.Protein.RotatedAtoms>
  152.0583  134.9610  160.0574 H   0  0  0  0  0  0  0  0  0  0  0  0  # atno 6907 bound_to 6896
  152.0984  133.4232  159.4584 H   0  0  0  0  0  0  0  0  0  0  0  0  # atno 6908 bound_to 6896
  150.6838  134.2709  159.4631 H   0  0  0  0  0  0  0  0  0  0  0  0  # atno 6909 bound_to 6896
  146.2412  139.9884  142.8428 H   0  0  0  0  0  0  0  0  0  0  0  0  # atno 7974 bound_to 7965
  155.2010  140.3316  155.4343 H   0  0  0  0  0  0  0  0  0  0  0  0  # atno 8008 bound_to 7997
  156.2407  140.1893  156.7047 H   0  0  0  0  0  0  0  0  0  0  0  0  # atno 8009 bound_to 7997
  154.6141  140.0604  156.9518 H   0  0  0  0  0  0  0  0  0  0  0  0  # atno 8010 bound_to 7997
  140.2928  143.3211  152.0328 H   0  0  0  0  0  0  0  0  0  0  0  0  # atno 10167 bound_to 10162
  156.1557  130.4150  149.9873 H   0  0  0  0  0  0  0  0  0  0  0  0  # atno 10718 bound_to 10713
  153.7296  135.3240  155.3283 H   0  0  0  0  0  0  0  0  0  0  0  0  # atno 10763 bound_to 10752
  154.8330  135.4519  154.1135 H   0  0  0  0  0  0  0  0  0  0  0  0  # atno 10764 bound_to 10752
  153.2278  135.6956  153.8005 H   0  0  0  0  0  0  0  0  0  0  0  0  # atno 10765 bound_to 10752
  139.8828  134.8712  156.3522 H   0  0  0  0  0  0  0  0  0  0  0  0  # atno 11005 bound_to 11000
  145.1526  140.9631  143.4424 LP  0  0  0  0  0  0  0  0  0  0  0  0  # atno 17320 bound_to 7965
  145.0191  139.3440  143.6081 LP  0  0  0  0  0  0  0  0  0  0  0  0  # atno 17321 bound_to 7965
  139.4934  144.6512  151.6670 LP  0  0  0  0  0  0  0  0  0  0  0  0  # atno 17342 bound_to 10162
  140.5718  144.0097  150.6220 LP  0  0  0  0  0  0  0  0  0  0  0  0  # atno 17343 bound_to 10162
  156.7718  130.9189  151.3644 LP  0  0  0  0  0  0  0  0  0  0  0  0  # atno 17370 bound_to 10713
  157.6693  130.9036  150.0003 LP  0  0  0  0  0  0  0  0  0  0  0  0  # atno 17371 bound_to 10713
  140.9586  133.7403  156.0370 LP  0  0  0  0  0  0  0  0  0  0  0  0  # atno 17394 bound_to 11000
  140.8017  134.3501  157.5437 LP  0  0  0  0  0  0  0  0  0  0  0  0  # atno 17395 bound_to 11000

$$$$
