AV-unprocessed.smi:1876|AV-procd|sdf|7621|dock5
  -GOLD-   22720 9353D 1   1.00000     0.00000
 Structure written by MMmdl.
 31 32  0  0  0  0  0  0  0  0  1 V2000
  146.9100  142.3118  154.0936 C   0  0  0  0  0  0  0  0  0  0  0  0
  146.6688  140.8475  153.9590 C   0  0  0  0  0  0  0  0  0  0  0  0
  147.1131  139.9089  153.0704 C   0  0  0  0  0  0  0  0  0  0  0  0
  146.4963  138.7152  153.5310 C   0  0  0  0  0  0  0  0  0  0  0  0
  146.7096  137.4811  152.8650 N   0  0  0  0  0  0  0  0  0  0  0  0
  145.8183  136.4959  152.6623 C   0  0  0  0  0  0  0  0  0  0  0  0
  144.6423  136.5173  153.0271 O   0  0  0  0  0  0  0  0  0  0  0  0
  146.3715  135.4657  152.0059 N   0  0  0  0  0  0  0  0  0  0  0  0
  145.6954  134.2141  151.6699 C   0  0  1  0  0  0  0  0  0  0  0  0
  144.7188  134.4107  150.4951 C   0  0  0  0  0  0  0  0  0  0  0  0
  144.1586  133.0601  150.0401 C   0  0  0  0  0  0  0  0  0  0  0  0
  145.2988  132.1129  149.6323 C   0  0  0  0  0  0  0  0  0  0  0  0
  146.4146  132.1067  150.5800 N   0  0  0  0  0  0  0  0  0  0  0  0
  146.6995  133.0627  151.4819 C   0  0  0  0  0  0  0  0  0  0  0  0
  147.7157  133.0082  152.1730 O   0  0  0  0  0  0  0  0  0  0  0  0
  145.7425  138.9082  154.6026 N   0  0  0  0  0  0  0  0  0  0  0  0
  145.8498  140.2755  154.8827 O   0  0  0  0  0  0  0  0  0  0  0  0
  147.4345  142.7025  153.2217 H   0  0  0  0  0  0  0  0  0  0  0  0
  147.5150  142.5235  154.9753 H   0  0  0  0  0  0  0  0  0  0  0  0
  145.9682  142.8520  154.1914 H   0  0  0  0  0  0  0  0  0  0  0  0
  147.7745  140.0557  152.2294 H   0  0  0  0  0  0  0  0  0  0  0  0
  147.6436  137.3284  152.5143 H   0  0  0  0  0  0  0  0  0  0  0  0
  147.3449  135.5335  151.7467 H   0  0  0  0  0  0  0  0  0  0  0  0
  145.1038  133.9125  152.5364 H   0  0  0  0  0  0  0  0  0  0  0  0
  143.9017  135.0715  150.7866 H   0  0  0  0  0  0  0  0  0  0  0  0
  145.2286  134.8936  149.6600 H   0  0  0  0  0  0  0  0  0  0  0  0
  143.5846  132.6139  150.8532 H   0  0  0  0  0  0  0  0  0  0  0  0
  143.4663  133.1950  149.2087 H   0  0  0  0  0  0  0  0  0  0  0  0
  144.9208  131.0967  149.5171 H   0  0  0  0  0  0  0  0  0  0  0  0
  145.6921  132.4121  148.6602 H   0  0  0  0  0  0  0  0  0  0  0  0
  147.0655  131.3388  150.4995 H   0  0  0  0  0  0  0  0  0  0  0  0
  1  2  1  0  0  0  0
  1 18  1  0  0  0  0
  1 19  1  0  0  0  0
  1 20  1  0  0  0  0
  2 17  1  0  0  0  0
  2  3  2  0  0  0  0
  3  4  1  0  0  0  0
  3 21  1  0  0  0  0
  4  5  1  0  0  0  0
  4 16  2  0  0  0  0
  5  6  1  0  0  0  0
  5 22  1  0  0  0  0
  6  7  2  0  0  0  0
  6  8  1  0  0  0  0
  8  9  1  0  0  0  0
  8 23  1  0  0  0  0
  9 14  1  0  0  0  0
  9 10  1  0  0  0  0
  9 24  1  0  0  0  0
 10 11  1  0  0  0  0
 10 25  1  0  0  0  0
 10 26  1  0  0  0  0
 11 12  1  0  0  0  0
 11 27  1  0  0  0  0
 11 28  1  0  0  0  0
 12 13  1  0  0  0  0
 12 29  1  0  0  0  0
 12 30  1  0  0  0  0
 13 14  1  0  0  0  0
 13 31  1  0  0  0  0
 14 15  2  0  0  0  0
 16 17  1  0  0  0  0
M  END
> <s_m_source_file>
AV-unprocessed.smi

> <i_m_source_file_index>
1876

> <i_lp_mmshare_version>
43012

> <i_f3d_flags>
0

> <s_epik_input>
W0NIM11jMVtjSF1jKG5vMSlbTkhdQyg9TylbTkhdW0NAQEhdMltDSDJdW0NIMl1bQ0gyXVtOSF1DMj1P

> <s_epik_cmdline>
J2VwaWtfcHl0aG9uJywgJy1waCcsICc3LjAnLCAnLXRuJywgJzgnLCAnLW1hJywgJzIwMCcsICctbWV0YWxfYmluZGluZycsICctaW1hZScsICc8aW5maWxlLm1hZT4nLCAnLW9tYWUnLCAnPG91dGZpbGUubWFlPic=

> <r_lp_tautomer_probability>
1

> <r_epik_Ionization_Penalty>
2.33177e-05

> <r_epik_Ionization_Penalty_Charging>
0

> <r_epik_Ionization_Penalty_Neutral>
2.33177e-05

> <r_epik_State_Penalty>
-0

> <r_epik_Charging_Adjusted_Penalty>
0

> <i_epik_Tot_Q>
0

> <i_epik_Tot_abs_Q>
0

> <r_epik_Metal_State_Penalty>
-0

> <b_epik_Metal_Only>
0

> <s_lp_Force_Field>
OPLS_2005

> <r_lp_Energy>
6.99083

> <b_lp_Chiralities_Consistent>
1

> <s_lp_Variant>
AV-unprocessed.smi:1876-2

> <Gold.Version>
5.8.1

> <Gold.Id.Protein>
6NUR|6NUR_protein|mol2

> <Gold.PLP.Fitness>
35.1908

> <Gold.PLP.PLP>
-27.4929

> <Gold.PLP.part.hbond>
-3.0000

> <Gold.PLP.part.metal>
0.0000

> <Gold.PLP.part.buried>
-4.8970

> <Gold.PLP.part.nonpolar>
-20.9427

> <Gold.PLP.part.repulsive>
0.7803

> <Gold.PLP.ligand.clash>
0.0000

> <Gold.PLP.ligand.torsion>
0.5401

> <Gold.PLP.Chemscore.Hbond>
2.9120

> <Gold.PLP.Chemscore.CHOScore>
0.0000

> <Gold.PLP.Chemscore.Metal>
0.0000

> <Gold.Chemscore.Hbonds>
donor molecule, donor type, donor heavy atom, donor atom, acceptor molecule, acceptor atom, score
      L1  H     5    22       P1  7948  1.00
      L1  H     8    23       P1  7948  1.00
      L1  H    13    31       P1 10747  0.90

> <Gold.PLP.Chemscore.Internal.Correction>
0.0421

> <Gold.Rescore>
     Score         DG    S(hbond)    S(metal)    S(lipo)     H(rot)  DE(clash)    DE(int)     intcor
     17.92     -18.64       2.88        0.00      52.18       1.00       0.16       0.55       ----

> <Gold.Chemscore.Fitness>
17.9228

> <Gold.Chemscore.DG>
-18.6369

> <Gold.Chemscore.ZeroCoef>
-5.4800

> <Gold.Chemscore.Hbond>
2.8778

> <Gold.Chemscore.Metal>
0.0000

> <Gold.Chemscore.Lipo>
52.1800

> <Gold.Chemscore.Internal_Hbond>
0.0000

> <Gold.Chemscore.DEClash>
0.1635

> <Gold.Chemscore.DEInternal>
0.5507

> <Gold.Chemscore.Rot>
1.0000

> <Gold.Chemscore.Internal.Correction>
   9.000000E+99

> <Gold.Chemscore.Hbonds>
donor molecule, donor type, donor heavy atom, donor atom, acceptor molecule, acceptor atom, score
      L1  H     5    22       P1  7948  0.96
      L1  H     8    23       P1  7948  0.98
      L1  H    13    31       P1 10747  0.86

> <Gold.Chemscore.Hbond.Weighted>
-9.6119

> <Gold.Chemscore.Metal.Weighted>
-0.0000

> <Gold.Chemscore.Lipo.Weighted>
-6.1051

> <Gold.Chemscore.Internal_Hbond.Weighted>
0.0000

> <Gold.Chemscore.DEClash.Weighted>
0.1635

> <Gold.Chemscore.DEInternal.Weighted>
0.5507

> <Gold.Chemscore.Rot.Weighted>
2.5600

> <Gold.Chemscore.Internal.Correction.Weighted>
   9.000000E+99

> <Gold.Protein.RotatedTorsions>
[ 6907 6896 6895 6894 ] final -169.71 input  -60.11 | X-H torsion
[ 7974 7965 7964 7962 ] final -127.30 input  175.53 | X-H torsion
[ 8008 7997 7996 7995 ] final   98.97 input   59.86 | X-H torsion
[ 10167 10162 10161 10158 ] final  112.86 input  -65.29 | X-H torsion
[ 10718 10713 10712 10709 ] final -148.01 input   66.30 | X-H torsion
[ 10763 10752 10751 10750 ] final  -42.24 input  -60.55 | X-H torsion
[ 11005 11000 10999 10996 ] final  168.06 input  -57.11 | X-H torsion

> <Gold.Protein.ActiveResidues>
 VAL166  LYS551  ARG553  GLY616  TRP617  ASP618  TYR619  PRO620  LYS621  CYS622 
 ASP623  PHE694  ASN695  SER759  ASP760  ASP761  ALA762  ILE779  LEU786  VAL792 
 PHE793  MET794  SER795  GLU796  ALA797  LYS798  CYS799  TRP800  GLU811  SER814 

> <Gold.Protein.RotatedAtoms>
  151.4959  133.3514  159.2860 H   0  0  0  0  0  0  0  0  0  0  0  0  # atno 6907 bound_to 6896
  150.8804  134.8196  159.7232 H   0  0  0  0  0  0  0  0  0  0  0  0  # atno 6908 bound_to 6896
  152.4759  134.4856  159.9731 H   0  0  0  0  0  0  0  0  0  0  0  0  # atno 6909 bound_to 6896
  144.9785  140.7617  143.4627 H   0  0  0  0  0  0  0  0  0  0  0  0  # atno 7974 bound_to 7965
  156.1058  140.3236  155.8004 H   0  0  0  0  0  0  0  0  0  0  0  0  # atno 8008 bound_to 7997
  155.4759  140.0550  157.2991 H   0  0  0  0  0  0  0  0  0  0  0  0  # atno 8009 bound_to 7997
  154.4726  140.2018  155.9971 H   0  0  0  0  0  0  0  0  0  0  0  0  # atno 8010 bound_to 7997
  139.6504  144.7128  151.2059 H   0  0  0  0  0  0  0  0  0  0  0  0  # atno 10167 bound_to 10162
  156.4148  130.7999  151.2219 H   0  0  0  0  0  0  0  0  0  0  0  0  # atno 10718 bound_to 10713
  153.9758  135.6723  153.4748 H   0  0  0  0  0  0  0  0  0  0  0  0  # atno 10763 bound_to 10752
  153.0771  135.4943  154.8424 H   0  0  0  0  0  0  0  0  0  0  0  0  # atno 10764 bound_to 10752
  154.7193  135.3113  154.9034 H   0  0  0  0  0  0  0  0  0  0  0  0  # atno 10765 bound_to 10752
  140.2833  134.7733  157.3776 H   0  0  0  0  0  0  0  0  0  0  0  0  # atno 11005 bound_to 11000
  145.2455  139.2054  143.4970 LP  0  0  0  0  0  0  0  0  0  0  0  0  # atno 17320 bound_to 7965
  146.3402  140.2359  142.8594 LP  0  0  0  0  0  0  0  0  0  0  0  0  # atno 17321 bound_to 7965
  140.7535  143.6160  150.8559 LP  0  0  0  0  0  0  0  0  0  0  0  0  # atno 17342 bound_to 10162
  139.9807  143.5954  152.2943 LP  0  0  0  0  0  0  0  0  0  0  0  0  # atno 17343 bound_to 10162
  157.7507  131.0246  150.3885 LP  0  0  0  0  0  0  0  0  0  0  0  0  # atno 17370 bound_to 10713
  156.4190  130.3949  149.6838 LP  0  0  0  0  0  0  0  0  0  0  0  0  # atno 17371 bound_to 10713
  140.1263  134.5153  155.8142 LP  0  0  0  0  0  0  0  0  0  0  0  0  # atno 17394 bound_to 11000
  141.2159  133.6774  156.6958 LP  0  0  0  0  0  0  0  0  0  0  0  0  # atno 17395 bound_to 11000

$$$$
