AV-unprocessed.smi:109|AV-procd|sdf|1046|dock6
  -GOLD-   2262018 83D 1   1.00000     0.00000
 Structure written by MMmdl.
 58 61  0  0  0  0  0  0  0  0  1 V2000
  151.0582  131.5055  158.4058 O   0  0  0  0  0  0  0  0  0  0  0  0
  151.4627  131.0780  157.1234 C   0  0  0  0  0  0  0  0  0  0  0  0
  150.9603  129.6485  156.8650 C   0  0  0  0  0  0  0  0  0  0  0  0
  150.9628  129.2742  155.3662 C   0  0  1  0  0  0  0  0  0  0  0  0
  150.3352  130.3432  154.5901 N   0  0  0  0  0  0  0  0  0  0  0  0
  149.2584  130.1150  153.8064 C   0  0  0  0  0  0  0  0  0  0  0  0
  149.0146  128.8879  153.2769 N   0  0  0  0  0  0  0  0  0  0  0  0
  147.9339  128.6908  152.5165 C   0  0  0  0  0  0  0  0  0  0  0  0
  146.9867  129.5653  152.1718 N   0  0  0  0  0  0  0  0  0  0  0  0
  147.2277  130.8014  152.6986 C   0  0  0  0  0  0  0  0  0  0  0  0
  148.3352  131.1530  153.5194 C   0  0  0  0  0  0  0  0  0  0  0  0
  148.2533  132.4930  153.8740 N   0  0  0  0  0  0  0  0  0  0  0  0
  147.1560  132.9052  153.2984 C   0  0  0  0  0  0  0  0  0  0  0  0
  146.4727  131.9518  152.5769 N   0  0  0  0  0  0  0  0  0  0  0  0
  145.1844  132.1271  151.8344 C   0  0  1  0  0  0  0  0  0  0  0  0
  144.6852  133.4067  152.0643 O   0  0  0  0  0  0  0  0  0  0  0  0
  144.0622  133.9253  150.8894 C   0  0  1  0  0  0  0  0  0  0  0  0
  144.7512  135.2560  150.5433 C   0  0  0  0  0  0  0  0  0  0  0  0
  144.3387  135.7072  149.2704 O   0  0  0  0  0  0  0  0  0  0  0  0
  144.2243  132.8496  149.7988 C   0  0  2  0  0  0  0  0  0  0  0  0
  143.0220  132.1119  149.6884 O   0  0  0  0  0  0  0  0  0  0  0  0
  145.3401  131.9586  150.3180 C   0  0  1  0  0  0  0  0  0  0  0  0
  146.5999  132.3793  149.8257 O   0  0  0  0  0  0  0  0  0  0  0  0
  152.3674  128.9338  154.7966 C   0  0  0  0  0  0  0  0  0  0  0  0
  152.9229  127.5963  155.3322 C   0  0  0  0  0  0  0  0  0  0  0  0
  154.2633  127.2398  154.6688 C   0  0  0  0  0  0  0  0  0  0  0  0
  155.2918  128.3661  154.8555 C   0  0  0  0  0  0  0  0  0  0  0  0
  154.7499  129.7039  154.3287 C   0  0  0  0  0  0  0  0  0  0  0  0
  153.4077  130.0608  154.9884 C   0  0  0  0  0  0  0  0  0  0  0  0
  144.5023  131.3950  152.2689 H   0  0  0  0  0  0  0  0  0  0  0  0
  143.0104  134.1143  151.1110 H   0  0  0  0  0  0  0  0  0  0  0  0
  144.4484  133.2691  148.8170 H   0  0  0  0  0  0  0  0  0  0  0  0
  145.2068  130.9100  150.0486 H   0  0  0  0  0  0  0  0  0  0  0  0
  150.1187  131.6086  158.4047 H   0  0  0  0  0  0  0  0  0  0  0  0
  151.0633  131.7665  156.3783 H   0  0  0  0  0  0  0  0  0  0  0  0
  152.5503  131.1280  157.0643 H   0  0  0  0  0  0  0  0  0  0  0  0
  151.5691  128.9409  157.4293 H   0  0  0  0  0  0  0  0  0  0  0  0
  149.9510  129.5701  157.2670 H   0  0  0  0  0  0  0  0  0  0  0  0
  150.3483  128.3781  155.2749 H   0  0  0  0  0  0  0  0  0  0  0  0
  150.7844  131.2458  154.6496 H   0  0  0  0  0  0  0  0  0  0  0  0
  147.8084  127.6894  152.1319 H   0  0  0  0  0  0  0  0  0  0  0  0
  146.8067  133.9232  153.3920 H   0  0  0  0  0  0  0  0  0  0  0  0
  144.4841  136.0181  151.2760 H   0  0  0  0  0  0  0  0  0  0  0  0
  145.8366  135.1566  150.5644 H   0  0  0  0  0  0  0  0  0  0  0  0
  144.0939  136.6174  149.3399 H   0  0  0  0  0  0  0  0  0  0  0  0
  142.3373  132.6987  149.4050 H   0  0  0  0  0  0  0  0  0  0  0  0
  147.2717  131.8675  150.2499 H   0  0  0  0  0  0  0  0  0  0  0  0
  152.2472  128.7951  153.7210 H   0  0  0  0  0  0  0  0  0  0  0  0
  153.0685  127.6458  156.4111 H   0  0  0  0  0  0  0  0  0  0  0  0
  152.2044  126.7956  155.1539 H   0  0  0  0  0  0  0  0  0  0  0  0
  154.6497  126.3105  155.0883 H   0  0  0  0  0  0  0  0  0  0  0  0
  154.1088  127.0577  153.6046 H   0  0  0  0  0  0  0  0  0  0  0  0
  155.5390  128.4629  155.9135 H   0  0  0  0  0  0  0  0  0  0  0  0
  156.2198  128.1118  154.3428 H   0  0  0  0  0  0  0  0  0  0  0  0
  155.4759  130.4967  154.5112 H   0  0  0  0  0  0  0  0  0  0  0  0
  154.6210  129.6457  153.2471 H   0  0  0  0  0  0  0  0  0  0  0  0
  153.0370  130.9950  154.5658 H   0  0  0  0  0  0  0  0  0  0  0  0
  153.5729  130.2449  156.0502 H   0  0  0  0  0  0  0  0  0  0  0  0
  1  2  1  0  0  0  0
  1 34  1  0  0  0  0
  2  3  1  0  0  0  0
  2 35  1  0  0  0  0
  2 36  1  0  0  0  0
  3  4  1  0  0  0  0
  3 37  1  0  0  0  0
  3 38  1  0  0  0  0
  4  5  1  0  0  0  0
  4 24  1  0  0  0  0
  4 39  1  0  0  0  0
  5  6  1  0  0  0  0
  5 40  1  0  0  0  0
  6 11  1  0  0  0  0
  6  7  2  0  0  0  0
  7  8  1  0  0  0  0
  8  9  2  0  0  0  0
  8 41  1  0  0  0  0
  9 10  1  0  0  0  0
 10 14  1  0  0  0  0
 10 11  2  0  0  0  0
 11 12  1  0  0  0  0
 12 13  2  0  0  0  0
 13 14  1  0  0  0  0
 13 42  1  0  0  0  0
 14 15  1  0  0  0  0
 15 30  1  0  0  0  0
 15 22  1  0  0  0  0
 15 16  1  0  0  0  0
 16 17  1  0  0  0  0
 17 31  1  0  0  0  0
 17 18  1  0  0  0  0
 17 20  1  0  0  0  0
 18 19  1  0  0  0  0
 18 43  1  0  0  0  0
 18 44  1  0  0  0  0
 19 45  1  0  0  0  0
 20 32  1  0  0  0  0
 20 21  1  0  0  0  0
 20 22  1  0  0  0  0
 21 46  1  0  0  0  0
 22 33  1  0  0  0  0
 22 23  1  0  0  0  0
 23 47  1  0  0  0  0
 24 29  1  0  0  0  0
 24 25  1  0  0  0  0
 24 48  1  0  0  0  0
 25 26  1  0  0  0  0
 25 49  1  0  0  0  0
 25 50  1  0  0  0  0
 26 27  1  0  0  0  0
 26 51  1  0  0  0  0
 26 52  1  0  0  0  0
 27 28  1  0  0  0  0
 27 53  1  0  0  0  0
 27 54  1  0  0  0  0
 28 29  1  0  0  0  0
 28 55  1  0  0  0  0
 28 56  1  0  0  0  0
 29 57  1  0  0  0  0
 29 58  1  0  0  0  0
M  END
> <s_m_source_file>
AV-unprocessed.smi

> <i_m_source_file_index>
109

> <i_lp_mmshare_version>
43012

> <i_f3d_flags>
0

> <s_epik_input>
W0NIMl0xW0NIMl1bQ0gyXVtDSDJdW0NIMl1bQ0hdMVtDQEhdKFtDSDJdW0NIMl1bT0hdKVtOSF1jKG5bY0hdbjIpYyhjMjMpbltjSF1uM1tDQEBIXTRPW0NASF0oW0NIMl1bT0hdKVtDQEBIXShbT0hdKVtDQEhdNFtPSF0=

> <s_epik_cmdline>
J2VwaWtfcHl0aG9uJywgJy1waCcsICc3LjAnLCAnLXRuJywgJzgnLCAnLW1hJywgJzIwMCcsICctbWV0YWxfYmluZGluZycsICctaW1hZScsICc8aW5maWxlLm1hZT4nLCAnLW9tYWUnLCAnPG91dGZpbGUubWFlPic=

> <r_lp_tautomer_probability>
1

> <r_epik_Ionization_Penalty>
0.000793976

> <r_epik_Ionization_Penalty_Charging>
0

> <r_epik_Ionization_Penalty_Neutral>
0.000793976

> <r_epik_State_Penalty>
-0

> <r_epik_Charging_Adjusted_Penalty>
0

> <i_epik_Tot_Q>
0

> <i_epik_Tot_abs_Q>
0

> <r_epik_Metal_State_Penalty>
-0

> <b_epik_Metal_Only>
0

> <s_epik_Chemistry_Notes>
This compound contains an acetal/aminal-like group ( X-CH(R)-Y where X, Y are N, S, or O) that may be acid/base labile, releasing an aldehyde.

> <s_lp_Force_Field>
OPLS_2005

> <r_lp_Energy>
52.4563

> <b_lp_Chiralities_Consistent>
1

> <s_lp_Variant>
AV-unprocessed.smi:109-16

> <Gold.Version>
5.8.1

> <Gold.Id.Protein>
6NUR|6NUR_protein|mol2

> <Gold.PLP.Fitness>
57.2299

> <Gold.PLP.PLP>
-45.4794

> <Gold.PLP.part.hbond>
-6.5109

> <Gold.PLP.part.metal>
0.0000

> <Gold.PLP.part.buried>
-5.6834

> <Gold.PLP.part.nonpolar>
-33.9766

> <Gold.PLP.part.repulsive>
1.0124

> <Gold.PLP.ligand.clash>
0.0000

> <Gold.PLP.ligand.torsion>
0.5680

> <Gold.PLP.Chemscore.Hbond>
4.2425

> <Gold.PLP.Chemscore.CHOScore>
0.0000

> <Gold.PLP.Chemscore.Metal>
0.0000

> <Gold.Chemscore.Hbonds>
donor molecule, donor type, donor heavy atom, donor atom, acceptor molecule, acceptor atom, score
      L1  H    19    45       P1 10171  1.00
      L1  H    21    46       P1 10186  0.65
      L1  H    23    47       P1 10747  1.00
      P1  H  6896  6907       L1     1  0.91
      P1  H 10785 10796       L1    21  0.60

> <Gold.PLP.Chemscore.Internal.Correction>
0.1591

> <Gold.Rescore>
     Score         DG    S(hbond)    S(metal)    S(lipo)     H(rot)  DE(clash)    DE(int)     intcor
     11.57     -12.47       3.61        0.00      76.14       5.47       0.11       0.79       ----

> <Gold.Chemscore.Fitness>
11.5665

> <Gold.Chemscore.DG>
-12.4665

> <Gold.Chemscore.ZeroCoef>
-5.4800

> <Gold.Chemscore.Hbond>
3.6142

> <Gold.Chemscore.Metal>
0.0000

> <Gold.Chemscore.Lipo>
76.1407

> <Gold.Chemscore.Internal_Hbond>
0.0000

> <Gold.Chemscore.DEClash>
0.1099

> <Gold.Chemscore.DEInternal>
0.7901

> <Gold.Chemscore.Rot>
5.4662

> <Gold.Chemscore.Internal.Correction>
   9.000000E+99

> <Gold.Chemscore.Hbonds>
donor molecule, donor type, donor heavy atom, donor atom, acceptor molecule, acceptor atom, score
      L1  H    19    45       P1 10171  0.95
      L1  H    21    46       P1 10186  0.64
      L1  H    23    47       P1 10747  0.94
      P1  H  6896  6907       L1     1  0.25
      P1  H 10785 10796       L1    21  0.54

> <Gold.Chemscore.Hbond.Weighted>
-12.0716

> <Gold.Chemscore.Metal.Weighted>
-0.0000

> <Gold.Chemscore.Lipo.Weighted>
-8.9085

> <Gold.Chemscore.Internal_Hbond.Weighted>
0.0000

> <Gold.Chemscore.DEClash.Weighted>
0.1099

> <Gold.Chemscore.DEInternal.Weighted>
0.7901

> <Gold.Chemscore.Rot.Weighted>
13.9935

> <Gold.Chemscore.Internal.Correction.Weighted>
   9.000000E+99

> <Gold.Protein.RotatedTorsions>
[ 6907 6896 6895 6894 ] final  178.81 input  -60.11 | X-H torsion
[ 7974 7965 7964 7962 ] final -130.70 input  175.53 | X-H torsion
[ 8008 7997 7996 7995 ] final   17.07 input   59.86 | X-H torsion
[ 10167 10162 10161 10158 ] final    9.08 input  -65.29 | X-H torsion
[ 10718 10713 10712 10709 ] final   24.24 input   66.30 | X-H torsion
[ 10763 10752 10751 10750 ] final -173.09 input  -60.55 | X-H torsion
[ 11005 11000 10999 10996 ] final  -80.41 input  -57.11 | X-H torsion

> <Gold.Protein.ActiveResidues>
 VAL166  LYS551  ARG553  GLY616  TRP617  ASP618  TYR619  PRO620  LYS621  CYS622 
 ASP623  PHE694  ASN695  SER759  ASP760  ASP761  ALA762  ILE779  LEU786  VAL792 
 PHE793  MET794  SER795  GLU796  ALA797  LYS798  CYS799  TRP800  GLU811  SER814 

> <Gold.Protein.RotatedAtoms>
  151.6819  133.3312  159.3221 H   0  0  0  0  0  0  0  0  0  0  0  0  # atno 6907 bound_to 6896
  150.7819  134.6774  159.6434 H   0  0  0  0  0  0  0  0  0  0  0  0  # atno 6908 bound_to 6896
  152.3879  134.6492  160.0171 H   0  0  0  0  0  0  0  0  0  0  0  0  # atno 6909 bound_to 6896
  144.9449  140.7280  143.4823 H   0  0  0  0  0  0  0  0  0  0  0  0  # atno 7974 bound_to 7965
  154.8860  140.2980  155.5398 H   0  0  0  0  0  0  0  0  0  0  0  0  # atno 8008 bound_to 7997
  156.3021  140.2433  156.3803 H   0  0  0  0  0  0  0  0  0  0  0  0  # atno 8009 bound_to 7997
  154.8667  140.0403  157.1688 H   0  0  0  0  0  0  0  0  0  0  0  0  # atno 8010 bound_to 7997
  140.6276  143.8065  150.7254 H   0  0  0  0  0  0  0  0  0  0  0  0  # atno 10167 bound_to 10162
  157.1771  130.6786  149.6099 H   0  0  0  0  0  0  0  0  0  0  0  0  # atno 10718 bound_to 10713
  154.6118  135.2865  155.0424 H   0  0  0  0  0  0  0  0  0  0  0  0  # atno 10763 bound_to 10752
  154.1651  135.6482  153.4999 H   0  0  0  0  0  0  0  0  0  0  0  0  # atno 10764 bound_to 10752
  153.0198  135.5387  154.6874 H   0  0  0  0  0  0  0  0  0  0  0  0  # atno 10765 bound_to 10752
  141.1668  133.7149  156.8268 H   0  0  0  0  0  0  0  0  0  0  0  0  # atno 11005 bound_to 11000
  145.2933  139.1876  143.4728 LP  0  0  0  0  0  0  0  0  0  0  0  0  # atno 17320 bound_to 7965
  146.3300  140.2913  142.8615 LP  0  0  0  0  0  0  0  0  0  0  0  0  # atno 17321 bound_to 7965
  140.1669  143.4227  152.2028 LP  0  0  0  0  0  0  0  0  0  0  0  0  # atno 17342 bound_to 10162
  139.5494  144.7326  151.4480 LP  0  0  0  0  0  0  0  0  0  0  0  0  # atno 17343 bound_to 10162
  155.9730  130.4659  150.6271 LP  0  0  0  0  0  0  0  0  0  0  0  0  # atno 17370 bound_to 10713
  157.3988  131.0807  151.1327 LP  0  0  0  0  0  0  0  0  0  0  0  0  # atno 17371 bound_to 10713
  140.2079  134.8849  157.3242 LP  0  0  0  0  0  0  0  0  0  0  0  0  # atno 17394 bound_to 11000
  140.2117  134.4130  155.7609 LP  0  0  0  0  0  0  0  0  0  0  0  0  # atno 17395 bound_to 11000

$$$$
