#       Name:                AV-unprocessed.smi:3134
#       Creating user name   scv26
#       Creation time:       Fri Mar 27 17:33:09 2020


#       File generated by GOLD software.
#

@<TRIPOS>MOLECULE
AV-unprocessed.smi:3134
    40    40     1
SMALL
NO_CHARGES


@<TRIPOS>ATOM
      1 ****        -2.8495   0.6419  -3.6267 C.3            1 S1                 0.0000
      2 ****        -2.4121   1.2165  -2.2702 C.3            1 S1                 0.0000
      3 ****        -2.6357   2.7330  -2.1988 C.3            1 S1                 0.0000
      4 ****        -1.0040   0.9214  -2.0208 N.am           1 S1                 0.0000
      5 ****        -0.5275  -0.2266  -1.5135 C.2            1 S1                 0.0000
      6 ****        -1.2440  -1.1795  -1.2046 O.2            1 S1                 0.0000
      7 ****         0.9956  -0.3161  -1.3427 C.3            1 S1                 0.0000
      8 ****         1.6353  -0.8724  -2.6240 C.3            1 S1                 0.0000
      9 ****         1.3730  -1.1623  -0.1871 N.4            1 S1                 1.0000
     10 ****         1.1682  -0.5406   1.1384 C.3            1 S1                 0.0000
     11 ****         1.6106  -1.4868   2.2634 C.3            1 S1                 0.0000
     12 ****         1.4093  -0.8954   3.5719 N.pl3          1 S1                 0.0000
     13 ****         0.4703  -1.2227   4.5275 C.2            1 S1                 0.0000
     14 ****         0.6717  -0.3948   5.5945 C.2            1 S1                 0.0000
     15 ****         1.7726   0.4126   5.1933 C.2            1 S1                 0.0000
     16 ****         2.2128   0.1094   3.9825 N.2            1 S1                 0.0000
     17 ****        -3.9024   0.8507  -3.8180 H              1 S1                 0.0000
     18 ****        -2.7205  -0.4404  -3.6598 H              1 S1                 0.0000
     19 ****        -2.2716   1.0714  -4.4457 H              1 S1                 0.0000
     20 ****        -3.0167   0.7554  -1.4870 H              1 S1                 0.0000
     21 ****        -3.6865   2.9811  -2.3514 H              1 S1                 0.0000
     22 ****        -2.0566   3.2576  -2.9596 H              1 S1                 0.0000
     23 ****        -2.3438   3.1289  -1.2256 H              1 S1                 0.0000
     24 ****        -0.3423   1.6480  -2.2539 H              1 S1                 0.0000
     25 ****         1.3931   0.6865  -1.1746 H              1 S1                 0.0000
     26 ****         1.3939  -0.2542  -3.4898 H              1 S1                 0.0000
     27 ****         1.2944  -1.8871  -2.8349 H              1 S1                 0.0000
     28 ****         2.7220  -0.8998  -2.5381 H              1 S1                 0.0000
     29 ****         0.8438  -2.0216  -0.2347 H              1 S1                 0.0000
     30 ****         1.7358   0.3898   1.1863 H              1 S1                 0.0000
     31 ****         0.1163  -0.2830   1.2679 H              1 S1                 0.0000
     32 ****         1.0505  -2.4218   2.2155 H              1 S1                 0.0000
     33 ****         2.6660  -1.7427   2.1577 H              1 S1                 0.0000
     34 ****        -0.2554  -2.0075   4.3714 H              1 S1                 0.0000
     35 ****         0.1179  -0.3702   6.5213 H              1 S1                 0.0000
     36 ****         2.2618   1.2039   5.7421 H              1 S1                 0.0000
     37 ****         2.3549  -1.3826  -0.2710 H              1 S1                 0.0000
     38 ****        -2.2347  -1.1209  -1.3280 LP             1 S1                 0.0000
     39 ****        -0.8352  -2.0118  -0.8304 LP             1 S1                 0.0000
     40 ****         2.9705   0.5300   3.4835 LP             1 S1                 0.0000
@<TRIPOS>BOND
    1    1    2 1     
    2    1   17 1     
    3    1   18 1     
    4    1   19 1     
    5    2    3 1     
    6    2    4 1     
    7    2   20 1     
    8    3   21 1     
    9    3   22 1     
   10    3   23 1     
   11    4    5 am    
   12    4   24 1     
   13    5    6 2     
   14    5    7 1     
   15    7    8 1     
   16    7    9 1     
   17    7   25 1     
   18    8   26 1     
   19    8   27 1     
   20    8   28 1     
   21    9   10 1     
   22    9   29 1     
   23    9   37 1     
   24   10   11 1     
   25   10   30 1     
   26   10   31 1     
   27   11   12 1     
   28   11   32 1     
   29   11   33 1     
   30   12   16 1     
   31   12   13 1     
   32   13   14 2     
   33   13   34 1     
   34   14   15 1     
   35   14   35 1     
   36   15   16 2     
   37   15   36 1     
   38    6   38 1     
   39    6   39 1     
   40   16   40 1     
@<TRIPOS>SUBSTRUCTURE
      1 S1             1
@<TRIPOS>SET
LONE_PAIRS      STATIC     ATOMS    <user>   **** ""
3 38 39 40
DONOR_HYDROGENS      STATIC     ATOMS    <user>   **** ""
3 24 29 37
ATOM$BLUE        STATIC     ATOMS    COLORGROUP SYSTEM
3 38 39 40
ATOM$RED        STATIC     ATOMS    COLORGROUP SYSTEM
3 24 29 37
