AV-unprocessed.smi:2068|AV-procd|sdf|8427|dock4
  -GOLD-   2272011123D 1   1.00000     0.00000
 Structure written by MMmdl.
 33 34  0  0  0  0  0  0  0  0  1 V2000
  143.6286  142.8891  154.7167 N   0  0  0  0  0  0  0  0  0  0  0  0
  144.9262  143.0873  154.9656 C   0  0  0  0  0  0  0  0  0  0  0  0
  145.3490  143.3335  156.0934 O   0  0  0  0  0  0  0  0  0  0  0  0
  145.8888  142.9905  153.7804 C   0  0  0  0  0  0  0  0  0  0  0  0
  146.9918  142.0175  154.0809 C   0  0  0  0  0  0  0  0  0  0  0  0
  147.2422  140.8292  153.4378 C   0  0  0  0  0  0  0  0  0  0  0  0
  148.6255  140.0028  154.1030 S   0  0  0  0  0  0  0  0  0  0  0  0
  148.8169  141.3241  155.2443 C   0  0  0  0  0  0  0  0  0  0  0  0
  149.8597  141.3405  156.2070 N   0  0  0  0  0  0  0  0  0  0  0  0
  151.0565  140.7265  156.1513 C   0  0  0  0  0  0  0  0  0  0  0  0
  151.4509  140.0481  155.2023 O   0  0  0  0  0  0  0  0  0  0  0  0
  151.9631  140.9225  157.3725 C   0  0  0  0  0  0  0  0  0  0  0  0
  151.4859  142.0356  158.3316 C   0  0  2  0  0  0  0  0  0  0  0  0
  151.4560  143.4082  157.7027 C   0  0  0  0  0  0  0  0  0  0  0  0
  152.1382  144.3105  158.4040 C   0  0  0  0  0  0  0  0  0  0  0  0
  152.7626  143.7265  159.6406 C   0  0  0  0  0  0  0  0  0  0  0  0
  152.4160  142.2230  159.5578 C   0  0  0  0  0  0  0  0  0  0  0  0
  147.9019  142.2904  155.1078 N   0  0  0  0  0  0  0  0  0  0  0  0
  142.9581  142.9531  155.4689 H   0  0  0  0  0  0  0  0  0  0  0  0
  143.3218  142.6852  153.7763 H   0  0  0  0  0  0  0  0  0  0  0  0
  145.3362  142.6786  152.8931 H   0  0  0  0  0  0  0  0  0  0  0  0
  146.2895  143.9807  153.5589 H   0  0  0  0  0  0  0  0  0  0  0  0
  146.6943  140.3905  152.6167 H   0  0  0  0  0  0  0  0  0  0  0  0
  149.6721  141.8782  157.0405 H   0  0  0  0  0  0  0  0  0  0  0  0
  152.0111  139.9747  157.9095 H   0  0  0  0  0  0  0  0  0  0  0  0
  152.9800  141.1387  157.0402 H   0  0  0  0  0  0  0  0  0  0  0  0
  150.4756  141.8145  158.6794 H   0  0  0  0  0  0  0  0  0  0  0  0
  150.9159  143.6147  156.7902 H   0  0  0  0  0  0  0  0  0  0  0  0
  152.2384  145.3543  158.1459 H   0  0  0  0  0  0  0  0  0  0  0  0
  153.8396  143.8955  159.6437 H   0  0  0  0  0  0  0  0  0  0  0  0
  152.3329  144.1914  160.5283 H   0  0  0  0  0  0  0  0  0  0  0  0
  151.9337  141.8788  160.4734 H   0  0  0  0  0  0  0  0  0  0  0  0
  153.3324  141.6423  159.4455 H   0  0  0  0  0  0  0  0  0  0  0  0
  1  2  1  0  0  0  0
  1 19  1  0  0  0  0
  1 20  1  0  0  0  0
  2  3  2  0  0  0  0
  2  4  1  0  0  0  0
  4  5  1  0  0  0  0
  4 21  1  0  0  0  0
  4 22  1  0  0  0  0
  5 18  1  0  0  0  0
  5  6  2  0  0  0  0
  6  7  1  0  0  0  0
  6 23  1  0  0  0  0
  7  8  1  0  0  0  0
  8  9  1  0  0  0  0
  8 18  2  0  0  0  0
  9 10  1  0  0  0  0
  9 24  1  0  0  0  0
 10 11  2  0  0  0  0
 10 12  1  0  0  0  0
 12 13  1  0  0  0  0
 12 25  1  0  0  0  0
 12 26  1  0  0  0  0
 13 17  1  0  0  0  0
 13 14  1  0  0  0  0
 13 27  1  0  0  0  0
 14 15  2  0  0  0  0
 14 28  1  0  0  0  0
 15 16  1  0  0  0  0
 15 29  1  0  0  0  0
 16 17  1  0  0  0  0
 16 30  1  0  0  0  0
 16 31  1  0  0  0  0
 17 32  1  0  0  0  0
 17 33  1  0  0  0  0
M  END
> <s_m_source_file>
AV-unprocessed.smi

> <i_m_source_file_index>
2068

> <i_lp_mmshare_version>
43012

> <i_f3d_flags>
0

> <s_epik_input>
W05IMl1DKD1PKVtDSDJdYzFbY0hdc2MobjEpW05IXUMoPU8pW0NIMl1bQ0BASF0yW0NIXT1bQ0hdW0NIMl1bQ0gyXTI=

> <s_epik_cmdline>
J2VwaWtfcHl0aG9uJywgJy1waCcsICc3LjAnLCAnLXRuJywgJzgnLCAnLW1hJywgJzIwMCcsICctbWV0YWxfYmluZGluZycsICctaW1hZScsICc8aW5maWxlLm1hZT4nLCAnLW9tYWUnLCAnPG91dGZpbGUubWFlPic=

> <r_lp_tautomer_probability>
1

> <r_epik_Ionization_Penalty>
0.000253249

> <r_epik_Ionization_Penalty_Charging>
0

> <r_epik_Ionization_Penalty_Neutral>
0.000253249

> <r_epik_State_Penalty>
-0

> <r_epik_Charging_Adjusted_Penalty>
0

> <i_epik_Tot_Q>
0

> <i_epik_Tot_abs_Q>
0

> <r_epik_Metal_State_Penalty>
0.148671

> <b_epik_Metal_Only>
0

> <s_lp_Force_Field>
OPLS_2005

> <r_lp_Energy>
16.3977

> <b_lp_Chiralities_Consistent>
1

> <s_lp_Variant>
AV-unprocessed.smi:2068-1

> <Gold.Version>
5.8.1

> <Gold.Id.Protein>
6NUR|6NUR_protein|mol2

> <Gold.PLP.Fitness>
44.0957

> <Gold.PLP.PLP>
-38.7470

> <Gold.PLP.part.hbond>
-2.2574

> <Gold.PLP.part.metal>
0.0000

> <Gold.PLP.part.buried>
-5.8781

> <Gold.PLP.part.nonpolar>
-34.1287

> <Gold.PLP.part.repulsive>
3.4189

> <Gold.PLP.ligand.clash>
0.0000

> <Gold.PLP.ligand.torsion>
0.3513

> <Gold.PLP.Chemscore.Hbond>
2.0000

> <Gold.PLP.Chemscore.CHOScore>
0.0000

> <Gold.PLP.Chemscore.Metal>
0.0000

> <Gold.Chemscore.Hbonds>
donor molecule, donor type, donor heavy atom, donor atom, acceptor molecule, acceptor atom, score
      L1  H     1    20       P1 10174  0.95
      P1  H  7989  7998       L1    11  1.00

> <Gold.PLP.Chemscore.Internal.Correction>
0.0514

> <Gold.Rescore>
     Score         DG    S(hbond)    S(metal)    S(lipo)     H(rot)  DE(clash)    DE(int)     intcor
     12.97     -16.57       1.82        0.00      91.09       2.21       1.69       1.91       ----

> <Gold.Chemscore.Fitness>
12.9680

> <Gold.Chemscore.DG>
-16.5686

> <Gold.Chemscore.ZeroCoef>
-5.4800

> <Gold.Chemscore.Hbond>
1.8195

> <Gold.Chemscore.Metal>
0.0000

> <Gold.Chemscore.Lipo>
91.0858

> <Gold.Chemscore.Internal_Hbond>
0.0000

> <Gold.Chemscore.DEClash>
1.6862

> <Gold.Chemscore.DEInternal>
1.9143

> <Gold.Chemscore.Rot>
2.2053

> <Gold.Chemscore.Internal.Correction>
   9.000000E+99

> <Gold.Chemscore.Hbonds>
donor molecule, donor type, donor heavy atom, donor atom, acceptor molecule, acceptor atom, score
      L1  H     1    20       P1 10174  0.22
      P1  H  7989  7998       L1    11  0.94

> <Gold.Chemscore.Hbond.Weighted>
-6.0772

> <Gold.Chemscore.Metal.Weighted>
-0.0000

> <Gold.Chemscore.Lipo.Weighted>
-10.6570

> <Gold.Chemscore.Internal_Hbond.Weighted>
0.0000

> <Gold.Chemscore.DEClash.Weighted>
1.6862

> <Gold.Chemscore.DEInternal.Weighted>
1.9143

> <Gold.Chemscore.Rot.Weighted>
5.6456

> <Gold.Chemscore.Internal.Correction.Weighted>
   9.000000E+99

> <Gold.Protein.RotatedTorsions>
[ 6907 6896 6895 6894 ] final -179.80 input  -60.11 | X-H torsion
[ 7974 7965 7964 7962 ] final -102.55 input  175.53 | X-H torsion
[ 8008 7997 7996 7995 ] final  -13.32 input   59.86 | X-H torsion
[ 10167 10162 10161 10158 ] final    0.97 input  -65.29 | X-H torsion
[ 10718 10713 10712 10709 ] final -122.37 input   66.30 | X-H torsion
[ 10763 10752 10751 10750 ] final  -69.72 input  -60.55 | X-H torsion
[ 11005 11000 10999 10996 ] final -166.11 input  -57.11 | X-H torsion

> <Gold.Protein.ActiveResidues>
 VAL166  LYS551  ARG553  GLY616  TRP617  ASP618  TYR619  PRO620  LYS621  CYS622 
 ASP623  PHE694  ASN695  SER759  ASP760  ASP761  ALA762  ILE779  LEU786  VAL792 
 PHE793  MET794  SER795  GLU796  ALA797  LYS798  CYS799  TRP800  GLU811  SER814 

> <Gold.Protein.RotatedAtoms>
  151.6592  133.3317  159.3169 H   0  0  0  0  0  0  0  0  0  0  0  0  # atno 6907 bound_to 6896
  150.7922  134.6958  159.6531 H   0  0  0  0  0  0  0  0  0  0  0  0  # atno 6908 bound_to 6896
  152.4003  134.6301  160.0124 H   0  0  0  0  0  0  0  0  0  0  0  0  # atno 6909 bound_to 6896
  145.2673  140.9288  143.3006 H   0  0  0  0  0  0  0  0  0  0  0  0  # atno 7974 bound_to 7965
  154.5302  140.2252  155.8818 H   0  0  0  0  0  0  0  0  0  0  0  0  # atno 8008 bound_to 7997
  156.1756  140.3112  155.9016 H   0  0  0  0  0  0  0  0  0  0  0  0  # atno 8009 bound_to 7997
  155.3467  140.0453  157.3036 H   0  0  0  0  0  0  0  0  0  0  0  0  # atno 8010 bound_to 7997
  140.6704  143.7063  150.7912 H   0  0  0  0  0  0  0  0  0  0  0  0  # atno 10167 bound_to 10162
  156.1413  130.6468  150.9775 H   0  0  0  0  0  0  0  0  0  0  0  0  # atno 10718 bound_to 10713
  154.4074  135.6017  153.5933 H   0  0  0  0  0  0  0  0  0  0  0  0  # atno 10763 bound_to 10752
  152.9789  135.5921  154.4111 H   0  0  0  0  0  0  0  0  0  0  0  0  # atno 10764 bound_to 10752
  154.3918  135.2842  155.2128 H   0  0  0  0  0  0  0  0  0  0  0  0  # atno 10765 bound_to 10752
  140.5682  134.5265  157.5156 H   0  0  0  0  0  0  0  0  0  0  0  0  # atno 11005 bound_to 11000
  144.9366  139.4237  143.6469 LP  0  0  0  0  0  0  0  0  0  0  0  0  # atno 17320 bound_to 7965
  146.3257  139.8304  142.8909 LP  0  0  0  0  0  0  0  0  0  0  0  0  # atno 17321 bound_to 7965
  140.0748  143.5026  152.2561 LP  0  0  0  0  0  0  0  0  0  0  0  0  # atno 17342 bound_to 10162
  139.5970  144.7570  151.3261 LP  0  0  0  0  0  0  0  0  0  0  0  0  # atno 17343 bound_to 10162
  157.6578  131.0886  150.7908 LP  0  0  0  0  0  0  0  0  0  0  0  0  # atno 17370 bound_to 10713
  156.7983  130.4913  149.5373 LP  0  0  0  0  0  0  0  0  0  0  0  0  # atno 17371 bound_to 10713
  139.9375  134.7849  156.0765 LP  0  0  0  0  0  0  0  0  0  0  0  0  # atno 17394 bound_to 11000
  141.1073  133.6655  156.2893 LP  0  0  0  0  0  0  0  0  0  0  0  0  # atno 17395 bound_to 11000

$$$$
