AV-unprocessed.smi:1887|AV-procd|sdf|7655|dock4
  -GOLD-   22720 9393D 1   1.00000     0.00000
 Structure written by MMmdl.
 44 46  0  0  0  0  0  0  0  0  1 V2000
  151.6349  139.6847  155.7559 C   0  0  0  0  0  0  0  0  0  0  0  0
  152.8920  139.3124  156.2902 O   0  0  0  0  0  0  0  0  0  0  0  0
  152.7787  138.5765  157.4966 C   0  0  0  0  0  0  0  0  0  0  0  0
  152.1640  139.4668  158.5852 C   0  0  0  0  0  0  0  0  0  0  0  0
  153.0683  139.6537  159.7166 N   0  0  0  0  0  0  0  0  0  0  0  0
  153.4283  140.8125  160.3276 C   0  0  0  0  0  0  0  0  0  0  0  0
  152.9221  142.0595  159.9051 N   0  0  0  0  0  0  0  0  0  0  0  0
  152.5998  142.2549  158.6099 N   0  0  0  0  0  0  0  0  0  0  0  0
  152.1804  143.5073  158.5494 C   0  0  0  0  0  0  0  0  0  0  0  0
  151.7205  144.0562  157.2296 C   0  0  0  0  0  0  0  0  0  0  0  0
  152.2404  144.1627  159.8140 C   0  0  0  0  0  0  0  0  0  0  0  0
  151.8576  145.5832  160.1280 C   0  0  0  0  0  0  0  0  0  0  0  0
  152.7239  143.2014  160.6601 C   0  0  0  0  0  0  0  0  0  0  0  0
  153.0192  143.2621  162.1259 C   0  0  0  0  0  0  0  0  0  0  0  0
  154.2596  140.6697  161.3635 N   0  0  0  0  0  0  0  0  0  0  0  0
  154.4506  139.2964  161.4152 C   0  0  0  0  0  0  0  0  0  0  0  0
  153.7402  138.6706  160.4418 C   0  0  0  0  0  0  0  0  0  0  0  0
  153.7364  137.2115  160.2807 C   0  0  0  0  0  0  0  0  0  0  0  0
  153.0919  136.6276  159.4121 O   0  0  0  0  0  0  0  0  0  0  0  0
  154.5103  136.5750  161.1931 N   0  0  0  0  0  0  0  0  0  0  0  0
  155.2501  137.1408  162.1953 C   0  0  0  0  0  0  0  0  0  0  0  0
  155.9029  136.4264  162.9560 O   0  0  0  0  0  0  0  0  0  0  0  0
  155.2280  138.5075  162.3108 N   0  0  0  0  0  0  0  0  0  0  0  0
  155.9991  139.1653  163.3673 C   0  0  0  0  0  0  0  0  0  0  0  0
  154.5421  135.5680  161.1286 H   0  0  0  0  0  0  0  0  0  0  0  0
  151.7827  140.2425  154.8311 H   0  0  0  0  0  0  0  0  0  0  0  0
  151.0851  140.3222  156.4494 H   0  0  0  0  0  0  0  0  0  0  0  0
  151.0278  138.8077  155.5277 H   0  0  0  0  0  0  0  0  0  0  0  0
  152.1578  137.6934  157.3388 H   0  0  0  0  0  0  0  0  0  0  0  0
  153.7631  138.2305  157.8152 H   0  0  0  0  0  0  0  0  0  0  0  0
  151.8996  140.4417  158.1774 H   0  0  0  0  0  0  0  0  0  0  0  0
  151.2270  139.0328  158.9298 H   0  0  0  0  0  0  0  0  0  0  0  0
  151.4624  145.1124  157.3032 H   0  0  0  0  0  0  0  0  0  0  0  0
  150.8378  143.5254  156.8722 H   0  0  0  0  0  0  0  0  0  0  0  0
  152.4979  143.9591  156.4715 H   0  0  0  0  0  0  0  0  0  0  0  0
  152.2280  145.9035  161.1017 H   0  0  0  0  0  0  0  0  0  0  0  0
  150.7754  145.7135  160.1370 H   0  0  0  0  0  0  0  0  0  0  0  0
  152.2597  146.2807  159.3931 H   0  0  0  0  0  0  0  0  0  0  0  0
  152.3680  143.9790  162.6259 H   0  0  0  0  0  0  0  0  0  0  0  0
  154.0519  143.5660  162.2971 H   0  0  0  0  0  0  0  0  0  0  0  0
  152.8687  142.2952  162.6061 H   0  0  0  0  0  0  0  0  0  0  0  0
  157.0492  138.8727  163.3179 H   0  0  0  0  0  0  0  0  0  0  0  0
  155.6130  138.8859  164.3485 H   0  0  0  0  0  0  0  0  0  0  0  0
  155.9634  140.2524  163.2975 H   0  0  0  0  0  0  0  0  0  0  0  0
  1  2  1  0  0  0  0
  1 26  1  0  0  0  0
  1 27  1  0  0  0  0
  1 28  1  0  0  0  0
  2  3  1  0  0  0  0
  3  4  1  0  0  0  0
  3 29  1  0  0  0  0
  3 30  1  0  0  0  0
  4  5  1  0  0  0  0
  4 31  1  0  0  0  0
  4 32  1  0  0  0  0
  5 17  1  0  0  0  0
  5  6  1  0  0  0  0
  6  7  1  0  0  0  0
  6 15  2  0  0  0  0
  7 13  1  0  0  0  0
  7  8  1  0  0  0  0
  8  9  2  0  0  0  0
  9 10  1  0  0  0  0
  9 11  1  0  0  0  0
 10 33  1  0  0  0  0
 10 34  1  0  0  0  0
 10 35  1  0  0  0  0
 11 12  1  0  0  0  0
 11 13  2  0  0  0  0
 12 36  1  0  0  0  0
 12 37  1  0  0  0  0
 12 38  1  0  0  0  0
 13 14  1  0  0  0  0
 14 39  1  0  0  0  0
 14 40  1  0  0  0  0
 14 41  1  0  0  0  0
 15 16  1  0  0  0  0
 16 23  1  0  0  0  0
 16 17  2  0  0  0  0
 17 18  1  0  0  0  0
 18 19  2  0  0  0  0
 18 20  1  0  0  0  0
 20 25  1  0  0  0  0
 20 21  1  0  0  0  0
 21 22  2  0  0  0  0
 21 23  1  0  0  0  0
 23 24  1  0  0  0  0
 24 42  1  0  0  0  0
 24 43  1  0  0  0  0
 24 44  1  0  0  0  0
M  END
> <s_m_source_file>
AV-unprocessed.smi

> <i_m_source_file_index>
1887

> <i_lp_mmshare_version>
43012

> <i_f3d_flags>
0

> <s_epik_input>
W0NIM11uMWMoPU8pW25IXWMoPU8pYyhjMTIpbihbQ0gyXVtDSDJdT1tDSDNdKWMobjIpLW4zbmMoW0NIM10pYyhbQ0gzXSljM1tDSDNd

> <s_epik_cmdline>
J2VwaWtfcHl0aG9uJywgJy1waCcsICc3LjAnLCAnLXRuJywgJzgnLCAnLW1hJywgJzIwMCcsICctbWV0YWxfYmluZGluZycsICctaW1hZScsICc8aW5maWxlLm1hZT4nLCAnLW9tYWUnLCAnPG91dGZpbGUubWFlPic=

> <r_lp_tautomer_probability>
1

> <r_epik_Ionization_Penalty>
0.00244877

> <r_epik_Ionization_Penalty_Charging>
0.000731299

> <r_epik_Ionization_Penalty_Neutral>
0.00171747

> <r_epik_State_Penalty>
-0

> <r_epik_Charging_Adjusted_Penalty>
0.000731299

> <i_epik_Tot_Q>
0

> <i_epik_Tot_abs_Q>
0

> <r_epik_Metal_State_Penalty>
0.260296

> <b_epik_Metal_Only>
0

> <s_lp_Force_Field>
OPLS_2005

> <r_lp_Energy>
24.2445

> <b_lp_Chiralities_Consistent>
1

> <s_lp_Variant>
AV-unprocessed.smi:1887-1

> <Gold.Version>
5.8.1

> <Gold.Id.Protein>
6NUR|6NUR_protein|mol2

> <Gold.PLP.Fitness>
55.5805

> <Gold.PLP.PLP>
-50.8599

> <Gold.PLP.part.hbond>
-2.0000

> <Gold.PLP.part.metal>
0.0000

> <Gold.PLP.part.buried>
-6.1611

> <Gold.PLP.part.nonpolar>
-42.9668

> <Gold.PLP.part.repulsive>
0.0711

> <Gold.PLP.ligand.clash>
0.0000

> <Gold.PLP.ligand.torsion>
0.8233

> <Gold.PLP.Chemscore.Hbond>
2.0000

> <Gold.PLP.Chemscore.CHOScore>
0.0000

> <Gold.PLP.Chemscore.Metal>
0.0000

> <Gold.Chemscore.Hbonds>
donor molecule, donor type, donor heavy atom, donor atom, acceptor molecule, acceptor atom, score
      P1  H  6896  6907       L1    19  1.00
      P1  H  7997  8010       L1     2  1.00

> <Gold.PLP.Chemscore.Internal.Correction>
0.3672

> <Gold.Rescore>
     Score         DG    S(hbond)    S(metal)    S(lipo)     H(rot)  DE(clash)    DE(int)     intcor
     15.20     -19.41       1.88        0.00      98.18       1.50       0.07       4.14       ----

> <Gold.Chemscore.Fitness>
15.2021

> <Gold.Chemscore.DG>
-19.4093

> <Gold.Chemscore.ZeroCoef>
-5.4800

> <Gold.Chemscore.Hbond>
1.8821

> <Gold.Chemscore.Metal>
0.0000

> <Gold.Chemscore.Lipo>
98.1767

> <Gold.Chemscore.Internal_Hbond>
0.0000

> <Gold.Chemscore.DEClash>
0.0674

> <Gold.Chemscore.DEInternal>
4.1397

> <Gold.Chemscore.Rot>
1.5014

> <Gold.Chemscore.Internal.Correction>
   9.000000E+99

> <Gold.Chemscore.Hbonds>
donor molecule, donor type, donor heavy atom, donor atom, acceptor molecule, acceptor atom, score
      P1  H  6896  6907       L1    19  0.80
      P1  H  7997  8010       L1     2  0.70

> <Gold.Chemscore.Hbond.Weighted>
-6.2863

> <Gold.Chemscore.Metal.Weighted>
-0.0000

> <Gold.Chemscore.Lipo.Weighted>
-11.4867

> <Gold.Chemscore.Internal_Hbond.Weighted>
0.0000

> <Gold.Chemscore.DEClash.Weighted>
0.0674

> <Gold.Chemscore.DEInternal.Weighted>
4.1397

> <Gold.Chemscore.Rot.Weighted>
3.8437

> <Gold.Chemscore.Internal.Correction.Weighted>
   9.000000E+99

> <Gold.Protein.RotatedTorsions>
[ 6907 6896 6895 6894 ] final   43.73 input  -60.11 | X-H torsion
[ 7974 7965 7964 7962 ] final    4.66 input  175.53 | X-H torsion
[ 8008 7997 7996 7995 ] final   80.09 input   59.86 | X-H torsion
[ 10167 10162 10161 10158 ] final   28.23 input  -65.29 | X-H torsion
[ 10718 10713 10712 10709 ] final  153.32 input   66.30 | X-H torsion
[ 10763 10752 10751 10750 ] final   26.26 input  -60.55 | X-H torsion
[ 11005 11000 10999 10996 ] final  157.68 input  -57.11 | X-H torsion

> <Gold.Protein.ActiveResidues>
 VAL166  LYS551  ARG553  GLY616  TRP617  ASP618  TYR619  PRO620  LYS621  CYS622 
 ASP623  PHE694  ASN695  SER759  ASP760  ASP761  ALA762  ILE779  LEU786  VAL792 
 PHE793  MET794  SER795  GLU796  ALA797  LYS798  CYS799  TRP800  GLU811  SER814 

> <Gold.Protein.RotatedAtoms>
  152.2239  134.8387  160.0482 H   0  0  0  0  0  0  0  0  0  0  0  0  # atno 6907 bound_to 6896
  151.9160  133.3568  159.3888 H   0  0  0  0  0  0  0  0  0  0  0  0  # atno 6908 bound_to 6896
  150.7007  134.4609  159.5424 H   0  0  0  0  0  0  0  0  0  0  0  0  # atno 6909 bound_to 6896
  146.2443  140.0501  142.8375 H   0  0  0  0  0  0  0  0  0  0  0  0  # atno 7974 bound_to 7965
  155.8787  140.3445  155.5872 H   0  0  0  0  0  0  0  0  0  0  0  0  # atno 8008 bound_to 7997
  155.7744  140.0850  157.2110 H   0  0  0  0  0  0  0  0  0  0  0  0  # atno 8009 bound_to 7997
  154.4023  140.1512  156.2967 H   0  0  0  0  0  0  0  0  0  0  0  0  # atno 8010 bound_to 7997
  140.4870  144.0526  150.6284 H   0  0  0  0  0  0  0  0  0  0  0  0  # atno 10167 bound_to 10162
  157.2463  131.0769  151.1759 H   0  0  0  0  0  0  0  0  0  0  0  0  # atno 10718 bound_to 10713
  153.0635  135.6564  154.0409 H   0  0  0  0  0  0  0  0  0  0  0  0  # atno 10763 bound_to 10752
  154.0071  135.2932  155.3398 H   0  0  0  0  0  0  0  0  0  0  0  0  # atno 10764 bound_to 10752
  154.6983  135.5255  153.8558 H   0  0  0  0  0  0  0  0  0  0  0  0  # atno 10765 bound_to 10752
  140.1793  134.8487  157.2783 H   0  0  0  0  0  0  0  0  0  0  0  0  # atno 11005 bound_to 11000
  145.0992  140.9335  143.4722 LP  0  0  0  0  0  0  0  0  0  0  0  0  # atno 17320 bound_to 7965
  145.0690  139.3046  143.5842 LP  0  0  0  0  0  0  0  0  0  0  0  0  # atno 17321 bound_to 7965
  140.3785  143.2816  152.0198 LP  0  0  0  0  0  0  0  0  0  0  0  0  # atno 17342 bound_to 10162
  139.4844  144.6174  151.7321 LP  0  0  0  0  0  0  0  0  0  0  0  0  # atno 17343 bound_to 10162
  157.3325  130.6992  149.6333 LP  0  0  0  0  0  0  0  0  0  0  0  0  # atno 17370 bound_to 10713
  155.9668  130.4303  150.4871 LP  0  0  0  0  0  0  0  0  0  0  0  0  # atno 17371 bound_to 10713
  140.2286  134.3936  155.7532 LP  0  0  0  0  0  0  0  0  0  0  0  0  # atno 17394 bound_to 11000
  141.2222  133.7203  156.8605 LP  0  0  0  0  0  0  0  0  0  0  0  0  # atno 17395 bound_to 11000

$$$$
