AV-unprocessed.smi:711|AV-procd|sdf|3465|dock4
  -GOLD-   22720 0453D 1   1.00000     0.00000
 Structure written by MMmdl.
 29 30  0  0  0  0  0  0  0  0  1 V2000
  147.0932  139.3305  152.5168 O   0  0  0  0  0  0  0  0  0  0  0  0
  148.0346  139.7352  153.1961 C   0  0  0  0  0  0  0  0  0  0  0  0
  149.1243  138.8956  153.4458 N   0  0  0  0  0  0  0  0  0  0  0  0
  150.2530  139.2290  154.1951 C   0  0  0  0  0  0  0  0  0  0  0  0
  151.1487  138.3994  154.3524 O   0  0  0  0  0  0  0  0  0  0  0  0
  150.2928  140.5339  154.7386 N   0  0  0  0  0  0  0  0  0  0  0  0
  151.4415  140.9136  155.5260 C   0  0  0  0  0  0  0  0  0  0  0  0
  151.7488  139.9291  156.6750 C   0  0  1  0  0  0  0  0  0  0  0  0
  152.8037  139.0706  156.2860 O   0  0  0  0  0  0  0  0  0  0  0  0
  152.0911  140.6875  157.9517 C   0  0  0  0  0  0  0  0  0  0  0  0
  151.9164  142.0884  158.0203 C   0  0  0  0  0  0  0  0  0  0  0  0
  152.2157  142.7868  159.2060 C   0  0  0  0  0  0  0  0  0  0  0  0
  152.6877  142.0893  160.3338 C   0  0  0  0  0  0  0  0  0  0  0  0
  152.9739  142.7599  161.4747 F   0  0  0  0  0  0  0  0  0  0  0  0
  152.8584  140.6933  160.2750 C   0  0  0  0  0  0  0  0  0  0  0  0
  152.5588  139.9924  159.0904 C   0  0  0  0  0  0  0  0  0  0  0  0
  152.7174  138.6473  159.0569 F   0  0  0  0  0  0  0  0  0  0  0  0
  149.2290  141.3974  154.5249 C   0  0  0  0  0  0  0  0  0  0  0  0
  148.1353  141.0639  153.7982 C   0  0  0  0  0  0  0  0  0  0  0  0
  146.8511  142.1975  153.5758 Cl  0  0  0  0  0  0  0  0  0  0  0  0
  149.0914  137.9670  153.0506 H   0  0  0  0  0  0  0  0  0  0  0  0
  152.2920  141.1032  154.8678 H   0  0  0  0  0  0  0  0  0  0  0  0
  151.1703  141.8888  155.9351 H   0  0  0  0  0  0  0  0  0  0  0  0
  150.8772  139.3012  156.8641 H   0  0  0  0  0  0  0  0  0  0  0  0
  152.5058  138.5352  155.5665 H   0  0  0  0  0  0  0  0  0  0  0  0
  151.5469  142.6340  157.1643 H   0  0  0  0  0  0  0  0  0  0  0  0
  152.0804  143.8574  159.2507 H   0  0  0  0  0  0  0  0  0  0  0  0
  153.2162  140.1575  161.1417 H   0  0  0  0  0  0  0  0  0  0  0  0
  149.2711  142.3862  154.9602 H   0  0  0  0  0  0  0  0  0  0  0  0
  1  2  2  0  0  0  0
  2 19  1  0  0  0  0
  2  3  1  0  0  0  0
  3 21  1  0  0  0  0
  3  4  1  0  0  0  0
  4  5  2  0  0  0  0
  4  6  1  0  0  0  0
  6  7  1  0  0  0  0
  6 18  1  0  0  0  0
  7  8  1  0  0  0  0
  7 22  1  0  0  0  0
  7 23  1  0  0  0  0
  8  9  1  0  0  0  0
  8 10  1  0  0  0  0
  8 24  1  0  0  0  0
  9 25  1  0  0  0  0
 10 16  1  0  0  0  0
 10 11  2  0  0  0  0
 11 12  1  0  0  0  0
 11 26  1  0  0  0  0
 12 13  2  0  0  0  0
 12 27  1  0  0  0  0
 13 14  1  0  0  0  0
 13 15  1  0  0  0  0
 15 16  2  0  0  0  0
 15 28  1  0  0  0  0
 16 17  1  0  0  0  0
 18 19  2  0  0  0  0
 18 29  1  0  0  0  0
 19 20  1  0  0  0  0
M  END
> <s_m_source_file>
AV-unprocessed.smi

> <i_m_source_file_index>
711

> <i_lp_mmshare_version>
43012

> <i_f3d_flags>
0

> <s_epik_input>
Tz1jMVtuSF1jKD1PKW4oW2NIXWMxQ2wpW0NIMl1bQ0BIXShbT0hdKWMyW2NIXVtjSF1jKEYpW2NIXWMyRg==

> <s_epik_cmdline>
J2VwaWtfcHl0aG9uJywgJy1waCcsICc3LjAnLCAnLXRuJywgJzgnLCAnLW1hJywgJzIwMCcsICctbWV0YWxfYmluZGluZycsICctaW1hZScsICc8aW5maWxlLm1hZT4nLCAnLW9tYWUnLCAnPG91dGZpbGUubWFlPic=

> <r_lp_tautomer_probability>
0.999537

> <r_epik_Ionization_Penalty>
0.0292058

> <r_epik_Ionization_Penalty_Charging>
0.0292057

> <r_epik_Ionization_Penalty_Neutral>
9.07348e-08

> <r_epik_State_Penalty>
0.0240115

> <r_epik_Charging_Adjusted_Penalty>
0.0532172

> <i_epik_Tot_Q>
0

> <i_epik_Tot_abs_Q>
0

> <r_epik_Metal_State_Penalty>
2.21956

> <b_epik_Metal_Only>
0

> <s_lp_Force_Field>
OPLS_2005

> <r_lp_Energy>
13.2316

> <b_lp_Chiralities_Consistent>
1

> <s_lp_Variant>
AV-unprocessed.smi:711-2

> <Gold.Version>
5.8.1

> <Gold.Id.Protein>
6NUR|6NUR_protein|mol2

> <Gold.PLP.Fitness>
47.8897

> <Gold.PLP.PLP>
-40.8590

> <Gold.PLP.part.hbond>
-2.9336

> <Gold.PLP.part.metal>
0.0000

> <Gold.PLP.part.buried>
-1.6348

> <Gold.PLP.part.nonpolar>
-36.0657

> <Gold.PLP.part.repulsive>
0.5097

> <Gold.PLP.ligand.clash>
0.0000

> <Gold.PLP.ligand.torsion>
0.7817

> <Gold.PLP.Chemscore.Hbond>
1.8775

> <Gold.PLP.Chemscore.CHOScore>
0.9817

> <Gold.PLP.Chemscore.Metal>
0.0000

> <Gold.Chemscore.Hbonds>
donor molecule, donor type, donor heavy atom, donor atom, acceptor molecule, acceptor atom, score
      L1  H     3    21       P1  7948  0.88
      P1  H  7997  8010       L1     9  1.00
      L1  C    18    29       P1  8028  1.00

> <Gold.PLP.Chemscore.Internal.Correction>
0.0166

> <Gold.Rescore>
     Score         DG    S(hbond)    S(metal)    S(lipo)     H(rot)  DE(clash)    DE(int)     intcor
     12.87     -15.14       1.89        0.00      80.41       2.37       0.33       1.94       ----

> <Gold.Chemscore.Fitness>
12.8734

> <Gold.Chemscore.DG>
-15.1443

> <Gold.Chemscore.ZeroCoef>
-5.4800

> <Gold.Chemscore.Hbond>
1.8897

> <Gold.Chemscore.Metal>
0.0000

> <Gold.Chemscore.Lipo>
80.4067

> <Gold.Chemscore.Internal_Hbond>
0.0000

> <Gold.Chemscore.DEClash>
0.3296

> <Gold.Chemscore.DEInternal>
1.9413

> <Gold.Chemscore.Rot>
2.3652

> <Gold.Chemscore.Internal.Correction>
   9.000000E+99

> <Gold.Chemscore.Hbonds>
donor molecule, donor type, donor heavy atom, donor atom, acceptor molecule, acceptor atom, score
      L1  H     3    21       P1  7948  0.85
      P1  H  7997  8010       L1     9  0.50

> <Gold.Chemscore.Hbond.Weighted>
-6.3115

> <Gold.Chemscore.Metal.Weighted>
-0.0000

> <Gold.Chemscore.Lipo.Weighted>
-9.4076

> <Gold.Chemscore.Internal_Hbond.Weighted>
0.0000

> <Gold.Chemscore.DEClash.Weighted>
0.3296

> <Gold.Chemscore.DEInternal.Weighted>
1.9413

> <Gold.Chemscore.Rot.Weighted>
6.0548

> <Gold.Chemscore.Internal.Correction.Weighted>
   9.000000E+99

> <Gold.Protein.RotatedTorsions>
[ 6907 6896 6895 6894 ] final  -24.51 input  -60.11 | X-H torsion
[ 7974 7965 7964 7962 ] final -102.24 input  175.53 | X-H torsion
[ 8008 7997 7996 7995 ] final   67.48 input   59.86 | X-H torsion
[ 10167 10162 10161 10158 ] final  -85.73 input  -65.29 | X-H torsion
[ 10718 10713 10712 10709 ] final -108.36 input   66.30 | X-H torsion
[ 10763 10752 10751 10750 ] final -150.12 input  -60.55 | X-H torsion
[ 11005 11000 10999 10996 ] final -148.07 input  -57.11 | X-H torsion

> <Gold.Protein.ActiveResidues>
 VAL166  LYS551  ARG553  GLY616  TRP617  ASP618  TYR619  PRO620  LYS621  CYS622 
 ASP623  PHE694  ASN695  SER759  ASP760  ASP761  ALA762  ILE779  LEU786  VAL792 
 PHE793  MET794  SER795  GLU796  ALA797  LYS798  CYS799  TRP800  GLU811  SER814 

> <Gold.Protein.RotatedAtoms>
  151.1884  135.0392  159.8821 H   0  0  0  0  0  0  0  0  0  0  0  0  # atno 6907 bound_to 6896
  152.5441  134.0983  159.8317 H   0  0  0  0  0  0  0  0  0  0  0  0  # atno 6908 bound_to 6896
  151.1109  133.5126  159.2638 H   0  0  0  0  0  0  0  0  0  0  0  0  # atno 6909 bound_to 6896
  145.2712  140.9299  143.2985 H   0  0  0  0  0  0  0  0  0  0  0  0  # atno 7974 bound_to 7965
  155.6935  140.3496  155.4903 H   0  0  0  0  0  0  0  0  0  0  0  0  # atno 8008 bound_to 7997
  155.9503  140.1118  157.1005 H   0  0  0  0  0  0  0  0  0  0  0  0  # atno 8009 bound_to 7997
  154.4120  140.1195  156.5030 H   0  0  0  0  0  0  0  0  0  0  0  0  # atno 8010 bound_to 7997
  140.4010  143.2663  151.9143 H   0  0  0  0  0  0  0  0  0  0  0  0  # atno 10167 bound_to 10162
  156.0482  130.5709  150.7951 H   0  0  0  0  0  0  0  0  0  0  0  0  # atno 10718 bound_to 10713
  154.8137  135.3292  154.7234 H   0  0  0  0  0  0  0  0  0  0  0  0  # atno 10763 bound_to 10752
  153.7878  135.6913  153.4881 H   0  0  0  0  0  0  0  0  0  0  0  0  # atno 10764 bound_to 10752
  153.1937  135.4541  155.0128 H   0  0  0  0  0  0  0  0  0  0  0  0  # atno 10765 bound_to 10752
  140.7650  134.3254  157.5091 H   0  0  0  0  0  0  0  0  0  0  0  0  # atno 11005 bound_to 11000
  144.9333  139.4273  143.6484 LP  0  0  0  0  0  0  0  0  0  0  0  0  # atno 17320 bound_to 7965
  146.3246  139.8255  142.8918 LP  0  0  0  0  0  0  0  0  0  0  0  0  # atno 17321 bound_to 7965
  139.4785  144.5634  151.8204 LP  0  0  0  0  0  0  0  0  0  0  0  0  # atno 17342 bound_to 10162
  140.4740  144.1546  150.5922 LP  0  0  0  0  0  0  0  0  0  0  0  0  # atno 17343 bound_to 10162
  157.5380  131.0939  150.9866 LP  0  0  0  0  0  0  0  0  0  0  0  0  # atno 17370 bound_to 10713
  157.0156  130.5653  149.5325 LP  0  0  0  0  0  0  0  0  0  0  0  0  # atno 17371 bound_to 10713
  139.8764  134.9226  156.3304 LP  0  0  0  0  0  0  0  0  0  0  0  0  # atno 17394 bound_to 11000
  140.9627  133.7378  156.0424 LP  0  0  0  0  0  0  0  0  0  0  0  0  # atno 17395 bound_to 11000

$$$$
