#       Name:                AV-unprocessed.smi:1039
#       Creating user name   scv26
#       Creation time:       Fri Mar 27 02:54:05 2020


#       File generated by GOLD software.
#

@<TRIPOS>MOLECULE
AV-unprocessed.smi:1039
    43    44     1
SMALL
NO_CHARGES


@<TRIPOS>ATOM
      1 ****        -5.0349   1.0414   1.5070 C.3            1 S1                 0.0000
      2 ****        -3.8897   0.9657   0.4881 C.3            1 S1                 0.0000
      3 ****        -3.0221  -0.2942   0.6976 C.3            1 S1                 0.0000
      4 ****        -1.8170  -0.3043  -0.2599 C.3            1 S1                 0.0000
      5 ****        -1.0379   0.9284  -0.0526 N.am           1 S1                 0.0000
      6 ****         0.1648   1.0254   0.5685 C.2            1 S1                 0.0000
      7 ****         0.7160   2.0992   0.8125 O.2            1 S1                 0.0000
      8 ****         0.7367  -0.1518   0.8721 N.am           1 S1                 0.0000
      9 ****         2.0375  -0.3233   1.5124 C.3            1 S1                 0.0000
     10 ****         3.2265  -0.0005   0.5829 C.3            1 S1                 0.0000
     11 ****         3.1334  -0.6009  -0.7898 C.2            1 S1                 0.0000
     12 ****         2.5862   0.0018  -1.8525 N.pl3          1 S1                 1.0000
     13 ****         2.6429  -0.8141  -2.9482 C.2            1 S1                 0.0000
     14 ****         3.2555  -1.9685  -2.5379 C.2            1 S1                 0.0000
     15 ****         3.5467  -1.8112  -1.2066 N.pl3          1 S1                 0.0000
     16 ****         4.2177  -2.7958  -0.3514 C.3            1 S1                 0.0000
     17 ****         5.3808  -2.3155   0.0877 F              1 S1                 0.0000
     18 ****         3.4376  -3.1371   0.6730 F              1 S1                 0.0000
     19 ****        -1.8135   2.1145  -0.4360 C.3            1 S1                 0.0000
     20 ****        -3.0234   2.2439   0.5076 C.3            1 S1                 0.0000
     21 ****        -4.6544   1.1256   2.5254 H              1 S1                 0.0000
     22 ****        -5.6626   0.1513   1.4589 H              1 S1                 0.0000
     23 ****        -5.6727   1.9050   1.3170 H              1 S1                 0.0000
     24 ****        -4.3383   0.8911  -0.5036 H              1 S1                 0.0000
     25 ****        -2.6660  -0.3324   1.7282 H              1 S1                 0.0000
     26 ****        -3.6234  -1.1909   0.5449 H              1 S1                 0.0000
     27 ****        -1.2445  -1.2214  -0.1225 H              1 S1                 0.0000
     28 ****        -2.1650  -0.3374  -1.2934 H              1 S1                 0.0000
     29 ****         0.2264  -0.9931   0.6454 H              1 S1                 0.0000
     30 ****         2.0927   0.2776   2.4213 H              1 S1                 0.0000
     31 ****         2.0955  -1.3621   1.8344 H              1 S1                 0.0000
     32 ****         3.3094   1.0776   0.4399 H              1 S1                 0.0000
     33 ****         4.1651  -0.3262   1.0299 H              1 S1                 0.0000
     34 ****         2.2546  -0.5189  -3.9121 H              1 S1                 0.0000
     35 ****         3.5008  -2.8687  -3.0828 H              1 S1                 0.0000
     36 ****         4.4245  -3.6977  -0.9285 H              1 S1                 0.0000
     37 ****        -1.2238   3.0319  -0.4114 H              1 S1                 0.0000
     38 ****        -2.1514   2.0096  -1.4680 H              1 S1                 0.0000
     39 ****        -3.6248   3.1072   0.2214 H              1 S1                 0.0000
     40 ****        -2.6702   2.4367   1.5218 H              1 S1                 0.0000
     41 ****         2.1856   0.9317  -1.8414 H              1 S1                 0.0000
     42 ****         0.2761   2.9580   0.5500 LP             1 S1                 0.0000
     43 ****         1.6035   2.1124   1.2731 LP             1 S1                 0.0000
@<TRIPOS>BOND
    1    1    2 1     
    2    1   21 1     
    3    1   22 1     
    4    1   23 1     
    5    2   20 1     
    6    2    3 1     
    7    2   24 1     
    8    3    4 1     
    9    3   25 1     
   10    3   26 1     
   11    4    5 1     
   12    4   27 1     
   13    4   28 1     
   14    5    6 am    
   15    5   19 1     
   16    6    7 2     
   17    6    8 am    
   18    8    9 1     
   19    8   29 1     
   20    9   10 1     
   21    9   30 1     
   22    9   31 1     
   23   10   11 1     
   24   10   32 1     
   25   10   33 1     
   26   11   15 1     
   27   11   12 2     
   28   12   13 1     
   29   12   41 1     
   30   13   14 2     
   31   13   34 1     
   32   14   15 1     
   33   14   35 1     
   34   15   16 1     
   35   16   17 1     
   36   16   18 1     
   37   16   36 1     
   38   19   20 1     
   39   19   37 1     
   40   19   38 1     
   41   20   39 1     
   42   20   40 1     
   43    7   42 1     
   44    7   43 1     
@<TRIPOS>SUBSTRUCTURE
      1 S1             1
@<TRIPOS>SET
LONE_PAIRS      STATIC     ATOMS    <user>   **** ""
2 42 43
DONOR_HYDROGENS      STATIC     ATOMS    <user>   **** ""
2 29 41
ATOM$BLUE        STATIC     ATOMS    COLORGROUP SYSTEM
2 42 43
ATOM$RED        STATIC     ATOMS    COLORGROUP SYSTEM
2 29 41
