AV-unprocessed.smi:2961|AV-procd|sdf|11314|dock4
  -GOLD-   2272016213D 1   1.00000     0.00000
 Structure written by MMmdl.
 49 51  0  0  0  0  0  0  0  0  2 V2000
  150.0008  133.8176  156.2278 C   0  0  0  0  0  0  0  0  0  0  0  0
  151.1685  134.7977  156.2004 C   0  0  0  0  0  0  0  0  0  0  0  0
  152.2792  134.4476  156.5968 O   0  0  0  0  0  0  0  0  0  0  0  0
  150.9052  136.0216  155.7193 N   0  0  0  0  0  0  0  0  0  0  0  0
  151.8737  137.1095  155.6116 C   0  0  0  0  0  0  0  0  0  0  0  0
  151.7731  137.8912  154.2853 C   0  0  0  0  0  0  0  0  0  0  0  0
  150.5880  138.8037  154.2285 C   0  0  0  0  0  0  0  0  0  0  0  0
  149.4641  138.6023  153.4838 N   0  3  0  0  0  0  0  0  0  0  0  0
  148.5694  139.6538  153.6834 C   0  0  0  0  0  0  0  0  0  0  0  0
  147.3082  139.8906  153.1455 C   0  0  0  0  0  0  0  0  0  0  0  0
  146.6579  141.0734  153.5543 C   0  0  0  0  0  0  0  0  0  0  0  0
  147.2615  141.9663  154.4635 C   0  0  0  0  0  0  0  0  0  0  0  0
  148.5390  141.7130  155.0049 C   0  0  0  0  0  0  0  0  0  0  0  0
  149.1758  140.5410  154.5963 C   0  0  0  0  0  0  0  0  0  0  0  0
  150.4177  139.9739  154.9086 N   0  0  0  0  0  0  0  0  0  0  0  0
  151.3174  140.6675  155.8434 C   0  0  0  0  0  0  0  0  0  0  0  0
  150.5986  141.0971  157.1303 C   0  0  0  0  0  0  0  0  0  0  0  0
  151.3190  142.1576  157.7437 O   0  0  0  0  0  0  0  0  0  0  0  0
  152.1685  141.8569  158.7855 C   0  0  0  0  0  0  0  0  0  0  0  0
  152.5195  142.7649  159.8162 C   0  0  0  0  0  0  0  0  0  0  0  0
  153.3951  142.3683  160.8455 C   0  0  0  0  0  0  0  0  0  0  0  0
  153.9300  141.0669  160.8576 C   0  0  0  0  0  0  0  0  0  0  0  0
  153.5913  140.1573  159.8369 C   0  0  0  0  0  0  0  0  0  0  0  0
  154.1658  138.7558  159.8520 C   0  0  0  0  0  0  0  0  0  0  0  0
  152.7135  140.5567  158.8081 C   0  0  0  0  0  0  0  0  0  0  0  0
  149.1189  134.2815  156.6715 H   0  0  0  0  0  0  0  0  0  0  0  0
  150.2515  132.9330  156.8143 H   0  0  0  0  0  0  0  0  0  0  0  0
  149.7517  133.4981  155.2155 H   0  0  0  0  0  0  0  0  0  0  0  0
  149.9610  136.2198  155.4201 H   0  0  0  0  0  0  0  0  0  0  0  0
  151.6929  137.7851  156.4475 H   0  0  0  0  0  0  0  0  0  0  0  0
  152.8851  136.7230  155.7457 H   0  0  0  0  0  0  0  0  0  0  0  0
  152.6802  138.4761  154.1315 H   0  0  0  0  0  0  0  0  0  0  0  0
  151.7172  137.1960  153.4470 H   0  0  0  0  0  0  0  0  0  0  0  0
  146.8451  139.2092  152.4468 H   0  0  0  0  0  0  0  0  0  0  0  0
  145.6780  141.3020  153.1609 H   0  0  0  0  0  0  0  0  0  0  0  0
  146.7347  142.8646  154.7511 H   0  0  0  0  0  0  0  0  0  0  0  0
  148.9936  142.4070  155.6964 H   0  0  0  0  0  0  0  0  0  0  0  0
  152.1699  140.0257  156.0656 H   0  0  0  0  0  0  0  0  0  0  0  0
  151.7194  141.5426  155.3336 H   0  0  0  0  0  0  0  0  0  0  0  0
  149.5844  141.4200  156.8918 H   0  0  0  0  0  0  0  0  0  0  0  0
  150.5312  140.2445  157.8081 H   0  0  0  0  0  0  0  0  0  0  0  0
  152.1313  143.7717  159.8397 H   0  0  0  0  0  0  0  0  0  0  0  0
  153.6569  143.0653  161.6279 H   0  0  0  0  0  0  0  0  0  0  0  0
  154.6005  140.7696  161.6508 H   0  0  0  0  0  0  0  0  0  0  0  0
  154.0432  138.2676  158.8846 H   0  0  0  0  0  0  0  0  0  0  0  0
  153.6628  138.1514  160.6071 H   0  0  0  0  0  0  0  0  0  0  0  0
  155.2306  138.7813  160.0854 H   0  0  0  0  0  0  0  0  0  0  0  0
  152.4505  139.8600  158.0255 H   0  0  0  0  0  0  0  0  0  0  0  0
  149.3241  137.8016  152.8808 H   0  0  0  0  0  0  0  0  0  0  0  0
  1  2  1  0  0  0  0
  1 26  1  0  0  0  0
  1 27  1  0  0  0  0
  1 28  1  0  0  0  0
  2  3  2  0  0  0  0
  2  4  1  0  0  0  0
  4  5  1  0  0  0  0
  4 29  1  0  0  0  0
  5  6  1  0  0  0  0
  5 30  1  0  0  0  0
  5 31  1  0  0  0  0
  6  7  1  0  0  0  0
  6 32  1  0  0  0  0
  6 33  1  0  0  0  0
  7 15  1  0  0  0  0
  7  8  2  0  0  0  0
  8  9  1  0  0  0  0
  8 49  1  0  0  0  0
  9 14  2  0  0  0  0
  9 10  1  0  0  0  0
 10 11  2  0  0  0  0
 10 34  1  0  0  0  0
 11 12  1  0  0  0  0
 11 35  1  0  0  0  0
 12 13  2  0  0  0  0
 12 36  1  0  0  0  0
 13 14  1  0  0  0  0
 13 37  1  0  0  0  0
 14 15  1  0  0  0  0
 15 16  1  0  0  0  0
 16 17  1  0  0  0  0
 16 38  1  0  0  0  0
 16 39  1  0  0  0  0
 17 18  1  0  0  0  0
 17 40  1  0  0  0  0
 17 41  1  0  0  0  0
 18 19  1  0  0  0  0
 19 25  1  0  0  0  0
 19 20  2  0  0  0  0
 20 21  1  0  0  0  0
 20 42  1  0  0  0  0
 21 22  2  0  0  0  0
 21 43  1  0  0  0  0
 22 23  1  0  0  0  0
 22 44  1  0  0  0  0
 23 24  1  0  0  0  0
 23 25  2  0  0  0  0
 24 45  1  0  0  0  0
 24 46  1  0  0  0  0
 24 47  1  0  0  0  0
 25 48  1  0  0  0  0
M  CHG  1   8   1
M  END
> <s_m_source_file>
AV-unprocessed.smi

> <i_m_source_file_index>
2961

> <i_lp_mmshare_version>
43012

> <i_f3d_flags>
0

> <s_epik_input>
W0NIM11DKD1PKVtOSF1bQ0gyXVtDSDJdYyhuMSluKGMoYzEyKVtjSF1bY0hdW2NIXVtjSF0yKVtDSDJdW0NIMl1PYzNbY0hdW2NIXVtjSF1jKFtDSDNdKVtjSF0z

> <s_epik_cmdline>
J2VwaWtfcHl0aG9uJywgJy1waCcsICc3LjAnLCAnLXRuJywgJzgnLCAnLW1hJywgJzIwMCcsICctbWV0YWxfYmluZGluZycsICctaW1hZScsICc8aW5maWxlLm1hZT4nLCAnLW9tYWUnLCAnPG91dGZpbGUubWFlPic=

> <r_lp_tautomer_probability>
1

> <r_epik_Ionization_Penalty>
1.11168

> <r_epik_Ionization_Penalty_Charging>
1.11168

> <r_epik_Ionization_Penalty_Neutral>
3.05925e-07

> <r_epik_State_Penalty>
1.16973

> <r_epik_Charging_Adjusted_Penalty>
2.28141

> <i_epik_Tot_Q>
1

> <i_epik_Tot_abs_Q>
1

> <r_epik_Metal_State_Penalty>
1.2554

> <b_epik_Metal_Only>
0

> <s_lp_Force_Field>
OPLS_2005

> <r_lp_Energy>
19.5135

> <b_lp_Chiralities_Consistent>
1

> <s_lp_Variant>
AV-unprocessed.smi:2961-2

> <Gold.Version>
5.8.1

> <Gold.Id.Protein>
6NUR|6NUR_protein|mol2

> <Gold.PLP.Fitness>
57.8089

> <Gold.PLP.PLP>
-51.0462

> <Gold.PLP.part.hbond>
-3.5650

> <Gold.PLP.part.metal>
0.0000

> <Gold.PLP.part.buried>
2.3559

> <Gold.PLP.part.nonpolar>
-49.3548

> <Gold.PLP.part.repulsive>
0.2612

> <Gold.PLP.ligand.clash>
0.0000

> <Gold.PLP.ligand.torsion>
1.1783

> <Gold.PLP.Chemscore.Hbond>
2.9920

> <Gold.PLP.Chemscore.CHOScore>
0.0000

> <Gold.PLP.Chemscore.Metal>
0.0000

> <Gold.Chemscore.Hbonds>
donor molecule, donor type, donor heavy atom, donor atom, acceptor molecule, acceptor atom, score
      L1  H     8    49       P1  7948  2.00
      P1  H 10752 10763       L1     3  0.70

> <Gold.PLP.Chemscore.Internal.Correction>
0.1432

> <Gold.Rescore>
     Score         DG    S(hbond)    S(metal)    S(lipo)     H(rot)  DE(clash)    DE(int)     intcor
     18.37     -20.04       1.45        0.00     130.70       2.18       0.56       1.10       ----

> <Gold.Chemscore.Fitness>
18.3727

> <Gold.Chemscore.DG>
-20.0393

> <Gold.Chemscore.ZeroCoef>
-5.4800

> <Gold.Chemscore.Hbond>
1.4511

> <Gold.Chemscore.Metal>
0.0000

> <Gold.Chemscore.Lipo>
130.6994

> <Gold.Chemscore.Internal_Hbond>
0.0000

> <Gold.Chemscore.DEClash>
0.5626

> <Gold.Chemscore.DEInternal>
1.1040

> <Gold.Chemscore.Rot>
2.1793

> <Gold.Chemscore.Internal.Correction>
   9.000000E+99

> <Gold.Chemscore.Hbonds>
donor molecule, donor type, donor heavy atom, donor atom, acceptor molecule, acceptor atom, score
      L1  H     8    49       P1  7948  0.94
      P1  H 10752 10763       L1     3  0.30

> <Gold.Chemscore.Hbond.Weighted>
-4.8466

> <Gold.Chemscore.Metal.Weighted>
-0.0000

> <Gold.Chemscore.Lipo.Weighted>
-15.2918

> <Gold.Chemscore.Internal_Hbond.Weighted>
0.0000

> <Gold.Chemscore.DEClash.Weighted>
0.5626

> <Gold.Chemscore.DEInternal.Weighted>
1.1040

> <Gold.Chemscore.Rot.Weighted>
5.5791

> <Gold.Chemscore.Internal.Correction.Weighted>
   9.000000E+99

> <Gold.Protein.RotatedTorsions>
[ 6907 6896 6895 6894 ] final -145.00 input  -60.11 | X-H torsion
[ 7974 7965 7964 7962 ] final   74.69 input  175.53 | X-H torsion
[ 8008 7997 7996 7995 ] final -161.43 input   59.86 | X-H torsion
[ 10167 10162 10161 10158 ] final   77.27 input  -65.29 | X-H torsion
[ 10718 10713 10712 10709 ] final  -66.74 input   66.30 | X-H torsion
[ 10763 10752 10751 10750 ] final  118.85 input  -60.55 | X-H torsion
[ 11005 11000 10999 10996 ] final  -70.11 input  -57.11 | X-H torsion

> <Gold.Protein.ActiveResidues>
 VAL166  LYS551  ARG553  GLY616  TRP617  ASP618  TYR619  PRO620  LYS621  CYS622 
 ASP623  PHE694  ASN695  SER759  ASP760  ASP761  ALA762  ILE779  LEU786  VAL792 
 PHE793  MET794  SER795  GLU796  ALA797  LYS798  CYS799  TRP800  GLU811  SER814 

> <Gold.Protein.RotatedAtoms>
  151.1217  133.5099  159.2601 H   0  0  0  0  0  0  0  0  0  0  0  0  # atno 6907 bound_to 6896
  151.1854  135.0379  159.8820 H   0  0  0  0  0  0  0  0  0  0  0  0  # atno 6908 bound_to 6896
  152.5456  134.1064  159.8393 H   0  0  0  0  0  0  0  0  0  0  0  0  # atno 6909 bound_to 6896
  145.7251  139.2663  143.1573 H   0  0  0  0  0  0  0  0  0  0  0  0  # atno 7974 bound_to 7965
  155.7921  140.0880  157.2003 H   0  0  0  0  0  0  0  0  0  0  0  0  # atno 8008 bound_to 7997
  154.3985  140.1488  156.3233 H   0  0  0  0  0  0  0  0  0  0  0  0  # atno 8009 bound_to 7997
  155.8548  140.3433  155.5720 H   0  0  0  0  0  0  0  0  0  0  0  0  # atno 8010 bound_to 7997
  139.9834  144.5810  150.7881 H   0  0  0  0  0  0  0  0  0  0  0  0  # atno 10167 bound_to 10162
  156.0595  130.4267  150.1753 H   0  0  0  0  0  0  0  0  0  0  0  0  # atno 10718 bound_to 10713
  153.5739  135.3497  155.2848 H   0  0  0  0  0  0  0  0  0  0  0  0  # atno 10763 bound_to 10752
  154.8678  135.4166  154.2694 H   0  0  0  0  0  0  0  0  0  0  0  0  # atno 10764 bound_to 10752
  153.3466  135.7053  153.6893 H   0  0  0  0  0  0  0  0  0  0  0  0  # atno 10765 bound_to 10752
  141.1568  133.6781  156.6703 H   0  0  0  0  0  0  0  0  0  0  0  0  # atno 11005 bound_to 11000
  146.0589  140.7991  142.9744 LP  0  0  0  0  0  0  0  0  0  0  0  0  # atno 17320 bound_to 7965
  144.6907  140.3167  143.7239 LP  0  0  0  0  0  0  0  0  0  0  0  0  # atno 17321 bound_to 7965
  140.7481  143.2917  151.3314 LP  0  0  0  0  0  0  0  0  0  0  0  0  # atno 17342 bound_to 10162
  139.6393  144.0570  152.2541 LP  0  0  0  0  0  0  0  0  0  0  0  0  # atno 17343 bound_to 10162
  156.9823  130.9868  151.3434 LP  0  0  0  0  0  0  0  0  0  0  0  0  # atno 17370 bound_to 10713
  157.5593  130.8235  149.8245 LP  0  0  0  0  0  0  0  0  0  0  0  0  # atno 17371 bound_to 10713
  140.3180  134.8031  157.4230 LP  0  0  0  0  0  0  0  0  0  0  0  0  # atno 17394 bound_to 11000
  140.1121  134.5331  155.8257 LP  0  0  0  0  0  0  0  0  0  0  0  0  # atno 17395 bound_to 11000

$$$$
