AV-unprocessed.smi:2799|AV-procd|sdf|10792|dock8
  -GOLD-   2272015223D 1   1.00000     0.00000
 Structure written by MMmdl.
 52 53  0  0  0  0  0  0  0  0  2 V2000
  143.9428  137.2102  152.3662 C   0  0  0  0  0  0  0  0  0  0  0  0
  142.6099  136.4538  152.4763 C   0  0  0  0  0  0  0  0  0  0  0  0
  141.4921  137.4062  152.9342 C   0  0  0  0  0  0  0  0  0  0  0  0
  142.7582  135.2370  153.4213 C   0  0  0  0  0  0  0  0  0  0  0  0
  143.4988  134.0795  152.8318 N   0  3  1  0  0  0  0  0  0  0  0  0
  142.8048  133.5462  151.6219 C   0  0  0  0  0  0  0  0  0  0  0  0
  143.4617  132.2660  151.0912 C   0  0  0  0  0  0  0  0  0  0  0  0
  144.9300  132.5182  150.7622 C   0  0  0  0  0  0  0  0  0  0  0  0
  145.6378  133.0641  152.0027 C   0  0  0  0  0  0  0  0  0  0  0  0
  144.9552  134.3413  152.5593 C   0  0  2  0  0  0  0  0  0  0  0  0
  145.7377  134.8566  153.8030 C   0  0  0  0  0  0  0  0  0  0  0  0
  146.6786  135.9288  153.4876 N   0  0  0  0  0  0  0  0  0  0  0  0
  146.6290  137.1693  153.9941 C   0  0  0  0  0  0  0  0  0  0  0  0
  145.7723  137.5298  154.8006 O   0  0  0  0  0  0  0  0  0  0  0  0
  147.6274  137.9277  153.5051 N   0  0  0  0  0  0  0  0  0  0  0  0
  147.9250  139.2823  153.7392 C   0  0  0  0  0  0  0  0  0  0  0  0
  147.2187  140.3295  153.2427 C   0  0  0  0  0  0  0  0  0  0  0  0
  147.6073  141.6894  153.5300 C   0  0  0  0  0  0  0  0  0  0  0  0
  148.6894  141.8957  154.2933 C   0  0  0  0  0  0  0  0  0  0  0  0
  149.4410  140.8273  154.8107 N   0  0  0  0  0  0  0  0  0  0  0  0
  150.6073  141.1554  155.6345 C   0  0  0  0  0  0  0  0  0  0  0  0
  149.1179  139.5207  154.5758 C   0  0  0  0  0  0  0  0  0  0  0  0
  149.7953  138.6020  155.0437 O   0  0  0  0  0  0  0  0  0  0  0  0
  144.2542  137.6129  153.3308 H   0  0  0  0  0  0  0  0  0  0  0  0
  143.8655  138.0442  151.6680 H   0  0  0  0  0  0  0  0  0  0  0  0
  144.7378  136.5559  152.0068 H   0  0  0  0  0  0  0  0  0  0  0  0
  142.3771  136.1166  151.4680 H   0  0  0  0  0  0  0  0  0  0  0  0
  141.6810  137.7862  153.9387 H   0  0  0  0  0  0  0  0  0  0  0  0
  140.5213  136.9103  152.9429 H   0  0  0  0  0  0  0  0  0  0  0  0
  141.4104  138.2638  152.2656 H   0  0  0  0  0  0  0  0  0  0  0  0
  143.2462  135.5341  154.3510 H   0  0  0  0  0  0  0  0  0  0  0  0
  141.7433  134.9579  153.6866 H   0  0  0  0  0  0  0  0  0  0  0  0
  141.7669  133.3048  151.8393 H   0  0  0  0  0  0  0  0  0  0  0  0
  142.7922  134.3108  150.8434 H   0  0  0  0  0  0  0  0  0  0  0  0
  143.3772  131.4708  151.8332 H   0  0  0  0  0  0  0  0  0  0  0  0
  142.9361  131.9181  150.2014 H   0  0  0  0  0  0  0  0  0  0  0  0
  145.4073  131.5959  150.4294 H   0  0  0  0  0  0  0  0  0  0  0  0
  145.0140  133.2309  149.9407 H   0  0  0  0  0  0  0  0  0  0  0  0
  145.6608  132.2944  152.7757 H   0  0  0  0  0  0  0  0  0  0  0  0
  146.6764  133.2607  151.7369 H   0  0  0  0  0  0  0  0  0  0  0  0
  144.9988  135.1120  151.7878 H   0  0  0  0  0  0  0  0  0  0  0  0
  145.0785  135.2551  154.5722 H   0  0  0  0  0  0  0  0  0  0  0  0
  146.2959  134.0390  154.2598 H   0  0  0  0  0  0  0  0  0  0  0  0
  147.4177  135.7107  152.8350 H   0  0  0  0  0  0  0  0  0  0  0  0
  148.2793  137.4626  152.8898 H   0  0  0  0  0  0  0  0  0  0  0  0
  146.3569  140.1921  152.6111 H   0  0  0  0  0  0  0  0  0  0  0  0
  147.0396  142.5209  153.1391 H   0  0  0  0  0  0  0  0  0  0  0  0
  149.0435  142.8827  154.5528 H   0  0  0  0  0  0  0  0  0  0  0  0
  151.5089  140.6941  155.2287 H   0  0  0  0  0  0  0  0  0  0  0  0
  150.4674  140.7912  156.6532 H   0  0  0  0  0  0  0  0  0  0  0  0
  150.7933  142.2283  155.6939 H   0  0  0  0  0  0  0  0  0  0  0  0
  143.4737  133.3470  153.5268 H   0  0  0  0  0  0  0  0  0  0  0  0
  1  2  1  0  0  0  0
  1 24  1  0  0  0  0
  1 25  1  0  0  0  0
  1 26  1  0  0  0  0
  2  3  1  0  0  0  0
  2  4  1  0  0  0  0
  2 27  1  0  0  0  0
  3 28  1  0  0  0  0
  3 29  1  0  0  0  0
  3 30  1  0  0  0  0
  4  5  1  0  0  0  0
  4 31  1  0  0  0  0
  4 32  1  0  0  0  0
  5 10  1  0  0  0  0
  5  6  1  0  0  0  0
  5 52  1  0  0  0  0
  6  7  1  0  0  0  0
  6 33  1  0  0  0  0
  6 34  1  0  0  0  0
  7  8  1  0  0  0  0
  7 35  1  0  0  0  0
  7 36  1  0  0  0  0
  8  9  1  0  0  0  0
  8 37  1  0  0  0  0
  8 38  1  0  0  0  0
  9 10  1  0  0  0  0
  9 39  1  0  0  0  0
  9 40  1  0  0  0  0
 10 11  1  0  0  0  0
 10 41  1  0  0  0  0
 11 12  1  0  0  0  0
 11 42  1  0  0  0  0
 11 43  1  0  0  0  0
 12 13  1  0  0  0  0
 12 44  1  0  0  0  0
 13 14  2  0  0  0  0
 13 15  1  0  0  0  0
 15 16  1  0  0  0  0
 15 45  1  0  0  0  0
 16 22  1  0  0  0  0
 16 17  2  0  0  0  0
 17 18  1  0  0  0  0
 17 46  1  0  0  0  0
 18 19  2  0  0  0  0
 18 47  1  0  0  0  0
 19 20  1  0  0  0  0
 19 48  1  0  0  0  0
 20 21  1  0  0  0  0
 20 22  1  0  0  0  0
 21 49  1  0  0  0  0
 21 50  1  0  0  0  0
 21 51  1  0  0  0  0
 22 23  2  0  0  0  0
M  CHG  1   5   1
M  END
> <s_m_source_file>
AV-unprocessed.smi

> <i_m_source_file_index>
2799

> <i_lp_mmshare_version>
43012

> <i_f3d_flags>
0

> <s_epik_input>
W0NIM11bQ0hdKFtDSDNdKVtDSDJdTjFbQ0gyXVtDSDJdW0NIMl1bQ0gyXVtDQEhdMVtDSDJdW05IXUMoPU8pW05IXWMyW2NIXVtjSF1bY0hdbihbQ0gzXSljMj1P

> <s_epik_cmdline>
J2VwaWtfcHl0aG9uJywgJy1waCcsICc3LjAnLCAnLXRuJywgJzgnLCAnLW1hJywgJzIwMCcsICctbWV0YWxfYmluZGluZycsICctaW1hZScsICc8aW5maWxlLm1hZT4nLCAnLW9tYWUnLCAnPG91dGZpbGUubWFlPic=

> <r_lp_tautomer_probability>
1

> <r_epik_Ionization_Penalty>
0.0010885

> <r_epik_Ionization_Penalty_Charging>
0.00106921

> <r_epik_Ionization_Penalty_Neutral>
1.92865e-05

> <r_epik_State_Penalty>
0.000697184

> <r_epik_Charging_Adjusted_Penalty>
0.0017664

> <i_epik_Tot_Q>
1

> <i_epik_Tot_abs_Q>
1

> <r_epik_Metal_State_Penalty>
-0

> <b_epik_Metal_Only>
0

> <s_lp_Force_Field>
OPLS_2005

> <r_lp_Energy>
36.993

> <b_lp_Chiralities_Consistent>
1

> <s_lp_Variant>
AV-unprocessed.smi:2799-4

> <Gold.Version>
5.8.1

> <Gold.Id.Protein>
6NUR|6NUR_protein|mol2

> <Gold.PLP.Fitness>
48.5532

> <Gold.PLP.PLP>
-37.3080

> <Gold.PLP.part.hbond>
-3.0000

> <Gold.PLP.part.metal>
0.0000

> <Gold.PLP.part.buried>
-3.6939

> <Gold.PLP.part.nonpolar>
-32.8427

> <Gold.PLP.part.repulsive>
0.1502

> <Gold.PLP.ligand.clash>
0.0000

> <Gold.PLP.ligand.torsion>
1.3784

> <Gold.PLP.Chemscore.Hbond>
3.6362

> <Gold.PLP.Chemscore.CHOScore>
1.0000

> <Gold.PLP.Chemscore.Metal>
0.0000

> <Gold.Chemscore.Hbonds>
donor molecule, donor type, donor heavy atom, donor atom, acceptor molecule, acceptor atom, score
      L1  H     5    52       P1 10957  1.30
      L1  H    12    44       P1  7948  1.00
      L1  H    15    45       P1  7948  1.00
      L1  C    19    48       P1  8028  1.00

> <Gold.PLP.Chemscore.Internal.Correction>
0.0932

> <Gold.Rescore>
     Score         DG    S(hbond)    S(metal)    S(lipo)     H(rot)  DE(clash)    DE(int)     intcor
     19.07     -20.56       2.85        0.00      81.96       1.57       0.03       1.47       ----

> <Gold.Chemscore.Fitness>
19.0695

> <Gold.Chemscore.DG>
-20.5644

> <Gold.Chemscore.ZeroCoef>
-5.4800

> <Gold.Chemscore.Hbond>
2.8476

> <Gold.Chemscore.Metal>
0.0000

> <Gold.Chemscore.Lipo>
81.9616

> <Gold.Chemscore.Internal_Hbond>
0.0000

> <Gold.Chemscore.DEClash>
0.0261

> <Gold.Chemscore.DEInternal>
1.4688

> <Gold.Chemscore.Rot>
1.5688

> <Gold.Chemscore.Internal.Correction>
   9.000000E+99

> <Gold.Chemscore.Hbonds>
donor molecule, donor type, donor heavy atom, donor atom, acceptor molecule, acceptor atom, score
      L1  H     5    52       P1 10957  0.63
      L1  H    12    44       P1  7948  0.95
      L1  H    15    45       P1  7948  1.00

> <Gold.Chemscore.Hbond.Weighted>
-9.5110

> <Gold.Chemscore.Metal.Weighted>
-0.0000

> <Gold.Chemscore.Lipo.Weighted>
-9.5895

> <Gold.Chemscore.Internal_Hbond.Weighted>
0.0000

> <Gold.Chemscore.DEClash.Weighted>
0.0261

> <Gold.Chemscore.DEInternal.Weighted>
1.4688

> <Gold.Chemscore.Rot.Weighted>
4.0161

> <Gold.Chemscore.Internal.Correction.Weighted>
   9.000000E+99

> <Gold.Protein.RotatedTorsions>
[ 6907 6896 6895 6894 ] final -171.76 input  -60.11 | X-H torsion
[ 7974 7965 7964 7962 ] final  111.56 input  175.53 | X-H torsion
[ 8008 7997 7996 7995 ] final -117.18 input   59.86 | X-H torsion
[ 10167 10162 10161 10158 ] final -167.36 input  -65.29 | X-H torsion
[ 10718 10713 10712 10709 ] final   14.25 input   66.30 | X-H torsion
[ 10763 10752 10751 10750 ] final  -43.90 input  -60.55 | X-H torsion
[ 11005 11000 10999 10996 ] final  -45.99 input  -57.11 | X-H torsion

> <Gold.Protein.ActiveResidues>
 VAL166  LYS551  ARG553  GLY616  TRP617  ASP618  TYR619  PRO620  LYS621  CYS622 
 ASP623  PHE694  ASN695  SER759  ASP760  ASP761  ALA762  ILE779  LEU786  VAL792 
 PHE793  MET794  SER795  GLU796  ALA797  LYS798  CYS799  TRP800  GLU811  SER814 

> <Gold.Protein.RotatedAtoms>
  151.5291  133.3452  159.2914 H   0  0  0  0  0  0  0  0  0  0  0  0  # atno 6907 bound_to 6896
  150.8605  134.7958  159.7090 H   0  0  0  0  0  0  0  0  0  0  0  0  # atno 6908 bound_to 6896
  152.4626  134.5159  159.9819 H   0  0  0  0  0  0  0  0  0  0  0  0  # atno 6909 bound_to 6896
  145.2407  139.2780  143.4119 H   0  0  0  0  0  0  0  0  0  0  0  0  # atno 7974 bound_to 7965
  155.0796  140.0394  157.2635 H   0  0  0  0  0  0  0  0  0  0  0  0  # atno 8008 bound_to 7997
  154.6917  140.2655  155.6781 H   0  0  0  0  0  0  0  0  0  0  0  0  # atno 8009 bound_to 7997
  156.2731  140.2758  156.1498 H   0  0  0  0  0  0  0  0  0  0  0  0  # atno 8010 bound_to 7997
  139.6054  144.0923  152.1787 H   0  0  0  0  0  0  0  0  0  0  0  0  # atno 10167 bound_to 10162
  157.0364  130.6213  149.5743 H   0  0  0  0  0  0  0  0  0  0  0  0  # atno 10718 bound_to 10713
  154.0031  135.6691  153.4760 H   0  0  0  0  0  0  0  0  0  0  0  0  # atno 10763 bound_to 10752
  153.0653  135.5004  154.8183 H   0  0  0  0  0  0  0  0  0  0  0  0  # atno 10764 bound_to 10752
  154.7041  135.3084  154.9261 H   0  0  0  0  0  0  0  0  0  0  0  0  # atno 10765 bound_to 10752
  141.0551  133.6729  156.3092 H   0  0  0  0  0  0  0  0  0  0  0  0  # atno 11005 bound_to 11000
  146.3329  140.2769  142.8608 LP  0  0  0  0  0  0  0  0  0  0  0  0  # atno 17320 bound_to 7965
  144.9592  140.8258  143.5524 LP  0  0  0  0  0  0  0  0  0  0  0  0  # atno 17321 bound_to 7965
  140.0529  144.5918  150.7322 LP  0  0  0  0  0  0  0  0  0  0  0  0  # atno 17342 bound_to 10162
  140.7281  143.2658  151.4049 LP  0  0  0  0  0  0  0  0  0  0  0  0  # atno 17343 bound_to 10162
  156.0052  130.5138  150.7805 LP  0  0  0  0  0  0  0  0  0  0  0  0  # atno 17370 bound_to 10713
  157.5138  131.0927  151.0165 LP  0  0  0  0  0  0  0  0  0  0  0  0  # atno 17371 bound_to 10713
  140.5980  134.5583  157.5512 LP  0  0  0  0  0  0  0  0  0  0  0  0  # atno 17394 bound_to 11000
  139.9383  134.7834  156.0745 LP  0  0  0  0  0  0  0  0  0  0  0  0  # atno 17395 bound_to 11000

$$$$
