AV-unprocessed.smi:48|AV-procd|sdf|455|dock6
  -GOLD-   2262016323D 1   1.00000     0.00000
 Structure written by MMmdl.
 30 32  0  0  0  0  0  0  0  0  1 V2000
  147.3635  142.3482  155.9815 O   0  0  0  0  0  0  0  0  0  0  0  0
  147.6304  141.6708  154.7723 C   0  0  0  0  0  0  0  0  0  0  0  0
  149.1063  141.2374  154.7235 C   0  0  1  0  0  0  0  0  0  0  0  0
  149.8808  141.9574  155.6712 O   0  0  0  0  0  0  0  0  0  0  0  0
  151.0719  141.2727  155.8951 C   0  0  1  0  0  0  0  0  0  0  0  0
  151.4516  141.4545  157.3279 N   0  0  0  0  0  0  0  0  0  0  0  0
  151.6547  140.4879  158.2458 C   0  0  0  0  0  0  0  0  0  0  0  0
  151.9825  140.8710  159.4790 N   0  0  0  0  0  0  0  0  0  0  0  0
  151.9957  142.2496  159.3452 C   0  0  0  0  0  0  0  0  0  0  0  0
  152.2647  143.2991  160.2572 C   0  0  0  0  0  0  0  0  0  0  0  0
  152.6720  142.9654  161.9005 Cl  0  0  0  0  0  0  0  0  0  0  0  0
  152.1948  144.5759  159.8109 N   0  0  0  0  0  0  0  0  0  0  0  0
  151.8772  144.8061  158.5311 C   0  0  0  0  0  0  0  0  0  0  0  0
  151.6004  143.9258  157.5627 N   0  0  0  0  0  0  0  0  0  0  0  0
  151.6696  142.6386  158.0144 C   0  0  0  0  0  0  0  0  0  0  0  0
  150.8306  139.7876  155.5730 C   0  0  2  0  0  0  0  0  0  0  0  0
  151.6814  139.3507  154.5324 O   0  0  0  0  0  0  0  0  0  0  0  0
  149.3825  139.7704  155.0880 C   0  0  1  0  0  0  0  0  0  0  0  0
  148.5237  139.3158  156.1170 O   0  0  0  0  0  0  0  0  0  0  0  0
  149.5202  141.4220  153.7303 H   0  0  0  0  0  0  0  0  0  0  0  0
  151.8863  141.7217  155.3238 H   0  0  0  0  0  0  0  0  0  0  0  0
  150.9865  139.1577  156.4507 H   0  0  0  0  0  0  0  0  0  0  0  0
  149.2351  139.1148  154.2284 H   0  0  0  0  0  0  0  0  0  0  0  0
  148.0396  142.9940  156.1200 H   0  0  0  0  0  0  0  0  0  0  0  0
  146.9611  140.8166  154.6619 H   0  0  0  0  0  0  0  0  0  0  0  0
  147.4142  142.3632  153.9583 H   0  0  0  0  0  0  0  0  0  0  0  0
  151.5519  139.4420  157.9950 H   0  0  0  0  0  0  0  0  0  0  0  0
  151.8387  145.8455  158.2403 H   0  0  0  0  0  0  0  0  0  0  0  0
  151.3077  138.5725  154.1476 H   0  0  0  0  0  0  0  0  0  0  0  0
  147.8309  139.9478  156.2324 H   0  0  0  0  0  0  0  0  0  0  0  0
  1  2  1  0  0  0  0
  1 24  1  0  0  0  0
  2  3  1  0  0  0  0
  2 25  1  0  0  0  0
  2 26  1  0  0  0  0
  3 20  1  0  0  0  0
  3 18  1  0  0  0  0
  3  4  1  0  0  0  0
  4  5  1  0  0  0  0
  5 21  1  0  0  0  0
  5  6  1  0  0  0  0
  5 16  1  0  0  0  0
  6 15  1  0  0  0  0
  6  7  1  0  0  0  0
  7  8  2  0  0  0  0
  7 27  1  0  0  0  0
  8  9  1  0  0  0  0
  9 15  2  0  0  0  0
  9 10  1  0  0  0  0
 10 11  1  0  0  0  0
 10 12  2  0  0  0  0
 12 13  1  0  0  0  0
 13 14  2  0  0  0  0
 13 28  1  0  0  0  0
 14 15  1  0  0  0  0
 16 22  1  0  0  0  0
 16 17  1  0  0  0  0
 16 18  1  0  0  0  0
 17 29  1  0  0  0  0
 18 23  1  0  0  0  0
 18 19  1  0  0  0  0
 19 30  1  0  0  0  0
M  END
> <s_m_source_file>
AV-unprocessed.smi

> <i_m_source_file_index>
48

> <i_lp_mmshare_version>
43012

> <i_f3d_flags>
0

> <s_epik_input>
W09IXVtDSDJdW0NASF0xT1tDQEhdKFtDQEhdKFtPSF0pW0NAQEhdMVtPSF0pbihbY0hdbjIpYyhjMjMpbltjSF1uYzNDbA==

> <s_epik_cmdline>
J2VwaWtfcHl0aG9uJywgJy1waCcsICc3LjAnLCAnLXRuJywgJzgnLCAnLW1hJywgJzIwMCcsICctbWV0YWxfYmluZGluZycsICctaW1hZScsICc8aW5maWxlLm1hZT4nLCAnLW9tYWUnLCAnPG91dGZpbGUubWFlPic=

> <r_lp_tautomer_probability>
1

> <r_epik_Ionization_Penalty>
3.45505e-06

> <r_epik_Ionization_Penalty_Charging>
0

> <r_epik_Ionization_Penalty_Neutral>
3.45505e-06

> <r_epik_State_Penalty>
-0

> <r_epik_Charging_Adjusted_Penalty>
0

> <i_epik_Tot_Q>
0

> <i_epik_Tot_abs_Q>
0

> <r_epik_Metal_State_Penalty>
-0

> <b_epik_Metal_Only>
0

> <s_epik_Chemistry_Notes>
This compound contains an acetal/aminal-like group ( X-CH(R)-Y where X, Y are N, S, or O) that may be acid/base labile, releasing an aldehyde.

> <s_lp_Force_Field>
OPLS_2005

> <r_lp_Energy>
33.2991

> <b_lp_Chiralities_Consistent>
1

> <s_lp_Variant>
AV-unprocessed.smi:48-9

> <Gold.Version>
5.8.1

> <Gold.Id.Protein>
6NUR|6NUR_protein|mol2

> <Gold.PLP.Fitness>
41.9546

> <Gold.PLP.PLP>
-37.2211

> <Gold.PLP.part.hbond>
-2.0000

> <Gold.PLP.part.metal>
0.0000

> <Gold.PLP.part.buried>
-6.4774

> <Gold.PLP.part.nonpolar>
-29.8476

> <Gold.PLP.part.repulsive>
1.5603

> <Gold.PLP.ligand.clash>
0.0000

> <Gold.PLP.ligand.torsion>
0.6001

> <Gold.PLP.Chemscore.Hbond>
1.9760

> <Gold.PLP.Chemscore.CHOScore>
0.0000

> <Gold.PLP.Chemscore.Metal>
0.0000

> <Gold.Chemscore.Hbonds>
donor molecule, donor type, donor heavy atom, donor atom, acceptor molecule, acceptor atom, score
      L1  H     1    24       P1  8028  0.99
      P1  H  7989  7998       L1    17  0.95

> <Gold.PLP.Chemscore.Internal.Correction>
0.0057

> <Gold.Rescore>
     Score         DG    S(hbond)    S(metal)    S(lipo)     H(rot)  DE(clash)    DE(int)     intcor
      4.84      -5.63       0.89        0.00      59.02       3.80       0.12       0.67       ----

> <Gold.Chemscore.Fitness>
4.8382

> <Gold.Chemscore.DG>
-5.6341

> <Gold.Chemscore.ZeroCoef>
-5.4800

> <Gold.Chemscore.Hbond>
0.8925

> <Gold.Chemscore.Metal>
0.0000

> <Gold.Chemscore.Lipo>
59.0224

> <Gold.Chemscore.Internal_Hbond>
0.0000

> <Gold.Chemscore.DEClash>
0.1212

> <Gold.Chemscore.DEInternal>
0.6748

> <Gold.Chemscore.Rot>
3.8017

> <Gold.Chemscore.Internal.Correction>
   9.000000E+99

> <Gold.Chemscore.Hbonds>
donor molecule, donor type, donor heavy atom, donor atom, acceptor molecule, acceptor atom, score
      L1  H     1    24       P1  8028  0.56
      P1  H  7989  7998       L1    17  0.19

> <Gold.Chemscore.Hbond.Weighted>
-2.9809

> <Gold.Chemscore.Metal.Weighted>
-0.0000

> <Gold.Chemscore.Lipo.Weighted>
-6.9056

> <Gold.Chemscore.Internal_Hbond.Weighted>
0.0000

> <Gold.Chemscore.DEClash.Weighted>
0.1212

> <Gold.Chemscore.DEInternal.Weighted>
0.6748

> <Gold.Chemscore.Rot.Weighted>
9.7324

> <Gold.Chemscore.Internal.Correction.Weighted>
   9.000000E+99

> <Gold.Protein.RotatedTorsions>
[ 6907 6896 6895 6894 ] final  -85.07 input  -60.11 | X-H torsion
[ 7974 7965 7964 7962 ] final  142.71 input  175.53 | X-H torsion
[ 8008 7997 7996 7995 ] final  -66.60 input   59.86 | X-H torsion
[ 10167 10162 10161 10158 ] final  -36.09 input  -65.29 | X-H torsion
[ 10718 10713 10712 10709 ] final -175.60 input   66.30 | X-H torsion
[ 10763 10752 10751 10750 ] final   78.59 input  -60.55 | X-H torsion
[ 11005 11000 10999 10996 ] final  -88.67 input  -57.11 | X-H torsion

> <Gold.Protein.ActiveResidues>
 VAL166  LYS551  ARG553  GLY616  TRP617  ASP618  TYR619  PRO620  LYS621  CYS622 
 ASP623  PHE694  ASN695  SER759  ASP760  ASP761  ALA762  ILE779  LEU786  VAL792 
 PHE793  MET794  SER795  GLU796  ALA797  LYS798  CYS799  TRP800  GLU811  SER814 

> <Gold.Protein.RotatedAtoms>
  150.6872  134.3262  159.4807 H   0  0  0  0  0  0  0  0  0  0  0  0  # atno 6907 bound_to 6896
  152.1132  134.9257  160.0575 H   0  0  0  0  0  0  0  0  0  0  0  0  # atno 6908 bound_to 6896
  152.0491  133.3976  159.4406 H   0  0  0  0  0  0  0  0  0  0  0  0  # atno 6909 bound_to 6896
  144.8984  139.5458  143.5765 H   0  0  0  0  0  0  0  0  0  0  0  0  # atno 7974 bound_to 7965
  154.4745  140.0909  156.7227 H   0  0  0  0  0  0  0  0  0  0  0  0  # atno 8008 bound_to 7997
  155.4634  140.3462  155.4297 H   0  0  0  0  0  0  0  0  0  0  0  0  # atno 8009 bound_to 7997
  156.1094  140.1443  156.9348 H   0  0  0  0  0  0  0  0  0  0  0  0  # atno 8010 bound_to 7997
  140.7150  143.3433  151.2311 H   0  0  0  0  0  0  0  0  0  0  0  0  # atno 10167 bound_to 10162
  156.8023  130.9556  151.3118 H   0  0  0  0  0  0  0  0  0  0  0  0  # atno 10718 bound_to 10713
  153.0886  135.4871  154.8645 H   0  0  0  0  0  0  0  0  0  0  0  0  # atno 10763 bound_to 10752
  154.7241  135.3046  154.9001 H   0  0  0  0  0  0  0  0  0  0  0  0  # atno 10764 bound_to 10752
  153.9657  135.6807  153.4799 H   0  0  0  0  0  0  0  0  0  0  0  0  # atno 10765 bound_to 10752
  141.1598  133.7584  156.9485 H   0  0  0  0  0  0  0  0  0  0  0  0  # atno 11005 bound_to 11000
  146.3094  139.7694  142.9031 LP  0  0  0  0  0  0  0  0  0  0  0  0  # atno 17320 bound_to 7965
  145.3660  141.0334  143.3258 LP  0  0  0  0  0  0  0  0  0  0  0  0  # atno 17321 bound_to 7965
  139.6945  143.9635  152.2876 LP  0  0  0  0  0  0  0  0  0  0  0  0  # atno 17342 bound_to 10162
  139.9308  144.6742  150.8365 LP  0  0  0  0  0  0  0  0  0  0  0  0  # atno 17343 bound_to 10162
  157.6548  130.8915  149.9705 LP  0  0  0  0  0  0  0  0  0  0  0  0  # atno 17370 bound_to 10713
  156.1094  130.3651  150.0076 LP  0  0  0  0  0  0  0  0  0  0  0  0  # atno 17371 bound_to 10713
  140.1273  134.9378  157.2288 LP  0  0  0  0  0  0  0  0  0  0  0  0  # atno 17394 bound_to 11000
  140.2996  134.3147  155.7293 LP  0  0  0  0  0  0  0  0  0  0  0  0  # atno 17395 bound_to 11000

$$$$
