AV-unprocessed.smi:48|AV-procd|sdf|447|dock5
  -GOLD-   2262016313D 1   1.00000     0.00000
 Structure written by MMmdl.
 30 32  0  0  0  0  0  0  0  0  1 V2000
  146.5073  143.1648  155.0539 O   0  0  0  0  0  0  0  0  0  0  0  0
  146.2798  142.5968  153.7818 C   0  0  0  0  0  0  0  0  0  0  0  0
  147.3231  141.5057  153.4971 C   0  0  1  0  0  0  0  0  0  0  0  0
  148.5663  141.8625  154.0889 O   0  0  0  0  0  0  0  0  0  0  0  0
  149.3346  140.7160  154.2830 C   0  0  1  0  0  0  0  0  0  0  0  0
  150.0287  140.8479  155.5992 N   0  0  0  0  0  0  0  0  0  0  0  0
  149.7348  141.7044  156.5987 C   0  0  0  0  0  0  0  0  0  0  0  0
  150.4857  141.6466  157.6978 N   0  0  0  0  0  0  0  0  0  0  0  0
  151.3656  140.6259  157.3777 C   0  0  0  0  0  0  0  0  0  0  0  0
  152.4380  140.0272  158.0823 C   0  0  0  0  0  0  0  0  0  0  0  0
  152.8681  140.5604  159.6661 Cl  0  0  0  0  0  0  0  0  0  0  0  0
  153.1223  139.0231  157.4840 N   0  0  0  0  0  0  0  0  0  0  0  0
  152.7675  138.6294  156.2548 C   0  0  0  0  0  0  0  0  0  0  0  0
  151.7882  139.0973  155.4725 N   0  0  0  0  0  0  0  0  0  0  0  0
  151.0996  140.1099  156.0774 C   0  0  0  0  0  0  0  0  0  0  0  0
  148.3861  139.5045  154.2729 C   0  0  2  0  0  0  0  0  0  0  0  0
  148.6545  138.6657  153.1640 O   0  0  0  0  0  0  0  0  0  0  0  0
  147.0139  140.1713  154.1774 C   0  0  2  0  0  0  0  0  0  0  0  0
  146.0574  139.4015  153.4726 O   0  0  0  0  0  0  0  0  0  0  0  0
  147.4604  141.3520  152.4246 H   0  0  0  0  0  0  0  0  0  0  0  0
  150.1351  140.6558  153.5436 H   0  0  0  0  0  0  0  0  0  0  0  0
  148.4820  138.9169  155.1871 H   0  0  0  0  0  0  0  0  0  0  0  0
  146.6340  140.3539  155.1828 H   0  0  0  0  0  0  0  0  0  0  0  0
  147.4238  143.3838  155.1255 H   0  0  0  0  0  0  0  0  0  0  0  0
  145.2652  142.2028  153.7158 H   0  0  0  0  0  0  0  0  0  0  0  0
  146.3648  143.3977  153.0469 H   0  0  0  0  0  0  0  0  0  0  0  0
  148.9243  142.4137  156.5147 H   0  0  0  0  0  0  0  0  0  0  0  0
  153.3532  137.8245  155.8357 H   0  0  0  0  0  0  0  0  0  0  0  0
  149.0105  139.1933  152.4658 H   0  0  0  0  0  0  0  0  0  0  0  0
  145.2597  139.9035  153.4060 H   0  0  0  0  0  0  0  0  0  0  0  0
  1  2  1  0  0  0  0
  1 24  1  0  0  0  0
  2  3  1  0  0  0  0
  2 25  1  0  0  0  0
  2 26  1  0  0  0  0
  3 20  1  0  0  0  0
  3 18  1  0  0  0  0
  3  4  1  0  0  0  0
  4  5  1  0  0  0  0
  5 21  1  0  0  0  0
  5  6  1  0  0  0  0
  5 16  1  0  0  0  0
  6 15  1  0  0  0  0
  6  7  1  0  0  0  0
  7  8  2  0  0  0  0
  7 27  1  0  0  0  0
  8  9  1  0  0  0  0
  9 15  2  0  0  0  0
  9 10  1  0  0  0  0
 10 11  1  0  0  0  0
 10 12  2  0  0  0  0
 12 13  1  0  0  0  0
 13 14  2  0  0  0  0
 13 28  1  0  0  0  0
 14 15  1  0  0  0  0
 16 22  1  0  0  0  0
 16 17  1  0  0  0  0
 16 18  1  0  0  0  0
 17 29  1  0  0  0  0
 18 23  1  0  0  0  0
 18 19  1  0  0  0  0
 19 30  1  0  0  0  0
M  END
> <s_m_source_file>
AV-unprocessed.smi

> <i_m_source_file_index>
48

> <i_lp_mmshare_version>
43012

> <i_f3d_flags>
0

> <s_epik_input>
W09IXVtDSDJdW0NASF0xT1tDQEhdKFtDQEhdKFtPSF0pW0NAQEhdMVtPSF0pbihbY0hdbjIpYyhjMjMpbltjSF1uYzNDbA==

> <s_epik_cmdline>
J2VwaWtfcHl0aG9uJywgJy1waCcsICc3LjAnLCAnLXRuJywgJzgnLCAnLW1hJywgJzIwMCcsICctbWV0YWxfYmluZGluZycsICctaW1hZScsICc8aW5maWxlLm1hZT4nLCAnLW9tYWUnLCAnPG91dGZpbGUubWFlPic=

> <r_lp_tautomer_probability>
1

> <r_epik_Ionization_Penalty>
3.45505e-06

> <r_epik_Ionization_Penalty_Charging>
0

> <r_epik_Ionization_Penalty_Neutral>
3.45505e-06

> <r_epik_State_Penalty>
-0

> <r_epik_Charging_Adjusted_Penalty>
0

> <i_epik_Tot_Q>
0

> <i_epik_Tot_abs_Q>
0

> <r_epik_Metal_State_Penalty>
-0

> <b_epik_Metal_Only>
0

> <s_epik_Chemistry_Notes>
This compound contains an acetal/aminal-like group ( X-CH(R)-Y where X, Y are N, S, or O) that may be acid/base labile, releasing an aldehyde.

> <s_lp_Force_Field>
OPLS_2005

> <r_lp_Energy>
36.5243

> <b_lp_Chiralities_Consistent>
1

> <s_lp_Variant>
AV-unprocessed.smi:48-1

> <Gold.Version>
5.8.1

> <Gold.Id.Protein>
6NUR|6NUR_protein|mol2

> <Gold.PLP.Fitness>
44.8919

> <Gold.PLP.PLP>
-32.1240

> <Gold.PLP.part.hbond>
-6.0000

> <Gold.PLP.part.metal>
0.0000

> <Gold.PLP.part.buried>
-2.1483

> <Gold.PLP.part.nonpolar>
-23.0341

> <Gold.PLP.part.repulsive>
0.2351

> <Gold.PLP.ligand.clash>
0.0000

> <Gold.PLP.ligand.torsion>
0.6805

> <Gold.PLP.Chemscore.Hbond>
3.7044

> <Gold.PLP.Chemscore.CHOScore>
1.0000

> <Gold.PLP.Chemscore.Metal>
0.0000

> <Gold.Chemscore.Hbonds>
donor molecule, donor type, donor heavy atom, donor atom, acceptor molecule, acceptor atom, score
      L1  H     1    24       P1  8028  0.77
      L1  H    17    29       P1  7957  1.00
      L1  H    19    30       P1 10175  1.00
      P1  H  7997  8009       L1    12  0.76
      P1  H  8011  8017       L1     4  0.15
      L1  C     7    27       P1  8028  1.00

> <Gold.PLP.Chemscore.Internal.Correction>
0.0159

> <Gold.Rescore>
     Score         DG    S(hbond)    S(metal)    S(lipo)     H(rot)  DE(clash)    DE(int)     intcor
      7.07      -7.81       2.06        0.00      44.23       3.80       0.17       0.56       ----

> <Gold.Chemscore.Fitness>
7.0702

> <Gold.Chemscore.DG>
-7.8059

> <Gold.Chemscore.ZeroCoef>
-5.4800

> <Gold.Chemscore.Hbond>
2.0608

> <Gold.Chemscore.Metal>
0.0000

> <Gold.Chemscore.Lipo>
44.2323

> <Gold.Chemscore.Internal_Hbond>
0.0000

> <Gold.Chemscore.DEClash>
0.1729

> <Gold.Chemscore.DEInternal>
0.5628

> <Gold.Chemscore.Rot>
3.8017

> <Gold.Chemscore.Internal.Correction>
   9.000000E+99

> <Gold.Chemscore.Hbonds>
donor molecule, donor type, donor heavy atom, donor atom, acceptor molecule, acceptor atom, score
      L1  H     1    24       P1  8028  0.10
      L1  H    17    29       P1  7957  1.00
      L1  H    19    30       P1 10175  0.97
      P1  H  7997  8009       L1    12  0.03

> <Gold.Chemscore.Hbond.Weighted>
-6.8831

> <Gold.Chemscore.Metal.Weighted>
-0.0000

> <Gold.Chemscore.Lipo.Weighted>
-5.1752

> <Gold.Chemscore.Internal_Hbond.Weighted>
0.0000

> <Gold.Chemscore.DEClash.Weighted>
0.1729

> <Gold.Chemscore.DEInternal.Weighted>
0.5628

> <Gold.Chemscore.Rot.Weighted>
9.7324

> <Gold.Chemscore.Internal.Correction.Weighted>
   9.000000E+99

> <Gold.Protein.RotatedTorsions>
[ 6907 6896 6895 6894 ] final  -28.78 input  -60.11 | X-H torsion
[ 7974 7965 7964 7962 ] final   41.46 input  175.53 | X-H torsion
[ 8008 7997 7996 7995 ] final  154.23 input   59.86 | X-H torsion
[ 10167 10162 10161 10158 ] final   96.36 input  -65.29 | X-H torsion
[ 10718 10713 10712 10709 ] final  -58.98 input   66.30 | X-H torsion
[ 10763 10752 10751 10750 ] final   19.25 input  -60.55 | X-H torsion
[ 11005 11000 10999 10996 ] final  116.38 input  -57.11 | X-H torsion

> <Gold.Protein.ActiveResidues>
 VAL166  LYS551  ARG553  GLY616  TRP617  ASP618  TYR619  PRO620  LYS621  CYS622 
 ASP623  PHE694  ASN695  SER759  ASP760  ASP761  ALA762  ILE779  LEU786  VAL792 
 PHE793  MET794  SER795  GLU796  ALA797  LYS798  CYS799  TRP800  GLU811  SER814 

> <Gold.Protein.RotatedAtoms>
  151.1283  135.0116  159.8570 H   0  0  0  0  0  0  0  0  0  0  0  0  # atno 6907 bound_to 6896
  152.5450  134.1640  159.8580 H   0  0  0  0  0  0  0  0  0  0  0  0  # atno 6908 bound_to 6896
  151.1705  133.4742  159.2627 H   0  0  0  0  0  0  0  0  0  0  0  0  # atno 6909 bound_to 6896
  146.0821  139.5413  142.9530 H   0  0  0  0  0  0  0  0  0  0  0  0  # atno 7974 bound_to 7965
  156.2542  140.1972  156.6614 H   0  0  0  0  0  0  0  0  0  0  0  0  # atno 8008 bound_to 7997
  154.6462  140.0577  156.9928 H   0  0  0  0  0  0  0  0  0  0  0  0  # atno 8009 bound_to 7997
  155.1488  140.3249  155.4438 H   0  0  0  0  0  0  0  0  0  0  0  0  # atno 8010 bound_to 7997
  139.7901  144.6855  150.9904 H   0  0  0  0  0  0  0  0  0  0  0  0  # atno 10167 bound_to 10162
  156.1095  130.4176  150.0652 H   0  0  0  0  0  0  0  0  0  0  0  0  # atno 10718 bound_to 10713
  153.1178  135.6712  153.9387 H   0  0  0  0  0  0  0  0  0  0  0  0  # atno 10763 bound_to 10752
  153.8912  135.3047  155.3448 H   0  0  0  0  0  0  0  0  0  0  0  0  # atno 10764 bound_to 10752
  154.7593  135.4996  153.9512 H   0  0  0  0  0  0  0  0  0  0  0  0  # atno 10765 bound_to 10752
  139.9039  134.9597  156.7189 H   0  0  0  0  0  0  0  0  0  0  0  0  # atno 11005 bound_to 11000
  145.6198  141.0324  143.1921 LP  0  0  0  0  0  0  0  0  0  0  0  0  # atno 17320 bound_to 7965
  144.7301  139.7754  143.7350 LP  0  0  0  0  0  0  0  0  0  0  0  0  # atno 17321 bound_to 7965
  140.7820  143.4390  151.0580 LP  0  0  0  0  0  0  0  0  0  0  0  0  # atno 17342 bound_to 10162
  139.8067  143.8008  152.3168 LP  0  0  0  0  0  0  0  0  0  0  0  0  # atno 17343 bound_to 10162
  156.8619  130.9494  151.3617 LP  0  0  0  0  0  0  0  0  0  0  0  0  # atno 17370 bound_to 10713
  157.6275  130.8703  149.9215 LP  0  0  0  0  0  0  0  0  0  0  0  0  # atno 17371 bound_to 10713
  140.7016  133.9301  155.8028 LP  0  0  0  0  0  0  0  0  0  0  0  0  # atno 17394 bound_to 11000
  141.0367  134.0679  157.3951 LP  0  0  0  0  0  0  0  0  0  0  0  0  # atno 17395 bound_to 11000

$$$$
