#       Name:                AV-unprocessed.smi:1686
#       Creating user name   scv26
#       Creation time:       Fri Mar 27 07:52:34 2020


#       File generated by GOLD software.
#

@<TRIPOS>MOLECULE
AV-unprocessed.smi:1686
    46    48     1
SMALL
NO_CHARGES


@<TRIPOS>ATOM
      1 ****        -3.2821   2.0464  -3.6809 C.3            1 S1                 0.0000
      2 ****        -3.1107   2.2713  -2.2060 C.2            1 S1                 0.0000
      3 ****        -3.1782   3.5056  -1.7239 N.2            1 S1                 0.0000
      4 ****        -2.9822   3.4005  -0.3420 O.3            1 S1                 0.0000
      5 ****        -2.8077   2.0880  -0.0657 C.2            1 S1                 0.0000
      6 ****        -2.5325   1.5140   1.5307 Cl             1 S1                 0.0000
      7 ****        -2.8760   1.3064  -1.1829 C.2            1 S1                 0.0000
      8 ****        -2.7360  -0.1882  -1.3184 C.3            1 S1                 0.0000
      9 ****        -1.2598  -0.5469  -1.4852 C.2            1 S1                 0.0000
     10 ****        -0.6865  -0.3125  -2.5490 O.2            1 S1                 0.0000
     11 ****        -0.6544  -1.1001  -0.4231 N.am           1 S1                 0.0000
     12 ****         0.7612  -1.4526  -0.3452 C.3            1 S1                 0.0000
     13 ****         0.9922  -2.8310  -0.9893 C.3            1 S1                 0.0000
     14 ****         1.2329  -1.4199   1.1280 C.3            1 S1                 0.0000
     15 ****         2.7647  -1.5022   1.3150 C.3            1 S1                 0.0000
     16 ****         3.0623  -0.3270   2.2651 C.3            1 S1                 0.0000
     17 ****         2.9354   0.9962   1.4874 C.3            1 S1                 0.0000
     18 ****         1.4143   1.1282   1.2902 C.3            1 S1                 0.0000
     19 ****         0.8730  -0.1566   1.9502 C.3            1 S1                 0.0000
     20 ****         1.8156  -0.2981   3.1409 C.3            1 S1                 0.0000
     21 ****        -2.6970   1.1916  -4.0202 H              1 S1                 0.0000
     22 ****        -2.9594   2.9133  -4.2586 H              1 S1                 0.0000
     23 ****        -4.3262   1.8525  -3.9263 H              1 S1                 0.0000
     24 ****        -3.1498  -0.7072  -0.4525 H              1 S1                 0.0000
     25 ****        -3.2847  -0.5625  -2.1832 H              1 S1                 0.0000
     26 ****        -1.2067  -1.2544   0.4079 H              1 S1                 0.0000
     27 ****         1.3369  -0.7177  -0.9101 H              1 S1                 0.0000
     28 ****         2.0437  -3.1158  -0.9503 H              1 S1                 0.0000
     29 ****         0.6958  -2.8323  -2.0387 H              1 S1                 0.0000
     30 ****         0.4195  -3.6080  -0.4820 H              1 S1                 0.0000
     31 ****         0.7824  -2.2727   1.6393 H              1 S1                 0.0000
     32 ****         3.0431  -2.4540   1.7692 H              1 S1                 0.0000
     33 ****         3.3160  -1.4106   0.3783 H              1 S1                 0.0000
     34 ****         4.0045  -0.4283   2.8043 H              1 S1                 0.0000
     35 ****         3.3192   1.8316   2.0742 H              1 S1                 0.0000
     36 ****         3.4778   0.9748   0.5415 H              1 S1                 0.0000
     37 ****         1.0406   2.0092   1.8136 H              1 S1                 0.0000
     38 ****         1.1297   1.2312   0.2435 H              1 S1                 0.0000
     39 ****        -0.1811  -0.0982   2.2202 H              1 S1                 0.0000
     40 ****         1.6645  -1.2171   3.7100 H              1 S1                 0.0000
     41 ****         1.7852   0.5538   3.8228 H              1 S1                 0.0000
     42 ****        -3.3375   4.3444  -2.2445 LP             1 S1                 0.0000
     43 ****        -3.7818   3.7507   0.1459 LP             1 S1                 0.0000
     44 ****        -2.1719   3.9194  -0.0696 LP             1 S1                 0.0000
     45 ****        -1.1867   0.1124  -3.3035 LP             1 S1                 0.0000
     46 ****         0.2794  -0.5470  -2.6587 LP             1 S1                 0.0000
@<TRIPOS>BOND
    1    1    2 1     
    2    1   21 1     
    3    1   22 1     
    4    1   23 1     
    5    2    7 1     
    6    2    3 2     
    7    3    4 1     
    8    4    5 1     
    9    5    6 1     
   10    5    7 2     
   11    7    8 1     
   12    8    9 1     
   13    8   24 1     
   14    8   25 1     
   15    9   10 2     
   16    9   11 am    
   17   11   12 1     
   18   11   26 1     
   19   12   13 1     
   20   12   14 1     
   21   12   27 1     
   22   13   28 1     
   23   13   29 1     
   24   13   30 1     
   25   14   19 1     
   26   14   15 1     
   27   14   31 1     
   28   15   16 1     
   29   15   32 1     
   30   15   33 1     
   31   16   20 1     
   32   16   17 1     
   33   16   34 1     
   34   17   18 1     
   35   17   35 1     
   36   17   36 1     
   37   18   19 1     
   38   18   37 1     
   39   18   38 1     
   40   19   20 1     
   41   19   39 1     
   42   20   40 1     
   43   20   41 1     
   44    3   42 1     
   45    4   43 1     
   46    4   44 1     
   47   10   45 1     
   48   10   46 1     
@<TRIPOS>SUBSTRUCTURE
      1 S1             1
@<TRIPOS>SET
LONE_PAIRS      STATIC     ATOMS    <user>   **** ""
5 42 43 44 45 46
DONOR_HYDROGENS      STATIC     ATOMS    <user>   **** ""
1 26
ATOM$BLUE        STATIC     ATOMS    COLORGROUP SYSTEM
5 42 43 44 45 46
ATOM$RED        STATIC     ATOMS    COLORGROUP SYSTEM
1 26
