AV-unprocessed.smi:290|AV-procd|sdf|2246|dock8
  -GOLD-   2262022133D 1   1.00000     0.00000
 Structure written by MMmdl.
 59 62  0  0  0  0  0  0  0  0  2 V2000
  150.1922  142.1210  157.1078 C   0  0  0  0  0  0  0  0  0  0  0  0
  150.7700  141.3839  155.8893 C   0  0  1  0  0  0  0  0  0  0  0  0
  151.7105  140.4300  156.3788 O   0  0  0  0  0  0  0  0  0  0  0  0
  151.7000  139.2923  155.5350 C   0  0  0  0  0  0  0  0  0  0  0  0
  150.2219  139.1368  155.2126 C   0  0  0  0  0  0  0  0  0  0  0  0
  149.7630  140.5789  155.0195 C   0  0  2  0  0  0  0  0  0  0  0  0
  149.9911  140.9269  153.6637 O   0  0  0  0  0  0  0  0  0  0  0  0
  148.2575  140.8026  155.3210 C   0  0  0  0  0  0  0  0  0  0  0  0
  147.3818  139.8818  154.6118 N   0  0  0  0  0  0  0  0  0  0  0  0
  147.2663  139.7426  153.2473 C   0  0  0  0  0  0  0  0  0  0  0  0
  146.4096  138.8421  152.8504 N   0  0  0  0  0  0  0  0  0  0  0  0
  145.8871  138.3247  154.0301 C   0  0  0  0  0  0  0  0  0  0  0  0
  144.9168  137.3256  154.3304 C   0  0  0  0  0  0  0  0  0  0  0  0
  144.2774  136.6112  153.3656 N   0  0  0  0  0  0  0  0  0  0  0  0
  144.8523  136.6746  152.0224 C   0  0  0  0  0  0  0  0  0  0  0  0
  144.9116  135.2310  151.5048 C   0  0  0  0  0  0  0  0  0  0  0  0
  144.7571  134.3865  152.7777 C   0  0  2  0  0  0  0  0  0  0  0  0
  144.3142  132.9789  152.5641 N   0  3  2  0  0  0  0  0  0  0  0  0
  145.4422  132.0166  152.4918 C   0  0  0  0  0  0  0  0  0  0  0  0
  143.3220  132.7867  151.4666 C   0  0  0  0  0  0  0  0  0  0  0  0
  143.8781  132.1507  150.1724 C   0  0  0  0  0  0  0  0  0  0  0  0
  142.8993  132.0879  149.1576 O   0  0  0  0  0  0  0  0  0  0  0  0
  143.7906  135.2536  153.6069 C   0  0  2  0  0  0  0  0  0  0  0  0
  142.3103  135.1517  153.1809 C   0  0  0  0  0  0  0  0  0  0  0  0
  144.6471  137.0982  155.6435 N   0  0  0  0  0  0  0  0  0  0  0  0
  145.2801  137.7885  156.5963 C   0  0  0  0  0  0  0  0  0  0  0  0
  146.2065  138.7384  156.4612 N   0  0  0  0  0  0  0  0  0  0  0  0
  146.4820  138.9767  155.1476 C   0  0  0  0  0  0  0  0  0  0  0  0
  145.7174  134.3692  153.2961 H   0  0  0  0  0  0  0  0  0  0  0  0
  143.8488  134.9649  154.6555 H   0  0  0  0  0  0  0  0  0  0  0  0
  149.4707  142.8816  156.8094 H   0  0  0  0  0  0  0  0  0  0  0  0
  150.9841  142.6245  157.6630 H   0  0  0  0  0  0  0  0  0  0  0  0
  149.7003  141.4322  157.7951 H   0  0  0  0  0  0  0  0  0  0  0  0
  151.3138  142.1050  155.2760 H   0  0  0  0  0  0  0  0  0  0  0  0
  152.2818  139.4934  154.6341 H   0  0  0  0  0  0  0  0  0  0  0  0
  152.1191  138.4173  156.0319 H   0  0  0  0  0  0  0  0  0  0  0  0
  150.0328  138.4918  154.3534 H   0  0  0  0  0  0  0  0  0  0  0  0
  149.7218  138.6965  156.0759 H   0  0  0  0  0  0  0  0  0  0  0  0
  149.7547  140.1893  153.1224 H   0  0  0  0  0  0  0  0  0  0  0  0
  148.0591  140.6934  156.3875 H   0  0  0  0  0  0  0  0  0  0  0  0
  147.9643  141.8192  155.0553 H   0  0  0  0  0  0  0  0  0  0  0  0
  147.8458  140.3311  152.5507 H   0  0  0  0  0  0  0  0  0  0  0  0
  144.2467  137.3072  151.3725 H   0  0  0  0  0  0  0  0  0  0  0  0
  145.8597  137.0927  152.0512 H   0  0  0  0  0  0  0  0  0  0  0  0
  144.0826  135.0498  150.8197 H   0  0  0  0  0  0  0  0  0  0  0  0
  145.8369  135.0310  150.9650 H   0  0  0  0  0  0  0  0  0  0  0  0
  146.1443  132.2818  151.7014 H   0  0  0  0  0  0  0  0  0  0  0  0
  145.0795  131.0055  152.3040 H   0  0  0  0  0  0  0  0  0  0  0  0
  145.9988  131.9870  153.4277 H   0  0  0  0  0  0  0  0  0  0  0  0
  142.5445  132.1296  151.8579 H   0  0  0  0  0  0  0  0  0  0  0  0
  142.8086  133.7218  151.2416 H   0  0  0  0  0  0  0  0  0  0  0  0
  144.7667  132.6603  149.8022 H   0  0  0  0  0  0  0  0  0  0  0  0
  144.1820  131.1251  150.3839 H   0  0  0  0  0  0  0  0  0  0  0  0
  142.2943  132.8048  149.2769 H   0  0  0  0  0  0  0  0  0  0  0  0
  141.9121  134.1483  153.3275 H   0  0  0  0  0  0  0  0  0  0  0  0
  142.1606  135.4162  152.1341 H   0  0  0  0  0  0  0  0  0  0  0  0
  141.6960  135.8283  153.7757 H   0  0  0  0  0  0  0  0  0  0  0  0
  145.0063  137.5440  157.6122 H   0  0  0  0  0  0  0  0  0  0  0  0
  143.8102  132.7359  153.4049 H   0  0  0  0  0  0  0  0  0  0  0  0
  1  2  1  0  0  0  0
  1 31  1  0  0  0  0
  1 32  1  0  0  0  0
  1 33  1  0  0  0  0
  2  6  1  0  0  0  0
  2  3  1  0  0  0  0
  2 34  1  0  0  0  0
  3  4  1  0  0  0  0
  4  5  1  0  0  0  0
  4 35  1  0  0  0  0
  4 36  1  0  0  0  0
  5  6  1  0  0  0  0
  5 37  1  0  0  0  0
  5 38  1  0  0  0  0
  6  7  1  0  0  0  0
  6  8  1  0  0  0  0
  7 39  1  0  0  0  0
  8  9  1  0  0  0  0
  8 40  1  0  0  0  0
  8 41  1  0  0  0  0
  9 28  1  0  0  0  0
  9 10  1  0  0  0  0
 10 11  2  0  0  0  0
 10 42  1  0  0  0  0
 11 12  1  0  0  0  0
 12 28  2  0  0  0  0
 12 13  1  0  0  0  0
 13 14  1  0  0  0  0
 13 25  2  0  0  0  0
 14 23  1  0  0  0  0
 14 15  1  0  0  0  0
 15 16  1  0  0  0  0
 15 43  1  0  0  0  0
 15 44  1  0  0  0  0
 16 17  1  0  0  0  0
 16 45  1  0  0  0  0
 16 46  1  0  0  0  0
 17 29  1  0  0  0  0
 17 18  1  0  0  0  0
 17 23  1  0  0  0  0
 18 19  1  0  0  0  0
 18 20  1  0  0  0  0
 18 59  1  0  0  0  0
 19 47  1  0  0  0  0
 19 48  1  0  0  0  0
 19 49  1  0  0  0  0
 20 21  1  0  0  0  0
 20 50  1  0  0  0  0
 20 51  1  0  0  0  0
 21 22  1  0  0  0  0
 21 52  1  0  0  0  0
 21 53  1  0  0  0  0
 22 54  1  0  0  0  0
 23 30  1  0  0  0  0
 23 24  1  0  0  0  0
 24 55  1  0  0  0  0
 24 56  1  0  0  0  0
 24 57  1  0  0  0  0
 25 26  1  0  0  0  0
 26 27  2  0  0  0  0
 26 58  1  0  0  0  0
 27 28  1  0  0  0  0
M  CHG  1  18   1
M  END
> <s_m_source_file>
AV-unprocessed.smi

> <i_m_source_file_index>
290

> <i_lp_mmshare_version>
43012

> <i_f3d_flags>
0

> <s_epik_input>
W0NIMl0xW0NIMl1PW0NAQEhdKFtDSDNdKVtDQEBdMShbT0hdKVtDSDJdbihbY0hdbjIpYyhjMjMpbltjSF1uYzNONFtDSDJdW0NIMl1bQ0BIXShbQ0BIXTRbQ0gzXSlOKFtDSDNdKVtDSDJdW0NIMl1bT0hd

> <s_epik_cmdline>
J2VwaWtfcHl0aG9uJywgJy1waCcsICc3LjAnLCAnLXRuJywgJzgnLCAnLW1hJywgJzIwMCcsICctbWV0YWxfYmluZGluZycsICctaW1hZScsICc8aW5maWxlLm1hZT4nLCAnLW9tYWUnLCAnPG91dGZpbGUubWFlPic=

> <r_lp_tautomer_probability>
1

> <r_epik_Ionization_Penalty>
0.0036983

> <r_epik_Ionization_Penalty_Charging>
0.0032725

> <r_epik_Ionization_Penalty_Neutral>
0.000425798

> <r_epik_State_Penalty>
-0

> <r_epik_Charging_Adjusted_Penalty>
0.0032725

> <i_epik_Tot_Q>
1

> <i_epik_Tot_abs_Q>
1

> <r_epik_Metal_State_Penalty>
-0

> <b_epik_Metal_Only>
0

> <s_lp_Force_Field>
OPLS_2005

> <r_lp_Energy>
63.8525

> <b_lp_Chiralities_Consistent>
1

> <s_lp_Variant>
AV-unprocessed.smi:290-32

> <Gold.Version>
5.8.1

> <Gold.Id.Protein>
6NUR|6NUR_protein|mol2

> <Gold.PLP.Fitness>
55.3399

> <Gold.PLP.PLP>
-38.6046

> <Gold.PLP.part.hbond>
-6.1554

> <Gold.PLP.part.metal>
0.0000

> <Gold.PLP.part.buried>
-3.6710

> <Gold.PLP.part.nonpolar>
-29.8225

> <Gold.PLP.part.repulsive>
0.3931

> <Gold.PLP.ligand.clash>
0.0000

> <Gold.PLP.ligand.torsion>
1.8210

> <Gold.PLP.Chemscore.Hbond>
5.6273

> <Gold.PLP.Chemscore.CHOScore>
1.0000

> <Gold.PLP.Chemscore.Metal>
0.0000

> <Gold.Chemscore.Hbonds>
donor molecule, donor type, donor heavy atom, donor atom, acceptor molecule, acceptor atom, score
      L1  H     7    39       P1  7957  0.61
      L1  H    18    59       P1 10957  2.00
      L1  H    22    54       P1 10186  0.89
      P1  H  7989  7998       L1     7  0.35
      P1  H  8011  8017       L1     7  0.94
      P1  H 10785 10796       L1    22  0.80
      L1  C    10    42       P1  7957  1.00

> <Gold.PLP.Chemscore.Internal.Correction>
0.4956

> <Gold.Rescore>
     Score         DG    S(hbond)    S(metal)    S(lipo)     H(rot)  DE(clash)    DE(int)     intcor
     10.08     -15.14       2.77        0.00      83.59       3.67       1.59       3.46       ----

> <Gold.Chemscore.Fitness>
10.0831

> <Gold.Chemscore.DG>
-15.1361

> <Gold.Chemscore.ZeroCoef>
-5.4800

> <Gold.Chemscore.Hbond>
2.7726

> <Gold.Chemscore.Metal>
0.0000

> <Gold.Chemscore.Lipo>
83.5904

> <Gold.Chemscore.Internal_Hbond>
0.0000

> <Gold.Chemscore.DEClash>
1.5921

> <Gold.Chemscore.DEInternal>
3.4609

> <Gold.Chemscore.Rot>
3.6658

> <Gold.Chemscore.Internal.Correction>
   9.000000E+99

> <Gold.Chemscore.Hbonds>
donor molecule, donor type, donor heavy atom, donor atom, acceptor molecule, acceptor atom, score
      L1  H     7    39       P1  7957  0.59
      L1  H    18    59       P1 10957  0.47
      L1  H    22    54       P1 10186  0.86
      P1  H  7989  7998       L1     7  0.04
      P1  H  8011  8017       L1     7  0.22
      P1  H 10785 10796       L1    22  0.11

> <Gold.Chemscore.Hbond.Weighted>
-9.2605

> <Gold.Chemscore.Metal.Weighted>
-0.0000

> <Gold.Chemscore.Lipo.Weighted>
-9.7801

> <Gold.Chemscore.Internal_Hbond.Weighted>
0.0000

> <Gold.Chemscore.DEClash.Weighted>
1.5921

> <Gold.Chemscore.DEInternal.Weighted>
3.4609

> <Gold.Chemscore.Rot.Weighted>
9.3844

> <Gold.Chemscore.Internal.Correction.Weighted>
   9.000000E+99

> <Gold.Protein.RotatedTorsions>
[ 6907 6896 6895 6894 ] final  -50.94 input  -60.11 | X-H torsion
[ 7974 7965 7964 7962 ] final   56.63 input  175.53 | X-H torsion
[ 8008 7997 7996 7995 ] final -120.08 input   59.86 | X-H torsion
[ 10167 10162 10161 10158 ] final  -25.64 input  -65.29 | X-H torsion
[ 10718 10713 10712 10709 ] final  -30.22 input   66.30 | X-H torsion
[ 10763 10752 10751 10750 ] final  -44.68 input  -60.55 | X-H torsion
[ 11005 11000 10999 10996 ] final -174.88 input  -57.11 | X-H torsion

> <Gold.Protein.ActiveResidues>
 VAL166  LYS551  ARG553  GLY616  TRP617  ASP618  TYR619  PRO620  LYS621  CYS622 
 ASP623  PHE694  ASN695  SER759  ASP760  ASP761  ALA762  ILE779  LEU786  VAL792 
 PHE793  MET794  SER795  GLU796  ALA797  LYS798  CYS799  TRP800  GLU811  SER814 

> <Gold.Protein.RotatedAtoms>
  150.8659  134.8022  159.7117 H   0  0  0  0  0  0  0  0  0  0  0  0  # atno 6907 bound_to 6896
  152.4680  134.5025  159.9739 H   0  0  0  0  0  0  0  0  0  0  0  0  # atno 6908 bound_to 6896
  151.5121  133.3444  159.2922 H   0  0  0  0  0  0  0  0  0  0  0  0  # atno 6909 bound_to 6896
  145.9377  139.3861  143.0382 H   0  0  0  0  0  0  0  0  0  0  0  0  # atno 7974 bound_to 7965
  155.1260  140.0399  157.2762 H   0  0  0  0  0  0  0  0  0  0  0  0  # atno 8008 bound_to 7997
  154.6578  140.2584  155.7116 H   0  0  0  0  0  0  0  0  0  0  0  0  # atno 8009 bound_to 7997
  156.2606  140.2823  156.1038 H   0  0  0  0  0  0  0  0  0  0  0  0  # atno 8010 bound_to 7997
  140.7286  143.4247  151.0896 H   0  0  0  0  0  0  0  0  0  0  0  0  # atno 10167 bound_to 10162
  156.4025  130.4393  149.7312 H   0  0  0  0  0  0  0  0  0  0  0  0  # atno 10718 bound_to 10713
  154.0160  135.6675  153.4769 H   0  0  0  0  0  0  0  0  0  0  0  0  # atno 10763 bound_to 10752
  153.0600  135.5033  154.8068 H   0  0  0  0  0  0  0  0  0  0  0  0  # atno 10764 bound_to 10752
  154.6966  135.3071  154.9366 H   0  0  0  0  0  0  0  0  0  0  0  0  # atno 10765 bound_to 10752
  140.4696  134.6178  157.4876 H   0  0  0  0  0  0  0  0  0  0  0  0  # atno 11005 bound_to 11000
  145.8341  140.9615  143.0833 LP  0  0  0  0  0  0  0  0  0  0  0  0  # atno 17320 bound_to 7965
  144.6774  140.0201  143.7484 LP  0  0  0  0  0  0  0  0  0  0  0  0  # atno 17321 bound_to 7965
  139.7897  143.8237  152.3150 LP  0  0  0  0  0  0  0  0  0  0  0  0  # atno 17342 bound_to 10162
  139.8216  144.7293  150.9565 LP  0  0  0  0  0  0  0  0  0  0  0  0  # atno 17343 bound_to 10162
  156.4322  130.7821  151.2841 LP  0  0  0  0  0  0  0  0  0  0  0  0  # atno 17370 bound_to 10713
  157.7504  131.0150  150.3488 LP  0  0  0  0  0  0  0  0  0  0  0  0  # atno 17371 bound_to 10713
  139.9894  134.7010  155.9717 LP  0  0  0  0  0  0  0  0  0  0  0  0  # atno 17394 bound_to 11000
  141.1583  133.6541  156.4235 LP  0  0  0  0  0  0  0  0  0  0  0  0  # atno 17395 bound_to 11000

$$$$
