AV-unprocessed.smi:149|AV-procd|sdf|1237|dock5
  -GOLD-   2262018453D 1   1.00000     0.00000
 Structure written by MMmdl.
 60 64  0  0  0  0  0  0  0  0  2 V2000
  148.9372  137.7944  157.6238 C   0  0  0  0  0  0  0  0  0  0  0  0
  148.1985  136.4484  157.4936 C   0  0  1  0  0  0  0  0  0  0  0  0
  148.5273  135.7915  156.1405 C   0  0  0  0  0  0  0  0  0  0  0  0
  148.6950  134.3699  156.3911 N   0  0  0  0  0  0  0  0  0  0  0  0
  148.4852  133.4611  155.4022 C   0  0  0  0  0  0  0  0  0  0  0  0
  149.1358  132.2685  155.4623 N   0  0  0  0  0  0  0  0  0  0  0  0
  148.9500  131.3448  154.5153 C   0  0  0  0  0  0  0  0  0  0  0  0
  148.1780  131.4082  153.4301 N   0  0  0  0  0  0  0  0  0  0  0  0
  147.5352  132.6080  153.3477 C   0  0  0  0  0  0  0  0  0  0  0  0
  147.6269  133.6786  154.2836 C   0  0  0  0  0  0  0  0  0  0  0  0
  146.8211  134.7312  153.8655 N   0  0  0  0  0  0  0  0  0  0  0  0
  146.2740  134.3022  152.7618 C   0  0  0  0  0  0  0  0  0  0  0  0
  146.6721  133.0470  152.3570 N   0  0  0  0  0  0  0  0  0  0  0  0
  146.2147  132.3124  151.2070 C   0  0  0  0  0  0  0  0  0  0  0  0
  146.0315  133.0242  149.8587 C   0  0  0  0  0  0  0  0  0  0  0  0
  144.5018  133.0375  150.0705 C   0  0  0  0  0  0  0  0  0  0  0  0
  143.9692  134.3402  150.6977 C   0  0  0  0  0  0  0  0  0  0  0  0
  144.2808  135.4661  149.9022 O   0  0  0  0  0  0  0  0  0  0  0  0
  143.6302  132.7395  148.8343 C   0  0  0  0  0  0  0  0  0  0  0  0
  143.4012  133.8864  148.0402 O   0  0  0  0  0  0  0  0  0  0  0  0
  144.7485  131.8780  151.0613 C   0  0  0  0  0  0  0  0  0  0  0  0
  148.3564  134.0717  157.7702 C   0  0  0  0  0  0  0  0  0  0  0  0
  148.5804  135.3778  158.5439 C   0  0  2  0  0  0  0  0  0  0  0  0
  147.7880  135.3797  159.8110 N   0  3  0  0  0  0  0  0  0  0  0  0
  148.0009  134.1432  160.6085 C   0  0  0  0  0  0  0  0  0  0  0  0
  147.1154  134.1372  161.8651 C   0  0  0  0  0  0  0  0  0  0  0  0
  147.3940  135.2911  162.6445 O   0  0  0  0  0  0  0  0  0  0  0  0
  147.0954  136.4846  161.9348 C   0  0  0  0  0  0  0  0  0  0  0  0
  147.9688  136.5765  160.6716 C   0  0  0  0  0  0  0  0  0  0  0  0
  150.0180  137.6548  157.5841 H   0  0  0  0  0  0  0  0  0  0  0  0
  148.7120  138.3165  158.5510 H   0  0  0  0  0  0  0  0  0  0  0  0
  148.6637  138.4632  156.8071 H   0  0  0  0  0  0  0  0  0  0  0  0
  147.1204  136.6131  157.5288 H   0  0  0  0  0  0  0  0  0  0  0  0
  147.7349  135.9837  155.4158 H   0  0  0  0  0  0  0  0  0  0  0  0
  149.4605  136.1792  155.7300 H   0  0  0  0  0  0  0  0  0  0  0  0
  149.4988  130.4237  154.6449 H   0  0  0  0  0  0  0  0  0  0  0  0
  145.5658  134.9046  152.2130 H   0  0  0  0  0  0  0  0  0  0  0  0
  146.8891  131.4601  151.1151 H   0  0  0  0  0  0  0  0  0  0  0  0
  146.4799  134.0159  149.7932 H   0  0  0  0  0  0  0  0  0  0  0  0
  146.3571  132.4030  149.0233 H   0  0  0  0  0  0  0  0  0  0  0  0
  142.8866  134.3091  150.8198 H   0  0  0  0  0  0  0  0  0  0  0  0
  144.3812  134.4914  151.6962 H   0  0  0  0  0  0  0  0  0  0  0  0
  144.6146  135.1638  149.0713 H   0  0  0  0  0  0  0  0  0  0  0  0
  144.0972  131.9888  148.1963 H   0  0  0  0  0  0  0  0  0  0  0  0
  142.6599  132.3401  149.1312 H   0  0  0  0  0  0  0  0  0  0  0  0
  144.2169  134.1391  147.6353 H   0  0  0  0  0  0  0  0  0  0  0  0
  144.6628  130.8914  150.6034 H   0  0  0  0  0  0  0  0  0  0  0  0
  144.1452  131.9241  151.9671 H   0  0  0  0  0  0  0  0  0  0  0  0
  147.3111  133.7633  157.8253 H   0  0  0  0  0  0  0  0  0  0  0  0
  148.9766  133.2617  158.1559 H   0  0  0  0  0  0  0  0  0  0  0  0
  149.6426  135.4785  158.7753 H   0  0  0  0  0  0  0  0  0  0  0  0
  147.7733  133.2589  160.0135 H   0  0  0  0  0  0  0  0  0  0  0  0
  149.0509  134.0713  160.8964 H   0  0  0  0  0  0  0  0  0  0  0  0
  146.0576  134.1049  161.5990 H   0  0  0  0  0  0  0  0  0  0  0  0
  147.3202  133.2496  162.4642 H   0  0  0  0  0  0  0  0  0  0  0  0
  146.0352  136.5129  161.6774 H   0  0  0  0  0  0  0  0  0  0  0  0
  147.2858  137.3384  162.5853 H   0  0  0  0  0  0  0  0  0  0  0  0
  149.0199  136.6767  160.9475 H   0  0  0  0  0  0  0  0  0  0  0  0
  147.6770  137.4767  160.1331 H   0  0  0  0  0  0  0  0  0  0  0  0
  146.8163  135.3826  159.5348 H   0  0  0  0  0  0  0  0  0  0  0  0
  1  2  1  0  0  0  0
  1 30  1  0  0  0  0
  1 31  1  0  0  0  0
  1 32  1  0  0  0  0
  2 23  1  0  0  0  0
  2  3  1  0  0  0  0
  2 33  1  0  0  0  0
  3  4  1  0  0  0  0
  3 34  1  0  0  0  0
  3 35  1  0  0  0  0
  4  5  1  0  0  0  0
  4 22  1  0  0  0  0
  5 10  1  0  0  0  0
  5  6  2  0  0  0  0
  6  7  1  0  0  0  0
  7  8  2  0  0  0  0
  7 36  1  0  0  0  0
  8  9  1  0  0  0  0
  9 13  1  0  0  0  0
  9 10  2  0  0  0  0
 10 11  1  0  0  0  0
 11 12  2  0  0  0  0
 12 13  1  0  0  0  0
 12 37  1  0  0  0  0
 13 14  1  0  0  0  0
 14 21  1  0  0  0  0
 14 15  1  0  0  0  0
 14 38  1  0  0  0  0
 15 16  1  0  0  0  0
 15 39  1  0  0  0  0
 15 40  1  0  0  0  0
 16 17  1  0  0  0  0
 16 19  1  0  0  0  0
 16 21  1  0  0  0  0
 17 18  1  0  0  0  0
 17 41  1  0  0  0  0
 17 42  1  0  0  0  0
 18 43  1  0  0  0  0
 19 20  1  0  0  0  0
 19 44  1  0  0  0  0
 19 45  1  0  0  0  0
 20 46  1  0  0  0  0
 21 47  1  0  0  0  0
 21 48  1  0  0  0  0
 22 23  1  0  0  0  0
 22 49  1  0  0  0  0
 22 50  1  0  0  0  0
 23 24  1  0  0  0  0
 23 51  1  0  0  0  0
 24 29  1  0  0  0  0
 24 25  1  0  0  0  0
 24 60  1  0  0  0  0
 25 26  1  0  0  0  0
 25 52  1  0  0  0  0
 25 53  1  0  0  0  0
 26 27  1  0  0  0  0
 26 54  1  0  0  0  0
 26 55  1  0  0  0  0
 27 28  1  0  0  0  0
 28 29  1  0  0  0  0
 28 56  1  0  0  0  0
 28 57  1  0  0  0  0
 29 58  1  0  0  0  0
 29 59  1  0  0  0  0
M  CHG  1  24   1
M  END
> <s_m_source_file>
AV-unprocessed.smi

> <i_m_source_file_index>
149

> <i_lp_mmshare_version>
43012

> <i_f3d_flags>
0

> <s_epik_input>
W0NIMl0xW0NIMl1PW0NIMl1bQ0gyXU4xW0NAQEhdMltDSDJdTihbQ0gyXVtDQEhdMltDSDNdKWMobltjSF1uMyljKGMzNCluW2NIXW40W0NIXShbQ0gyXTUpW0NIMl1DNShbQ0gyXVtPSF0pW0NIMl1bT0hd

> <s_epik_cmdline>
J2VwaWtfcHl0aG9uJywgJy1waCcsICc3LjAnLCAnLXRuJywgJzgnLCAnLW1hJywgJzIwMCcsICctbWV0YWxfYmluZGluZycsICctaW1hZScsICc8aW5maWxlLm1hZT4nLCAnLW9tYWUnLCAnPG91dGZpbGUubWFlPic=

> <r_lp_tautomer_probability>
1

> <r_epik_Ionization_Penalty>
0.404847

> <r_epik_Ionization_Penalty_Charging>
0.404623

> <r_epik_Ionization_Penalty_Neutral>
0.000224096

> <r_epik_State_Penalty>
0.238803

> <r_epik_Charging_Adjusted_Penalty>
0.643425

> <i_epik_Tot_Q>
1

> <i_epik_Tot_abs_Q>
1

> <r_epik_Metal_State_Penalty>
0.239083

> <b_epik_Metal_Only>
0

> <s_lp_Force_Field>
OPLS_2005

> <r_lp_Energy>
71.3702

> <b_lp_Chiralities_Consistent>
1

> <s_lp_Variant>
AV-unprocessed.smi:149-4

> <Gold.Version>
5.8.1

> <Gold.Id.Protein>
6NUR|6NUR_protein|mol2

> <Gold.PLP.Fitness>
48.6222

> <Gold.PLP.PLP>
-42.2411

> <Gold.PLP.part.hbond>
-5.3420

> <Gold.PLP.part.metal>
0.0000

> <Gold.PLP.part.buried>
-4.9793

> <Gold.PLP.part.nonpolar>
-32.1324

> <Gold.PLP.part.repulsive>
0.2619

> <Gold.PLP.ligand.clash>
0.0000

> <Gold.PLP.ligand.torsion>
1.4681

> <Gold.PLP.Chemscore.Hbond>
2.8450

> <Gold.PLP.Chemscore.CHOScore>
0.0000

> <Gold.PLP.Chemscore.Metal>
0.0000

> <Gold.Chemscore.Hbonds>
donor molecule, donor type, donor heavy atom, donor atom, acceptor molecule, acceptor atom, score
      L1  H    18    43       P1  7921  0.80
      L1  H    20    46       P1  7921  1.00
      P1  H 10192 10197       L1    20  0.88

> <Gold.PLP.Chemscore.Internal.Correction>
0.7822

> <Gold.Rescore>
     Score         DG    S(hbond)    S(metal)    S(lipo)     H(rot)  DE(clash)    DE(int)     intcor
     14.44     -18.15       2.74        0.00      97.63       3.09       0.91       2.80       ----

> <Gold.Chemscore.Fitness>
14.4415

> <Gold.Chemscore.DG>
-18.1480

> <Gold.Chemscore.ZeroCoef>
-5.4800

> <Gold.Chemscore.Hbond>
2.7422

> <Gold.Chemscore.Metal>
0.0000

> <Gold.Chemscore.Lipo>
97.6286

> <Gold.Chemscore.Internal_Hbond>
0.0000

> <Gold.Chemscore.DEClash>
0.9081

> <Gold.Chemscore.DEInternal>
2.7983

> <Gold.Chemscore.Rot>
3.0912

> <Gold.Chemscore.Internal.Correction>
   9.000000E+99

> <Gold.Chemscore.Hbonds>
donor molecule, donor type, donor heavy atom, donor atom, acceptor molecule, acceptor atom, score
      L1  H    18    43       P1  7921  0.77
      L1  H    20    46       P1  7921  0.95
      P1  H 10192 10197       L1    20  0.34

> <Gold.Chemscore.Hbond.Weighted>
-9.1589

> <Gold.Chemscore.Metal.Weighted>
-0.0000

> <Gold.Chemscore.Lipo.Weighted>
-11.4225

> <Gold.Chemscore.Internal_Hbond.Weighted>
0.0000

> <Gold.Chemscore.DEClash.Weighted>
0.9081

> <Gold.Chemscore.DEInternal.Weighted>
2.7983

> <Gold.Chemscore.Rot.Weighted>
7.9135

> <Gold.Chemscore.Internal.Correction.Weighted>
   9.000000E+99

> <Gold.Protein.RotatedTorsions>
[ 6907 6896 6895 6894 ] final   10.23 input  -60.11 | X-H torsion
[ 7974 7965 7964 7962 ] final -145.99 input  175.53 | X-H torsion
[ 8008 7997 7996 7995 ] final -155.13 input   59.86 | X-H torsion
[ 10167 10162 10161 10158 ] final  -79.64 input  -65.29 | X-H torsion
[ 10718 10713 10712 10709 ] final   72.96 input   66.30 | X-H torsion
[ 10763 10752 10751 10750 ] final  147.20 input  -60.55 | X-H torsion
[ 11005 11000 10999 10996 ] final -111.52 input  -57.11 | X-H torsion

> <Gold.Protein.ActiveResidues>
 VAL166  LYS551  ARG553  GLY616  TRP617  ASP618  TYR619  PRO620  LYS621  CYS622 
 ASP623  PHE694  ASN695  SER759  ASP760  ASP761  ALA762  ILE779  LEU786  VAL792 
 PHE793  MET794  SER795  GLU796  ALA797  LYS798  CYS799  TRP800  GLU811  SER814 

> <Gold.Protein.RotatedAtoms>
  151.7349  135.0867  160.0305 H   0  0  0  0  0  0  0  0  0  0  0  0  # atno 6907 bound_to 6896
  152.3517  133.6184  159.5958 H   0  0  0  0  0  0  0  0  0  0  0  0  # atno 6908 bound_to 6896
  150.7544  133.9479  159.3518 H   0  0  0  0  0  0  0  0  0  0  0  0  # atno 6909 bound_to 6896
  144.8189  140.5513  143.5591 H   0  0  0  0  0  0  0  0  0  0  0  0  # atno 7974 bound_to 7965
  155.6970  140.0762  157.2425 H   0  0  0  0  0  0  0  0  0  0  0  0  # atno 8008 bound_to 7997
  154.4079  140.1654  156.2202 H   0  0  0  0  0  0  0  0  0  0  0  0  # atno 8009 bound_to 7997
  155.9401  140.3385  155.6323 H   0  0  0  0  0  0  0  0  0  0  0  0  # atno 8010 bound_to 7997
  140.4575  143.2464  151.8398 H   0  0  0  0  0  0  0  0  0  0  0  0  # atno 10167 bound_to 10162
  157.6525  130.9605  150.1002 H   0  0  0  0  0  0  0  0  0  0  0  0  # atno 10718 bound_to 10713
  154.0344  135.2895  155.3364 H   0  0  0  0  0  0  0  0  0  0  0  0  # atno 10763 bound_to 10752
  154.6968  135.5204  153.8472 H   0  0  0  0  0  0  0  0  0  0  0  0  # atno 10764 bound_to 10752
  153.0626  135.6619  154.0554 H   0  0  0  0  0  0  0  0  0  0  0  0  # atno 10765 bound_to 10752
  141.0729  133.9350  157.2449 H   0  0  0  0  0  0  0  0  0  0  0  0  # atno 11005 bound_to 11000
  145.5149  139.1478  143.3584 LP  0  0  0  0  0  0  0  0  0  0  0  0  # atno 17320 bound_to 7965
  146.2494  140.5290  142.8900 LP  0  0  0  0  0  0  0  0  0  0  0  0  # atno 17321 bound_to 7965
  139.4802  144.5047  151.9013 LP  0  0  0  0  0  0  0  0  0  0  0  0  # atno 17342 bound_to 10162
  140.4133  144.2340  150.5888 LP  0  0  0  0  0  0  0  0  0  0  0  0  # atno 17343 bound_to 10162
  156.1927  130.3655  149.8889 LP  0  0  0  0  0  0  0  0  0  0  0  0  # atno 17370 bound_to 10713
  156.6814  130.8859  151.3576 LP  0  0  0  0  0  0  0  0  0  0  0  0  # atno 17371 bound_to 10713
  139.9542  135.0169  156.9080 LP  0  0  0  0  0  0  0  0  0  0  0  0  # atno 17394 bound_to 11000
  140.5635  134.0512  155.7406 LP  0  0  0  0  0  0  0  0  0  0  0  0  # atno 17395 bound_to 11000

$$$$
