AV-unprocessed.smi:236|AV-procd|sdf|1809|dock1
  -GOLD-   2262020393D 1   1.00000     0.00000
 Structure written by MMmdl.
 58 62  0  0  0  0  0  0  0  0  1 V2000
  153.4096  144.4296  157.7424 C   0  0  0  0  0  0  0  0  0  0  0  0
  151.9363  144.2564  158.1404 C   0  0  2  0  0  0  0  0  0  0  0  0
  151.7567  144.5029  159.5329 O   0  0  0  0  0  0  0  0  0  0  0  0
  150.7470  143.6461  160.0591 C   0  0  0  0  0  0  0  0  0  0  0  0
  150.1355  142.9402  158.8528 C   0  0  0  0  0  0  0  0  0  0  0  0
  151.3066  142.8747  157.8798 C   0  0  1  0  0  0  0  0  0  0  0  0
  150.8030  142.8054  156.5587 O   0  0  0  0  0  0  0  0  0  0  0  0
  152.2691  141.6817  158.1298 C   0  0  0  0  0  0  0  0  0  0  0  0
  151.6378  140.3790  157.9890 N   0  0  0  0  0  0  0  0  0  0  0  0
  150.7871  139.7707  158.8842 C   0  0  0  0  0  0  0  0  0  0  0  0
  150.3565  138.5912  158.5287 N   0  0  0  0  0  0  0  0  0  0  0  0
  150.9442  138.3740  157.2880 C   0  0  0  0  0  0  0  0  0  0  0  0
  150.9161  137.3099  156.3420 C   0  0  0  0  0  0  0  0  0  0  0  0
  150.2290  136.1579  156.4903 N   0  0  0  0  0  0  0  0  0  0  0  0
  151.0356  134.9728  156.2371 C   0  0  0  0  0  0  0  0  0  0  0  0
  150.1404  133.7231  156.2444 C   0  0  0  0  0  0  0  0  0  0  0  0
  149.4217  133.6603  157.4729 O   0  0  0  0  0  0  0  0  0  0  0  0
  148.5635  134.7843  157.6615 C   0  0  1  0  0  0  0  0  0  0  0  0
  147.7873  134.5792  158.9680 C   0  0  0  0  0  0  0  0  0  0  0  0
  147.1131  135.7818  159.2989 O   0  0  0  0  0  0  0  0  0  0  0  0
  147.8503  136.5897  160.1997 C   0  0  0  0  0  0  0  0  0  0  0  0
  147.7897  135.9734  161.5812 C   0  0  0  0  0  0  0  0  0  0  0  0
  146.9502  134.7439  161.8454 C   0  0  0  0  0  0  0  0  0  0  0  0
  146.5258  136.0778  162.4045 C   0  0  0  0  0  0  0  0  0  0  0  0
  149.4327  136.0557  157.7070 C   0  0  0  0  0  0  0  0  0  0  0  0
  151.6530  137.4429  155.2122 N   0  0  0  0  0  0  0  0  0  0  0  0
  152.3665  138.5542  155.0069 C   0  0  0  0  0  0  0  0  0  0  0  0
  152.4849  139.6275  155.7914 N   0  0  0  0  0  0  0  0  0  0  0  0
  151.7520  139.4908  156.9338 C   0  0  0  0  0  0  0  0  0  0  0  0
  153.5590  144.2097  156.6852 H   0  0  0  0  0  0  0  0  0  0  0  0
  154.0644  143.7774  158.3201 H   0  0  0  0  0  0  0  0  0  0  0  0
  153.7367  145.4549  157.9164 H   0  0  0  0  0  0  0  0  0  0  0  0
  151.3462  145.0150  157.6223 H   0  0  0  0  0  0  0  0  0  0  0  0
  151.2150  142.9254  160.7303 H   0  0  0  0  0  0  0  0  0  0  0  0
  150.0062  144.2066  160.6293 H   0  0  0  0  0  0  0  0  0  0  0  0
  149.6878  141.9782  159.0992 H   0  0  0  0  0  0  0  0  0  0  0  0
  149.3415  143.5677  158.4438 H   0  0  0  0  0  0  0  0  0  0  0  0
  150.1717  143.4987  156.4421 H   0  0  0  0  0  0  0  0  0  0  0  0
  153.1133  141.7213  157.4403 H   0  0  0  0  0  0  0  0  0  0  0  0
  152.6950  141.7437  159.1320 H   0  0  0  0  0  0  0  0  0  0  0  0
  150.4996  140.2295  159.8190 H   0  0  0  0  0  0  0  0  0  0  0  0
  151.5439  135.0631  155.2761 H   0  0  0  0  0  0  0  0  0  0  0  0
  151.8067  134.8848  157.0038 H   0  0  0  0  0  0  0  0  0  0  0  0
  149.4442  133.7375  155.4042 H   0  0  0  0  0  0  0  0  0  0  0  0
  150.7475  132.8238  156.1408 H   0  0  0  0  0  0  0  0  0  0  0  0
  147.8572  134.8559  156.8322 H   0  0  0  0  0  0  0  0  0  0  0  0
  147.0835  133.7512  158.8676 H   0  0  0  0  0  0  0  0  0  0  0  0
  148.4784  134.3275  159.7741 H   0  0  0  0  0  0  0  0  0  0  0  0
  148.8932  136.6498  159.8858 H   0  0  0  0  0  0  0  0  0  0  0  0
  147.4479  137.6037  160.2274 H   0  0  0  0  0  0  0  0  0  0  0  0
  148.7214  136.0514  162.1387 H   0  0  0  0  0  0  0  0  0  0  0  0
  146.3712  134.3383  161.0180 H   0  0  0  0  0  0  0  0  0  0  0  0
  147.3444  134.0082  162.5434 H   0  0  0  0  0  0  0  0  0  0  0  0
  146.6361  136.2332  163.4759 H   0  0  0  0  0  0  0  0  0  0  0  0
  145.6619  136.5594  161.9502 H   0  0  0  0  0  0  0  0  0  0  0  0
  150.0839  136.0193  158.5802 H   0  0  0  0  0  0  0  0  0  0  0  0
  148.8022  136.9403  157.8084 H   0  0  0  0  0  0  0  0  0  0  0  0
  152.9237  138.5875  154.0823 H   0  0  0  0  0  0  0  0  0  0  0  0
  1  2  1  0  0  0  0
  1 30  1  0  0  0  0
  1 31  1  0  0  0  0
  1 32  1  0  0  0  0
  2  6  1  0  0  0  0
  2  3  1  0  0  0  0
  2 33  1  0  0  0  0
  3  4  1  0  0  0  0
  4  5  1  0  0  0  0
  4 34  1  0  0  0  0
  4 35  1  0  0  0  0
  5  6  1  0  0  0  0
  5 36  1  0  0  0  0
  5 37  1  0  0  0  0
  6  7  1  0  0  0  0
  6  8  1  0  0  0  0
  7 38  1  0  0  0  0
  8  9  1  0  0  0  0
  8 39  1  0  0  0  0
  8 40  1  0  0  0  0
  9 29  1  0  0  0  0
  9 10  1  0  0  0  0
 10 11  2  0  0  0  0
 10 41  1  0  0  0  0
 11 12  1  0  0  0  0
 12 29  2  0  0  0  0
 12 13  1  0  0  0  0
 13 14  1  0  0  0  0
 13 26  2  0  0  0  0
 14 25  1  0  0  0  0
 14 15  1  0  0  0  0
 15 16  1  0  0  0  0
 15 42  1  0  0  0  0
 15 43  1  0  0  0  0
 16 17  1  0  0  0  0
 16 44  1  0  0  0  0
 16 45  1  0  0  0  0
 17 18  1  0  0  0  0
 18 19  1  0  0  0  0
 18 25  1  0  0  0  0
 18 46  1  0  0  0  0
 19 20  1  0  0  0  0
 19 47  1  0  0  0  0
 19 48  1  0  0  0  0
 20 21  1  0  0  0  0
 21 22  1  0  0  0  0
 21 49  1  0  0  0  0
 21 50  1  0  0  0  0
 22 24  1  0  0  0  0
 22 23  1  0  0  0  0
 22 51  1  0  0  0  0
 23 24  1  0  0  0  0
 23 52  1  0  0  0  0
 23 53  1  0  0  0  0
 24 54  1  0  0  0  0
 24 55  1  0  0  0  0
 25 56  1  0  0  0  0
 25 57  1  0  0  0  0
 26 27  1  0  0  0  0
 27 28  2  0  0  0  0
 27 58  1  0  0  0  0
 28 29  1  0  0  0  0
M  END
> <s_m_source_file>
AV-unprocessed.smi

> <i_m_source_file_index>
236

> <i_lp_mmshare_version>
43012

> <i_f3d_flags>
0

> <s_epik_input>
W0NIMl0xW0NIMl1PW0NAQEhdKFtDSDNdKVtDQEBdMShbT0hdKVtDSDJdbihbY0hdbjIpYyhjMjMpbltjSF1uYzNONFtDSDJdW0NIMl1PW0NASF0oW0NIMl00KVtDSDJdT1tDSDJdW0NIXTVbQ0gyXVtDSDJdNQ==

> <s_epik_cmdline>
J2VwaWtfcHl0aG9uJywgJy1waCcsICc3LjAnLCAnLXRuJywgJzgnLCAnLW1hJywgJzIwMCcsICctbWV0YWxfYmluZGluZycsICctaW1hZScsICc8aW5maWxlLm1hZT4nLCAnLW9tYWUnLCAnPG91dGZpbGUubWFlPic=

> <r_lp_tautomer_probability>
1

> <r_epik_Ionization_Penalty>
7.21838e-05

> <r_epik_Ionization_Penalty_Charging>
0

> <r_epik_Ionization_Penalty_Neutral>
7.21838e-05

> <r_epik_State_Penalty>
-0

> <r_epik_Charging_Adjusted_Penalty>
0

> <i_epik_Tot_Q>
0

> <i_epik_Tot_abs_Q>
0

> <r_epik_Metal_State_Penalty>
-0

> <b_epik_Metal_Only>
0

> <s_lp_Force_Field>
OPLS_2005

> <r_lp_Energy>
49.116

> <b_lp_Chiralities_Consistent>
1

> <s_lp_Variant>
AV-unprocessed.smi:236-1

> <Gold.Version>
5.8.1

> <Gold.Id.Protein>
6NUR|6NUR_protein|mol2

> <Gold.PLP.Fitness>
50.7914

> <Gold.PLP.PLP>
-41.3078

> <Gold.PLP.part.hbond>
-3.8812

> <Gold.PLP.part.metal>
0.0000

> <Gold.PLP.part.buried>
-8.0776

> <Gold.PLP.part.nonpolar>
-30.9143

> <Gold.PLP.part.repulsive>
0.1523

> <Gold.PLP.ligand.clash>
0.0000

> <Gold.PLP.ligand.torsion>
1.0859

> <Gold.PLP.Chemscore.Hbond>
3.6136

> <Gold.PLP.Chemscore.CHOScore>
0.0000

> <Gold.PLP.Chemscore.Metal>
0.0000

> <Gold.Chemscore.Hbonds>
donor molecule, donor type, donor heavy atom, donor atom, acceptor molecule, acceptor atom, score
      L1  H     7    38       P1  8028  1.00
      P1  H  6896  6907       L1    17  0.36
      P1  H  7997  8010       L1    28  1.00
      P1  H 10752 10765       L1    26  0.24

> <Gold.PLP.Chemscore.Internal.Correction>
0.8147

> <Gold.Rescore>
     Score         DG    S(hbond)    S(metal)    S(lipo)     H(rot)  DE(clash)    DE(int)     intcor
     17.07     -22.25       3.09        0.00     117.98       2.87       2.81       2.38       ----

> <Gold.Chemscore.Fitness>
17.0674

> <Gold.Chemscore.DG>
-22.2521

> <Gold.Chemscore.ZeroCoef>
-5.4800

> <Gold.Chemscore.Hbond>
3.0850

> <Gold.Chemscore.Metal>
0.0000

> <Gold.Chemscore.Lipo>
117.9816

> <Gold.Chemscore.Internal_Hbond>
0.0000

> <Gold.Chemscore.DEClash>
2.8065

> <Gold.Chemscore.DEInternal>
2.3783

> <Gold.Chemscore.Rot>
2.8655

> <Gold.Chemscore.Internal.Correction>
   9.000000E+99

> <Gold.Chemscore.Hbonds>
donor molecule, donor type, donor heavy atom, donor atom, acceptor molecule, acceptor atom, score
      L1  H     7    38       P1  8028  0.99
      P1  H  6896  6907       L1    17  0.14
      P1  H  7997  8010       L1    28  0.70
      P1  H 10752 10765       L1    26  0.15

> <Gold.Chemscore.Hbond.Weighted>
-10.3040

> <Gold.Chemscore.Metal.Weighted>
-0.0000

> <Gold.Chemscore.Lipo.Weighted>
-13.8039

> <Gold.Chemscore.Internal_Hbond.Weighted>
0.0000

> <Gold.Chemscore.DEClash.Weighted>
2.8065

> <Gold.Chemscore.DEInternal.Weighted>
2.3783

> <Gold.Chemscore.Rot.Weighted>
7.3358

> <Gold.Chemscore.Internal.Correction.Weighted>
   9.000000E+99

> <Gold.Protein.RotatedTorsions>
[ 6907 6896 6895 6894 ] final -130.02 input  -60.11 | X-H torsion
[ 7974 7965 7964 7962 ] final  160.87 input  175.53 | X-H torsion
[ 8008 7997 7996 7995 ] final   99.04 input   59.86 | X-H torsion
[ 10167 10162 10161 10158 ] final   72.98 input  -65.29 | X-H torsion
[ 10718 10713 10712 10709 ] final   97.58 input   66.30 | X-H torsion
[ 10763 10752 10751 10750 ] final -174.02 input  -60.55 | X-H torsion
[ 11005 11000 10999 10996 ] final   52.82 input  -57.11 | X-H torsion

> <Gold.Protein.ActiveResidues>
 VAL166  LYS551  ARG553  GLY616  TRP617  ASP618  TYR619  PRO620  LYS621  CYS622 
 ASP623  PHE694  ASN695  SER759  ASP760  ASP761  ALA762  ILE779  LEU786  VAL792 
 PHE793  MET794  SER795  GLU796  ALA797  LYS798  CYS799  TRP800  GLU811  SER814 

> <Gold.Protein.RotatedAtoms>
  150.9351  133.6721  159.2802 H   0  0  0  0  0  0  0  0  0  0  0  0  # atno 6907 bound_to 6896
  151.4130  135.0986  159.9600 H   0  0  0  0  0  0  0  0  0  0  0  0  # atno 6908 bound_to 6896
  152.5044  133.8820  159.7406 H   0  0  0  0  0  0  0  0  0  0  0  0  # atno 6909 bound_to 6896
  144.7714  139.7819  143.6295 H   0  0  0  0  0  0  0  0  0  0  0  0  # atno 7974 bound_to 7965
  156.1065  140.3234  155.8014 H   0  0  0  0  0  0  0  0  0  0  0  0  # atno 8008 bound_to 7997
  155.4746  140.0549  157.2992 H   0  0  0  0  0  0  0  0  0  0  0  0  # atno 8009 bound_to 7997
  154.4731  140.2020  155.9959 H   0  0  0  0  0  0  0  0  0  0  0  0  # atno 8010 bound_to 7997
  140.0294  144.5478  150.7519 H   0  0  0  0  0  0  0  0  0  0  0  0  # atno 10167 bound_to 10162
  157.6910  131.0614  150.4665 H   0  0  0  0  0  0  0  0  0  0  0  0  # atno 10718 bound_to 10713
  154.6011  135.2854  155.0534 H   0  0  0  0  0  0  0  0  0  0  0  0  # atno 10763 bound_to 10752
  154.1799  135.6458  153.5035 H   0  0  0  0  0  0  0  0  0  0  0  0  # atno 10764 bound_to 10752
  153.0157  135.5421  154.6730 H   0  0  0  0  0  0  0  0  0  0  0  0  # atno 10765 bound_to 10752
  140.0818  134.5329  155.8939 H   0  0  0  0  0  0  0  0  0  0  0  0  # atno 11005 bound_to 11000
  146.1863  139.5081  142.9834 LP  0  0  0  0  0  0  0  0  0  0  0  0  # atno 17320 bound_to 7965
  145.6312  141.0303  143.1862 LP  0  0  0  0  0  0  0  0  0  0  0  0  # atno 17321 bound_to 7965
  140.7309  143.2688  151.3956 LP  0  0  0  0  0  0  0  0  0  0  0  0  # atno 17342 bound_to 10162
  139.6086  144.1145  152.2275 LP  0  0  0  0  0  0  0  0  0  0  0  0  # atno 17343 bound_to 10162
  156.5006  130.4116  149.6355 LP  0  0  0  0  0  0  0  0  0  0  0  0  # atno 17370 bound_to 10713
  156.3332  130.7342  151.2275 LP  0  0  0  0  0  0  0  0  0  0  0  0  # atno 17371 bound_to 10713
  141.2049  133.6643  156.6149 LP  0  0  0  0  0  0  0  0  0  0  0  0  # atno 17394 bound_to 11000
  140.3477  134.7795  157.4444 LP  0  0  0  0  0  0  0  0  0  0  0  0  # atno 17395 bound_to 11000

$$$$
