AV-unprocessed.smi:212|AV-procd|sdf|1620|dock4
  -GOLD-   2262019553D 1   1.00000     0.00000
 Structure written by MMmdl.
 65 68  0  0  0  0  0  0  0  0  2 V2000
  149.1379  129.1482  154.1368 C   0  0  0  0  0  0  0  0  0  0  0  0
  148.9349  130.5098  153.4444 C   0  0  1  0  0  0  0  0  0  0  0  0
  147.4481  130.8165  153.1715 C   0  0  0  0  0  0  0  0  0  0  0  0
  147.2963  132.1045  152.4453 N   0  3  1  0  0  0  0  0  0  0  0  0
  145.8916  132.3958  152.0529 C   0  0  0  0  0  0  0  0  0  0  0  0
  145.4962  131.7369  150.7102 C   0  0  0  0  0  0  0  0  0  0  0  0
  145.6828  130.2128  150.7944 C   0  0  0  0  0  0  0  0  0  0  0  0
  144.0515  132.0740  150.2964 C   0  0  0  0  0  0  0  0  0  0  0  0
  146.3676  132.1920  149.6939 O   0  0  0  0  0  0  0  0  0  0  0  0
  147.9484  133.2328  153.1578 C   0  0  0  0  0  0  0  0  0  0  0  0
  149.4253  132.9224  153.4772 C   0  0  0  0  0  0  0  0  0  0  0  0
  149.5869  131.6281  154.1341 N   0  0  0  0  0  0  0  0  0  0  0  0
  149.5246  131.6634  155.4863 C   0  0  0  0  0  0  0  0  0  0  0  0
  150.6437  131.4666  156.2302 N   0  0  0  0  0  0  0  0  0  0  0  0
  150.5740  131.5112  157.5640 C   0  0  0  0  0  0  0  0  0  0  0  0
  149.5090  131.7367  158.3360 N   0  0  0  0  0  0  0  0  0  0  0  0
  148.3851  131.9405  157.5908 C   0  0  0  0  0  0  0  0  0  0  0  0
  148.3069  131.9141  156.1706 C   0  0  0  0  0  0  0  0  0  0  0  0
  147.0031  132.1505  155.7585 N   0  0  0  0  0  0  0  0  0  0  0  0
  146.3449  132.3075  156.8744 C   0  0  0  0  0  0  0  0  0  0  0  0
  147.0991  132.2166  158.0246 N   0  0  0  0  0  0  0  0  0  0  0  0
  146.6184  132.3590  159.3930 C   0  0  0  0  0  0  0  0  0  0  0  0
  147.7132  132.1711  160.4771 C   0  0  2  0  0  0  0  0  0  0  0  0
  147.6669  130.7362  161.0553 C   0  0  0  0  0  0  0  0  0  0  0  0
  147.8912  129.7581  160.0616 O   0  0  0  0  0  0  0  0  0  0  0  0
  147.6350  133.2663  161.5769 C   0  0  2  0  0  0  0  0  0  0  0  0
  146.3971  133.1849  162.4562 C   0  0  0  0  0  0  0  0  0  0  0  0
  146.3642  134.5631  163.1090 C   0  0  0  0  0  0  0  0  0  0  0  0
  146.9687  135.4491  162.1735 O   0  0  0  0  0  0  0  0  0  0  0  0
  147.4957  134.7080  161.0787 C   0  0  0  0  0  0  0  0  0  0  0  0
  148.7382  128.3396  153.5246 H   0  0  0  0  0  0  0  0  0  0  0  0
  148.6350  129.1029  155.1034 H   0  0  0  0  0  0  0  0  0  0  0  0
  150.1966  128.9424  154.2985 H   0  0  0  0  0  0  0  0  0  0  0  0
  149.4314  130.4371  152.4757 H   0  0  0  0  0  0  0  0  0  0  0  0
  147.0144  130.0102  152.5800 H   0  0  0  0  0  0  0  0  0  0  0  0
  146.8857  130.8540  154.1054 H   0  0  0  0  0  0  0  0  0  0  0  0
  145.2078  132.0913  152.8473 H   0  0  0  0  0  0  0  0  0  0  0  0
  145.7548  133.4742  151.9549 H   0  0  0  0  0  0  0  0  0  0  0  0
  145.0349  129.7779  151.5561 H   0  0  0  0  0  0  0  0  0  0  0  0
  146.7103  129.9494  151.0488 H   0  0  0  0  0  0  0  0  0  0  0  0
  145.4448  129.7276  149.8469 H   0  0  0  0  0  0  0  0  0  0  0  0
  143.3397  131.7516  151.0573 H   0  0  0  0  0  0  0  0  0  0  0  0
  143.7801  131.5789  149.3631 H   0  0  0  0  0  0  0  0  0  0  0  0
  143.9112  133.1449  150.1466 H   0  0  0  0  0  0  0  0  0  0  0  0
  147.2013  131.7573  149.7947 H   0  0  0  0  0  0  0  0  0  0  0  0
  147.8965  134.1321  152.5427 H   0  0  0  0  0  0  0  0  0  0  0  0
  147.3955  133.4481  154.0725 H   0  0  0  0  0  0  0  0  0  0  0  0
  150.0035  132.9036  152.5527 H   0  0  0  0  0  0  0  0  0  0  0  0
  149.8541  133.7165  154.0908 H   0  0  0  0  0  0  0  0  0  0  0  0
  151.5033  131.3439  158.0883 H   0  0  0  0  0  0  0  0  0  0  0  0
  145.2825  132.5022  156.8873 H   0  0  0  0  0  0  0  0  0  0  0  0
  146.1791  133.3528  159.4886 H   0  0  0  0  0  0  0  0  0  0  0  0
  145.7949  131.6618  159.5472 H   0  0  0  0  0  0  0  0  0  0  0  0
  148.6699  132.2827  159.9638 H   0  0  0  0  0  0  0  0  0  0  0  0
  148.3920  130.6126  161.8604 H   0  0  0  0  0  0  0  0  0  0  0  0
  146.6826  130.5299  161.4763 H   0  0  0  0  0  0  0  0  0  0  0  0
  148.6475  130.0114  159.5545 H   0  0  0  0  0  0  0  0  0  0  0  0
  148.5227  133.2168  162.2089 H   0  0  0  0  0  0  0  0  0  0  0  0
  145.5058  133.0451  161.8428 H   0  0  0  0  0  0  0  0  0  0  0  0
  146.4260  132.3810  163.1900 H   0  0  0  0  0  0  0  0  0  0  0  0
  145.3512  134.8784  163.3598 H   0  0  0  0  0  0  0  0  0  0  0  0
  146.9575  134.5666  164.0239 H   0  0  0  0  0  0  0  0  0  0  0  0
  148.4429  135.1309  160.7435 H   0  0  0  0  0  0  0  0  0  0  0  0
  146.7845  134.7660  160.2535 H   0  0  0  0  0  0  0  0  0  0  0  0
  147.8059  131.9987  151.5798 H   0  0  0  0  0  0  0  0  0  0  0  0
  1  2  1  0  0  0  0
  1 31  1  0  0  0  0
  1 32  1  0  0  0  0
  1 33  1  0  0  0  0
  2 12  1  0  0  0  0
  2  3  1  0  0  0  0
  2 34  1  0  0  0  0
  3  4  1  0  0  0  0
  3 35  1  0  0  0  0
  3 36  1  0  0  0  0
  4  5  1  0  0  0  0
  4 10  1  0  0  0  0
  4 65  1  0  0  0  0
  5  6  1  0  0  0  0
  5 37  1  0  0  0  0
  5 38  1  0  0  0  0
  6  7  1  0  0  0  0
  6  8  1  0  0  0  0
  6  9  1  0  0  0  0
  7 39  1  0  0  0  0
  7 40  1  0  0  0  0
  7 41  1  0  0  0  0
  8 42  1  0  0  0  0
  8 43  1  0  0  0  0
  8 44  1  0  0  0  0
  9 45  1  0  0  0  0
 10 11  1  0  0  0  0
 10 46  1  0  0  0  0
 10 47  1  0  0  0  0
 11 12  1  0  0  0  0
 11 48  1  0  0  0  0
 11 49  1  0  0  0  0
 12 13  1  0  0  0  0
 13 18  1  0  0  0  0
 13 14  2  0  0  0  0
 14 15  1  0  0  0  0
 15 16  2  0  0  0  0
 15 50  1  0  0  0  0
 16 17  1  0  0  0  0
 17 21  1  0  0  0  0
 17 18  2  0  0  0  0
 18 19  1  0  0  0  0
 19 20  2  0  0  0  0
 20 21  1  0  0  0  0
 20 51  1  0  0  0  0
 21 22  1  0  0  0  0
 22 23  1  0  0  0  0
 22 52  1  0  0  0  0
 22 53  1  0  0  0  0
 23 24  1  0  0  0  0
 23 26  1  0  0  0  0
 23 54  1  0  0  0  0
 24 25  1  0  0  0  0
 24 55  1  0  0  0  0
 24 56  1  0  0  0  0
 25 57  1  0  0  0  0
 26 30  1  0  0  0  0
 26 27  1  0  0  0  0
 26 58  1  0  0  0  0
 27 28  1  0  0  0  0
 27 59  1  0  0  0  0
 27 60  1  0  0  0  0
 28 29  1  0  0  0  0
 28 61  1  0  0  0  0
 28 62  1  0  0  0  0
 29 30  1  0  0  0  0
 30 63  1  0  0  0  0
 30 64  1  0  0  0  0
M  CHG  1   4   1
M  END
> <s_m_source_file>
AV-unprocessed.smi

> <i_m_source_file_index>
212

> <i_lp_mmshare_version>
43012

> <i_f3d_flags>
0

> <s_epik_input>
W0NIM11bQ0BASF0xW0NIMl1OKFtDSDJdQyhbQ0gzXSkoW0NIM10pW09IXSlbQ0gyXVtDSDJdTjFjKG5bY0hdbjIpYyhjMjMpbltjSF1uM1tDSDJdW0NASF0oW0NIMl1bT0hdKVtDQEBIXTRbQ0gyXVtDSDJdT1tDSDJdNA==

> <s_epik_cmdline>
J2VwaWtfcHl0aG9uJywgJy1waCcsICc3LjAnLCAnLXRuJywgJzgnLCAnLW1hJywgJzIwMCcsICctbWV0YWxfYmluZGluZycsICctaW1hZScsICc8aW5maWxlLm1hZT4nLCAnLW9tYWUnLCAnPG91dGZpbGUubWFlPic=

> <r_lp_tautomer_probability>
1

> <r_epik_Ionization_Penalty>
0.00182193

> <r_epik_Ionization_Penalty_Charging>
0.00173996

> <r_epik_Ionization_Penalty_Neutral>
8.19718e-05

> <r_epik_State_Penalty>
-0

> <r_epik_Charging_Adjusted_Penalty>
0.00173996

> <i_epik_Tot_Q>
1

> <i_epik_Tot_abs_Q>
1

> <r_epik_Metal_State_Penalty>
-0

> <b_epik_Metal_Only>
0

> <s_lp_Force_Field>
OPLS_2005

> <r_lp_Energy>
59.7923

> <b_lp_Chiralities_Consistent>
1

> <s_lp_Variant>
AV-unprocessed.smi:212-4

> <Gold.Version>
5.8.1

> <Gold.Id.Protein>
6NUR|6NUR_protein|mol2

> <Gold.PLP.Fitness>
53.9531

> <Gold.PLP.PLP>
-41.4313

> <Gold.PLP.part.hbond>
-5.0000

> <Gold.PLP.part.metal>
0.0000

> <Gold.PLP.part.buried>
-6.4614

> <Gold.PLP.part.nonpolar>
-29.0954

> <Gold.PLP.part.repulsive>
0.0719

> <Gold.PLP.ligand.clash>
0.0000

> <Gold.PLP.ligand.torsion>
1.2329

> <Gold.PLP.Chemscore.Hbond>
4.5808

> <Gold.PLP.Chemscore.CHOScore>
0.0000

> <Gold.PLP.Chemscore.Metal>
0.0000

> <Gold.Chemscore.Hbonds>
donor molecule, donor type, donor heavy atom, donor atom, acceptor molecule, acceptor atom, score
      L1  H     4    65       P1 10747  0.84
      L1  H     9    45       P1 10747  1.00

> <Gold.PLP.Chemscore.Internal.Correction>
1.2454

> <Gold.Rescore>
     Score         DG    S(hbond)    S(metal)    S(lipo)     H(rot)  DE(clash)    DE(int)     intcor
     14.39     -21.35       3.65        0.00     111.98       3.68       1.98       4.97       ----

> <Gold.Chemscore.Fitness>
14.3944

> <Gold.Chemscore.DG>
-21.3488

> <Gold.Chemscore.ZeroCoef>
-5.4800

> <Gold.Chemscore.Hbond>
3.6500

> <Gold.Chemscore.Metal>
0.0000

> <Gold.Chemscore.Lipo>
111.9816

> <Gold.Chemscore.Internal_Hbond>
0.0000

> <Gold.Chemscore.DEClash>
1.9825

> <Gold.Chemscore.DEInternal>
4.9719

> <Gold.Chemscore.Rot>
3.6812

> <Gold.Chemscore.Internal.Correction>
   9.000000E+99

> <Gold.Chemscore.Hbonds>
donor molecule, donor type, donor heavy atom, donor atom, acceptor molecule, acceptor atom, score
      L1  H     4    65       P1 10747  0.80
      L1  H     9    45       P1 10747  0.93

> <Gold.Chemscore.Hbond.Weighted>
-12.1909

> <Gold.Chemscore.Metal.Weighted>
-0.0000

> <Gold.Chemscore.Lipo.Weighted>
-13.1018

> <Gold.Chemscore.Internal_Hbond.Weighted>
0.0000

> <Gold.Chemscore.DEClash.Weighted>
1.9825

> <Gold.Chemscore.DEInternal.Weighted>
4.9719

> <Gold.Chemscore.Rot.Weighted>
9.4239

> <Gold.Chemscore.Internal.Correction.Weighted>
   9.000000E+99

> <Gold.Protein.RotatedTorsions>
[ 6907 6896 6895 6894 ] final -111.25 input  -60.11 | X-H torsion
[ 7974 7965 7964 7962 ] final  -22.13 input  175.53 | X-H torsion
[ 8008 7997 7996 7995 ] final  -18.85 input   59.86 | X-H torsion
[ 10167 10162 10161 10158 ] final -168.21 input  -65.29 | X-H torsion
[ 10718 10713 10712 10709 ] final -171.84 input   66.30 | X-H torsion
[ 10763 10752 10751 10750 ] final -144.27 input  -60.55 | X-H torsion
[ 11005 11000 10999 10996 ] final  107.64 input  -57.11 | X-H torsion

> <Gold.Protein.ActiveResidues>
 VAL166  LYS551  ARG553  GLY616  TRP617  ASP618  TYR619  PRO620  LYS621  CYS622 
 ASP623  PHE694  ASN695  SER759  ASP760  ASP761  ALA762  ILE779  LEU786  VAL792 
 PHE793  MET794  SER795  GLU796  ALA797  LYS798  CYS799  TRP800  GLU811  SER814 

> <Gold.Protein.RotatedAtoms>
  150.7678  133.9263  159.3413 H   0  0  0  0  0  0  0  0  0  0  0  0  # atno 6907 bound_to 6896
  151.7157  135.0902  160.0285 H   0  0  0  0  0  0  0  0  0  0  0  0  # atno 6908 bound_to 6896
  152.3681  133.6346  159.6102 H   0  0  0  0  0  0  0  0  0  0  0  0  # atno 6909 bound_to 6896
  146.1693  140.4436  142.8539 H   0  0  0  0  0  0  0  0  0  0  0  0  # atno 7974 bound_to 7965
  154.4877  140.2104  155.9618 H   0  0  0  0  0  0  0  0  0  0  0  0  # atno 8008 bound_to 7997
  156.1260  140.3205  155.8247 H   0  0  0  0  0  0  0  0  0  0  0  0  # atno 8009 bound_to 7997
  155.4383  140.0508  157.3003 H   0  0  0  0  0  0  0  0  0  0  0  0  # atno 8010 bound_to 7997
  139.6000  144.1031  152.1732 H   0  0  0  0  0  0  0  0  0  0  0  0  # atno 10167 bound_to 10162
  156.7468  130.9363  151.3113 H   0  0  0  0  0  0  0  0  0  0  0  0  # atno 10718 bound_to 10713
  154.8435  135.3445  154.6320 H   0  0  0  0  0  0  0  0  0  0  0  0  # atno 10763 bound_to 10752
  153.6930  135.6974  153.5089 H   0  0  0  0  0  0  0  0  0  0  0  0  # atno 10764 bound_to 10752
  153.2581  135.4332  155.0821 H   0  0  0  0  0  0  0  0  0  0  0  0  # atno 10765 bound_to 10752
  139.8831  134.9407  156.5851 H   0  0  0  0  0  0  0  0  0  0  0  0  # atno 11005 bound_to 11000
  144.8139  140.6434  143.6397 LP  0  0  0  0  0  0  0  0  0  0  0  0  # atno 17320 bound_to 7965
  145.4382  139.1539  143.3985 LP  0  0  0  0  0  0  0  0  0  0  0  0  # atno 17321 bound_to 7965
  140.0625  144.5845  150.7252 LP  0  0  0  0  0  0  0  0  0  0  0  0  # atno 17342 bound_to 10162
  140.7242  143.2619  151.4177 LP  0  0  0  0  0  0  0  0  0  0  0  0  # atno 17343 bound_to 10162
  157.6794  130.9126  150.0230 LP  0  0  0  0  0  0  0  0  0  0  0  0  # atno 17370 bound_to 10713
  156.1428  130.3642  149.9557 LP  0  0  0  0  0  0  0  0  0  0  0  0  # atno 17371 bound_to 10713
  140.7998  133.8515  155.8717 LP  0  0  0  0  0  0  0  0  0  0  0  0  # atno 17394 bound_to 11000
  140.9603  134.1664  157.4659 LP  0  0  0  0  0  0  0  0  0  0  0  0  # atno 17395 bound_to 11000

$$$$
