AV-unprocessed.smi:1318|AV-procd|sdf|5457|dock2
  -GOLD-   22720 5 23D 1   1.00000     0.00000
 Structure written by MMmdl.
 28 29  0  0  0  0  0  0  0  0  1 V2000
  154.5395  140.6365  160.0053 C   0  0  0  0  0  0  0  0  0  0  0  0
  153.4986  141.6910  159.8468 C   0  0  0  0  0  0  0  0  0  0  0  0
  152.6306  141.7180  158.8325 N   0  0  0  0  0  0  0  0  0  0  0  0
  151.7533  142.8049  158.9026 C   0  0  0  0  0  0  0  0  0  0  0  0
  150.7120  142.9956  157.8421 C   0  0  0  0  0  0  0  0  0  0  0  0
  150.7219  141.8577  156.8075 C   0  0  0  0  0  0  0  0  0  0  0  0
  149.7158  142.0622  155.7714 N   0  0  0  0  0  0  0  0  0  0  0  0
  149.5079  141.2477  154.7256 C   0  0  0  0  0  0  0  0  0  0  0  0
  150.1627  140.2224  154.5328 O   0  0  0  0  0  0  0  0  0  0  0  0
  148.4095  141.6957  153.8178 C   0  0  0  0  0  0  0  0  0  0  0  0
  147.0474  141.9447  154.4334 C   0  0  0  0  0  0  0  0  0  0  0  0
  147.2683  140.7312  153.5657 C   0  0  0  0  0  0  0  0  0  0  0  0
  151.9728  143.6074  159.9946 C   0  0  0  0  0  0  0  0  0  0  0  0
  153.2903  143.0253  160.9748 S   0  0  0  0  0  0  0  0  0  0  0  0
  154.0739  139.6514  160.0349 H   0  0  0  0  0  0  0  0  0  0  0  0
  155.0954  140.7881  160.9307 H   0  0  0  0  0  0  0  0  0  0  0  0
  155.2371  140.6709  159.1683 H   0  0  0  0  0  0  0  0  0  0  0  0
  149.7265  143.0653  158.3045 H   0  0  0  0  0  0  0  0  0  0  0  0
  150.8706  143.9477  157.3340 H   0  0  0  0  0  0  0  0  0  0  0  0
  151.6974  141.8069  156.3233 H   0  0  0  0  0  0  0  0  0  0  0  0
  150.5667  140.8936  157.2947 H   0  0  0  0  0  0  0  0  0  0  0  0
  149.1362  142.8848  155.8543 H   0  0  0  0  0  0  0  0  0  0  0  0
  148.6959  142.3411  152.9886 H   0  0  0  0  0  0  0  0  0  0  0  0
  146.9210  141.7802  155.5020 H   0  0  0  0  0  0  0  0  0  0  0  0
  146.4637  142.7665  154.0235 H   0  0  0  0  0  0  0  0  0  0  0  0
  146.8345  140.7309  152.5680 H   0  0  0  0  0  0  0  0  0  0  0  0
  147.2884  139.7604  154.0582 H   0  0  0  0  0  0  0  0  0  0  0  0
  151.4418  144.5030  160.2806 H   0  0  0  0  0  0  0  0  0  0  0  0
  1  2  1  0  0  0  0
  1 15  1  0  0  0  0
  1 16  1  0  0  0  0
  1 17  1  0  0  0  0
  2 14  1  0  0  0  0
  2  3  2  0  0  0  0
  3  4  1  0  0  0  0
  4  5  1  0  0  0  0
  4 13  2  0  0  0  0
  5  6  1  0  0  0  0
  5 18  1  0  0  0  0
  5 19  1  0  0  0  0
  6  7  1  0  0  0  0
  6 20  1  0  0  0  0
  6 21  1  0  0  0  0
  7  8  1  0  0  0  0
  7 22  1  0  0  0  0
  8  9  2  0  0  0  0
  8 10  1  0  0  0  0
 10 12  1  0  0  0  0
 10 11  1  0  0  0  0
 10 23  1  0  0  0  0
 11 12  1  0  0  0  0
 11 24  1  0  0  0  0
 11 25  1  0  0  0  0
 12 26  1  0  0  0  0
 12 27  1  0  0  0  0
 13 14  1  0  0  0  0
 13 28  1  0  0  0  0
M  END
> <s_m_source_file>
AV-unprocessed.smi

> <i_m_source_file_index>
1318

> <i_lp_mmshare_version>
43012

> <i_f3d_flags>
0

> <s_epik_input>
W0NIM11jMW5jKFtjSF1zMSlbQ0gyXVtDSDJdW05IXUMoPU8pW0NIXTJbQ0gyXVtDSDJdMg==

> <s_epik_cmdline>
J2VwaWtfcHl0aG9uJywgJy1waCcsICc3LjAnLCAnLXRuJywgJzgnLCAnLW1hJywgJzIwMCcsICctbWV0YWxfYmluZGluZycsICctaW1hZScsICc8aW5maWxlLm1hZT4nLCAnLW9tYWUnLCAnPG91dGZpbGUubWFlPic=

> <r_epik_Ionization_Penalty>
0.00109668

> <r_epik_Ionization_Penalty_Charging>
0

> <r_epik_Ionization_Penalty_Neutral>
0.00109668

> <r_epik_State_Penalty>
0.000719322

> <r_epik_Charging_Adjusted_Penalty>
0.000719322

> <i_epik_Tot_Q>
0

> <i_epik_Tot_abs_Q>
0

> <r_epik_Metal_State_Penalty>
-0

> <b_epik_Metal_Only>
0

> <s_lp_Force_Field>
OPLS_2005

> <r_lp_Energy>
0.582663

> <b_lp_Chiralities_Consistent>
1

> <s_lp_Variant>
AV-unprocessed.smi:1318-1

> <Gold.Version>
5.8.1

> <Gold.Id.Protein>
6NUR|6NUR_protein|mol2

> <Gold.PLP.Fitness>
39.6132

> <Gold.PLP.PLP>
-33.6327

> <Gold.PLP.part.hbond>
-2.0000

> <Gold.PLP.part.metal>
0.0000

> <Gold.PLP.part.buried>
-2.2281

> <Gold.PLP.part.nonpolar>
-28.6349

> <Gold.PLP.part.repulsive>
0.2231

> <Gold.PLP.ligand.clash>
0.0000

> <Gold.PLP.ligand.torsion>
0.0455

> <Gold.PLP.Chemscore.Hbond>
2.0000

> <Gold.PLP.Chemscore.CHOScore>
0.0000

> <Gold.PLP.Chemscore.Metal>
0.0000

> <Gold.Chemscore.Hbonds>
donor molecule, donor type, donor heavy atom, donor atom, acceptor molecule, acceptor atom, score
      L1  H     7    22       P1  8028  1.00
      P1  H  7989  7998       L1     9  1.00

> <Gold.PLP.Chemscore.Internal.Correction>
0.0716

> <Gold.Rescore>
     Score         DG    S(hbond)    S(metal)    S(lipo)     H(rot)  DE(clash)    DE(int)     intcor
     16.43     -16.93       1.56        0.00      86.09       1.49       0.35       0.15       ----

> <Gold.Chemscore.Fitness>
16.4330

> <Gold.Chemscore.DG>
-16.9319

> <Gold.Chemscore.ZeroCoef>
-5.4800

> <Gold.Chemscore.Hbond>
1.5565

> <Gold.Chemscore.Metal>
0.0000

> <Gold.Chemscore.Lipo>
86.0899

> <Gold.Chemscore.Internal_Hbond>
0.0000

> <Gold.Chemscore.DEClash>
0.3460

> <Gold.Chemscore.DEInternal>
0.1529

> <Gold.Chemscore.Rot>
1.4919

> <Gold.Chemscore.Internal.Correction>
   9.000000E+99

> <Gold.Chemscore.Hbonds>
donor molecule, donor type, donor heavy atom, donor atom, acceptor molecule, acceptor atom, score
      L1  H     7    22       P1  8028  0.95
      P1  H  7989  7998       L1     9  0.33

> <Gold.Chemscore.Hbond.Weighted>
-5.1986

> <Gold.Chemscore.Metal.Weighted>
-0.0000

> <Gold.Chemscore.Lipo.Weighted>
-10.0725

> <Gold.Chemscore.Internal_Hbond.Weighted>
0.0000

> <Gold.Chemscore.DEClash.Weighted>
0.3460

> <Gold.Chemscore.DEInternal.Weighted>
0.1529

> <Gold.Chemscore.Rot.Weighted>
3.8192

> <Gold.Chemscore.Internal.Correction.Weighted>
   9.000000E+99

> <Gold.Protein.RotatedTorsions>
[ 6907 6896 6895 6894 ] final   -2.88 input  -60.11 | X-H torsion
[ 7974 7965 7964 7962 ] final  -37.92 input  175.53 | X-H torsion
[ 8008 7997 7996 7995 ] final   61.86 input   59.86 | X-H torsion
[ 10167 10162 10161 10158 ] final  -51.24 input  -65.29 | X-H torsion
[ 10718 10713 10712 10709 ] final -172.70 input   66.30 | X-H torsion
[ 10763 10752 10751 10750 ] final  -25.97 input  -60.55 | X-H torsion
[ 11005 11000 10999 10996 ] final    3.10 input  -57.11 | X-H torsion

> <Gold.Protein.ActiveResidues>
 VAL166  LYS551  ARG553  GLY616  TRP617  ASP618  TYR619  PRO620  LYS621  CYS622 
 ASP623  PHE694  ASN695  SER759  ASP760  ASP761  ALA762  ILE779  LEU786  VAL792 
 PHE793  MET794  SER795  GLU796  ALA797  LYS798  CYS799  TRP800  GLU811  SER814 

> <Gold.Protein.RotatedAtoms>
  151.5228  135.1067  159.9882 H   0  0  0  0  0  0  0  0  0  0  0  0  # atno 6907 bound_to 6896
  152.4613  133.7824  159.6868 H   0  0  0  0  0  0  0  0  0  0  0  0  # atno 6908 bound_to 6896
  150.8577  133.7626  159.3028 H   0  0  0  0  0  0  0  0  0  0  0  0  # atno 6909 bound_to 6896
  146.0532  140.6452  142.9032 H   0  0  0  0  0  0  0  0  0  0  0  0  # atno 7974 bound_to 7965
  155.6051  140.3494  155.4605 H   0  0  0  0  0  0  0  0  0  0  0  0  # atno 8008 bound_to 7997
  156.0198  140.1251  157.0393 H   0  0  0  0  0  0  0  0  0  0  0  0  # atno 8009 bound_to 7997
  154.4311  140.1065  156.5934 H   0  0  0  0  0  0  0  0  0  0  0  0  # atno 8010 bound_to 7997
  140.6598  143.2627  151.4474 H   0  0  0  0  0  0  0  0  0  0  0  0  # atno 10167 bound_to 10162
  156.7595  130.9408  151.3117 H   0  0  0  0  0  0  0  0  0  0  0  0  # atno 10718 bound_to 10713
  153.7084  135.6952  153.5044 H   0  0  0  0  0  0  0  0  0  0  0  0  # atno 10763 bound_to 10752
  153.2290  135.4344  155.0574 H   0  0  0  0  0  0  0  0  0  0  0  0  # atno 10764 bound_to 10752
  154.8322  135.3479  154.6622 H   0  0  0  0  0  0  0  0  0  0  0  0  # atno 10765 bound_to 10752
  140.5969  133.9872  155.8114 H   0  0  0  0  0  0  0  0  0  0  0  0  # atno 11005 bound_to 11000
  144.7134  140.4122  143.7063 LP  0  0  0  0  0  0  0  0  0  0  0  0  # atno 17320 bound_to 7965
  145.6688  139.1595  143.2766 LP  0  0  0  0  0  0  0  0  0  0  0  0  # atno 17321 bound_to 7965
  139.5829  144.1669  152.1992 LP  0  0  0  0  0  0  0  0  0  0  0  0  # atno 17342 bound_to 10162
  140.0999  144.5548  150.6996 LP  0  0  0  0  0  0  0  0  0  0  0  0  # atno 17343 bound_to 10162
  157.6741  130.9078  150.0109 LP  0  0  0  0  0  0  0  0  0  0  0  0  # atno 17370 bound_to 10713
  156.1349  130.3643  149.9674 LP  0  0  0  0  0  0  0  0  0  0  0  0  # atno 17371 bound_to 10713
  141.0898  133.9935  157.3256 LP  0  0  0  0  0  0  0  0  0  0  0  0  # atno 17394 bound_to 11000
  139.9249  135.0201  156.8199 LP  0  0  0  0  0  0  0  0  0  0  0  0  # atno 17395 bound_to 11000

$$$$
