AV-unprocessed.smi:260|AV-procd|sdf|1982|dock1
  -GOLD-   2262021153D 1   1.00000     0.00000
 Structure written by MMmdl.
 53 56  0  0  0  0  0  0  0  0  1 V2000
  141.6926  141.5833  155.0625 C   0  0  0  0  0  0  0  0  0  0  0  0
  142.5959  140.4667  154.8319 N   0  0  0  0  0  0  0  0  0  0  0  0
  143.1244  139.7041  155.8025 C   0  0  0  0  0  0  0  0  0  0  0  0
  142.8855  139.9069  156.9939 O   0  0  0  0  0  0  0  0  0  0  0  0
  144.0644  138.5368  155.4013 C   0  0  2  0  0  0  0  0  0  0  0  0
  143.2999  137.5736  154.4721 C   0  0  0  0  0  0  0  0  0  0  0  0
  144.7059  137.7972  156.5985 C   0  0  0  0  0  0  0  0  0  0  0  0
  145.9193  138.6521  156.9882 C   0  0  0  0  0  0  0  0  0  0  0  0
  146.2395  139.4308  155.8011 N   0  0  0  0  0  0  0  0  0  0  0  0
  147.4940  139.8949  155.5681 C   0  0  0  0  0  0  0  0  0  0  0  0
  147.7878  140.3894  154.3363 N   0  0  0  0  0  0  0  0  0  0  0  0
  149.0083  140.8610  154.0669 C   0  0  0  0  0  0  0  0  0  0  0  0
  150.0690  140.9377  154.8716 N   0  0  0  0  0  0  0  0  0  0  0  0
  149.7808  140.4542  156.1132 C   0  0  0  0  0  0  0  0  0  0  0  0
  148.5331  139.9187  156.5450 C   0  0  0  0  0  0  0  0  0  0  0  0
  148.6264  139.5404  157.8808 N   0  0  0  0  0  0  0  0  0  0  0  0
  149.8542  139.8295  158.2147 C   0  0  0  0  0  0  0  0  0  0  0  0
  150.6160  140.3845  157.2131 N   0  0  0  0  0  0  0  0  0  0  0  0
  152.0013  140.8097  157.3048 C   0  0  0  0  0  0  0  0  0  0  0  0
  152.3154  141.4920  158.6505 C   0  0  1  0  0  0  0  0  0  0  0  0
  153.4026  140.8526  159.2922 O   0  0  0  0  0  0  0  0  0  0  0  0
  152.5857  143.0031  158.5063 C   0  0  1  0  0  0  0  0  0  0  0  0
  151.5456  143.8104  157.7251 C   0  0  0  0  0  0  0  0  0  0  0  0
  151.7903  145.2025  158.2629 C   0  0  0  0  0  0  0  0  0  0  0  0
  152.0838  144.9216  159.7349 C   0  0  0  0  0  0  0  0  0  0  0  0
  152.7164  143.6447  159.7728 O   0  0  0  0  0  0  0  0  0  0  0  0
  145.3252  139.0973  154.7162 C   0  0  0  0  0  0  0  0  0  0  0  0
  141.4014  142.0282  154.1110 H   0  0  0  0  0  0  0  0  0  0  0  0
  142.1734  142.3536  155.6670 H   0  0  0  0  0  0  0  0  0  0  0  0
  140.7886  141.2513  155.5749 H   0  0  0  0  0  0  0  0  0  0  0  0
  142.8278  140.2502  153.8734 H   0  0  0  0  0  0  0  0  0  0  0  0
  143.9386  136.7567  154.1347 H   0  0  0  0  0  0  0  0  0  0  0  0
  142.9297  138.0810  153.5802 H   0  0  0  0  0  0  0  0  0  0  0  0
  142.4440  137.1288  154.9812 H   0  0  0  0  0  0  0  0  0  0  0  0
  144.0326  137.6121  157.4359 H   0  0  0  0  0  0  0  0  0  0  0  0
  145.0611  136.8188  156.2716 H   0  0  0  0  0  0  0  0  0  0  0  0
  145.6684  139.3331  157.8021 H   0  0  0  0  0  0  0  0  0  0  0  0
  146.7531  138.0256  157.3075 H   0  0  0  0  0  0  0  0  0  0  0  0
  149.1548  141.2310  153.0629 H   0  0  0  0  0  0  0  0  0  0  0  0
  150.2379  139.6513  159.2087 H   0  0  0  0  0  0  0  0  0  0  0  0
  152.6421  139.9399  157.1549 H   0  0  0  0  0  0  0  0  0  0  0  0
  152.2036  141.4928  156.4790 H   0  0  0  0  0  0  0  0  0  0  0  0
  151.4537  141.3704  159.3083 H   0  0  0  0  0  0  0  0  0  0  0  0
  153.7651  141.4503  159.9283 H   0  0  0  0  0  0  0  0  0  0  0  0
  153.5476  143.1324  158.0069 H   0  0  0  0  0  0  0  0  0  0  0  0
  151.6754  143.7389  156.6449 H   0  0  0  0  0  0  0  0  0  0  0  0
  150.5287  143.5003  157.9675 H   0  0  0  0  0  0  0  0  0  0  0  0
  152.6652  145.6421  157.7817 H   0  0  0  0  0  0  0  0  0  0  0  0
  150.9443  145.8748  158.1173 H   0  0  0  0  0  0  0  0  0  0  0  0
  152.7088  145.6904  160.1896 H   0  0  0  0  0  0  0  0  0  0  0  0
  151.1538  144.8624  160.3019 H   0  0  0  0  0  0  0  0  0  0  0  0
  145.7855  138.3451  154.0735 H   0  0  0  0  0  0  0  0  0  0  0  0
  145.1128  139.9734  154.1013 H   0  0  0  0  0  0  0  0  0  0  0  0
  1  2  1  0  0  0  0
  1 28  1  0  0  0  0
  1 29  1  0  0  0  0
  1 30  1  0  0  0  0
  2  3  1  0  0  0  0
  2 31  1  0  0  0  0
  3  4  2  0  0  0  0
  3  5  1  0  0  0  0
  5 27  1  0  0  0  0
  5  6  1  0  0  0  0
  5  7  1  0  0  0  0
  6 32  1  0  0  0  0
  6 33  1  0  0  0  0
  6 34  1  0  0  0  0
  7  8  1  0  0  0  0
  7 35  1  0  0  0  0
  7 36  1  0  0  0  0
  8  9  1  0  0  0  0
  8 37  1  0  0  0  0
  8 38  1  0  0  0  0
  9 10  1  0  0  0  0
  9 27  1  0  0  0  0
 10 15  1  0  0  0  0
 10 11  2  0  0  0  0
 11 12  1  0  0  0  0
 12 13  2  0  0  0  0
 12 39  1  0  0  0  0
 13 14  1  0  0  0  0
 14 18  1  0  0  0  0
 14 15  2  0  0  0  0
 15 16  1  0  0  0  0
 16 17  2  0  0  0  0
 17 18  1  0  0  0  0
 17 40  1  0  0  0  0
 18 19  1  0  0  0  0
 19 20  1  0  0  0  0
 19 41  1  0  0  0  0
 19 42  1  0  0  0  0
 20 21  1  0  0  0  0
 20 22  1  0  0  0  0
 20 43  1  0  0  0  0
 21 44  1  0  0  0  0
 22 26  1  0  0  0  0
 22 23  1  0  0  0  0
 22 45  1  0  0  0  0
 23 24  1  0  0  0  0
 23 46  1  0  0  0  0
 23 47  1  0  0  0  0
 24 25  1  0  0  0  0
 24 48  1  0  0  0  0
 24 49  1  0  0  0  0
 25 26  1  0  0  0  0
 25 50  1  0  0  0  0
 25 51  1  0  0  0  0
 27 52  1  0  0  0  0
 27 53  1  0  0  0  0
M  END
> <s_m_source_file>
AV-unprocessed.smi

> <i_m_source_file_index>
260

> <i_lp_mmshare_version>
43012

> <i_f3d_flags>
0

> <s_epik_input>
W0NIM11bTkhdQyg9TylbQ0BAXTEoW0NIM10pW0NIMl1bQ0gyXU4oW0NIMl0xKWMobltjSF1uMiljKGMyMyluW2NIXW4zW0NIMl1bQ0BIXShbT0hdKVtDQEBIXTRbQ0gyXVtDSDJdW0NIMl1PNA==

> <s_epik_cmdline>
J2VwaWtfcHl0aG9uJywgJy1waCcsICc3LjAnLCAnLXRuJywgJzgnLCAnLW1hJywgJzIwMCcsICctbWV0YWxfYmluZGluZycsICctaW1hZScsICc8aW5maWxlLm1hZT4nLCAnLW9tYWUnLCAnPG91dGZpbGUubWFlPic=

> <r_lp_tautomer_probability>
1

> <r_epik_Ionization_Penalty>
0.00115068

> <r_epik_Ionization_Penalty_Charging>
0

> <r_epik_Ionization_Penalty_Neutral>
0.00115068

> <r_epik_State_Penalty>
0.000668876

> <r_epik_Charging_Adjusted_Penalty>
0.000668876

> <i_epik_Tot_Q>
0

> <i_epik_Tot_abs_Q>
0

> <r_epik_Metal_State_Penalty>
-0

> <b_epik_Metal_Only>
0

> <s_lp_Force_Field>
OPLS_2005

> <r_lp_Energy>
50.4325

> <b_lp_Chiralities_Consistent>
1

> <s_lp_Variant>
AV-unprocessed.smi:260-8

> <Gold.Version>
5.8.1

> <Gold.Id.Protein>
6NUR|6NUR_protein|mol2

> <Gold.PLP.Fitness>
36.8670

> <Gold.PLP.PLP>
-31.2132

> <Gold.PLP.part.hbond>
-2.0000

> <Gold.PLP.part.metal>
0.0000

> <Gold.PLP.part.buried>
-4.4591

> <Gold.PLP.part.nonpolar>
-23.1331

> <Gold.PLP.part.repulsive>
0.2107

> <Gold.PLP.ligand.clash>
0.0000

> <Gold.PLP.ligand.torsion>
1.1928

> <Gold.PLP.Chemscore.Hbond>
1.5572

> <Gold.PLP.Chemscore.CHOScore>
0.9292

> <Gold.PLP.Chemscore.Metal>
0.0000

> <Gold.Chemscore.Hbonds>
donor molecule, donor type, donor heavy atom, donor atom, acceptor molecule, acceptor atom, score
      L1  H     2    31       P1 10175  1.00
      P1  H  7989  7998       L1    13  0.66
      L1  C    12    39       P1  7957  0.99

> <Gold.PLP.Chemscore.Internal.Correction>
0.5800

> <Gold.Rescore>
     Score         DG    S(hbond)    S(metal)    S(lipo)     H(rot)  DE(clash)    DE(int)     intcor
      8.74     -10.84       1.02        0.00      71.95       2.53       0.04       2.06       ----

> <Gold.Chemscore.Fitness>
8.7421

> <Gold.Chemscore.DG>
-10.8411

> <Gold.Chemscore.ZeroCoef>
-5.4800

> <Gold.Chemscore.Hbond>
1.0208

> <Gold.Chemscore.Metal>
0.0000

> <Gold.Chemscore.Lipo>
71.9484

> <Gold.Chemscore.Internal_Hbond>
0.0000

> <Gold.Chemscore.DEClash>
0.0382

> <Gold.Chemscore.DEInternal>
2.0608

> <Gold.Chemscore.Rot>
2.5259

> <Gold.Chemscore.Internal.Correction>
   9.000000E+99

> <Gold.Chemscore.Hbonds>
donor molecule, donor type, donor heavy atom, donor atom, acceptor molecule, acceptor atom, score
      L1  H     2    31       P1 10175  0.93
      P1  H  7989  7998       L1    13  0.19

> <Gold.Chemscore.Hbond.Weighted>
-3.4094

> <Gold.Chemscore.Metal.Weighted>
-0.0000

> <Gold.Chemscore.Lipo.Weighted>
-8.4180

> <Gold.Chemscore.Internal_Hbond.Weighted>
0.0000

> <Gold.Chemscore.DEClash.Weighted>
0.0382

> <Gold.Chemscore.DEInternal.Weighted>
2.0608

> <Gold.Chemscore.Rot.Weighted>
6.4663

> <Gold.Chemscore.Internal.Correction.Weighted>
   9.000000E+99

> <Gold.Protein.RotatedTorsions>
[ 6907 6896 6895 6894 ] final   61.35 input  -60.11 | X-H torsion
[ 7974 7965 7964 7962 ] final  156.65 input  175.53 | X-H torsion
[ 8008 7997 7996 7995 ] final -133.82 input   59.86 | X-H torsion
[ 10167 10162 10161 10158 ] final  106.36 input  -65.29 | X-H torsion
[ 10718 10713 10712 10709 ] final  123.21 input   66.30 | X-H torsion
[ 10763 10752 10751 10750 ] final  101.56 input  -60.55 | X-H torsion
[ 11005 11000 10999 10996 ] final  101.18 input  -57.11 | X-H torsion

> <Gold.Protein.ActiveResidues>
 VAL166  LYS551  ARG553  GLY616  TRP617  ASP618  TYR619  PRO620  LYS621  CYS622 
 ASP623  PHE694  ASN695  SER759  ASP760  ASP761  ALA762  ILE779  LEU786  VAL792 
 PHE793  MET794  SER795  GLU796  ALA797  LYS798  CYS799  TRP800  GLU811  SER814 

> <Gold.Protein.RotatedAtoms>
  152.4081  134.6172  160.0040 H   0  0  0  0  0  0  0  0  0  0  0  0  # atno 6907 bound_to 6896
  151.6357  133.3323  159.3127 H   0  0  0  0  0  0  0  0  0  0  0  0  # atno 6908 bound_to 6896
  150.7974  134.7085  159.6635 H   0  0  0  0  0  0  0  0  0  0  0  0  # atno 6909 bound_to 6896
  144.7950  139.7232  143.6205 H   0  0  0  0  0  0  0  0  0  0  0  0  # atno 7974 bound_to 7965
  155.3518  140.0478  157.3046 H   0  0  0  0  0  0  0  0  0  0  0  0  # atno 8008 bound_to 7997
  154.5223  140.2229  155.8917 H   0  0  0  0  0  0  0  0  0  0  0  0  # atno 8009 bound_to 7997
  156.1703  140.3097  155.8967 H   0  0  0  0  0  0  0  0  0  0  0  0  # atno 8010 bound_to 7997
  139.7016  144.7093  151.1176 H   0  0  0  0  0  0  0  0  0  0  0  0  # atno 10167 bound_to 10162
  157.5683  131.1085  150.8414 H   0  0  0  0  0  0  0  0  0  0  0  0  # atno 10718 bound_to 10713
  153.3283  135.4040  155.1474 H   0  0  0  0  0  0  0  0  0  0  0  0  # atno 10763 bound_to 10752
  154.8617  135.3604  154.5504 H   0  0  0  0  0  0  0  0  0  0  0  0  # atno 10764 bound_to 10752
  153.5941  135.7073  153.5470 H   0  0  0  0  0  0  0  0  0  0  0  0  # atno 10765 bound_to 10752
  139.8772  134.9172  156.4868 H   0  0  0  0  0  0  0  0  0  0  0  0  # atno 11005 bound_to 11000
  146.2216  139.5645  142.9615 LP  0  0  0  0  0  0  0  0  0  0  0  0  # atno 17320 bound_to 7965
  145.5696  141.0395  143.2181 LP  0  0  0  0  0  0  0  0  0  0  0  0  # atno 17321 bound_to 7965
  140.7711  143.5416  150.9306 LP  0  0  0  0  0  0  0  0  0  0  0  0  # atno 17342 bound_to 10162
  139.9098  143.6734  152.3117 LP  0  0  0  0  0  0  0  0  0  0  0  0  # atno 17343 bound_to 10162
  156.8893  130.5207  149.5287 LP  0  0  0  0  0  0  0  0  0  0  0  0  # atno 17370 bound_to 10713
  156.0729  130.5758  150.9419 LP  0  0  0  0  0  0  0  0  0  0  0  0  # atno 17371 bound_to 10713
  140.8687  133.8005  155.9341 LP  0  0  0  0  0  0  0  0  0  0  0  0  # atno 17394 bound_to 11000
  140.8975  134.2419  157.5060 LP  0  0  0  0  0  0  0  0  0  0  0  0  # atno 17395 bound_to 11000

$$$$
