AV-unprocessed.smi:1824|AV-procd|sdf|7403|dock6
  -GOLD-   22720 9 73D 1   1.00000     0.00000
 Structure written by MMmdl.
 45 47  0  0  0  0  0  0  0  0  2 V2000
  147.3721  140.7850  153.3323 C   0  0  0  0  0  0  0  0  0  0  0  0
  147.7023  139.2959  153.4817 C   0  0  2  0  0  0  0  0  0  0  0  0
  146.4885  138.3973  153.1778 C   0  0  0  0  0  0  0  0  0  0  0  0
  146.8260  136.9728  153.4070 N   0  3  2  0  0  0  0  0  0  0  0  0
  145.7073  136.0595  153.0601 C   0  0  0  0  0  0  0  0  0  0  0  0
  145.8068  135.5196  151.6196 C   0  0  2  0  0  0  0  0  0  0  0  0
  146.2374  136.5683  150.7726 O   0  0  0  0  0  0  0  0  0  0  0  0
  144.4532  134.9811  151.1180 C   0  0  0  0  0  0  0  0  0  0  0  0
  144.4494  133.5364  150.9689 N   0  0  0  0  0  0  0  0  0  0  0  0
  143.6394  132.8067  150.1779 C   0  0  0  0  0  0  0  0  0  0  0  0
  143.8020  131.4871  150.1914 N   0  0  0  0  0  0  0  0  0  0  0  0
  144.8427  131.3419  151.0926 C   0  0  0  0  0  0  0  0  0  0  0  0
  145.5000  130.1794  151.5547 C   0  0  0  0  0  0  0  0  0  0  0  0
  146.5505  130.2769  152.4910 C   0  0  0  0  0  0  0  0  0  0  0  0
  147.1699  129.1532  152.9234 F   0  0  0  0  0  0  0  0  0  0  0  0
  146.9580  131.5366  152.9789 C   0  0  0  0  0  0  0  0  0  0  0  0
  147.9667  131.6214  153.8780 F   0  0  0  0  0  0  0  0  0  0  0  0
  146.3173  132.7086  152.5332 C   0  0  0  0  0  0  0  0  0  0  0  0
  145.2710  132.6066  151.5979 C   0  0  0  0  0  0  0  0  0  0  0  0
  147.3459  136.7819  154.7837 C   0  0  0  0  0  0  0  0  0  0  0  0
  148.5369  137.7233  155.0452 C   0  0  2  0  0  0  0  0  0  0  0  0
  149.0545  137.6162  156.4838 C   0  0  0  0  0  0  0  0  0  0  0  0
  148.1248  139.0672  154.8216 O   0  0  0  0  0  0  0  0  0  0  0  0
  147.0455  141.0152  152.3180 H   0  0  0  0  0  0  0  0  0  0  0  0
  148.2457  141.4008  153.5475 H   0  0  0  0  0  0  0  0  0  0  0  0
  146.5776  141.0843  154.0165 H   0  0  0  0  0  0  0  0  0  0  0  0
  148.5198  139.0527  152.8008 H   0  0  0  0  0  0  0  0  0  0  0  0
  145.6422  138.6764  153.8079 H   0  0  0  0  0  0  0  0  0  0  0  0
  146.1788  138.5392  152.1414 H   0  0  0  0  0  0  0  0  0  0  0  0
  145.6796  135.2377  153.7772 H   0  0  0  0  0  0  0  0  0  0  0  0
  144.7567  136.5852  153.1664 H   0  0  0  0  0  0  0  0  0  0  0  0
  146.5397  134.7151  151.5641 H   0  0  0  0  0  0  0  0  0  0  0  0
  147.1705  136.6774  150.8797 H   0  0  0  0  0  0  0  0  0  0  0  0
  143.6600  135.2518  151.8163 H   0  0  0  0  0  0  0  0  0  0  0  0
  144.1904  135.4326  150.1604 H   0  0  0  0  0  0  0  0  0  0  0  0
  142.8853  133.2708  149.5588 H   0  0  0  0  0  0  0  0  0  0  0  0
  145.1963  129.2099  151.1888 H   0  0  0  0  0  0  0  0  0  0  0  0
  146.6276  133.6730  152.9066 H   0  0  0  0  0  0  0  0  0  0  0  0
  146.5491  136.9766  155.5037 H   0  0  0  0  0  0  0  0  0  0  0  0
  147.6626  135.7501  154.9309 H   0  0  0  0  0  0  0  0  0  0  0  0
  149.3544  137.4799  154.3642 H   0  0  0  0  0  0  0  0  0  0  0  0
  149.3968  136.6048  156.7043 H   0  0  0  0  0  0  0  0  0  0  0  0
  148.2766  137.8711  157.2041 H   0  0  0  0  0  0  0  0  0  0  0  0
  149.8937  138.2927  156.6472 H   0  0  0  0  0  0  0  0  0  0  0  0
  147.5790  136.7554  152.7693 H   0  0  0  0  0  0  0  0  0  0  0  0
  1  2  1  0  0  0  0
  1 24  1  0  0  0  0
  1 25  1  0  0  0  0
  1 26  1  0  0  0  0
  2 23  1  0  0  0  0
  2  3  1  0  0  0  0
  2 27  1  0  0  0  0
  3  4  1  0  0  0  0
  3 28  1  0  0  0  0
  3 29  1  0  0  0  0
  4  5  1  0  0  0  0
  4 20  1  0  0  0  0
  4 45  1  0  0  0  0
  5  6  1  0  0  0  0
  5 30  1  0  0  0  0
  5 31  1  0  0  0  0
  6  7  1  0  0  0  0
  6  8  1  0  0  0  0
  6 32  1  0  0  0  0
  7 33  1  0  0  0  0
  8  9  1  0  0  0  0
  8 34  1  0  0  0  0
  8 35  1  0  0  0  0
  9 19  1  0  0  0  0
  9 10  1  0  0  0  0
 10 11  2  0  0  0  0
 10 36  1  0  0  0  0
 11 12  1  0  0  0  0
 12 19  2  0  0  0  0
 12 13  1  0  0  0  0
 13 14  2  0  0  0  0
 13 37  1  0  0  0  0
 14 15  1  0  0  0  0
 14 16  1  0  0  0  0
 16 17  1  0  0  0  0
 16 18  2  0  0  0  0
 18 19  1  0  0  0  0
 18 38  1  0  0  0  0
 20 21  1  0  0  0  0
 20 39  1  0  0  0  0
 20 40  1  0  0  0  0
 21 22  1  0  0  0  0
 21 23  1  0  0  0  0
 21 41  1  0  0  0  0
 22 42  1  0  0  0  0
 22 43  1  0  0  0  0
 22 44  1  0  0  0  0
M  CHG  1   4   1
M  END
> <s_m_source_file>
AV-unprocessed.smi

> <i_m_source_file_index>
1824

> <i_lp_mmshare_version>
43012

> <i_f3d_flags>
0

> <s_epik_input>
W0NIM11bQ0BASF0xW0NIMl1OKFtDSDJdW0NASF0oTzEpW0NIM10pW0NIMl1bQ0BIXShbT0hdKVtDSDJdbihbY0hdbjIpYyhjMjMpW2NIXWMoRiljKEYpW2NIXTM=

> <s_epik_cmdline>
J2VwaWtfcHl0aG9uJywgJy1waCcsICc3LjAnLCAnLXRuJywgJzgnLCAnLW1hJywgJzIwMCcsICctbWV0YWxfYmluZGluZycsICctaW1hZScsICc8aW5maWxlLm1hZT4nLCAnLW9tYWUnLCAnPG91dGZpbGUubWFlPic=

> <r_epik_Ionization_Penalty>
0.61967

> <r_epik_Ionization_Penalty_Charging>
0.608065

> <r_epik_Ionization_Penalty_Neutral>
0.0116057

> <r_epik_State_Penalty>
0.664205

> <r_epik_Charging_Adjusted_Penalty>
1.27227

> <i_epik_Tot_Q>
1

> <i_epik_Tot_abs_Q>
1

> <r_epik_Metal_State_Penalty>
0.654947

> <b_epik_Metal_Only>
0

> <s_lp_Force_Field>
OPLS_2005

> <r_lp_Energy>
19.9364

> <b_lp_Chiralities_Consistent>
1

> <s_lp_Variant>
AV-unprocessed.smi:1824-11

> <Gold.Version>
5.8.1

> <Gold.Id.Protein>
6NUR|6NUR_protein|mol2

> <Gold.PLP.Fitness>
47.4552

> <Gold.PLP.PLP>
-36.5607

> <Gold.PLP.part.hbond>
-3.3855

> <Gold.PLP.part.metal>
0.0000

> <Gold.PLP.part.buried>
-3.1535

> <Gold.PLP.part.nonpolar>
-30.1983

> <Gold.PLP.part.repulsive>
0.2552

> <Gold.PLP.ligand.clash>
0.0174

> <Gold.PLP.ligand.torsion>
1.7232

> <Gold.PLP.Chemscore.Hbond>
3.7750

> <Gold.PLP.Chemscore.CHOScore>
1.0000

> <Gold.PLP.Chemscore.Metal>
0.0000

> <Gold.Chemscore.Hbonds>
donor molecule, donor type, donor heavy atom, donor atom, acceptor molecule, acceptor atom, score
      L1  H     4    45       P1  7948  2.00
      L1  H     7    33       P1  7948  1.00
      P1  H 10785 10796       L1    11  0.73
      L1  C    10    36       P1 10186  1.00

> <Gold.PLP.Chemscore.Internal.Correction>
0.0333

> <Gold.Rescore>
     Score         DG    S(hbond)    S(metal)    S(lipo)     H(rot)  DE(clash)    DE(int)     intcor
     15.05     -17.97       2.71        0.00      80.24       2.33       0.06       2.86       ----

> <Gold.Chemscore.Fitness>
15.0541

> <Gold.Chemscore.DG>
-17.9728

> <Gold.Chemscore.ZeroCoef>
-5.4800

> <Gold.Chemscore.Hbond>
2.7116

> <Gold.Chemscore.Metal>
0.0000

> <Gold.Chemscore.Lipo>
80.2411

> <Gold.Chemscore.Internal_Hbond>
0.0000

> <Gold.Chemscore.DEClash>
0.0554

> <Gold.Chemscore.DEInternal>
2.8633

> <Gold.Chemscore.Rot>
2.3251

> <Gold.Chemscore.Internal.Correction>
   9.000000E+99

> <Gold.Chemscore.Hbonds>
donor molecule, donor type, donor heavy atom, donor atom, acceptor molecule, acceptor atom, score
      L1  H     4    45       P1  7948  1.00
      L1  H     7    33       P1  7948  0.89
      P1  H 10785 10796       L1    11  0.69

> <Gold.Chemscore.Hbond.Weighted>
-9.0569

> <Gold.Chemscore.Metal.Weighted>
-0.0000

> <Gold.Chemscore.Lipo.Weighted>
-9.3882

> <Gold.Chemscore.Internal_Hbond.Weighted>
0.0000

> <Gold.Chemscore.DEClash.Weighted>
0.0554

> <Gold.Chemscore.DEInternal.Weighted>
2.8633

> <Gold.Chemscore.Rot.Weighted>
5.9523

> <Gold.Chemscore.Internal.Correction.Weighted>
   9.000000E+99

> <Gold.Protein.RotatedTorsions>
[ 6907 6896 6895 6894 ] final   46.36 input  -60.11 | X-H torsion
[ 7974 7965 7964 7962 ] final -111.19 input  175.53 | X-H torsion
[ 8008 7997 7996 7995 ] final  -47.43 input   59.86 | X-H torsion
[ 10167 10162 10161 10158 ] final  -59.19 input  -65.29 | X-H torsion
[ 10718 10713 10712 10709 ] final  120.08 input   66.30 | X-H torsion
[ 10763 10752 10751 10750 ] final   67.77 input  -60.55 | X-H torsion
[ 11005 11000 10999 10996 ] final -178.40 input  -57.11 | X-H torsion

> <Gold.Protein.ActiveResidues>
 VAL166  LYS551  ARG553  GLY616  TRP617  ASP618  TYR619  PRO620  LYS621  CYS622 
 ASP623  PHE694  ASN695  SER759  ASP760  ASP761  ALA762  ILE779  LEU786  VAL792 
 PHE793  MET794  SER795  GLU796  ALA797  LYS798  CYS799  TRP800  GLU811  SER814 

> <Gold.Protein.RotatedAtoms>
  152.2555  134.8089  160.0438 H   0  0  0  0  0  0  0  0  0  0  0  0  # atno 6907 bound_to 6896
  151.8754  133.3479  159.3757 H   0  0  0  0  0  0  0  0  0  0  0  0  # atno 6908 bound_to 6896
  150.7098  134.4998  159.5600 H   0  0  0  0  0  0  0  0  0  0  0  0  # atno 6909 bound_to 6896
  145.1591  140.8869  143.3601 H   0  0  0  0  0  0  0  0  0  0  0  0  # atno 7974 bound_to 7965
  154.4017  140.1346  156.4175 H   0  0  0  0  0  0  0  0  0  0  0  0  # atno 8008 bound_to 7997
  155.7675  140.3484  155.5209 H   0  0  0  0  0  0  0  0  0  0  0  0  # atno 8009 bound_to 7997
  155.8799  140.0985  157.1482 H   0  0  0  0  0  0  0  0  0  0  0  0  # atno 8010 bound_to 7997
  140.6150  143.2399  151.5618 H   0  0  0  0  0  0  0  0  0  0  0  0  # atno 10167 bound_to 10162
  157.5916  131.1063  150.7986 H   0  0  0  0  0  0  0  0  0  0  0  0  # atno 10718 bound_to 10713
  153.0202  135.5272  154.7031 H   0  0  0  0  0  0  0  0  0  0  0  0  # atno 10763 bound_to 10752
  154.6134  135.2881  155.0409 H   0  0  0  0  0  0  0  0  0  0  0  0  # atno 10764 bound_to 10752
  154.1422  135.6576  153.4997 H   0  0  0  0  0  0  0  0  0  0  0  0  # atno 10765 bound_to 10752
  140.4302  134.6526  157.4708 H   0  0  0  0  0  0  0  0  0  0  0  0  # atno 11005 bound_to 11000
  145.0350  139.3308  143.6005 LP  0  0  0  0  0  0  0  0  0  0  0  0  # atno 17320 bound_to 7965
  146.3485  139.9702  142.8707 LP  0  0  0  0  0  0  0  0  0  0  0  0  # atno 17321 bound_to 7965
  139.5391  144.2696  152.1314 LP  0  0  0  0  0  0  0  0  0  0  0  0  # atno 17342 bound_to 10162
  140.1904  144.4757  150.6482 LP  0  0  0  0  0  0  0  0  0  0  0  0  # atno 17343 bound_to 10162
  156.8406  130.5047  149.5321 LP  0  0  0  0  0  0  0  0  0  0  0  0  # atno 17370 bound_to 10713
  156.0972  130.5941  150.9833 LP  0  0  0  0  0  0  0  0  0  0  0  0  # atno 17371 bound_to 10713
  140.0139  134.6648  155.9338 LP  0  0  0  0  0  0  0  0  0  0  0  0  # atno 17394 bound_to 11000
  141.1748  133.6539  156.4789 LP  0  0  0  0  0  0  0  0  0  0  0  0  # atno 17395 bound_to 11000

$$$$
