#       Name:                AV-unprocessed.smi:322
#       Creating user name   scv26
#       Creation time:       Thu Mar 26 22:24:26 2020


#       File generated by GOLD software.
#

@<TRIPOS>MOLECULE
AV-unprocessed.smi:322
    50    52     1
SMALL
NO_CHARGES


@<TRIPOS>ATOM
      1 ****        -1.0817   2.7183  -4.8032 O.3            1 S1                 0.0000
      2 ****        -1.0398   1.8311  -3.7037 C.3            1 S1                 0.0000
      3 ****        -1.1472   2.5126  -2.3687 C.2            1 S1                 0.0000
      4 ****        -1.6093   3.7569  -2.2244 N.2            1 S1                 0.0000
      5 ****        -1.5431   3.9530  -0.8591 C.ar           1 S1                 0.0000
      6 ****        -1.8899   5.0758  -0.0740 C.ar           1 S1                 0.0000
      7 ****        -1.7328   5.0429   1.3272 C.ar           1 S1                 0.0000
      8 ****        -1.2284   3.8896   1.9621 C.ar           1 S1                 0.0000
      9 ****        -0.8773   2.7600   1.1985 C.ar           1 S1                 0.0000
     10 ****        -1.0358   2.7981  -0.2000 C.ar           1 S1                 0.0000
     11 ****        -0.7910   1.8839  -1.2202 N.pl3          1 S1                 0.0000
     12 ****        -0.2661   0.5348  -1.0596 C.3            1 S1                 0.0000
     13 ****         1.2721   0.4790  -1.1672 C.3            1 S1                 0.0000
     14 ****         1.8936   1.2859  -0.1868 O.3            1 S1                 0.0000
     15 ****         1.8412  -0.9465  -1.0812 C.3            1 S1                 0.0000
     16 ****         1.2718  -1.6296   0.0242 O.3            1 S1                 0.0000
     17 ****         1.7261  -2.9673   0.1456 C.3            1 S1                 0.0000
     18 ****         1.1044  -3.6741   1.3354 C.ar           1 S1                 0.0000
     19 ****        -0.2158  -3.3754   1.7367 C.ar           1 S1                 0.0000
     20 ****        -0.7922  -4.0461   2.8330 C.ar           1 S1                 0.0000
     21 ****        -0.0540  -5.0231   3.5289 C.ar           1 S1                 0.0000
     22 ****        -0.7596  -5.8441   4.8724 Cl             1 S1                 0.0000
     23 ****         1.2597  -5.3314   3.1254 C.ar           1 S1                 0.0000
     24 ****         1.8362  -4.6610   2.0289 C.ar           1 S1                 0.0000
     25 ****        -1.0147   2.2144  -5.5997 H              1 S1                 0.0000
     26 ****        -1.8550   1.1134  -3.7987 H              1 S1                 0.0000
     27 ****        -0.1059   1.2729  -3.7594 H              1 S1                 0.0000
     28 ****        -2.2773   5.9637  -0.5510 H              1 S1                 0.0000
     29 ****        -2.0003   5.9070   1.9176 H              1 S1                 0.0000
     30 ****        -1.1106   3.8725   3.0357 H              1 S1                 0.0000
     31 ****        -0.4882   1.8758   1.6815 H              1 S1                 0.0000
     32 ****        -0.5956   0.1543  -0.0919 H              1 S1                 0.0000
     33 ****        -0.7226  -0.1144  -1.8073 H              1 S1                 0.0000
     34 ****         1.5723   0.8958  -2.1287 H              1 S1                 0.0000
     35 ****         1.5719   2.1700  -0.2781 H              1 S1                 0.0000
     36 ****         1.5915  -1.4861  -1.9961 H              1 S1                 0.0000
     37 ****         2.9299  -0.9255  -1.0075 H              1 S1                 0.0000
     38 ****         1.4775  -3.5290  -0.7559 H              1 S1                 0.0000
     39 ****         2.8126  -2.9763   0.2480 H              1 S1                 0.0000
     40 ****        -0.7922  -2.6313   1.2064 H              1 S1                 0.0000
     41 ****        -1.8015  -3.8113   3.1374 H              1 S1                 0.0000
     42 ****         1.8264  -6.0832   3.6548 H              1 S1                 0.0000
     43 ****         2.8428  -4.9061   1.7232 H              1 S1                 0.0000
     44 ****        -0.3183   3.3617  -4.7463 LP             1 S1                 0.0000
     45 ****        -1.9447   3.2236  -4.7958 LP             1 S1                 0.0000
     46 ****        -1.9254   4.3904  -2.9307 LP             1 S1                 0.0000
     47 ****         2.8849   1.2724  -0.3177 LP             1 S1                 0.0000
     48 ****         1.6730   0.9391   0.7248 LP             1 S1                 0.0000
     49 ****         0.2779  -1.6398  -0.0856 LP             1 S1                 0.0000
     50 ****         1.5097  -1.1356   0.8605 LP             1 S1                 0.0000
@<TRIPOS>BOND
    1    1    2 1     
    2    1   25 1     
    3    2    3 1     
    4    2   26 1     
    5    2   27 1     
    6    3   11 1     
    7    3    4 2     
    8    4    5 1     
    9    5   10 ar    
   10    5    6 ar    
   11    6    7 ar    
   12    6   28 1     
   13    7    8 ar    
   14    7   29 1     
   15    8    9 ar    
   16    8   30 1     
   17    9   10 ar    
   18    9   31 1     
   19   10   11 1     
   20   11   12 1     
   21   12   13 1     
   22   12   32 1     
   23   12   33 1     
   24   13   14 1     
   25   13   15 1     
   26   13   34 1     
   27   14   35 1     
   28   15   16 1     
   29   15   36 1     
   30   15   37 1     
   31   16   17 1     
   32   17   18 1     
   33   17   38 1     
   34   17   39 1     
   35   18   24 ar    
   36   18   19 ar    
   37   19   20 ar    
   38   19   40 1     
   39   20   21 ar    
   40   20   41 1     
   41   21   22 1     
   42   21   23 ar    
   43   23   24 ar    
   44   23   42 1     
   45   24   43 1     
   46    1   44 1     
   47    1   45 1     
   48    4   46 1     
   49   14   47 1     
   50   14   48 1     
   51   16   49 1     
   52   16   50 1     
@<TRIPOS>SUBSTRUCTURE
      1 S1             1
@<TRIPOS>SET
LONE_PAIRS      STATIC     ATOMS    <user>   **** ""
7 44 45 46 47 48 49 50
DONOR_HYDROGENS      STATIC     ATOMS    <user>   **** ""
2 25 35
ATOM$BLUE        STATIC     ATOMS    COLORGROUP SYSTEM
7 44 45 46 47 48 49 50
ATOM$RED        STATIC     ATOMS    COLORGROUP SYSTEM
2 25 35
