AV-unprocessed.smi:51|AV-procd|sdf|502|dock2
  -GOLD-   2262016373D 1   1.00000     0.00000
 Structure written by MMmdl.
 25 26  0  0  0  0  0  0  0  0  2 V2000
  152.9352  138.8348  155.7436 O   0  0  0  0  0  0  0  0  0  0  0  0
  151.8618  139.4674  155.8458 C   0  0  0  0  0  0  0  0  0  0  0  0
  151.2667  140.0416  154.9063 O   0  5  0  0  0  0  0  0  0  0  0  0
  151.2248  139.5279  157.2401 C   0  0  1  0  0  0  0  0  0  0  0  0
  150.8827  138.1363  157.8079 C   0  0  0  0  0  0  0  0  0  0  0  0
  152.0027  137.8650  158.8105 C   0  0  2  0  0  0  0  0  0  0  0  0
  151.6087  136.9769  159.8353 O   0  0  0  0  0  0  0  0  0  0  0  0
  152.3162  139.2631  159.3383 C   0  0  0  0  0  0  0  0  0  0  0  0
  152.1657  140.1353  158.1830 N   0  0  0  0  0  0  0  0  0  0  0  0
  151.9735  141.4927  158.4764 C   0  0  0  0  0  0  0  0  0  0  0  0
  152.7875  142.1194  159.4429 C   0  0  0  0  0  0  0  0  0  0  0  0
  152.5328  143.4829  159.6909 C   0  0  0  0  0  0  0  0  0  0  0  0
  151.5557  144.1539  159.0437 N   0  0  0  0  0  0  0  0  0  0  0  0
  150.8429  143.4616  158.1517 C   0  0  0  0  0  0  0  0  0  0  0  0
  150.9930  142.1732  157.8352 N   0  0  0  0  0  0  0  0  0  0  0  0
  150.3076  140.1135  157.1631 H   0  0  0  0  0  0  0  0  0  0  0  0
  149.9223  138.1910  158.3224 H   0  0  0  0  0  0  0  0  0  0  0  0
  150.8012  137.3547  157.0507 H   0  0  0  0  0  0  0  0  0  0  0  0
  152.8730  137.4605  158.2913 H   0  0  0  0  0  0  0  0  0  0  0  0
  152.1797  137.1060  160.5768 H   0  0  0  0  0  0  0  0  0  0  0  0
  151.6141  139.5472  160.1248 H   0  0  0  0  0  0  0  0  0  0  0  0
  153.3251  139.3223  159.7478 H   0  0  0  0  0  0  0  0  0  0  0  0
  153.5707  141.5849  159.9603 H   0  0  0  0  0  0  0  0  0  0  0  0
  153.1149  144.0366  160.4124 H   0  0  0  0  0  0  0  0  0  0  0  0
  150.0611  143.9983  157.6350 H   0  0  0  0  0  0  0  0  0  0  0  0
  1  2  2  0  0  0  0
  2  3  1  0  0  0  0
  2  4  1  0  0  0  0
  4  9  1  0  0  0  0
  4  5  1  0  0  0  0
  4 16  1  0  0  0  0
  5  6  1  0  0  0  0
  5 17  1  0  0  0  0
  5 18  1  0  0  0  0
  6  7  1  0  0  0  0
  6  8  1  0  0  0  0
  6 19  1  0  0  0  0
  7 20  1  0  0  0  0
  8  9  1  0  0  0  0
  8 21  1  0  0  0  0
  8 22  1  0  0  0  0
  9 10  1  0  0  0  0
 10 15  1  0  0  0  0
 10 11  2  0  0  0  0
 11 12  1  0  0  0  0
 11 23  1  0  0  0  0
 12 13  2  0  0  0  0
 12 24  1  0  0  0  0
 13 14  1  0  0  0  0
 14 15  2  0  0  0  0
 14 25  1  0  0  0  0
M  CHG  1   3  -1
M  END
> <s_m_source_file>
AV-unprocessed.smi

> <i_m_source_file_index>
51

> <i_lp_mmshare_version>
43012

> <i_f3d_flags>
0

> <s_epik_input>
Tz1DKFtPSF0pW0NAQEhdMVtDSDJdW0NAQEhdKFtPSF0pW0NIMl1OMWMyW2NIXVtjSF1uW2NIXW4y

> <s_epik_cmdline>
J2VwaWtfcHl0aG9uJywgJy1waCcsICc3LjAnLCAnLXRuJywgJzgnLCAnLW1hJywgJzIwMCcsICctbWV0YWxfYmluZGluZycsICctaW1hZScsICc8aW5maWxlLm1hZT4nLCAnLW9tYWUnLCAnPG91dGZpbGUubWFlPic=

> <r_lp_tautomer_probability>
1

> <r_epik_Ionization_Penalty>
0.225251

> <r_epik_Ionization_Penalty_Charging>
0.000248217

> <r_epik_Ionization_Penalty_Neutral>
0.225002

> <r_epik_State_Penalty>
0.21284

> <r_epik_Charging_Adjusted_Penalty>
0.213088

> <i_epik_Tot_Q>
-1

> <i_epik_Tot_abs_Q>
1

> <r_epik_Metal_State_Penalty>
0.154111

> <b_epik_Metal_Only>
0

> <s_lp_Force_Field>
OPLS_2005

> <r_lp_Energy>
17.6831

> <b_lp_Chiralities_Consistent>
1

> <s_lp_Variant>
AV-unprocessed.smi:51-4

> <Gold.Version>
5.8.1

> <Gold.Id.Protein>
6NUR|6NUR_protein|mol2

> <Gold.PLP.Fitness>
39.7612

> <Gold.PLP.PLP>
-25.0515

> <Gold.PLP.part.hbond>
-3.0156

> <Gold.PLP.part.metal>
0.0000

> <Gold.PLP.part.buried>
-6.0134

> <Gold.PLP.part.nonpolar>
-16.8560

> <Gold.PLP.part.repulsive>
0.1573

> <Gold.PLP.ligand.clash>
0.0000

> <Gold.PLP.ligand.torsion>
0.1842

> <Gold.PLP.Chemscore.Hbond>
4.0000

> <Gold.PLP.Chemscore.CHOScore>
0.9900

> <Gold.PLP.Chemscore.Metal>
0.0000

> <Gold.Chemscore.Hbonds>
donor molecule, donor type, donor heavy atom, donor atom, acceptor molecule, acceptor atom, score
      P1  H  6896  6907       L1     7  0.50
      P1  H  7989  7998       L1     3  1.00
      P1  H  7997  8008       L1     1  2.00
      L1  C    14    25       P1  8028  1.00

> <Gold.PLP.Chemscore.Internal.Correction>
0.1082

> <Gold.Rescore>
     Score         DG    S(hbond)    S(metal)    S(lipo)     H(rot)  DE(clash)    DE(int)     intcor
     13.88     -14.00       2.78        0.00      42.26       2.23       0.00       0.12       ----

> <Gold.Chemscore.Fitness>
13.8800

> <Gold.Chemscore.DG>
-13.9994

> <Gold.Chemscore.ZeroCoef>
-5.4800

> <Gold.Chemscore.Hbond>
2.7783

> <Gold.Chemscore.Metal>
0.0000

> <Gold.Chemscore.Lipo>
42.2620

> <Gold.Chemscore.Internal_Hbond>
0.0000

> <Gold.Chemscore.DEClash>
0.0000

> <Gold.Chemscore.DEInternal>
0.1194

> <Gold.Chemscore.Rot>
2.2285

> <Gold.Chemscore.Internal.Correction>
   9.000000E+99

> <Gold.Chemscore.Hbonds>
donor molecule, donor type, donor heavy atom, donor atom, acceptor molecule, acceptor atom, score
      P1  H  6896  6907       L1     7  0.02
      P1  H  7989  7998       L1     3  1.00
      P1  H  7997  8008       L1     1  0.54

> <Gold.Chemscore.Hbond.Weighted>
-9.2797

> <Gold.Chemscore.Metal.Weighted>
-0.0000

> <Gold.Chemscore.Lipo.Weighted>
-4.9446

> <Gold.Chemscore.Internal_Hbond.Weighted>
0.0000

> <Gold.Chemscore.DEClash.Weighted>
0.0000

> <Gold.Chemscore.DEInternal.Weighted>
0.1194

> <Gold.Chemscore.Rot.Weighted>
5.7050

> <Gold.Chemscore.Internal.Correction.Weighted>
   9.000000E+99

> <Gold.Protein.RotatedTorsions>
[ 6907 6896 6895 6894 ] final   13.76 input  -60.11 | X-H torsion
[ 7974 7965 7964 7962 ] final  122.11 input  175.53 | X-H torsion
[ 8008 7997 7996 7995 ] final  -19.05 input   59.86 | X-H torsion
[ 10167 10162 10161 10158 ] final   68.39 input  -65.29 | X-H torsion
[ 10718 10713 10712 10709 ] final  -69.67 input   66.30 | X-H torsion
[ 10763 10752 10751 10750 ] final   44.74 input  -60.55 | X-H torsion
[ 11005 11000 10999 10996 ] final  -99.15 input  -57.11 | X-H torsion

> <Gold.Protein.ActiveResidues>
 VAL166  LYS551  ARG553  GLY616  TRP617  ASP618  TYR619  PRO620  LYS621  CYS622 
 ASP623  PHE694  ASN695  SER759  ASP760  ASP761  ALA762  ILE779  LEU786  VAL792 
 PHE793  MET794  SER795  GLU796  ALA797  LYS798  CYS799  TRP800  GLU811  SER814 

> <Gold.Protein.RotatedAtoms>
  151.7914  135.0734  160.0387 H   0  0  0  0  0  0  0  0  0  0  0  0  # atno 6907 bound_to 6896
  152.3153  133.5792  159.5716 H   0  0  0  0  0  0  0  0  0  0  0  0  # atno 6908 bound_to 6896
  150.7341  134.0007  159.3679 H   0  0  0  0  0  0  0  0  0  0  0  0  # atno 6909 bound_to 6896
  145.1114  139.3450  143.4761 H   0  0  0  0  0  0  0  0  0  0  0  0  # atno 7974 bound_to 7965
  154.4863  140.2099  155.9648 H   0  0  0  0  0  0  0  0  0  0  0  0  # atno 8008 bound_to 7997
  156.1241  140.3208  155.8220 H   0  0  0  0  0  0  0  0  0  0  0  0  # atno 8009 bound_to 7997
  155.4415  140.0510  157.3000 H   0  0  0  0  0  0  0  0  0  0  0  0  # atno 8010 bound_to 7997
  140.0792  144.5086  150.7174 H   0  0  0  0  0  0  0  0  0  0  0  0  # atno 10167 bound_to 10162
  156.0444  130.4317  150.2182 H   0  0  0  0  0  0  0  0  0  0  0  0  # atno 10718 bound_to 10713
  152.9836  135.6061  154.3324 H   0  0  0  0  0  0  0  0  0  0  0  0  # atno 10763 bound_to 10752
  154.3026  135.2772  155.2605 H   0  0  0  0  0  0  0  0  0  0  0  0  # atno 10764 bound_to 10752
  154.4851  135.5907  153.6474 H   0  0  0  0  0  0  0  0  0  0  0  0  # atno 10765 bound_to 10752
  141.1319  133.8300  157.0934 H   0  0  0  0  0  0  0  0  0  0  0  0  # atno 11005 bound_to 11000
  146.3526  140.1035  142.8607 LP  0  0  0  0  0  0  0  0  0  0  0  0  # atno 17320 bound_to 7965
  145.0843  140.9242  143.4807 LP  0  0  0  0  0  0  0  0  0  0  0  0  # atno 17321 bound_to 7965
  140.7086  143.2487  151.4649 LP  0  0  0  0  0  0  0  0  0  0  0  0  # atno 17342 bound_to 10162
  139.5790  144.1753  152.1942 LP  0  0  0  0  0  0  0  0  0  0  0  0  # atno 17343 bound_to 10162
  157.0274  130.9997  151.3322 LP  0  0  0  0  0  0  0  0  0  0  0  0  # atno 17370 bound_to 10713
  157.5302  130.8053  149.7908 LP  0  0  0  0  0  0  0  0  0  0  0  0  # atno 17371 bound_to 10713
  140.0378  134.9869  157.0904 LP  0  0  0  0  0  0  0  0  0  0  0  0  # atno 17394 bound_to 11000
  140.4183  134.1908  155.7164 LP  0  0  0  0  0  0  0  0  0  0  0  0  # atno 17395 bound_to 11000

$$$$
