AV-unprocessed.smi:2044|AV-procd|sdf|8305|dock6
  -GOLD-   2272010573D 1   1.00000     0.00000
 Structure written by MMmdl.
 39 40  0  0  0  0  0  0  0  0  3 V2000
  144.3773  134.0839  150.3577 C   0  0  0  0  0  0  0  0  0  0  0  0
  144.8761  135.3131  151.0376 C   0  0  0  0  0  0  0  0  0  0  0  0
  145.7828  136.2689  150.6768 C   0  0  0  0  0  0  0  0  0  0  0  0
  145.7761  137.1580  151.7862 C   0  0  0  0  0  0  0  0  0  0  0  0
  146.5227  138.2657  151.9133 N   0  5  0  0  0  0  0  0  0  0  0  0
  146.9745  138.6458  153.1297 C   0  0  0  0  0  0  0  0  0  0  0  0
  146.4890  138.3362  154.2203 O   0  0  0  0  0  0  0  0  0  0  0  0
  148.0495  139.4460  153.0766 N   0  0  0  0  0  0  0  0  0  0  0  0
  148.7614  140.0181  154.2169 C   0  0  0  0  0  0  0  0  0  0  0  0
  148.6849  141.5665  154.2652 C   0  0  1  0  0  0  0  0  0  0  0  0
  147.2249  142.0551  154.0961 C   0  0  0  0  0  0  0  0  0  0  0  0
  149.3398  142.0667  155.5184 N   0  3  0  0  0  0  0  0  0  0  0  0
  148.5979  141.6739  156.7476 C   0  0  0  0  0  0  0  0  0  0  0  0
  149.2374  142.2917  158.0012 C   0  0  0  0  0  0  0  0  0  0  0  0
  150.5940  141.8828  158.0919 O   0  0  0  0  0  0  0  0  0  0  0  0
  151.3484  142.3330  156.9766 C   0  0  0  0  0  0  0  0  0  0  0  0
  150.7813  141.7292  155.6802 C   0  0  0  0  0  0  0  0  0  0  0  0
  144.9500  136.7679  152.7423 N   0  0  0  0  0  0  0  0  0  0  0  0
  144.3639  135.5886  152.2672 O   0  0  0  0  0  0  0  0  0  0  0  0
  145.1896  133.3743  150.2016 H   0  0  0  0  0  0  0  0  0  0  0  0
  143.9494  134.3285  149.3855 H   0  0  0  0  0  0  0  0  0  0  0  0
  143.6069  133.5907  150.9509 H   0  0  0  0  0  0  0  0  0  0  0  0
  146.3577  136.3258  149.7645 H   0  0  0  0  0  0  0  0  0  0  0  0
  148.4067  139.6703  152.1592 H   0  0  0  0  0  0  0  0  0  0  0  0
  148.4007  139.5971  155.1568 H   0  0  0  0  0  0  0  0  0  0  0  0
  149.7908  139.6789  154.1195 H   0  0  0  0  0  0  0  0  0  0  0  0
  149.2433  141.9660  153.4168 H   0  0  0  0  0  0  0  0  0  0  0  0
  146.7790  141.6836  153.1742 H   0  0  0  0  0  0  0  0  0  0  0  0
  147.1592  143.1407  154.0278 H   0  0  0  0  0  0  0  0  0  0  0  0
  146.5945  141.7227  154.9215 H   0  0  0  0  0  0  0  0  0  0  0  0
  147.5584  141.9923  156.6993 H   0  0  0  0  0  0  0  0  0  0  0  0
  148.5901  140.5865  156.8369 H   0  0  0  0  0  0  0  0  0  0  0  0
  149.1691  143.3806  157.9797 H   0  0  0  0  0  0  0  0  0  0  0  0
  148.7096  141.9576  158.8946 H   0  0  0  0  0  0  0  0  0  0  0  0
  151.3412  143.4236  156.9333 H   0  0  0  0  0  0  0  0  0  0  0  0
  152.3868  142.0284  157.1087 H   0  0  0  0  0  0  0  0  0  0  0  0
  150.9072  140.6453  155.6843 H   0  0  0  0  0  0  0  0  0  0  0  0
  151.3694  142.1266  154.8534 H   0  0  0  0  0  0  0  0  0  0  0  0
  149.3027  143.0747  155.4636 H   0  0  0  0  0  0  0  0  0  0  0  0
  1  2  1  0  0  0  0
  1 20  1  0  0  0  0
  1 21  1  0  0  0  0
  1 22  1  0  0  0  0
  2 19  1  0  0  0  0
  2  3  2  0  0  0  0
  3  4  1  0  0  0  0
  3 23  1  0  0  0  0
  4  5  1  0  0  0  0
  4 18  2  0  0  0  0
  5  6  1  0  0  0  0
  6  7  2  0  0  0  0
  6  8  1  0  0  0  0
  8  9  1  0  0  0  0
  8 24  1  0  0  0  0
  9 10  1  0  0  0  0
  9 25  1  0  0  0  0
  9 26  1  0  0  0  0
 10 11  1  0  0  0  0
 10 12  1  0  0  0  0
 10 27  1  0  0  0  0
 11 28  1  0  0  0  0
 11 29  1  0  0  0  0
 11 30  1  0  0  0  0
 12 17  1  0  0  0  0
 12 13  1  0  0  0  0
 12 39  1  0  0  0  0
 13 14  1  0  0  0  0
 13 31  1  0  0  0  0
 13 32  1  0  0  0  0
 14 15  1  0  0  0  0
 14 33  1  0  0  0  0
 14 34  1  0  0  0  0
 15 16  1  0  0  0  0
 16 17  1  0  0  0  0
 16 35  1  0  0  0  0
 16 36  1  0  0  0  0
 17 37  1  0  0  0  0
 17 38  1  0  0  0  0
 18 19  1  0  0  0  0
M  CHG  1   5  -1
M  CHG  1  12   1
M  END
> <s_m_source_file>
AV-unprocessed.smi

> <i_m_source_file_index>
2044

> <i_lp_mmshare_version>
43012

> <i_f3d_flags>
0

> <s_epik_input>
W0NIM11jMVtjSF1jKG5vMSlbTkhdQyg9TylbTkhdW0NIMl1bQ0BIXShbQ0gzXSlOMltDSDJdW0NIMl1PW0NIMl1bQ0gyXTI=

> <s_epik_cmdline>
J2VwaWtfcHl0aG9uJywgJy1waCcsICc3LjAnLCAnLXRuJywgJzgnLCAnLW1hJywgJzIwMCcsICctbWV0YWxfYmluZGluZycsICctaW1hZScsICc8aW5maWxlLm1hZT4nLCAnLW9tYWUnLCAnPG91dGZpbGUubWFlPic=

> <r_epik_Ionization_Penalty>
6.73014

> <r_epik_Ionization_Penalty_Charging>
6.73004

> <r_epik_Ionization_Penalty_Neutral>
9.51297e-05

> <r_epik_State_Penalty>
6.93052

> <r_epik_Charging_Adjusted_Penalty>
13.6606

> <i_epik_Tot_Q>
0

> <i_epik_Tot_abs_Q>
2

> <r_epik_Metal_State_Penalty>
2.86736

> <b_epik_Metal_Only>
1

> <s_lp_Force_Field>
OPLS_2005

> <r_lp_Energy>
8.75772

> <b_lp_Chiralities_Consistent>
1

> <s_lp_Variant>
AV-unprocessed.smi:2044-8

> <Gold.Version>
5.8.1

> <Gold.Id.Protein>
6NUR|6NUR_protein|mol2

> <Gold.PLP.Fitness>
39.4352

> <Gold.PLP.PLP>
-31.1472

> <Gold.PLP.part.hbond>
-2.0000

> <Gold.PLP.part.metal>
0.0000

> <Gold.PLP.part.buried>
-4.9982

> <Gold.PLP.part.nonpolar>
-26.1631

> <Gold.PLP.part.repulsive>
0.9794

> <Gold.PLP.ligand.clash>
0.0000

> <Gold.PLP.ligand.torsion>
0.3976

> <Gold.PLP.Chemscore.Hbond>
3.0000

> <Gold.PLP.Chemscore.CHOScore>
0.0000

> <Gold.PLP.Chemscore.Metal>
0.0000

> <Gold.Chemscore.Hbonds>
donor molecule, donor type, donor heavy atom, donor atom, acceptor molecule, acceptor atom, score
      L1  H     8    24       P1  7957  1.00
      L1  H    12    39       P1  8028  2.00

> <Gold.PLP.Chemscore.Internal.Correction>
0.0832

> <Gold.Rescore>
     Score         DG    S(hbond)    S(metal)    S(lipo)     H(rot)  DE(clash)    DE(int)     intcor
     13.48     -15.41       2.00        0.00      62.71       1.59       0.00       1.93       ----

> <Gold.Chemscore.Fitness>
13.4773

> <Gold.Chemscore.DG>
-15.4111

> <Gold.Chemscore.ZeroCoef>
-5.4800

> <Gold.Chemscore.Hbond>
1.9976

> <Gold.Chemscore.Metal>
0.0000

> <Gold.Chemscore.Lipo>
62.7097

> <Gold.Chemscore.Internal_Hbond>
0.0000

> <Gold.Chemscore.DEClash>
0.0038

> <Gold.Chemscore.DEInternal>
1.9300

> <Gold.Chemscore.Rot>
1.5930

> <Gold.Chemscore.Internal.Correction>
   9.000000E+99

> <Gold.Chemscore.Hbonds>
donor molecule, donor type, donor heavy atom, donor atom, acceptor molecule, acceptor atom, score
      L1  H     8    24       P1  7957  0.95
      L1  H    12    39       P1  8028  1.00

> <Gold.Chemscore.Hbond.Weighted>
-6.6721

> <Gold.Chemscore.Metal.Weighted>
-0.0000

> <Gold.Chemscore.Lipo.Weighted>
-7.3370

> <Gold.Chemscore.Internal_Hbond.Weighted>
0.0000

> <Gold.Chemscore.DEClash.Weighted>
0.0038

> <Gold.Chemscore.DEInternal.Weighted>
1.9300

> <Gold.Chemscore.Rot.Weighted>
4.0781

> <Gold.Chemscore.Internal.Correction.Weighted>
   9.000000E+99

> <Gold.Protein.RotatedTorsions>
[ 6907 6896 6895 6894 ] final    6.61 input  -60.11 | X-H torsion
[ 7974 7965 7964 7962 ] final   56.64 input  175.53 | X-H torsion
[ 8008 7997 7996 7995 ] final  -83.31 input   59.86 | X-H torsion
[ 10167 10162 10161 10158 ] final   21.04 input  -65.29 | X-H torsion
[ 10718 10713 10712 10709 ] final   11.88 input   66.30 | X-H torsion
[ 10763 10752 10751 10750 ] final -107.62 input  -60.55 | X-H torsion
[ 11005 11000 10999 10996 ] final   88.22 input  -57.11 | X-H torsion

> <Gold.Protein.ActiveResidues>
 VAL166  LYS551  ARG553  GLY616  TRP617  ASP618  TYR619  PRO620  LYS621  CYS622 
 ASP623  PHE694  ASN695  SER759  ASP760  ASP761  ALA762  ILE779  LEU786  VAL792 
 PHE793  MET794  SER795  GLU796  ALA797  LYS798  CYS799  TRP800  GLU811  SER814 

> <Gold.Protein.RotatedAtoms>
  151.6765  135.0968  160.0207 H   0  0  0  0  0  0  0  0  0  0  0  0  # atno 6907 bound_to 6896
  152.3861  133.6608  159.6208 H   0  0  0  0  0  0  0  0  0  0  0  0  # atno 6908 bound_to 6896
  150.7786  133.8950  159.3365 H   0  0  0  0  0  0  0  0  0  0  0  0  # atno 6909 bound_to 6896
  145.9376  139.3861  143.0383 H   0  0  0  0  0  0  0  0  0  0  0  0  # atno 7974 bound_to 7965
  154.6177  140.0621  156.9575 H   0  0  0  0  0  0  0  0  0  0  0  0  # atno 8008 bound_to 7997
  155.1868  140.3304  155.4347 H   0  0  0  0  0  0  0  0  0  0  0  0  # atno 8009 bound_to 7997
  156.2414  140.1888  156.6961 H   0  0  0  0  0  0  0  0  0  0  0  0  # atno 8010 bound_to 7997
  140.5458  143.9597  150.6546 H   0  0  0  0  0  0  0  0  0  0  0  0  # atno 10167 bound_to 10162
  157.0021  130.6083  149.5697 H   0  0  0  0  0  0  0  0  0  0  0  0  # atno 10718 bound_to 10713
  154.8086  135.4668  154.0457 H   0  0  0  0  0  0  0  0  0  0  0  0  # atno 10763 bound_to 10752
  153.1906  135.6854  153.8364 H   0  0  0  0  0  0  0  0  0  0  0  0  # atno 10764 bound_to 10752
  153.7883  135.3247  155.3352 H   0  0  0  0  0  0  0  0  0  0  0  0  # atno 10765 bound_to 10752
  139.8901  134.8474  156.2970 H   0  0  0  0  0  0  0  0  0  0  0  0  # atno 11005 bound_to 11000
  145.8342  140.9615  143.0833 LP  0  0  0  0  0  0  0  0  0  0  0  0  # atno 17320 bound_to 7965
  144.6774  140.0202  143.7484 LP  0  0  0  0  0  0  0  0  0  0  0  0  # atno 17321 bound_to 7965
  140.3010  143.3260  152.0971 LP  0  0  0  0  0  0  0  0  0  0  0  0  # atno 17342 bound_to 10162
  139.5006  144.6697  151.6273 LP  0  0  0  0  0  0  0  0  0  0  0  0  # atno 17343 bound_to 10162
  156.0167  130.5261  150.8156 LP  0  0  0  0  0  0  0  0  0  0  0  0  # atno 17370 bound_to 10713
  157.5383  131.0939  150.9862 LP  0  0  0  0  0  0  0  0  0  0  0  0  # atno 17371 bound_to 10713
  140.9938  133.7192  156.0855 LP  0  0  0  0  0  0  0  0  0  0  0  0  # atno 17394 bound_to 11000
  140.7589  134.3961  157.5529 LP  0  0  0  0  0  0  0  0  0  0  0  0  # atno 17395 bound_to 11000

$$$$
