AV-unprocessed.smi:2568|AV-procd|sdf|10100|dock1
  -GOLD-   2272014113D 1   1.00000     0.00000
 Structure written by MMmdl.
 23 24  0  0  0  0  0  0  0  0  2 V2000
  155.6572  139.5613  160.7382 C   0  0  0  0  0  0  0  0  0  0  0  0
  154.5163  140.2595  160.0348 C   0  0  0  0  0  0  0  0  0  0  0  0
  153.9511  139.8771  158.8761 N   0  5  0  0  0  0  0  0  0  0  0  0
  152.9845  140.7131  158.5556 N   0  0  0  0  0  0  0  0  0  0  0  0
  152.9522  141.6200  159.5448 C   0  0  0  0  0  0  0  0  0  0  0  0
  152.0106  142.8076  159.5873 C   0  0  2  0  0  0  0  0  0  0  0  0
  151.1846  142.9074  158.2889 C   0  0  0  0  0  0  0  0  0  0  0  0
  150.2855  144.0608  158.3359 N   0  0  0  0  0  0  0  0  0  0  0  0
  151.0190  145.2933  158.6157 C   0  0  0  0  0  0  0  0  0  0  0  0
  151.8446  145.1410  159.9045 C   0  0  0  0  0  0  0  0  0  0  0  0
  152.7229  144.0291  159.7756 O   0  0  0  0  0  0  0  0  0  0  0  0
  153.9002  141.3585  160.4573 N   0  0  0  0  0  0  0  0  0  0  0  0
  156.0115  138.7140  160.1508 H   0  0  0  0  0  0  0  0  0  0  0  0
  155.3312  139.1954  161.7116 H   0  0  0  0  0  0  0  0  0  0  0  0
  156.4882  140.2507  160.8871 H   0  0  0  0  0  0  0  0  0  0  0  0
  151.3416  142.6572  160.4370 H   0  0  0  0  0  0  0  0  0  0  0  0
  151.8556  142.9951  157.4334 H   0  0  0  0  0  0  0  0  0  0  0  0
  150.6081  141.9938  158.1419 H   0  0  0  0  0  0  0  0  0  0  0  0
  149.7998  144.1473  157.4492 H   0  0  0  0  0  0  0  0  0  0  0  0
  151.6818  145.5289  157.7822 H   0  0  0  0  0  0  0  0  0  0  0  0
  150.3248  146.1283  158.7112 H   0  0  0  0  0  0  0  0  0  0  0  0
  152.4369  146.0394  160.0783 H   0  0  0  0  0  0  0  0  0  0  0  0
  151.1970  145.0135  160.7735 H   0  0  0  0  0  0  0  0  0  0  0  0
  1 13  1  0  0  0  0
  1 14  1  0  0  0  0
  1 15  1  0  0  0  0
  1  2  1  0  0  0  0
  2 12  2  0  0  0  0
  2  3  1  0  0  0  0
  3  4  1  0  0  0  0
  4  5  2  0  0  0  0
  5 12  1  0  0  0  0
  5  6  1  0  0  0  0
  6 11  1  0  0  0  0
  6  7  1  0  0  0  0
  6 16  1  0  0  0  0
  7  8  1  0  0  0  0
  7 17  1  0  0  0  0
  7 18  1  0  0  0  0
  8  9  1  0  0  0  0
  8 19  1  0  0  0  0
  9 10  1  0  0  0  0
  9 20  1  0  0  0  0
  9 21  1  0  0  0  0
 10 11  1  0  0  0  0
 10 22  1  0  0  0  0
 10 23  1  0  0  0  0
M  CHG  1   3  -1
M  END
> <s_m_source_file>
AV-unprocessed.smi

> <i_m_source_file_index>
2568

> <i_lp_mmshare_version>
43012

> <i_f3d_flags>
0

> <s_epik_input>
W0NIM11jMW5bbkhdYyhuMSlbQ0BASF0yW0NIMl1bTkhdW0NIMl1bQ0gyXU8y

> <s_epik_cmdline>
J2VwaWtfcHl0aG9uJywgJy1waCcsICc3LjAnLCAnLXRuJywgJzgnLCAnLW1hJywgJzIwMCcsICctbWV0YWxfYmluZGluZycsICctaW1hZScsICc8aW5maWxlLm1hZT4nLCAnLW9tYWUnLCAnPG91dGZpbGUubWFlPic=

> <r_epik_Ionization_Penalty>
17.7898

> <r_epik_Ionization_Penalty_Charging>
16.2165

> <r_epik_Ionization_Penalty_Neutral>
1.5733

> <r_epik_State_Penalty>
6.78491

> <r_epik_Charging_Adjusted_Penalty>
23.0014

> <i_epik_Tot_Q>
-1

> <i_epik_Tot_abs_Q>
1

> <r_epik_Metal_State_Penalty>
3.02615

> <b_epik_Metal_Only>
1

> <s_lp_Force_Field>
OPLS_2005

> <r_lp_Energy>
14.4772

> <b_lp_Chiralities_Consistent>
1

> <s_lp_Variant>
AV-unprocessed.smi:2568-13

> <Gold.Version>
5.8.1

> <Gold.Id.Protein>
6NUR|6NUR_protein|mol2

> <Gold.PLP.Fitness>
32.2455

> <Gold.PLP.PLP>
-23.4414

> <Gold.PLP.part.hbond>
-3.1430

> <Gold.PLP.part.metal>
0.0000

> <Gold.PLP.part.buried>
-3.3408

> <Gold.PLP.part.nonpolar>
-16.5860

> <Gold.PLP.part.repulsive>
0.0064

> <Gold.PLP.ligand.clash>
0.0000

> <Gold.PLP.ligand.torsion>
0.1031

> <Gold.PLP.Chemscore.Hbond>
3.0000

> <Gold.PLP.Chemscore.CHOScore>
0.0000

> <Gold.PLP.Chemscore.Metal>
0.0000

> <Gold.Chemscore.Hbonds>
donor molecule, donor type, donor heavy atom, donor atom, acceptor molecule, acceptor atom, score
      L1  H     8    19       P1  8028  0.93
      P1  H  7997  8010       L1     3  1.80

> <Gold.PLP.Chemscore.Internal.Correction>
0.0103

> <Gold.Rescore>
     Score         DG    S(hbond)    S(metal)    S(lipo)     H(rot)  DE(clash)    DE(int)     intcor
     11.78     -12.40       1.15        0.00      48.26       1.00       0.45       0.17       ----

> <Gold.Chemscore.Fitness>
11.7815

> <Gold.Chemscore.DG>
-12.4007

> <Gold.Chemscore.ZeroCoef>
-5.4800

> <Gold.Chemscore.Hbond>
1.1481

> <Gold.Chemscore.Metal>
0.0000

> <Gold.Chemscore.Lipo>
48.2561

> <Gold.Chemscore.Internal_Hbond>
0.0000

> <Gold.Chemscore.DEClash>
0.4517

> <Gold.Chemscore.DEInternal>
0.1676

> <Gold.Chemscore.Rot>
1.0000

> <Gold.Chemscore.Internal.Correction>
   9.000000E+99

> <Gold.Chemscore.Hbonds>
donor molecule, donor type, donor heavy atom, donor atom, acceptor molecule, acceptor atom, score
      L1  H     8    19       P1  8028  0.35
      P1  H  7997  8010       L1     3  0.17

> <Gold.Chemscore.Hbond.Weighted>
-3.8348

> <Gold.Chemscore.Metal.Weighted>
-0.0000

> <Gold.Chemscore.Lipo.Weighted>
-5.6460

> <Gold.Chemscore.Internal_Hbond.Weighted>
0.0000

> <Gold.Chemscore.DEClash.Weighted>
0.4517

> <Gold.Chemscore.DEInternal.Weighted>
0.1676

> <Gold.Chemscore.Rot.Weighted>
2.5600

> <Gold.Chemscore.Internal.Correction.Weighted>
   9.000000E+99

> <Gold.Protein.RotatedTorsions>
[ 6907 6896 6895 6894 ] final   32.89 input  -60.11 | X-H torsion
[ 7974 7965 7964 7962 ] final    1.43 input  175.53 | X-H torsion
[ 8008 7997 7996 7995 ] final    7.86 input   59.86 | X-H torsion
[ 10167 10162 10161 10158 ] final  136.77 input  -65.29 | X-H torsion
[ 10718 10713 10712 10709 ] final  107.39 input   66.30 | X-H torsion
[ 10763 10752 10751 10750 ] final   80.06 input  -60.55 | X-H torsion
[ 11005 11000 10999 10996 ] final   79.88 input  -57.11 | X-H torsion

> <Gold.Protein.ActiveResidues>
 VAL166  LYS551  ARG553  GLY616  TRP617  ASP618  TYR619  PRO620  LYS621  CYS622 
 ASP623  PHE694  ASN695  SER759  ASP760  ASP761  ALA762  ILE779  LEU786  VAL792 
 PHE793  MET794  SER795  GLU796  ALA797  LYS798  CYS799  TRP800  GLU811  SER814 

> <Gold.Protein.RotatedAtoms>
  152.0809  134.9472  160.0573 H   0  0  0  0  0  0  0  0  0  0  0  0  # atno 6907 bound_to 6896
  152.0761  133.4125  159.4489 H   0  0  0  0  0  0  0  0  0  0  0  0  # atno 6908 bound_to 6896
  150.6836  134.2956  159.4728 H   0  0  0  0  0  0  0  0  0  0  0  0  # atno 6909 bound_to 6896
  146.2440  140.0989  142.8348 H   0  0  0  0  0  0  0  0  0  0  0  0  # atno 7974 bound_to 7965
  154.7593  140.2781  155.6227 H   0  0  0  0  0  0  0  0  0  0  0  0  # atno 8008 bound_to 7997
  156.2912  140.2663  156.2294 H   0  0  0  0  0  0  0  0  0  0  0  0  # atno 8009 bound_to 7997
  155.0038  140.0372  157.2361 H   0  0  0  0  0  0  0  0  0  0  0  0  # atno 8010 bound_to 7997
  139.5168  144.6446  151.5475 H   0  0  0  0  0  0  0  0  0  0  0  0  # atno 10167 bound_to 10162
  157.6630  131.0871  150.6149 H   0  0  0  0  0  0  0  0  0  0  0  0  # atno 10718 bound_to 10713
  153.1003  135.4816  154.8854 H   0  0  0  0  0  0  0  0  0  0  0  0  # atno 10763 bound_to 10752
  154.7371  135.3073  154.8795 H   0  0  0  0  0  0  0  0  0  0  0  0  # atno 10764 bound_to 10752
  153.9414  135.6833  153.4797 H   0  0  0  0  0  0  0  0  0  0  0  0  # atno 10765 bound_to 10752
  139.9155  134.7877  156.1836 H   0  0  0  0  0  0  0  0  0  0  0  0  # atno 11005 bound_to 11000
  145.0586  140.9071  143.4952 LP  0  0  0  0  0  0  0  0  0  0  0  0  # atno 17320 bound_to 7965
  145.1100  139.2764  143.5642 LP  0  0  0  0  0  0  0  0  0  0  0  0  # atno 17321 bound_to 7965
  140.6226  143.9229  150.6538 LP  0  0  0  0  0  0  0  0  0  0  0  0  # atno 17342 bound_to 10162
  140.2507  143.3595  152.1407 LP  0  0  0  0  0  0  0  0  0  0  0  0  # atno 17343 bound_to 10162
  156.6450  130.4469  149.5739 LP  0  0  0  0  0  0  0  0  0  0  0  0  # atno 17370 bound_to 10713
  156.2180  130.6720  151.1339 LP  0  0  0  0  0  0  0  0  0  0  0  0  # atno 17371 bound_to 10713
  141.0627  133.6834  156.1983 LP  0  0  0  0  0  0  0  0  0  0  0  0  # atno 17394 bound_to 11000
  140.6635  134.4942  157.5584 LP  0  0  0  0  0  0  0  0  0  0  0  0  # atno 17395 bound_to 11000

$$$$
