AV-unprocessed.smi:2026|AV-procd|sdf|8205|dock4
  -GOLD-   2272010463D 1   1.00000     0.00000
 Structure written by MMmdl.
 45 47  0  0  0  0  0  0  0  0  2 V2000
  152.3559  144.0540  161.9390 C   0  0  0  0  0  0  0  0  0  0  0  0
  152.2109  143.1840  160.7031 C   0  0  0  0  0  0  0  0  0  0  0  0
  152.6436  141.8389  160.7542 C   0  0  0  0  0  0  0  0  0  0  0  0
  152.5259  140.9971  159.6259 C   0  0  0  0  0  0  0  0  0  0  0  0
  152.8760  139.6683  159.4509 N   0  0  0  0  0  0  0  0  0  0  0  0
  152.5175  139.4606  158.1862 C   0  0  0  0  0  0  0  0  0  0  0  0
  151.9771  140.4997  157.5221 N   0  0  0  0  0  0  0  0  0  0  0  0
  151.5133  140.5326  156.1488 C   0  0  0  0  0  0  0  0  0  0  0  0
  151.7812  139.2002  155.4196 C   0  0  2  0  0  0  0  0  0  0  0  0
  153.1270  139.1649  154.9892 O   0  0  0  0  0  0  0  0  0  0  0  0
  150.8675  138.9602  154.1999 C   0  0  0  0  0  0  0  0  0  0  0  0
  149.4831  139.3834  154.4485 N   0  0  0  0  0  0  0  0  0  0  0  0
  148.4501  138.5606  154.7148 C   0  0  0  0  0  0  0  0  0  0  0  0
  148.5831  137.3395  154.7900 O   0  0  0  0  0  0  0  0  0  0  0  0
  147.2999  139.2582  154.8673 N   0  5  0  0  0  0  0  0  0  0  0  0
  147.5782  140.6680  154.6801 C   0  0  0  0  0  0  0  0  0  0  0  0
  146.7943  141.2067  153.4680 C   0  0  0  0  0  0  0  0  0  0  0  0
  147.2470  141.4502  155.9647 C   0  0  0  0  0  0  0  0  0  0  0  0
  149.0717  140.6556  154.4097 C   0  0  0  0  0  0  0  0  0  0  0  0
  149.7504  141.6594  154.1876 O   0  0  0  0  0  0  0  0  0  0  0  0
  151.9612  141.5442  158.4377 C   0  0  0  0  0  0  0  0  0  0  0  0
  151.5269  142.8794  158.3741 C   0  0  0  0  0  0  0  0  0  0  0  0
  151.6503  143.7062  159.5094 C   0  0  0  0  0  0  0  0  0  0  0  0
  151.1757  145.1462  159.4284 C   0  0  0  0  0  0  0  0  0  0  0  0
  152.7539  143.4867  162.7809 H   0  0  0  0  0  0  0  0  0  0  0  0
  151.3893  144.4594  162.2380 H   0  0  0  0  0  0  0  0  0  0  0  0
  153.0350  144.8840  161.7426 H   0  0  0  0  0  0  0  0  0  0  0  0
  153.0702  141.4410  161.6631 H   0  0  0  0  0  0  0  0  0  0  0  0
  152.6538  138.4981  157.7153 H   0  0  0  0  0  0  0  0  0  0  0  0
  150.4458  140.7510  156.1760 H   0  0  0  0  0  0  0  0  0  0  0  0
  151.9877  141.3651  155.6272 H   0  0  0  0  0  0  0  0  0  0  0  0
  151.6518  138.3754  156.1214 H   0  0  0  0  0  0  0  0  0  0  0  0
  153.3872  138.2611  154.8988 H   0  0  0  0  0  0  0  0  0  0  0  0
  151.2776  139.4631  153.3227 H   0  0  0  0  0  0  0  0  0  0  0  0
  150.8618  137.8977  153.9499 H   0  0  0  0  0  0  0  0  0  0  0  0
  146.9961  142.2661  153.3055 H   0  0  0  0  0  0  0  0  0  0  0  0
  145.7191  141.0986  153.6142 H   0  0  0  0  0  0  0  0  0  0  0  0
  147.0542  140.6786  152.5493 H   0  0  0  0  0  0  0  0  0  0  0  0
  147.4429  142.5159  155.8399 H   0  0  0  0  0  0  0  0  0  0  0  0
  147.8394  141.1049  156.8138 H   0  0  0  0  0  0  0  0  0  0  0  0
  146.1954  141.3402  156.2324 H   0  0  0  0  0  0  0  0  0  0  0  0
  151.0996  143.2608  157.4581 H   0  0  0  0  0  0  0  0  0  0  0  0
  150.8041  145.3860  158.4314 H   0  0  0  0  0  0  0  0  0  0  0  0
  151.9920  145.8322  159.6548 H   0  0  0  0  0  0  0  0  0  0  0  0
  150.3670  145.3217  160.1381 H   0  0  0  0  0  0  0  0  0  0  0  0
  1  2  1  0  0  0  0
  1 25  1  0  0  0  0
  1 26  1  0  0  0  0
  1 27  1  0  0  0  0
  2 23  1  0  0  0  0
  2  3  2  0  0  0  0
  3  4  1  0  0  0  0
  3 28  1  0  0  0  0
  4 21  2  0  0  0  0
  4  5  1  0  0  0  0
  5  6  2  0  0  0  0
  6  7  1  0  0  0  0
  6 29  1  0  0  0  0
  7  8  1  0  0  0  0
  7 21  1  0  0  0  0
  8  9  1  0  0  0  0
  8 30  1  0  0  0  0
  8 31  1  0  0  0  0
  9 10  1  0  0  0  0
  9 11  1  0  0  0  0
  9 32  1  0  0  0  0
 10 33  1  0  0  0  0
 11 12  1  0  0  0  0
 11 34  1  0  0  0  0
 11 35  1  0  0  0  0
 12 19  1  0  0  0  0
 12 13  1  0  0  0  0
 13 14  2  0  0  0  0
 13 15  1  0  0  0  0
 15 16  1  0  0  0  0
 16 17  1  0  0  0  0
 16 18  1  0  0  0  0
 16 19  1  0  0  0  0
 17 36  1  0  0  0  0
 17 37  1  0  0  0  0
 17 38  1  0  0  0  0
 18 39  1  0  0  0  0
 18 40  1  0  0  0  0
 18 41  1  0  0  0  0
 19 20  2  0  0  0  0
 21 22  1  0  0  0  0
 22 23  2  0  0  0  0
 22 42  1  0  0  0  0
 23 24  1  0  0  0  0
 24 43  1  0  0  0  0
 24 44  1  0  0  0  0
 24 45  1  0  0  0  0
M  CHG  1  15  -1
M  END
> <s_m_source_file>
AV-unprocessed.smi

> <i_m_source_file_index>
2026

> <i_lp_mmshare_version>
43012

> <i_f3d_flags>
0

> <s_epik_input>
W0NIM11jKFtjSF0xKWMoW0NIM10pW2NIXWMoYzEyKW4oW2NIXW4yKVtDSDJdW0NASF0oW09IXSlbQ0gyXU4oQzM9TylDKD1PKVtOSF1DMyhbQ0gzXSlbQ0gzXQ==

> <s_epik_cmdline>
J2VwaWtfcHl0aG9uJywgJy1waCcsICc3LjAnLCAnLXRuJywgJzgnLCAnLW1hJywgJzIwMCcsICctbWV0YWxfYmluZGluZycsICctaW1hZScsICc8aW5maWxlLm1hZT4nLCAnLW9tYWUnLCAnPG91dGZpbGUubWFlPic=

> <r_lp_tautomer_probability>
1

> <r_epik_Ionization_Penalty>
5.78785

> <r_epik_Ionization_Penalty_Charging>
5.68049

> <r_epik_Ionization_Penalty_Neutral>
0.107354

> <r_epik_State_Penalty>
5.7743

> <r_epik_Charging_Adjusted_Penalty>
11.4548

> <i_epik_Tot_Q>
-1

> <i_epik_Tot_abs_Q>
1

> <r_epik_Metal_State_Penalty>
1.83778

> <b_epik_Metal_Only>
1

> <s_lp_Force_Field>
OPLS_2005

> <r_lp_Energy>
16.8856

> <b_lp_Chiralities_Consistent>
1

> <s_lp_Variant>
AV-unprocessed.smi:2026-5

> <Gold.Version>
5.8.1

> <Gold.Id.Protein>
6NUR|6NUR_protein|mol2

> <Gold.PLP.Fitness>
51.8453

> <Gold.PLP.PLP>
-48.0907

> <Gold.PLP.part.hbond>
-3.0000

> <Gold.PLP.part.metal>
0.0000

> <Gold.PLP.part.buried>
-3.4911

> <Gold.PLP.part.nonpolar>
-40.9114

> <Gold.PLP.part.repulsive>
0.4149

> <Gold.PLP.ligand.clash>
0.0000

> <Gold.PLP.ligand.torsion>
0.6297

> <Gold.PLP.Chemscore.Hbond>
1.6649

> <Gold.PLP.Chemscore.CHOScore>
0.0000

> <Gold.PLP.Chemscore.Metal>
0.0000

> <Gold.Chemscore.Hbonds>
donor molecule, donor type, donor heavy atom, donor atom, acceptor molecule, acceptor atom, score
      P1  H  7989  7998       L1    20  0.16
      P1  H  7997  8009       L1    10  1.00
      P1  H  8011  8017       L1    20  0.51

> <Gold.PLP.Chemscore.Internal.Correction>
0.0192

> <Gold.Rescore>
     Score         DG    S(hbond)    S(metal)    S(lipo)     H(rot)  DE(clash)    DE(int)     intcor
     18.88     -20.03       2.04        0.00     118.17       2.38       0.46       0.68       ----

> <Gold.Chemscore.Fitness>
18.8804

> <Gold.Chemscore.DG>
-20.0267

> <Gold.Chemscore.ZeroCoef>
-5.4800

> <Gold.Chemscore.Hbond>
2.0386

> <Gold.Chemscore.Metal>
0.0000

> <Gold.Chemscore.Lipo>
118.1710

> <Gold.Chemscore.Internal_Hbond>
0.0000

> <Gold.Chemscore.DEClash>
0.4628

> <Gold.Chemscore.DEInternal>
0.6836

> <Gold.Chemscore.Rot>
2.3783

> <Gold.Chemscore.Internal.Correction>
   9.000000E+99

> <Gold.Chemscore.Hbonds>
donor molecule, donor type, donor heavy atom, donor atom, acceptor molecule, acceptor atom, score
      P1  H  7989  7998       L1    20  0.08
      P1  H  7997  8009       L1    10  0.77
      P1  H  8011  8017       L1    20  0.49

> <Gold.Chemscore.Hbond.Weighted>
-6.8091

> <Gold.Chemscore.Metal.Weighted>
-0.0000

> <Gold.Chemscore.Lipo.Weighted>
-13.8260

> <Gold.Chemscore.Internal_Hbond.Weighted>
0.0000

> <Gold.Chemscore.DEClash.Weighted>
0.4628

> <Gold.Chemscore.DEInternal.Weighted>
0.6836

> <Gold.Chemscore.Rot.Weighted>
6.0884

> <Gold.Chemscore.Internal.Correction.Weighted>
   9.000000E+99

> <Gold.Protein.RotatedTorsions>
[ 6907 6896 6895 6894 ] final    5.89 input  -60.11 | X-H torsion
[ 7974 7965 7964 7962 ] final  -65.76 input  175.53 | X-H torsion
[ 8008 7997 7996 7995 ] final -136.30 input   59.86 | X-H torsion
[ 10167 10162 10161 10158 ] final  139.77 input  -65.29 | X-H torsion
[ 10718 10713 10712 10709 ] final    3.25 input   66.30 | X-H torsion
[ 10763 10752 10751 10750 ] final -101.24 input  -60.55 | X-H torsion
[ 11005 11000 10999 10996 ] final  -39.04 input  -57.11 | X-H torsion

> <Gold.Protein.ActiveResidues>
 VAL166  LYS551  ARG553  GLY616  TRP617  ASP618  TYR619  PRO620  LYS621  CYS622 
 ASP623  PHE694  ASN695  SER759  ASP760  ASP761  ALA762  ILE779  LEU786  VAL792 
 PHE793  MET794  SER795  GLU796  ALA797  LYS798  CYS799  TRP800  GLU811  SER814 

> <Gold.Protein.RotatedAtoms>
  151.6648  135.0984  160.0186 H   0  0  0  0  0  0  0  0  0  0  0  0  # atno 6907 bound_to 6896
  152.3926  133.6696  159.6258 H   0  0  0  0  0  0  0  0  0  0  0  0  # atno 6908 bound_to 6896
  150.7838  133.8846  159.3337 H   0  0  0  0  0  0  0  0  0  0  0  0  # atno 6909 bound_to 6896
  145.7502  140.8912  143.0484 H   0  0  0  0  0  0  0  0  0  0  0  0  # atno 7974 bound_to 7965
  155.3929  140.0501  157.3040 H   0  0  0  0  0  0  0  0  0  0  0  0  # atno 8008 bound_to 7997
  154.5027  140.2163  155.9274 H   0  0  0  0  0  0  0  0  0  0  0  0  # atno 8009 bound_to 7997
  156.1488  140.3140  155.8618 H   0  0  0  0  0  0  0  0  0  0  0  0  # atno 8010 bound_to 7997
  139.5069  144.6275  151.5901 H   0  0  0  0  0  0  0  0  0  0  0  0  # atno 10167 bound_to 10162
  156.8750  130.5633  149.5655 H   0  0  0  0  0  0  0  0  0  0  0  0  # atno 10718 bound_to 10713
  154.7642  135.4905  153.9522 H   0  0  0  0  0  0  0  0  0  0  0  0  # atno 10763 bound_to 10752
  153.1288  135.6748  153.9220 H   0  0  0  0  0  0  0  0  0  0  0  0  # atno 10764 bound_to 10752
  153.8930  135.3118  155.3426 H   0  0  0  0  0  0  0  0  0  0  0  0  # atno 10765 bound_to 10752
  141.0073  133.6925  156.2134 H   0  0  0  0  0  0  0  0  0  0  0  0  # atno 11005 bound_to 11000
  144.6851  139.9581  143.7479 LP  0  0  0  0  0  0  0  0  0  0  0  0  # atno 17320 bound_to 7965
  146.0364  139.3381  143.0724 LP  0  0  0  0  0  0  0  0  0  0  0  0  # atno 17321 bound_to 7965
  140.5996  143.9633  150.6377 LP  0  0  0  0  0  0  0  0  0  0  0  0  # atno 17342 bound_to 10162
  140.2840  143.3369  152.1124 LP  0  0  0  0  0  0  0  0  0  0  0  0  # atno 17343 bound_to 10162
  156.0706  130.5740  150.9376 LP  0  0  0  0  0  0  0  0  0  0  0  0  # atno 17370 bound_to 10713
  157.6173  131.0932  150.8686 LP  0  0  0  0  0  0  0  0  0  0  0  0  # atno 17371 bound_to 10713
  140.6792  134.4785  157.5589 LP  0  0  0  0  0  0  0  0  0  0  0  0  # atno 17394 bound_to 11000
  139.9070  134.8427  156.1669 LP  0  0  0  0  0  0  0  0  0  0  0  0  # atno 17395 bound_to 11000

$$$$
