#       Name:                AV-unprocessed.smi:3049
#       Creating user name   scv26
#       Creation time:       Fri Mar 27 17:01:56 2020


#       File generated by GOLD software.
#

@<TRIPOS>MOLECULE
AV-unprocessed.smi:3049
    59    60     1
SMALL
NO_CHARGES


@<TRIPOS>ATOM
      1 ****        -1.9920  -3.2093   2.1430 C.3            1 S1                 0.0000
      2 ****        -2.3476  -4.2760   1.0943 C.3            1 S1                 0.0000
      3 ****        -1.9777  -3.8839  -0.3588 C.3            1 S1                 0.0000
      4 ****        -2.5048  -4.9133  -1.3844 C.3            1 S1                 0.0000
      5 ****        -4.0209  -4.8415  -1.6143 C.3            1 S1                 0.0000
      6 ****        -0.4515  -3.7098  -0.5440 C.2            1 S1                 0.0000
      7 ****         0.2977  -4.4763   0.0640 O.2            1 S1                 0.0000
      8 ****         0.0309  -2.7152  -1.3310 N.am           1 S1                 0.0000
      9 ****        -0.7606  -1.8010  -2.1625 C.3            1 S1                 0.0000
     10 ****        -0.7643  -0.4168  -1.4913 C.3            1 S1                 0.0000
     11 ****         0.6775   0.1025  -1.2923 C.3            1 S1                 0.0000
     12 ****         0.6548   1.3145  -0.4794 N.am           1 S1                 0.0000
     13 ****         1.5787   2.2855  -0.5104 C.2            1 S1                 0.0000
     14 ****         2.5582   2.2605  -1.2551 O.2            1 S1                 0.0000
     15 ****         1.2902   3.2487   0.3833 N.am           1 S1                 0.0000
     16 ****         1.9759   4.4444   0.6374 C.2            1 S1                 0.0000
     17 ****         2.9761   5.0232  -0.1320 C.2            1 S1                 0.0000
     18 ****         3.6332   6.1844   0.0843 N.pl3          1 S1                -1.0000
     19 ****         3.3050   6.9202   1.1847 C.2            1 S1                 0.0000
     20 ****         3.8634   7.9861   1.4418 O.2            1 S1                 0.0000
     21 ****         2.2499   6.4180   2.0868 C.2            1 S1                 0.0000
     22 ****         1.8848   7.2368   3.3132 C.3            1 S1                 0.0000
     23 ****         1.6350   5.2430   1.8050 C.2            1 S1                 0.0000
     24 ****         1.5873  -0.9677  -0.6417 C.3            1 S1                 0.0000
     25 ****         1.4479  -2.3332  -1.3399 C.3            1 S1                 0.0000
     26 ****        -2.3270  -3.5169   3.1336 H              1 S1                 0.0000
     27 ****        -2.4713  -2.2574   1.9126 H              1 S1                 0.0000
     28 ****        -0.9170  -3.0377   2.2009 H              1 S1                 0.0000
     29 ****        -1.8782  -5.2229   1.3645 H              1 S1                 0.0000
     30 ****        -3.4204  -4.4551   1.1590 H              1 S1                 0.0000
     31 ****        -2.4723  -2.9298  -0.5315 H              1 S1                 0.0000
     32 ****        -2.0172  -4.7602  -2.3487 H              1 S1                 0.0000
     33 ****        -2.2327  -5.9221  -1.0707 H              1 S1                 0.0000
     34 ****        -4.3256  -5.5463  -2.3881 H              1 S1                 0.0000
     35 ****        -4.3235  -3.8453  -1.9380 H              1 S1                 0.0000
     36 ****        -4.5803  -5.0869  -0.7120 H              1 S1                 0.0000
     37 ****        -0.3013  -1.7270  -3.1495 H              1 S1                 0.0000
     38 ****        -1.7736  -2.1476  -2.3587 H              1 S1                 0.0000
     39 ****        -1.3364   0.2892  -2.0943 H              1 S1                 0.0000
     40 ****        -1.2734  -0.4868  -0.5285 H              1 S1                 0.0000
     41 ****         1.0791   0.3388  -2.2796 H              1 S1                 0.0000
     42 ****        -0.1150   1.4156   0.1655 H              1 S1                 0.0000
     43 ****         0.4768   3.0965   0.9611 H              1 S1                 0.0000
     44 ****         3.2838   4.5156  -1.0677 H              1 S1                 0.0000
     45 ****         1.0884   6.7609   3.8860 H              1 S1                 0.0000
     46 ****         1.5428   8.2299   3.0210 H              1 S1                 0.0000
     47 ****         2.7500   7.3483   3.9674 H              1 S1                 0.0000
     48 ****         0.8652   4.8818   2.4713 H              1 S1                 0.0000
     49 ****         2.6282  -0.6432  -0.6675 H              1 S1                 0.0000
     50 ****         1.3264  -1.0806   0.4119 H              1 S1                 0.0000
     51 ****         2.0909  -3.0653  -0.8497 H              1 S1                 0.0000
     52 ****         1.8057  -2.2686  -2.3685 H              1 S1                 0.0000
     53 ****        -0.0856  -5.1851   0.6561 LP             1 S1                 0.0000
     54 ****         1.2890  -4.3895  -0.0348 LP             1 S1                 0.0000
     55 ****         2.6941   1.4891  -1.8769 LP             1 S1                 0.0000
     56 ****         3.2182   3.0116  -1.2385 LP             1 S1                 0.0000
     57 ****         4.3429   6.4965  -0.5474 LP             1 S1                 0.0000
     58 ****         4.5790   8.3344   0.8363 LP             1 S1                 0.0000
     59 ****         3.6016   8.5040   2.2561 LP             1 S1                 0.0000
@<TRIPOS>BOND
    1    1    2 1     
    2    1   26 1     
    3    1   27 1     
    4    1   28 1     
    5    2    3 1     
    6    2   29 1     
    7    2   30 1     
    8    3    4 1     
    9    3    6 1     
   10    3   31 1     
   11    4    5 1     
   12    4   32 1     
   13    4   33 1     
   14    5   34 1     
   15    5   35 1     
   16    5   36 1     
   17    6    7 2     
   18    6    8 am    
   19    8   25 1     
   20    8    9 1     
   21    9   10 1     
   22    9   37 1     
   23    9   38 1     
   24   10   11 1     
   25   10   39 1     
   26   10   40 1     
   27   11   12 1     
   28   11   24 1     
   29   11   41 1     
   30   12   13 am    
   31   12   42 1     
   32   13   14 2     
   33   13   15 am    
   34   15   16 1     
   35   15   43 1     
   36   16   23 1     
   37   16   17 2     
   38   17   18 1     
   39   17   44 1     
   40   18   19 1     
   41   19   20 2     
   42   19   21 1     
   43   21   22 1     
   44   21   23 2     
   45   22   45 1     
   46   22   46 1     
   47   22   47 1     
   48   23   48 1     
   49   24   25 1     
   50   24   49 1     
   51   24   50 1     
   52   25   51 1     
   53   25   52 1     
   54    7   53 1     
   55    7   54 1     
   56   14   55 1     
   57   14   56 1     
   58   18   57 1     
   59   20   58 1     
   60   20   59 1     
@<TRIPOS>SUBSTRUCTURE
      1 S1             1
@<TRIPOS>SET
LONE_PAIRS      STATIC     ATOMS    <user>   **** ""
7 53 54 55 56 57 58 59
DONOR_HYDROGENS      STATIC     ATOMS    <user>   **** ""
2 42 43
ATOM$BLUE        STATIC     ATOMS    COLORGROUP SYSTEM
7 53 54 55 56 57 58 59
ATOM$RED        STATIC     ATOMS    COLORGROUP SYSTEM
2 42 43
