AV-unprocessed.smi:2340|AV-procd|sdf|9344|dock10
  -GOLD-   2272012563D 1   1.00000     0.00000
 Structure written by MMmdl.
 40 41  0  0  0  0  0  0  0  0  1 V2000
  145.5751  129.2120  151.9074 C   0  0  0  0  0  0  0  0  0  0  0  0
  146.1880  130.5680  152.0638 C   0  0  0  0  0  0  0  0  0  0  0  0
  145.7700  131.7360  151.4772 C   0  0  0  0  0  0  0  0  0  0  0  0
  146.7790  133.0839  151.9229 S   0  0  0  0  0  0  0  0  0  0  0  0
  147.7434  131.9952  152.9174 C   0  0  0  0  0  0  0  0  0  0  0  0
  148.9494  132.4318  153.6946 C   0  0  2  0  0  0  0  0  0  0  0  0
  149.7412  131.2356  154.2417 C   0  0  0  0  0  0  0  0  0  0  0  0
  148.6054  133.4575  154.7919 C   0  0  0  0  0  0  0  0  0  0  0  0
  148.9380  134.8144  154.3738 N   0  0  0  0  0  0  0  0  0  0  0  0
  149.2062  135.8257  155.2078 C   0  0  0  0  0  0  0  0  0  0  0  0
  149.2268  135.7221  156.4343 O   0  0  0  0  0  0  0  0  0  0  0  0
  149.4469  136.9627  154.5422 N   0  0  0  0  0  0  0  0  0  0  0  0
  149.7769  138.2431  155.1592 C   0  0  2  0  0  0  0  0  0  0  0  0
  148.8606  139.3472  154.6735 C   0  0  0  0  0  0  0  0  0  0  0  0
  149.7044  140.5909  154.9273 C   0  0  0  0  0  0  0  0  0  0  0  0
  151.0577  140.1860  154.7503 O   0  0  0  0  0  0  0  0  0  0  0  0
  151.1507  138.7640  154.7152 C   0  0  1  0  0  0  0  0  0  0  0  0
  152.3197  138.2904  155.5876 C   0  0  0  0  0  0  0  0  0  0  0  0
  147.3109  130.7314  152.8798 N   0  0  0  0  0  0  0  0  0  0  0  0
  144.7563  129.2251  151.1876 H   0  0  0  0  0  0  0  0  0  0  0  0
  145.1757  128.8495  152.8548 H   0  0  0  0  0  0  0  0  0  0  0  0
  146.3090  128.4860  151.5571 H   0  0  0  0  0  0  0  0  0  0  0  0
  144.9345  131.8849  150.8091 H   0  0  0  0  0  0  0  0  0  0  0  0
  149.6090  132.9394  152.9885 H   0  0  0  0  0  0  0  0  0  0  0  0
  150.0406  130.5633  153.4369 H   0  0  0  0  0  0  0  0  0  0  0  0
  149.1513  130.6595  154.9552 H   0  0  0  0  0  0  0  0  0  0  0  0
  150.6470  131.5656  154.7508 H   0  0  0  0  0  0  0  0  0  0  0  0
  147.5401  133.4010  155.0235 H   0  0  0  0  0  0  0  0  0  0  0  0
  149.1431  133.2245  155.7119 H   0  0  0  0  0  0  0  0  0  0  0  0
  148.9451  134.9972  153.3808 H   0  0  0  0  0  0  0  0  0  0  0  0
  149.4031  136.9420  153.5339 H   0  0  0  0  0  0  0  0  0  0  0  0
  149.7200  138.1901  156.2485 H   0  0  0  0  0  0  0  0  0  0  0  0
  148.6681  139.2458  153.6040 H   0  0  0  0  0  0  0  0  0  0  0  0
  147.9019  139.3702  155.1924 H   0  0  0  0  0  0  0  0  0  0  0  0
  149.4435  141.4162  154.2642 H   0  0  0  0  0  0  0  0  0  0  0  0
  149.5777  140.9295  155.9563 H   0  0  0  0  0  0  0  0  0  0  0  0
  151.3328  138.4846  153.6760 H   0  0  0  0  0  0  0  0  0  0  0  0
  152.4230  137.2059  155.5528 H   0  0  0  0  0  0  0  0  0  0  0  0
  152.1781  138.5807  156.6290 H   0  0  0  0  0  0  0  0  0  0  0  0
  153.2598  138.7228  155.2453 H   0  0  0  0  0  0  0  0  0  0  0  0
  1  2  1  0  0  0  0
  1 20  1  0  0  0  0
  1 21  1  0  0  0  0
  1 22  1  0  0  0  0
  2 19  1  0  0  0  0
  2  3  2  0  0  0  0
  3  4  1  0  0  0  0
  3 23  1  0  0  0  0
  4  5  1  0  0  0  0
  5  6  1  0  0  0  0
  5 19  2  0  0  0  0
  6  7  1  0  0  0  0
  6  8  1  0  0  0  0
  6 24  1  0  0  0  0
  7 25  1  0  0  0  0
  7 26  1  0  0  0  0
  7 27  1  0  0  0  0
  8  9  1  0  0  0  0
  8 28  1  0  0  0  0
  8 29  1  0  0  0  0
  9 10  1  0  0  0  0
  9 30  1  0  0  0  0
 10 11  2  0  0  0  0
 10 12  1  0  0  0  0
 12 13  1  0  0  0  0
 12 31  1  0  0  0  0
 13 17  1  0  0  0  0
 13 14  1  0  0  0  0
 13 32  1  0  0  0  0
 14 15  1  0  0  0  0
 14 33  1  0  0  0  0
 14 34  1  0  0  0  0
 15 16  1  0  0  0  0
 15 35  1  0  0  0  0
 15 36  1  0  0  0  0
 16 17  1  0  0  0  0
 17 18  1  0  0  0  0
 17 37  1  0  0  0  0
 18 38  1  0  0  0  0
 18 39  1  0  0  0  0
 18 40  1  0  0  0  0
M  END
> <s_m_source_file>
AV-unprocessed.smi

> <i_m_source_file_index>
2340

> <i_lp_mmshare_version>
43012

> <i_f3d_flags>
0

> <s_epik_input>
W0NIM11jMVtjSF1zYyhuMSlbQ0BIXShbQ0gzXSlbQ0gyXVtOSF1DKD1PKVtOSF1bQ0BASF0yW0NIMl1bQ0gyXU9bQ0BIXTJbQ0gzXQ==

> <s_epik_cmdline>
J2VwaWtfcHl0aG9uJywgJy1waCcsICc3LjAnLCAnLXRuJywgJzgnLCAnLW1hJywgJzIwMCcsICctbWV0YWxfYmluZGluZycsICctaW1hZScsICc8aW5maWxlLm1hZT4nLCAnLW9tYWUnLCAnPG91dGZpbGUubWFlPic=

> <r_epik_Ionization_Penalty>
0.00156622

> <r_epik_Ionization_Penalty_Charging>
0

> <r_epik_Ionization_Penalty_Neutral>
0.00156622

> <r_epik_State_Penalty>
0.00101902

> <r_epik_Charging_Adjusted_Penalty>
0.00101902

> <i_epik_Tot_Q>
0

> <i_epik_Tot_abs_Q>
0

> <r_epik_Metal_State_Penalty>
-0

> <b_epik_Metal_Only>
0

> <s_lp_Force_Field>
OPLS_2005

> <r_lp_Energy>
4.8577

> <b_lp_Chiralities_Consistent>
1

> <s_lp_Variant>
AV-unprocessed.smi:2340-1

> <Gold.Version>
5.8.1

> <Gold.Id.Protein>
6NUR|6NUR_protein|mol2

> <Gold.PLP.Fitness>
41.9244

> <Gold.PLP.PLP>
-34.8610

> <Gold.PLP.part.hbond>
-2.8754

> <Gold.PLP.part.metal>
0.0000

> <Gold.PLP.part.buried>
-4.3768

> <Gold.PLP.part.nonpolar>
-28.3963

> <Gold.PLP.part.repulsive>
0.2662

> <Gold.PLP.ligand.clash>
0.0000

> <Gold.PLP.ligand.torsion>
0.9352

> <Gold.PLP.Chemscore.Hbond>
2.9425

> <Gold.PLP.Chemscore.CHOScore>
0.0000

> <Gold.PLP.Chemscore.Metal>
0.0000

> <Gold.Chemscore.Hbonds>
donor molecule, donor type, donor heavy atom, donor atom, acceptor molecule, acceptor atom, score
      L1  H     9    30       P1  7948  1.00
      L1  H    12    31       P1  7948  1.00
      P1  H  7989  7998       L1    16  1.00

> <Gold.PLP.Chemscore.Internal.Correction>
0.1062

> <Gold.Rescore>
     Score         DG    S(hbond)    S(metal)    S(lipo)     H(rot)  DE(clash)    DE(int)     intcor
     17.63     -18.54       2.07        0.00      85.95       1.53       0.03       0.89       ----

> <Gold.Chemscore.Fitness>
17.6259

> <Gold.Chemscore.DG>
-18.5416

> <Gold.Chemscore.ZeroCoef>
-5.4800

> <Gold.Chemscore.Hbond>
2.0744

> <Gold.Chemscore.Metal>
0.0000

> <Gold.Chemscore.Lipo>
85.9539

> <Gold.Chemscore.Internal_Hbond>
0.0000

> <Gold.Chemscore.DEClash>
0.0276

> <Gold.Chemscore.DEInternal>
0.8881

> <Gold.Chemscore.Rot>
1.5325

> <Gold.Chemscore.Internal.Correction>
   9.000000E+99

> <Gold.Chemscore.Hbonds>
donor molecule, donor type, donor heavy atom, donor atom, acceptor molecule, acceptor atom, score
      L1  H     9    30       P1  7948  0.34
      L1  H    12    31       P1  7948  0.91
      P1  H  7989  7998       L1    16  0.58

> <Gold.Chemscore.Hbond.Weighted>
-6.9283

> <Gold.Chemscore.Metal.Weighted>
-0.0000

> <Gold.Chemscore.Lipo.Weighted>
-10.0566

> <Gold.Chemscore.Internal_Hbond.Weighted>
0.0000

> <Gold.Chemscore.DEClash.Weighted>
0.0276

> <Gold.Chemscore.DEInternal.Weighted>
0.8881

> <Gold.Chemscore.Rot.Weighted>
3.9233

> <Gold.Chemscore.Internal.Correction.Weighted>
   9.000000E+99

> <Gold.Protein.RotatedTorsions>
[ 6907 6896 6895 6894 ] final -169.31 input  -60.11 | X-H torsion
[ 7974 7965 7964 7962 ] final  132.13 input  175.53 | X-H torsion
[ 8008 7997 7996 7995 ] final -134.70 input   59.86 | X-H torsion
[ 10167 10162 10161 10158 ] final -114.93 input  -65.29 | X-H torsion
[ 10718 10713 10712 10709 ] final  111.44 input   66.30 | X-H torsion
[ 10763 10752 10751 10750 ] final   21.39 input  -60.55 | X-H torsion
[ 11005 11000 10999 10996 ] final  -42.16 input  -57.11 | X-H torsion

> <Gold.Protein.ActiveResidues>
 VAL166  LYS551  ARG553  GLY616  TRP617  ASP618  TYR619  PRO620  LYS621  CYS622 
 ASP623  PHE694  ASN695  SER759  ASP760  ASP761  ALA762  ILE779  LEU786  VAL792 
 PHE793  MET794  SER795  GLU796  ALA797  LYS798  CYS799  TRP800  GLU811  SER814 

> <Gold.Protein.RotatedAtoms>
  151.4896  133.3528  159.2850 H   0  0  0  0  0  0  0  0  0  0  0  0  # atno 6907 bound_to 6896
  150.8843  134.8241  159.7259 H   0  0  0  0  0  0  0  0  0  0  0  0  # atno 6908 bound_to 6896
  152.4783  134.4798  159.9714 H   0  0  0  0  0  0  0  0  0  0  0  0  # atno 6909 bound_to 6896
  145.0001  139.4321  143.5296 H   0  0  0  0  0  0  0  0  0  0  0  0  # atno 7974 bound_to 7965
  155.3664  140.0485  157.3046 H   0  0  0  0  0  0  0  0  0  0  0  0  # atno 8008 bound_to 7997
  154.5152  140.2206  155.9043 H   0  0  0  0  0  0  0  0  0  0  0  0  # atno 8009 bound_to 7997
  156.1628  140.3113  155.8843 H   0  0  0  0  0  0  0  0  0  0  0  0  # atno 8010 bound_to 7997
  140.0956  143.4659  152.1843 H   0  0  0  0  0  0  0  0  0  0  0  0  # atno 10167 bound_to 10162
  157.6444  131.0951  150.6750 H   0  0  0  0  0  0  0  0  0  0  0  0  # atno 10718 bound_to 10713
  153.0999  135.6670  153.9693 H   0  0  0  0  0  0  0  0  0  0  0  0  # atno 10763 bound_to 10752
  153.9266  135.3008  155.3448 H   0  0  0  0  0  0  0  0  0  0  0  0  # atno 10764 bound_to 10752
  154.7419  135.5075  153.9213 H   0  0  0  0  0  0  0  0  0  0  0  0  # atno 10765 bound_to 10752
  141.0296  133.6826  156.2556 H   0  0  0  0  0  0  0  0  0  0  0  0  # atno 11005 bound_to 11000
  146.3450  139.9384  142.8744 LP  0  0  0  0  0  0  0  0  0  0  0  0  # atno 17320 bound_to 7965
  145.2166  140.9918  143.4070 LP  0  0  0  0  0  0  0  0  0  0  0  0  # atno 17321 bound_to 7965
  139.5700  144.7457  151.3918 LP  0  0  0  0  0  0  0  0  0  0  0  0  # atno 17342 bound_to 10162
  140.7005  143.7643  150.7395 LP  0  0  0  0  0  0  0  0  0  0  0  0  # atno 17343 bound_to 10162
  156.7069  130.4640  149.5558 LP  0  0  0  0  0  0  0  0  0  0  0  0  # atno 17370 bound_to 10713
  156.1757  130.6466  151.0891 LP  0  0  0  0  0  0  0  0  0  0  0  0  # atno 17371 bound_to 10713
  140.6430  134.5146  157.5571 LP  0  0  0  0  0  0  0  0  0  0  0  0  # atno 17394 bound_to 11000
  139.9199  134.8170  156.1245 LP  0  0  0  0  0  0  0  0  0  0  0  0  # atno 17395 bound_to 11000

$$$$
