#       Name:                AV-unprocessed.smi:2147
#       Creating user name   scv26
#       Creation time:       Fri Mar 27 11:52:00 2020


#       File generated by GOLD software.
#

@<TRIPOS>MOLECULE
AV-unprocessed.smi:2147
    48    50     1
SMALL
NO_CHARGES


@<TRIPOS>ATOM
      1 ****        -4.9359   5.8425   0.6877 C.3            1 S1                 0.0000
      2 ****        -3.4092   5.8260   0.6334 C.2            1 S1                 0.0000
      3 ****        -2.8091   6.8971   0.5474 O.2            1 S1                 0.0000
      4 ****        -2.7257   4.5023   0.6887 C.ar           1 S1                 0.0000
      5 ****        -3.4509   3.2914   0.7751 C.ar           1 S1                 0.0000
      6 ****        -2.7755   2.0570   0.8234 C.ar           1 S1                 0.0000
      7 ****        -1.3686   1.9983   0.7862 C.ar           1 S1                 0.0000
      8 ****        -0.7918   0.7474   0.8355 O.3            1 S1                 0.0000
      9 ****         0.6252   0.6563   0.7684 C.3            1 S1                 0.0000
     10 ****         1.0303  -0.8250   0.7881 C.3            1 S1                 0.0000
     11 ****         2.4338  -0.9017   0.9404 O.3            1 S1                 0.0000
     12 ****         0.5920  -1.5693  -0.4895 C.3            1 S1                 0.0000
     13 ****         0.9386  -2.9976  -0.4681 N.pl3          1 S1                 0.0000
     14 ****         0.2531  -4.0484   0.0584 C.2            1 S1                 0.0000
     15 ****         0.9805  -5.1751  -0.1785 N.pl3          1 S1                 1.0000
     16 ****         2.1493  -4.8400  -0.8652 C.ar           1 S1                 0.0000
     17 ****         3.1958  -5.6345  -1.3233 C.ar           1 S1                 0.0000
     18 ****         4.2485  -4.9727  -1.9889 C.ar           1 S1                 0.0000
     19 ****         4.2350  -3.5754  -2.1772 C.ar           1 S1                 0.0000
     20 ****         3.1679  -2.7801  -1.7102 C.ar           1 S1                 0.0000
     21 ****         2.1301  -3.4416  -1.0539 C.ar           1 S1                 0.0000
     22 ****        -0.6407   3.2103   0.7015 C.ar           1 S1                 0.0000
     23 ****        -1.3143   4.4461   0.6527 C.ar           1 S1                 0.0000
     24 ****        -5.3545   5.2944  -0.1565 H              1 S1                 0.0000
     25 ****        -5.3085   6.8662   0.6477 H              1 S1                 0.0000
     26 ****        -5.2898   5.3873   1.6128 H              1 S1                 0.0000
     27 ****        -4.5301   3.2840   0.8051 H              1 S1                 0.0000
     28 ****        -3.3465   1.1424   0.8886 H              1 S1                 0.0000
     29 ****         1.0032   1.1344  -0.1371 H              1 S1                 0.0000
     30 ****         1.0595   1.1687   1.6288 H              1 S1                 0.0000
     31 ****         0.5819  -1.3046   1.6591 H              1 S1                 0.0000
     32 ****         2.6716  -0.4775   1.7510 H              1 S1                 0.0000
     33 ****        -0.4913  -1.5083  -0.6007 H              1 S1                 0.0000
     34 ****         1.0143  -1.1093  -1.3831 H              1 S1                 0.0000
     35 ****        -0.6974  -3.9974   0.5697 H              1 S1                 0.0000
     36 ****         3.2093  -6.7049  -1.1796 H              1 S1                 0.0000
     37 ****         5.0838  -5.5481  -2.3610 H              1 S1                 0.0000
     38 ****         5.0606  -3.1026  -2.6891 H              1 S1                 0.0000
     39 ****         3.1708  -1.7099  -1.8547 H              1 S1                 0.0000
     40 ****         0.4381   3.2212   0.6722 H              1 S1                 0.0000
     41 ****        -0.7299   5.3527   0.5871 H              1 S1                 0.0000
     42 ****         0.6978  -6.1034   0.1086 H              1 S1                 0.0000
     43 ****        -3.3208   7.7557   0.5144 LP             1 S1                 0.0000
     44 ****        -1.8099   6.9089   0.5105 LP             1 S1                 0.0000
     45 ****        -1.1591   0.2215   0.0684 LP             1 S1                 0.0000
     46 ****        -1.0754   0.3242   1.6960 LP             1 S1                 0.0000
     47 ****         2.8818  -0.4406   0.1744 LP             1 S1                 0.0000
     48 ****         2.7184  -1.8600   0.9651 LP             1 S1                 0.0000
@<TRIPOS>BOND
    1    1    2 1     
    2    1   24 1     
    3    1   25 1     
    4    1   26 1     
    5    2    3 2     
    6    2    4 1     
    7    4   23 ar    
    8    4    5 ar    
    9    5    6 ar    
   10    5   27 1     
   11    6    7 ar    
   12    6   28 1     
   13    7    8 1     
   14    7   22 ar    
   15    8    9 1     
   16    9   10 1     
   17    9   29 1     
   18    9   30 1     
   19   10   11 1     
   20   10   12 1     
   21   10   31 1     
   22   11   32 1     
   23   12   13 1     
   24   12   33 1     
   25   12   34 1     
   26   13   21 1     
   27   13   14 1     
   28   14   15 2     
   29   14   35 1     
   30   15   16 1     
   31   15   42 1     
   32   16   21 ar    
   33   16   17 ar    
   34   17   18 ar    
   35   17   36 1     
   36   18   19 ar    
   37   18   37 1     
   38   19   20 ar    
   39   19   38 1     
   40   20   21 ar    
   41   20   39 1     
   42   22   23 ar    
   43   22   40 1     
   44   23   41 1     
   45    3   43 1     
   46    3   44 1     
   47    8   45 1     
   48    8   46 1     
   49   11   47 1     
   50   11   48 1     
@<TRIPOS>SUBSTRUCTURE
      1 S1             1
@<TRIPOS>SET
LONE_PAIRS      STATIC     ATOMS    <user>   **** ""
6 43 44 45 46 47 48
DONOR_HYDROGENS      STATIC     ATOMS    <user>   **** ""
2 32 42
ATOM$BLUE        STATIC     ATOMS    COLORGROUP SYSTEM
6 43 44 45 46 47 48
ATOM$RED        STATIC     ATOMS    COLORGROUP SYSTEM
2 32 42
