AV-unprocessed.smi:671|AV-procd|sdf|3285|dock8
  -GOLD-   22720 0243D 1   1.00000     0.00000
 Structure written by MMmdl.
 50 51  0  0  0  0  0  0  0  0  2 V2000
  147.4136  141.6184  153.9326 C   0  0  0  0  0  0  0  0  0  0  0  0
  148.6538  141.3452  154.7167 C   0  0  0  0  0  0  0  0  0  0  0  0
  149.2761  142.2570  155.5102 N   0  3  0  0  0  0  0  0  0  0  0  0
  150.3632  141.7142  156.0758 N   0  0  0  0  0  0  0  0  0  0  0  0
  151.1760  142.5395  156.9694 C   0  0  0  0  0  0  0  0  0  0  0  0
  150.5076  140.4188  155.6742 C   0  0  0  0  0  0  0  0  0  0  0  0
  151.6167  139.5188  156.1150 C   0  0  0  0  0  0  0  0  0  0  0  0
  149.4244  140.1808  154.8164 C   0  0  0  0  0  0  0  0  0  0  0  0
  149.1209  138.8926  154.1030 C   0  0  0  0  0  0  0  0  0  0  0  0
  147.7588  138.2812  154.5046 C   0  0  2  0  0  0  0  0  0  0  0  0
  147.6805  137.9463  156.0022 C   0  0  0  0  0  0  0  0  0  0  0  0
  147.4976  137.0630  153.7333 N   0  0  0  0  0  0  0  0  0  0  0  0
  146.3814  136.3103  153.7194 C   0  0  0  0  0  0  0  0  0  0  0  0
  145.4016  136.5895  154.4069 O   0  0  0  0  0  0  0  0  0  0  0  0
  146.4403  135.2433  152.9044 N   0  0  0  0  0  0  0  0  0  0  0  0
  145.4036  134.2273  152.7280 C   0  0  2  0  0  0  0  0  0  0  0  0
  145.9928  132.8320  153.0126 C   0  0  0  0  0  0  0  0  0  0  0  0
  146.0778  132.0980  151.6663 C   0  0  0  0  0  0  0  0  0  0  0  0
  145.8153  133.1552  150.5941 C   0  0  0  0  0  0  0  0  0  0  0  0
  144.8880  134.1618  151.2759 C   0  0  2  0  0  0  0  0  0  0  0  0
  144.7622  135.5005  150.5288 C   0  0  0  0  0  0  0  0  0  0  0  0
  146.6973  140.8067  154.0577 H   0  0  0  0  0  0  0  0  0  0  0  0
  147.6534  141.7098  152.8734 H   0  0  0  0  0  0  0  0  0  0  0  0
  146.9445  142.5450  154.2641 H   0  0  0  0  0  0  0  0  0  0  0  0
  151.7879  141.8998  157.6057 H   0  0  0  0  0  0  0  0  0  0  0  0
  150.5259  143.1509  157.5966 H   0  0  0  0  0  0  0  0  0  0  0  0
  151.8219  143.1828  156.3712 H   0  0  0  0  0  0  0  0  0  0  0  0
  151.6255  138.5928  155.5418 H   0  0  0  0  0  0  0  0  0  0  0  0
  151.4981  139.2688  157.1693 H   0  0  0  0  0  0  0  0  0  0  0  0
  152.5795  140.0123  155.9800 H   0  0  0  0  0  0  0  0  0  0  0  0
  149.1385  139.0793  153.0289 H   0  0  0  0  0  0  0  0  0  0  0  0
  149.9125  138.1623  154.2692 H   0  0  0  0  0  0  0  0  0  0  0  0
  146.9655  139.0004  154.2948 H   0  0  0  0  0  0  0  0  0  0  0  0
  147.7847  138.8403  156.6170 H   0  0  0  0  0  0  0  0  0  0  0  0
  148.4641  137.2466  156.2950 H   0  0  0  0  0  0  0  0  0  0  0  0
  146.7204  137.4938  156.2524 H   0  0  0  0  0  0  0  0  0  0  0  0
  148.2536  136.7503  153.1409 H   0  0  0  0  0  0  0  0  0  0  0  0
  147.2875  135.1120  152.3723 H   0  0  0  0  0  0  0  0  0  0  0  0
  144.5724  134.4217  153.4084 H   0  0  0  0  0  0  0  0  0  0  0  0
  146.9748  132.8952  153.4839 H   0  0  0  0  0  0  0  0  0  0  0  0
  145.3528  132.2767  153.6991 H   0  0  0  0  0  0  0  0  0  0  0  0
  147.0378  131.6008  151.5244 H   0  0  0  0  0  0  0  0  0  0  0  0
  145.3029  131.3317  151.6205 H   0  0  0  0  0  0  0  0  0  0  0  0
  146.7526  133.6392  150.3165 H   0  0  0  0  0  0  0  0  0  0  0  0
  145.3808  132.7302  149.6888 H   0  0  0  0  0  0  0  0  0  0  0  0
  143.8940  133.7122  151.3106 H   0  0  0  0  0  0  0  0  0  0  0  0
  145.7303  135.9821  150.3888 H   0  0  0  0  0  0  0  0  0  0  0  0
  144.1185  136.1918  151.0735 H   0  0  0  0  0  0  0  0  0  0  0  0
  144.3254  135.3519  149.5411 H   0  0  0  0  0  0  0  0  0  0  0  0
  149.0153  143.2178  155.6936 H   0  0  0  0  0  0  0  0  0  0  0  0
  1  2  1  0  0  0  0
  1 22  1  0  0  0  0
  1 23  1  0  0  0  0
  1 24  1  0  0  0  0
  2  8  1  0  0  0  0
  2  3  2  0  0  0  0
  3  4  1  0  0  0  0
  3 50  1  0  0  0  0
  4  5  1  0  0  0  0
  4  6  1  0  0  0  0
  5 25  1  0  0  0  0
  5 26  1  0  0  0  0
  5 27  1  0  0  0  0
  6  7  1  0  0  0  0
  6  8  2  0  0  0  0
  7 28  1  0  0  0  0
  7 29  1  0  0  0  0
  7 30  1  0  0  0  0
  8  9  1  0  0  0  0
  9 10  1  0  0  0  0
  9 31  1  0  0  0  0
  9 32  1  0  0  0  0
 10 11  1  0  0  0  0
 10 12  1  0  0  0  0
 10 33  1  0  0  0  0
 11 34  1  0  0  0  0
 11 35  1  0  0  0  0
 11 36  1  0  0  0  0
 12 13  1  0  0  0  0
 12 37  1  0  0  0  0
 13 14  2  0  0  0  0
 13 15  1  0  0  0  0
 15 16  1  0  0  0  0
 15 38  1  0  0  0  0
 16 20  1  0  0  0  0
 16 17  1  0  0  0  0
 16 39  1  0  0  0  0
 17 18  1  0  0  0  0
 17 40  1  0  0  0  0
 17 41  1  0  0  0  0
 18 19  1  0  0  0  0
 18 42  1  0  0  0  0
 18 43  1  0  0  0  0
 19 20  1  0  0  0  0
 19 44  1  0  0  0  0
 19 45  1  0  0  0  0
 20 21  1  0  0  0  0
 20 46  1  0  0  0  0
 21 47  1  0  0  0  0
 21 48  1  0  0  0  0
 21 49  1  0  0  0  0
M  CHG  1   3   1
M  END
> <s_m_source_file>
AV-unprocessed.smi

> <i_m_source_file_index>
671

> <i_lp_mmshare_version>
43012

> <i_f3d_flags>
0

> <s_epik_input>
W0NIM11jMW5uKFtDSDNdKWMoW0NIM10pYzFbQ0gyXVtDQEhdKFtDSDNdKVtOSF1DKD1PKVtOSF1bQ0BASF0yW0NIMl1bQ0gyXVtDSDJdW0NASF0yW0NIM10=

> <s_epik_cmdline>
J2VwaWtfcHl0aG9uJywgJy1waCcsICc3LjAnLCAnLXRuJywgJzgnLCAnLW1hJywgJzIwMCcsICctbWV0YWxfYmluZGluZycsICctaW1hZScsICc8aW5maWxlLm1hZT4nLCAnLW9tYWUnLCAnPG91dGZpbGUubWFlPic=

> <r_lp_tautomer_probability>
1

> <r_epik_Ionization_Penalty>
2.28705

> <r_epik_Ionization_Penalty_Charging>
2.28698

> <r_epik_Ionization_Penalty_Neutral>
6.23157e-05

> <r_epik_State_Penalty>
2.43671

> <r_epik_Charging_Adjusted_Penalty>
4.72369

> <i_epik_Tot_Q>
1

> <i_epik_Tot_abs_Q>
1

> <r_epik_Metal_State_Penalty>
2.44911

> <b_epik_Metal_Only>
0

> <s_lp_Force_Field>
OPLS_2005

> <r_lp_Energy>
35.629

> <b_lp_Chiralities_Consistent>
1

> <s_lp_Variant>
AV-unprocessed.smi:671-13

> <Gold.Version>
5.8.1

> <Gold.Id.Protein>
6NUR|6NUR_protein|mol2

> <Gold.PLP.Fitness>
47.4420

> <Gold.PLP.PLP>
-36.1965

> <Gold.PLP.part.hbond>
-2.8095

> <Gold.PLP.part.metal>
0.0000

> <Gold.PLP.part.buried>
-5.2243

> <Gold.PLP.part.nonpolar>
-29.7671

> <Gold.PLP.part.repulsive>
0.2073

> <Gold.PLP.ligand.clash>
0.0000

> <Gold.PLP.ligand.torsion>
0.0297

> <Gold.PLP.Chemscore.Hbond>
3.7593

> <Gold.PLP.Chemscore.CHOScore>
0.0000

> <Gold.PLP.Chemscore.Metal>
0.0000

> <Gold.Chemscore.Hbonds>
donor molecule, donor type, donor heavy atom, donor atom, acceptor molecule, acceptor atom, score
      L1  H     3    50       P1  8028  1.89
      L1  H    12    37       P1  7948  1.00
      L1  H    15    38       P1  7948  0.75

> <Gold.PLP.Chemscore.Internal.Correction>
0.0272

> <Gold.Rescore>
     Score         DG    S(hbond)    S(metal)    S(lipo)     H(rot)  DE(clash)    DE(int)     intcor
     20.26     -20.32       2.70        0.00      82.70       1.51       0.01       0.06       ----

> <Gold.Chemscore.Fitness>
20.2574

> <Gold.Chemscore.DG>
-20.3244

> <Gold.Chemscore.ZeroCoef>
-5.4800

> <Gold.Chemscore.Hbond>
2.7014

> <Gold.Chemscore.Metal>
0.0000

> <Gold.Chemscore.Lipo>
82.7031

> <Gold.Chemscore.Internal_Hbond>
0.0000

> <Gold.Chemscore.DEClash>
0.0067

> <Gold.Chemscore.DEInternal>
0.0603

> <Gold.Chemscore.Rot>
1.5057

> <Gold.Chemscore.Internal.Correction>
   9.000000E+99

> <Gold.Chemscore.Hbonds>
donor molecule, donor type, donor heavy atom, donor atom, acceptor molecule, acceptor atom, score
      L1  H     3    50       P1  8028  0.90
      L1  H    12    37       P1  7948  0.94
      L1  H    15    38       P1  7948  0.71

> <Gold.Chemscore.Hbond.Weighted>
-9.0228

> <Gold.Chemscore.Metal.Weighted>
-0.0000

> <Gold.Chemscore.Lipo.Weighted>
-9.6763

> <Gold.Chemscore.Internal_Hbond.Weighted>
0.0000

> <Gold.Chemscore.DEClash.Weighted>
0.0067

> <Gold.Chemscore.DEInternal.Weighted>
0.0603

> <Gold.Chemscore.Rot.Weighted>
3.8547

> <Gold.Chemscore.Internal.Correction.Weighted>
   9.000000E+99

> <Gold.Protein.RotatedTorsions>
[ 6907 6896 6895 6894 ] final   66.96 input  -60.11 | X-H torsion
[ 7974 7965 7964 7962 ] final  -52.09 input  175.53 | X-H torsion
[ 8008 7997 7996 7995 ] final -174.35 input   59.86 | X-H torsion
[ 10167 10162 10161 10158 ] final -165.30 input  -65.29 | X-H torsion
[ 10718 10713 10712 10709 ] final  143.09 input   66.30 | X-H torsion
[ 10763 10752 10751 10750 ] final  158.39 input  -60.55 | X-H torsion
[ 11005 11000 10999 10996 ] final  -77.84 input  -57.11 | X-H torsion

> <Gold.Protein.ActiveResidues>
 VAL166  LYS551  ARG553  GLY616  TRP617  ASP618  TYR619  PRO620  LYS621  CYS622 
 ASP623  PHE694  ASN695  SER759  ASP760  ASP761  ALA762  ILE779  LEU786  VAL792 
 PHE793  MET794  SER795  GLU796  ALA797  LYS798  CYS799  TRP800  GLU811  SER814 

> <Gold.Protein.RotatedAtoms>
  152.4519  134.5376  159.9829 H   0  0  0  0  0  0  0  0  0  0  0  0  # atno 6907 bound_to 6896
  151.5447  133.3421  159.2950 H   0  0  0  0  0  0  0  0  0  0  0  0  # atno 6908 bound_to 6896
  150.8450  134.7787  159.7026 H   0  0  0  0  0  0  0  0  0  0  0  0  # atno 6909 bound_to 6896
  145.9118  140.7909  142.9691 H   0  0  0  0  0  0  0  0  0  0  0  0  # atno 7974 bound_to 7965
  155.9690  140.1159  157.0829 H   0  0  0  0  0  0  0  0  0  0  0  0  # atno 8008 bound_to 7997
  154.4151  140.1167  156.5348 H   0  0  0  0  0  0  0  0  0  0  0  0  # atno 8009 bound_to 7997
  155.6622  140.3473  155.4789 H   0  0  0  0  0  0  0  0  0  0  0  0  # atno 8010 bound_to 7997
  139.6191  144.0660  152.1916 H   0  0  0  0  0  0  0  0  0  0  0  0  # atno 10167 bound_to 10162
  157.3730  131.0981  151.0810 H   0  0  0  0  0  0  0  0  0  0  0  0  # atno 10718 bound_to 10713
  154.2154  135.2784  155.2944 H   0  0  0  0  0  0  0  0  0  0  0  0  # atno 10763 bound_to 10752
  154.5745  135.5608  153.7130 H   0  0  0  0  0  0  0  0  0  0  0  0  # atno 10764 bound_to 10752
  153.0054  135.6329  154.2293 H   0  0  0  0  0  0  0  0  0  0  0  0  # atno 10765 bound_to 10752
  141.1662  133.7038  156.7881 H   0  0  0  0  0  0  0  0  0  0  0  0  # atno 11005 bound_to 11000
  144.6744  140.1837  143.7403 LP  0  0  0  0  0  0  0  0  0  0  0  0  # atno 17320 bound_to 7965
  145.8662  139.2248  143.1688 LP  0  0  0  0  0  0  0  0  0  0  0  0  # atno 17321 bound_to 7965
  140.0297  144.6090  150.7498 LP  0  0  0  0  0  0  0  0  0  0  0  0  # atno 17342 bound_to 10162
  140.7370  143.2760  151.3740 LP  0  0  0  0  0  0  0  0  0  0  0  0  # atno 17343 bound_to 10162
  157.1907  130.6351  149.5703 LP  0  0  0  0  0  0  0  0  0  0  0  0  # atno 17370 bound_to 10713
  155.9759  130.4723  150.6494 LP  0  0  0  0  0  0  0  0  0  0  0  0  # atno 17371 bound_to 10713
  140.2345  134.8660  157.3511 LP  0  0  0  0  0  0  0  0  0  0  0  0  # atno 17394 bound_to 11000
  140.1857  134.4434  155.7745 LP  0  0  0  0  0  0  0  0  0  0  0  0  # atno 17395 bound_to 11000

$$$$
