AV-unprocessed.smi:3149|AV-procd|sdf|12003|dock9
  -GOLD-   2272017413D 1   1.00000     0.00000
 Structure written by MMmdl.
 37 38  0  0  0  0  0  0  0  0  1 V2000
  152.6263  138.8538  155.8019 C   0  0  0  0  0  0  0  0  0  0  0  0
  151.5297  139.9174  155.5974 C   0  0  2  0  0  0  0  0  0  0  0  0
  151.4907  140.7685  156.7849 N   0  0  0  0  0  0  0  0  0  0  0  0
  151.4616  139.9895  158.0302 C   0  0  0  0  0  0  0  0  0  0  0  0
  152.8238  139.9612  158.7349 C   0  0  0  0  0  0  0  0  0  0  0  0
  153.7268  139.2205  158.3429 O   0  0  0  0  0  0  0  0  0  0  0  0
  152.9588  140.7346  159.8901 N   0  0  0  0  0  0  0  0  0  0  0  0
  154.2040  141.4179  160.2067 C   0  0  0  0  0  0  0  0  0  0  0  0
  153.3261  142.4590  160.9092 C   0  0  0  0  0  0  0  0  0  0  0  0
  152.1394  141.9175  160.1051 C   0  0  0  0  0  0  0  0  0  0  0  0
  150.1205  139.3020  155.3833 C   0  0  2  0  0  0  0  0  0  0  0  0
  150.1146  138.1292  154.3862 C   0  0  0  0  0  0  0  0  0  0  0  0
  149.1636  140.3120  154.9417 N   0  0  0  0  0  0  0  0  0  0  0  0
  148.4206  140.3488  153.7783 C   0  0  0  0  0  0  0  0  0  0  0  0
  147.6698  141.4887  153.8082 C   0  0  0  0  0  0  0  0  0  0  0  0
  148.0218  142.0918  155.0477 C   0  0  0  0  0  0  0  0  0  0  0  0
  148.9129  141.3853  155.7235 N   0  0  0  0  0  0  0  0  0  0  0  0
  152.7525  138.2345  154.9145 H   0  0  0  0  0  0  0  0  0  0  0  0
  152.3872  138.1943  156.6368 H   0  0  0  0  0  0  0  0  0  0  0  0
  153.5976  139.3042  156.0057 H   0  0  0  0  0  0  0  0  0  0  0  0
  151.7755  140.5170  154.7192 H   0  0  0  0  0  0  0  0  0  0  0  0
  152.2941  141.3817  156.7692 H   0  0  0  0  0  0  0  0  0  0  0  0
  150.7185  140.4056  158.7111 H   0  0  0  0  0  0  0  0  0  0  0  0
  151.1674  138.9627  157.8088 H   0  0  0  0  0  0  0  0  0  0  0  0
  154.8644  140.8576  160.8692 H   0  0  0  0  0  0  0  0  0  0  0  0
  154.7206  141.8155  159.3306 H   0  0  0  0  0  0  0  0  0  0  0  0
  153.2329  142.2915  161.9839 H   0  0  0  0  0  0  0  0  0  0  0  0
  153.5872  143.4928  160.6813 H   0  0  0  0  0  0  0  0  0  0  0  0
  151.9410  142.4859  159.1941 H   0  0  0  0  0  0  0  0  0  0  0  0
  151.2388  141.7324  160.6913 H   0  0  0  0  0  0  0  0  0  0  0  0
  149.7718  138.9119  156.3421 H   0  0  0  0  0  0  0  0  0  0  0  0
  150.6915  137.2825  154.7565 H   0  0  0  0  0  0  0  0  0  0  0  0
  150.5305  138.4230  153.4220 H   0  0  0  0  0  0  0  0  0  0  0  0
  149.0996  137.7701  154.2136 H   0  0  0  0  0  0  0  0  0  0  0  0
  148.4892  139.5702  153.0329 H   0  0  0  0  0  0  0  0  0  0  0  0
  146.9747  141.8382  153.0593 H   0  0  0  0  0  0  0  0  0  0  0  0
  147.6583  143.0152  155.4740 H   0  0  0  0  0  0  0  0  0  0  0  0
  1  2  1  0  0  0  0
  1 18  1  0  0  0  0
  1 19  1  0  0  0  0
  1 20  1  0  0  0  0
  2  3  1  0  0  0  0
  2 11  1  0  0  0  0
  2 21  1  0  0  0  0
  3  4  1  0  0  0  0
  3 22  1  0  0  0  0
  4  5  1  0  0  0  0
  4 23  1  0  0  0  0
  4 24  1  0  0  0  0
  5  6  2  0  0  0  0
  5  7  1  0  0  0  0
  7 10  1  0  0  0  0
  7  8  1  0  0  0  0
  8  9  1  0  0  0  0
  8 25  1  0  0  0  0
  8 26  1  0  0  0  0
  9 10  1  0  0  0  0
  9 27  1  0  0  0  0
  9 28  1  0  0  0  0
 10 29  1  0  0  0  0
 10 30  1  0  0  0  0
 11 12  1  0  0  0  0
 11 13  1  0  0  0  0
 11 31  1  0  0  0  0
 12 32  1  0  0  0  0
 12 33  1  0  0  0  0
 12 34  1  0  0  0  0
 13 17  1  0  0  0  0
 13 14  1  0  0  0  0
 14 15  2  0  0  0  0
 14 35  1  0  0  0  0
 15 16  1  0  0  0  0
 15 36  1  0  0  0  0
 16 17  2  0  0  0  0
 16 37  1  0  0  0  0
M  END
> <s_m_source_file>
AV-unprocessed.smi

> <i_m_source_file_index>
3149

> <i_lp_mmshare_version>
43012

> <i_f3d_flags>
0

> <s_epik_input>
bjFbY0hdW2NIXVtjSF1uMVtDQEBIXShbQ0gzXSlbQ0BIXShbQ0gzXSlbTkhdW0NIMl1DKD1PKU4yW0NIMl1bQ0gyXVtDSDJdMg==

> <s_epik_cmdline>
J2VwaWtfcHl0aG9uJywgJy1waCcsICc3LjAnLCAnLXRuJywgJzgnLCAnLW1hJywgJzIwMCcsICctbWV0YWxfYmluZGluZycsICctaW1hZScsICc8aW5maWxlLm1hZT4nLCAnLW9tYWUnLCAnPG91dGZpbGUubWFlPic=

> <r_lp_tautomer_probability>
1

> <r_epik_Ionization_Penalty>
0.918674

> <r_epik_Ionization_Penalty_Charging>
0

> <r_epik_Ionization_Penalty_Neutral>
0.918674

> <r_epik_State_Penalty>
0.958258

> <r_epik_Charging_Adjusted_Penalty>
0.958258

> <i_epik_Tot_Q>
0

> <i_epik_Tot_abs_Q>
0

> <r_epik_Metal_State_Penalty>
0.956881

> <b_epik_Metal_Only>
0

> <s_lp_Force_Field>
OPLS_2005

> <r_lp_Energy>
24.7968

> <b_lp_Chiralities_Consistent>
1

> <s_lp_Variant>
AV-unprocessed.smi:3149-5

> <Gold.Version>
5.8.1

> <Gold.Id.Protein>
6NUR|6NUR_protein|mol2

> <Gold.PLP.Fitness>
39.3949

> <Gold.PLP.PLP>
-33.1101

> <Gold.PLP.part.hbond>
-1.0000

> <Gold.PLP.part.metal>
0.0000

> <Gold.PLP.part.buried>
1.6986

> <Gold.PLP.part.nonpolar>
-33.6580

> <Gold.PLP.part.repulsive>
0.0983

> <Gold.PLP.ligand.clash>
0.0000

> <Gold.PLP.ligand.torsion>
1.1988

> <Gold.PLP.Chemscore.Hbond>
1.0000

> <Gold.PLP.Chemscore.CHOScore>
1.5983

> <Gold.PLP.Chemscore.Metal>
0.0000

> <Gold.Chemscore.Hbonds>
donor molecule, donor type, donor heavy atom, donor atom, acceptor molecule, acceptor atom, score
      P1  H  7997  8008       L1     6  1.00
      L1  C    14    35       P1  7957  0.76
      L1  C    16    37       P1  8028  0.86

> <Gold.PLP.Chemscore.Internal.Correction>
0.8874

> <Gold.Rescore>
     Score         DG    S(hbond)    S(metal)    S(lipo)     H(rot)  DE(clash)    DE(int)     intcor
     10.39     -13.52       0.98        0.00      79.79       1.79       0.10       3.02       ----

> <Gold.Chemscore.Fitness>
10.3943

> <Gold.Chemscore.DG>
-13.5181

> <Gold.Chemscore.ZeroCoef>
-5.4800

> <Gold.Chemscore.Hbond>
0.9817

> <Gold.Chemscore.Metal>
0.0000

> <Gold.Chemscore.Lipo>
79.7878

> <Gold.Chemscore.Internal_Hbond>
0.0000

> <Gold.Chemscore.DEClash>
0.0993

> <Gold.Chemscore.DEInternal>
3.0246

> <Gold.Chemscore.Rot>
1.7874

> <Gold.Chemscore.Internal.Correction>
   9.000000E+99

> <Gold.Chemscore.Hbonds>
donor molecule, donor type, donor heavy atom, donor atom, acceptor molecule, acceptor atom, score
      P1  H  7997  8008       L1     6  0.88

> <Gold.Chemscore.Hbond.Weighted>
-3.2788

> <Gold.Chemscore.Metal.Weighted>
-0.0000

> <Gold.Chemscore.Lipo.Weighted>
-9.3352

> <Gold.Chemscore.Internal_Hbond.Weighted>
0.0000

> <Gold.Chemscore.DEClash.Weighted>
0.0993

> <Gold.Chemscore.DEInternal.Weighted>
3.0246

> <Gold.Chemscore.Rot.Weighted>
4.5758

> <Gold.Chemscore.Internal.Correction.Weighted>
   9.000000E+99

> <Gold.Protein.RotatedTorsions>
[ 6907 6896 6895 6894 ] final  -24.64 input  -60.11 | X-H torsion
[ 7974 7965 7964 7962 ] final   83.66 input  175.53 | X-H torsion
[ 8008 7997 7996 7995 ] final -105.43 input   59.86 | X-H torsion
[ 10167 10162 10161 10158 ] final   50.47 input  -65.29 | X-H torsion
[ 10718 10713 10712 10709 ] final -117.11 input   66.30 | X-H torsion
[ 10763 10752 10751 10750 ] final   94.02 input  -60.55 | X-H torsion
[ 11005 11000 10999 10996 ] final   80.63 input  -57.11 | X-H torsion

> <Gold.Protein.ActiveResidues>
 VAL166  LYS551  ARG553  GLY616  TRP617  ASP618  TYR619  PRO620  LYS621  CYS622 
 ASP623  PHE694  ASN695  SER759  ASP760  ASP761  ALA762  ILE779  LEU786  VAL792 
 PHE793  MET794  SER795  GLU796  ALA797  LYS798  CYS799  TRP800  GLU811  SER814 

> <Gold.Protein.RotatedAtoms>
  151.1866  135.0384  159.8814 H   0  0  0  0  0  0  0  0  0  0  0  0  # atno 6907 bound_to 6896
  152.5442  134.1003  159.8325 H   0  0  0  0  0  0  0  0  0  0  0  0  # atno 6908 bound_to 6896
  151.1126  133.5115  159.2637 H   0  0  0  0  0  0  0  0  0  0  0  0  # atno 6909 bound_to 6896
  145.6090  139.2365  143.2203 H   0  0  0  0  0  0  0  0  0  0  0  0  # atno 7974 bound_to 7965
  154.8998  140.0413  157.1886 H   0  0  0  0  0  0  0  0  0  0  0  0  # atno 8008 bound_to 7997
  154.8456  140.2921  155.5610 H   0  0  0  0  0  0  0  0  0  0  0  0  # atno 8009 bound_to 7997
  156.2994  140.2474  156.3406 H   0  0  0  0  0  0  0  0  0  0  0  0  # atno 8010 bound_to 7997
  140.2720  144.3254  150.6287 H   0  0  0  0  0  0  0  0  0  0  0  0  # atno 10167 bound_to 10162
  156.1011  130.6172  150.9122 H   0  0  0  0  0  0  0  0  0  0  0  0  # atno 10718 bound_to 10713
  153.2369  135.4304  155.0655 H   0  0  0  0  0  0  0  0  0  0  0  0  # atno 10763 bound_to 10752
  154.8323  135.3393  154.6706 H   0  0  0  0  0  0  0  0  0  0  0  0  # atno 10764 bound_to 10752
  153.7131  135.7021  153.5088 H   0  0  0  0  0  0  0  0  0  0  0  0  # atno 10765 bound_to 10752
  139.9127  134.7935  156.1934 H   0  0  0  0  0  0  0  0  0  0  0  0  # atno 11005 bound_to 11000
  146.1518  140.6914  142.9318 LP  0  0  0  0  0  0  0  0  0  0  0  0  # atno 17320 bound_to 7965
  144.7278  140.4578  143.6960 LP  0  0  0  0  0  0  0  0  0  0  0  0  # atno 17321 bound_to 7965
  140.5882  143.2169  151.7303 LP  0  0  0  0  0  0  0  0  0  0  0  0  # atno 17342 bound_to 10162
  139.4986  144.3979  152.0211 LP  0  0  0  0  0  0  0  0  0  0  0  0  # atno 17343 bound_to 10162
  157.6181  131.0932  150.8673 LP  0  0  0  0  0  0  0  0  0  0  0  0  # atno 17370 bound_to 10713
  156.8801  130.5176  149.5291 LP  0  0  0  0  0  0  0  0  0  0  0  0  # atno 17371 bound_to 10713
  141.0569  133.6860  156.1878 LP  0  0  0  0  0  0  0  0  0  0  0  0  # atno 17394 bound_to 11000
  140.6722  134.4856  157.5587 LP  0  0  0  0  0  0  0  0  0  0  0  0  # atno 17395 bound_to 11000

$$$$
