AV-unprocessed.smi:1835|AV-procd|sdf|7473|dock6
  -GOLD-   22720 9163D 1   1.00000     0.00000
 Structure written by MMmdl.
 41 42  0  0  0  0  0  0  0  0  1 V2000
  150.1823  135.1130  154.7186 C   0  0  0  0  0  0  0  0  0  0  0  0
  150.0124  135.9168  156.0336 C   0  0  2  0  0  0  0  0  0  0  0  0
  148.5715  135.6997  156.5731 C   0  0  0  0  0  0  0  0  0  0  0  0
  148.3786  136.2901  157.8929 N   0  0  0  0  0  0  0  0  0  0  0  0
  148.5194  135.6310  159.0514 C   0  0  0  0  0  0  0  0  0  0  0  0
  148.8235  134.4387  159.1139 O   0  0  0  0  0  0  0  0  0  0  0  0
  148.2590  136.4531  160.3221 C   0  0  0  0  0  0  0  0  0  0  0  0
  147.1516  135.9371  161.1436 N   0  0  0  0  0  0  0  0  0  0  0  0
  147.3031  134.6433  161.6812 C   0  0  0  0  0  0  0  0  0  0  0  0
  146.3545  134.0748  162.4419 C   0  0  0  0  0  0  0  0  0  0  0  0
  145.1498  134.8258  162.7048 C   0  0  0  0  0  0  0  0  0  0  0  0
  144.9969  136.0663  162.2002 C   0  0  0  0  0  0  0  0  0  0  0  0
  146.0337  136.6937  161.3720 C   0  0  0  0  0  0  0  0  0  0  0  0
  145.9042  137.8281  160.9112 O   0  0  0  0  0  0  0  0  0  0  0  0
  150.3777  137.3445  155.8774 N   0  0  0  0  0  0  0  0  0  0  0  0
  149.3890  138.0908  155.0896 C   0  0  0  0  0  0  0  0  0  0  0  0
  149.7685  139.5690  154.8959 C   0  0  0  0  0  0  0  0  0  0  0  0
  151.0459  139.6570  154.2808 O   0  0  0  0  0  0  0  0  0  0  0  0
  152.0525  139.0166  155.0519 C   0  0  0  0  0  0  0  0  0  0  0  0
  151.6914  137.5340  155.2506 C   0  0  0  0  0  0  0  0  0  0  0  0
  149.8667  134.0751  154.8174 H   0  0  0  0  0  0  0  0  0  0  0  0
  151.2212  135.0618  154.3959 H   0  0  0  0  0  0  0  0  0  0  0  0
  149.5995  135.5554  153.9098 H   0  0  0  0  0  0  0  0  0  0  0  0
  150.6913  135.4769  156.7658 H   0  0  0  0  0  0  0  0  0  0  0  0
  147.8311  136.1653  155.9240 H   0  0  0  0  0  0  0  0  0  0  0  0
  148.3404  134.6339  156.6139 H   0  0  0  0  0  0  0  0  0  0  0  0
  148.1252  137.2669  157.9253 H   0  0  0  0  0  0  0  0  0  0  0  0
  149.1765  136.4981  160.9121 H   0  0  0  0  0  0  0  0  0  0  0  0
  148.0614  137.4845  160.0262 H   0  0  0  0  0  0  0  0  0  0  0  0
  148.2353  134.1521  161.4428 H   0  0  0  0  0  0  0  0  0  0  0  0
  146.4905  133.0837  162.8492 H   0  0  0  0  0  0  0  0  0  0  0  0
  144.3678  134.3911  163.3096 H   0  0  0  0  0  0  0  0  0  0  0  0
  144.0893  136.6134  162.4086 H   0  0  0  0  0  0  0  0  0  0  0  0
  149.2630  137.6204  154.1132 H   0  0  0  0  0  0  0  0  0  0  0  0
  148.4159  138.0737  155.5766 H   0  0  0  0  0  0  0  0  0  0  0  0
  149.0347  140.0677  154.2627 H   0  0  0  0  0  0  0  0  0  0  0  0
  149.7772  140.0948  155.8520 H   0  0  0  0  0  0  0  0  0  0  0  0
  153.0075  139.1065  154.5342 H   0  0  0  0  0  0  0  0  0  0  0  0
  152.1609  139.5207  156.0136 H   0  0  0  0  0  0  0  0  0  0  0  0
  152.4771  137.1010  155.8663 H   0  0  0  0  0  0  0  0  0  0  0  0
  151.7206  137.0213  154.2881 H   0  0  0  0  0  0  0  0  0  0  0  0
  1  2  1  0  0  0  0
  1 21  1  0  0  0  0
  1 22  1  0  0  0  0
  1 23  1  0  0  0  0
  2  3  1  0  0  0  0
  2 15  1  0  0  0  0
  2 24  1  0  0  0  0
  3  4  1  0  0  0  0
  3 25  1  0  0  0  0
  3 26  1  0  0  0  0
  4  5  1  0  0  0  0
  4 27  1  0  0  0  0
  5  6  2  0  0  0  0
  5  7  1  0  0  0  0
  7  8  1  0  0  0  0
  7 28  1  0  0  0  0
  7 29  1  0  0  0  0
  8 13  1  0  0  0  0
  8  9  1  0  0  0  0
  9 10  2  0  0  0  0
  9 30  1  0  0  0  0
 10 11  1  0  0  0  0
 10 31  1  0  0  0  0
 11 12  2  0  0  0  0
 11 32  1  0  0  0  0
 12 13  1  0  0  0  0
 12 33  1  0  0  0  0
 13 14  2  0  0  0  0
 15 20  1  0  0  0  0
 15 16  1  0  0  0  0
 16 17  1  0  0  0  0
 16 34  1  0  0  0  0
 16 35  1  0  0  0  0
 17 18  1  0  0  0  0
 17 36  1  0  0  0  0
 17 37  1  0  0  0  0
 18 19  1  0  0  0  0
 19 20  1  0  0  0  0
 19 38  1  0  0  0  0
 19 39  1  0  0  0  0
 20 40  1  0  0  0  0
 20 41  1  0  0  0  0
M  END
> <s_m_source_file>
AV-unprocessed.smi

> <i_m_source_file_index>
1835

> <i_lp_mmshare_version>
43012

> <i_f3d_flags>
0

> <s_epik_input>
W0NIMl0xW0NIMl1PW0NIMl1bQ0gyXU4xW0NASF0oW0NIM10pW0NIMl1bTkhdQyg9TylbQ0gyXW4yW2NIXVtjSF1bY0hdW2NIXWMyPU8=

> <s_epik_cmdline>
J2VwaWtfcHl0aG9uJywgJy1waCcsICc3LjAnLCAnLXRuJywgJzgnLCAnLW1hJywgJzIwMCcsICctbWV0YWxfYmluZGluZycsICctaW1hZScsICc8aW5maWxlLm1hZT4nLCAnLW9tYWUnLCAnPG91dGZpbGUubWFlPic=

> <r_lp_tautomer_probability>
1

> <r_epik_Ionization_Penalty>
0.237383

> <r_epik_Ionization_Penalty_Charging>
3.58805e-07

> <r_epik_Ionization_Penalty_Neutral>
0.237382

> <r_epik_State_Penalty>
0.228245

> <r_epik_Charging_Adjusted_Penalty>
0.228245

> <i_epik_Tot_Q>
0

> <i_epik_Tot_abs_Q>
0

> <r_epik_Metal_State_Penalty>
0.22822

> <b_epik_Metal_Only>
0

> <s_lp_Force_Field>
OPLS_2005

> <r_lp_Energy>
38.378

> <b_lp_Chiralities_Consistent>
1

> <s_lp_Variant>
AV-unprocessed.smi:1835-1

> <Gold.Version>
5.8.1

> <Gold.Id.Protein>
6NUR|6NUR_protein|mol2

> <Gold.PLP.Fitness>
41.0429

> <Gold.PLP.PLP>
-32.5682

> <Gold.PLP.part.hbond>
-3.0000

> <Gold.PLP.part.metal>
0.0000

> <Gold.PLP.part.buried>
-3.7328

> <Gold.PLP.part.nonpolar>
-26.5183

> <Gold.PLP.part.repulsive>
0.1984

> <Gold.PLP.ligand.clash>
0.0000

> <Gold.PLP.ligand.torsion>
0.2785

> <Gold.PLP.Chemscore.Hbond>
3.0000

> <Gold.PLP.Chemscore.CHOScore>
0.0000

> <Gold.PLP.Chemscore.Metal>
0.0000

> <Gold.Chemscore.Hbonds>
donor molecule, donor type, donor heavy atom, donor atom, acceptor molecule, acceptor atom, score
      P1  H  6896  6908       L1     6  1.00
      P1  H  6934  6947       L1    14  1.00
      P1  H  7989  7998       L1    18  1.00

> <Gold.PLP.Chemscore.Internal.Correction>
0.0316

> <Gold.Rescore>
     Score         DG    S(hbond)    S(metal)    S(lipo)     H(rot)  DE(clash)    DE(int)     intcor
     18.07     -18.43       2.90        0.00      69.31       1.89       0.00       0.36       ----

> <Gold.Chemscore.Fitness>
18.0719

> <Gold.Chemscore.DG>
-18.4301

> <Gold.Chemscore.ZeroCoef>
-5.4800

> <Gold.Chemscore.Hbond>
2.8966

> <Gold.Chemscore.Metal>
0.0000

> <Gold.Chemscore.Lipo>
69.3099

> <Gold.Chemscore.Internal_Hbond>
0.0000

> <Gold.Chemscore.DEClash>
0.0000

> <Gold.Chemscore.DEInternal>
0.3582

> <Gold.Chemscore.Rot>
1.8882

> <Gold.Chemscore.Internal.Correction>
   9.000000E+99

> <Gold.Chemscore.Hbonds>
donor molecule, donor type, donor heavy atom, donor atom, acceptor molecule, acceptor atom, score
      P1  H  6896  6908       L1     6  0.86
      P1  H  6934  6947       L1    14  0.97
      P1  H  7989  7998       L1    18  0.75

> <Gold.Chemscore.Hbond.Weighted>
-9.6747

> <Gold.Chemscore.Metal.Weighted>
-0.0000

> <Gold.Chemscore.Lipo.Weighted>
-8.1093

> <Gold.Chemscore.Internal_Hbond.Weighted>
0.0000

> <Gold.Chemscore.DEClash.Weighted>
0.0000

> <Gold.Chemscore.DEInternal.Weighted>
0.3582

> <Gold.Chemscore.Rot.Weighted>
4.8338

> <Gold.Chemscore.Internal.Correction.Weighted>
   9.000000E+99

> <Gold.Protein.RotatedTorsions>
[ 6907 6896 6895 6894 ] final  141.62 input  -60.11 | X-H torsion
[ 7974 7965 7964 7962 ] final  -27.46 input  175.53 | X-H torsion
[ 8008 7997 7996 7995 ] final -140.69 input   59.86 | X-H torsion
[ 10167 10162 10161 10158 ] final   61.14 input  -65.29 | X-H torsion
[ 10718 10713 10712 10709 ] final  -28.02 input   66.30 | X-H torsion
[ 10763 10752 10751 10750 ] final  151.43 input  -60.55 | X-H torsion
[ 11005 11000 10999 10996 ] final  -13.87 input  -57.11 | X-H torsion

> <Gold.Protein.ActiveResidues>
 VAL166  LYS551  ARG553  GLY616  TRP617  ASP618  TYR619  PRO620  LYS621  CYS622 
 ASP623  PHE694  ASN695  SER759  ASP760  ASP761  ALA762  ILE779  LEU786  VAL792 
 PHE793  MET794  SER795  GLU796  ALA797  LYS798  CYS799  TRP800  GLU811  SER814 

> <Gold.Protein.RotatedAtoms>
  152.2288  133.5041  159.5203 H   0  0  0  0  0  0  0  0  0  0  0  0  # atno 6907 bound_to 6896
  150.7032  134.1244  159.4056 H   0  0  0  0  0  0  0  0  0  0  0  0  # atno 6908 bound_to 6896
  151.9166  135.0316  160.0569 H   0  0  0  0  0  0  0  0  0  0  0  0  # atno 6909 bound_to 6896
  146.1356  140.5154  142.8674 H   0  0  0  0  0  0  0  0  0  0  0  0  # atno 7974 bound_to 7965
  155.4655  140.0549  157.2986 H   0  0  0  0  0  0  0  0  0  0  0  0  # atno 8008 bound_to 7997
  154.4719  140.2044  155.9927 H   0  0  0  0  0  0  0  0  0  0  0  0  # atno 8009 bound_to 7997
  156.1070  140.3210  155.8025 H   0  0  0  0  0  0  0  0  0  0  0  0  # atno 8010 bound_to 7997
  140.1579  144.4399  150.6724 H   0  0  0  0  0  0  0  0  0  0  0  0  # atno 10167 bound_to 10162
  156.4307  130.4444  149.7119 H   0  0  0  0  0  0  0  0  0  0  0  0  # atno 10718 bound_to 10713
  154.1036  135.2844  155.3246 H   0  0  0  0  0  0  0  0  0  0  0  0  # atno 10763 bound_to 10752
  154.6538  135.5359  153.7938 H   0  0  0  0  0  0  0  0  0  0  0  0  # atno 10764 bound_to 10752
  153.0370  135.6517  154.1198 H   0  0  0  0  0  0  0  0  0  0  0  0  # atno 10765 bound_to 10752
  140.7805  133.8366  155.9288 H   0  0  0  0  0  0  0  0  0  0  0  0  # atno 11005 bound_to 11000
  144.7736  140.5692  143.6653 LP  0  0  0  0  0  0  0  0  0  0  0  0  # atno 17320 bound_to 7965
  145.5163  139.1478  143.3577 LP  0  0  0  0  0  0  0  0  0  0  0  0  # atno 17321 bound_to 7965
  140.6661  143.2268  151.5739 LP  0  0  0  0  0  0  0  0  0  0  0  0  # atno 17342 bound_to 10162
  139.5395  144.2688  152.1320 LP  0  0  0  0  0  0  0  0  0  0  0  0  # atno 17343 bound_to 10162
  156.4024  130.7681  151.2690 LP  0  0  0  0  0  0  0  0  0  0  0  0  # atno 17370 bound_to 10713
  157.7508  131.0236  150.3840 LP  0  0  0  0  0  0  0  0  0  0  0  0  # atno 17371 bound_to 10713
  140.9487  134.1807  157.4744 LP  0  0  0  0  0  0  0  0  0  0  0  0  # atno 17394 bound_to 11000
  139.8743  134.9900  156.5485 LP  0  0  0  0  0  0  0  0  0  0  0  0  # atno 17395 bound_to 11000

$$$$
