AV-unprocessed.smi:1412|AV-procd|sdf|5742|dock2
  -GOLD-   22720 5373D 1   1.00000     0.00000
 Structure written by MMmdl.
 42 43  0  0  0  0  0  0  0  0  2 V2000
  146.7919  139.8224  151.3633 C   0  0  0  0  0  0  0  0  0  0  0  0
  147.2080  140.0107  152.8332 C   0  0  0  0  0  0  0  0  0  0  0  0
  147.0466  138.7566  153.7464 C   0  0  1  0  0  0  0  0  0  0  0  0
  146.3439  139.2237  155.0489 C   0  0  0  0  0  0  0  0  0  0  0  0
  146.1428  137.6961  153.0426 C   0  0  0  0  0  0  0  0  0  0  0  0
  144.7207  138.0407  153.0428 N   0  0  0  0  0  0  0  0  0  0  0  0
  143.7328  137.2705  153.5228 C   0  0  0  0  0  0  0  0  0  0  0  0
  143.9205  136.1617  154.0234 O   0  0  0  0  0  0  0  0  0  0  0  0
  142.5356  137.8645  153.3746 N   0  0  0  0  0  0  0  0  0  0  0  0
  141.2549  137.3607  153.7249 C   0  0  0  0  0  0  0  0  0  0  0  0
  141.0658  136.2522  154.4581 N   0  0  0  0  0  0  0  0  0  0  0  0
  139.7175  135.9804  154.6514 N   0  0  0  0  0  0  0  0  0  0  0  0
  138.9437  136.8927  154.0567 C   0  0  0  0  0  0  0  0  0  0  0  0
  139.7865  138.1738  153.2028 S   0  0  0  0  0  0  0  0  0  0  0  0
  148.4032  138.1749  154.0593 N   0  3  0  0  0  0  0  0  0  0  0  0
  149.4768  139.1525  154.3955 C   0  0  0  0  0  0  0  0  0  0  0  0
  150.8389  138.4440  154.4963 C   0  0  0  0  0  0  0  0  0  0  0  0
  150.7742  137.4049  155.4628 O   0  0  0  0  0  0  0  0  0  0  0  0
  149.8161  136.4175  155.1090 C   0  0  0  0  0  0  0  0  0  0  0  0
  148.4206  137.0585  155.0477 C   0  0  0  0  0  0  0  0  0  0  0  0
  146.9562  140.7428  150.8025 H   0  0  0  0  0  0  0  0  0  0  0  0
  145.7358  139.5710  151.2682 H   0  0  0  0  0  0  0  0  0  0  0  0
  147.3711  139.0397  150.8744 H   0  0  0  0  0  0  0  0  0  0  0  0
  148.2497  140.3326  152.8346 H   0  0  0  0  0  0  0  0  0  0  0  0
  146.6628  140.8578  153.2487 H   0  0  0  0  0  0  0  0  0  0  0  0
  145.4745  139.8472  154.8376 H   0  0  0  0  0  0  0  0  0  0  0  0
  147.0104  139.8088  155.6826 H   0  0  0  0  0  0  0  0  0  0  0  0
  145.9793  138.3845  155.6418 H   0  0  0  0  0  0  0  0  0  0  0  0
  146.4693  137.5190  152.0177 H   0  0  0  0  0  0  0  0  0  0  0  0
  146.2253  136.7342  153.5477 H   0  0  0  0  0  0  0  0  0  0  0  0
  144.4728  138.9374  152.6501 H   0  0  0  0  0  0  0  0  0  0  0  0
  142.5379  138.7805  152.9511 H   0  0  0  0  0  0  0  0  0  0  0  0
  137.8688  136.8100  154.1212 H   0  0  0  0  0  0  0  0  0  0  0  0
  149.5674  139.9274  153.6367 H   0  0  0  0  0  0  0  0  0  0  0  0
  149.2528  139.6491  155.3398 H   0  0  0  0  0  0  0  0  0  0  0  0
  151.1386  138.0382  153.5285 H   0  0  0  0  0  0  0  0  0  0  0  0
  151.6101  139.1544  154.7949 H   0  0  0  0  0  0  0  0  0  0  0  0
  150.0782  135.9580  154.1545 H   0  0  0  0  0  0  0  0  0  0  0  0
  149.8335  135.6266  155.8590 H   0  0  0  0  0  0  0  0  0  0  0  0
  148.1572  137.4238  156.0403 H   0  0  0  0  0  0  0  0  0  0  0  0
  147.7026  136.2826  154.7904 H   0  0  0  0  0  0  0  0  0  0  0  0
  148.6989  137.7571  153.1884 H   0  0  0  0  0  0  0  0  0  0  0  0
  1  2  1  0  0  0  0
  1 21  1  0  0  0  0
  1 22  1  0  0  0  0
  1 23  1  0  0  0  0
  2  3  1  0  0  0  0
  2 24  1  0  0  0  0
  2 25  1  0  0  0  0
  3  4  1  0  0  0  0
  3  5  1  0  0  0  0
  3 15  1  0  0  0  0
  4 26  1  0  0  0  0
  4 27  1  0  0  0  0
  4 28  1  0  0  0  0
  5  6  1  0  0  0  0
  5 29  1  0  0  0  0
  5 30  1  0  0  0  0
  6  7  1  0  0  0  0
  6 31  1  0  0  0  0
  7  8  2  0  0  0  0
  7  9  1  0  0  0  0
  9 10  1  0  0  0  0
  9 32  1  0  0  0  0
 10 14  1  0  0  0  0
 10 11  2  0  0  0  0
 11 12  1  0  0  0  0
 12 13  2  0  0  0  0
 13 14  1  0  0  0  0
 13 33  1  0  0  0  0
 15 20  1  0  0  0  0
 15 16  1  0  0  0  0
 15 42  1  0  0  0  0
 16 17  1  0  0  0  0
 16 34  1  0  0  0  0
 16 35  1  0  0  0  0
 17 18  1  0  0  0  0
 17 36  1  0  0  0  0
 17 37  1  0  0  0  0
 18 19  1  0  0  0  0
 19 20  1  0  0  0  0
 19 38  1  0  0  0  0
 19 39  1  0  0  0  0
 20 40  1  0  0  0  0
 20 41  1  0  0  0  0
M  CHG  1  15   1
M  END
> <s_m_source_file>
AV-unprocessed.smi

> <i_m_source_file_index>
1412

> <i_lp_mmshare_version>
43012

> <i_f3d_flags>
0

> <s_epik_input>
W0NIMl0xW0NIMl1PW0NIMl1bQ0gyXU4xW0NAQF0oW0NIM10pKFtDSDJdW0NIM10pW0NIMl1bTkhdQyg9TylbTkhdYzJubltjSF1zMg==

> <s_epik_cmdline>
J2VwaWtfcHl0aG9uJywgJy1waCcsICc3LjAnLCAnLXRuJywgJzgnLCAnLW1hJywgJzIwMCcsICctbWV0YWxfYmluZGluZycsICctaW1hZScsICc8aW5maWxlLm1hZT4nLCAnLW9tYWUnLCAnPG91dGZpbGUubWFlPic=

> <r_lp_tautomer_probability>
1

> <r_epik_Ionization_Penalty>
0.554649

> <r_epik_Ionization_Penalty_Charging>
0.553838

> <r_epik_Ionization_Penalty_Neutral>
0.000811527

> <r_epik_State_Penalty>
0.564424

> <r_epik_Charging_Adjusted_Penalty>
1.11826

> <i_epik_Tot_Q>
1

> <i_epik_Tot_abs_Q>
1

> <r_epik_Metal_State_Penalty>
0.786249

> <b_epik_Metal_Only>
0

> <s_lp_Force_Field>
OPLS_2005

> <r_lp_Energy>
27.1522

> <b_lp_Chiralities_Consistent>
1

> <s_lp_Variant>
AV-unprocessed.smi:1412-3

> <Gold.Version>
5.8.1

> <Gold.Id.Protein>
6NUR|6NUR_protein|mol2

> <Gold.PLP.Fitness>
40.9119

> <Gold.PLP.PLP>
-28.9182

> <Gold.PLP.part.hbond>
-4.7102

> <Gold.PLP.part.metal>
0.0000

> <Gold.PLP.part.buried>
-1.3755

> <Gold.PLP.part.nonpolar>
-23.3725

> <Gold.PLP.part.repulsive>
0.2883

> <Gold.PLP.ligand.clash>
0.0000

> <Gold.PLP.ligand.torsion>
1.4256

> <Gold.PLP.Chemscore.Hbond>
4.8600

> <Gold.PLP.Chemscore.CHOScore>
0.0000

> <Gold.PLP.Chemscore.Metal>
0.0000

> <Gold.Chemscore.Hbonds>
donor molecule, donor type, donor heavy atom, donor atom, acceptor molecule, acceptor atom, score
      L1  H     6    31       P1 10175  1.00
      L1  H     9    32       P1 10175  0.96
      L1  H    15    42       P1  7948  2.00
      P1  H 11000 11005       L1    12  0.90

> <Gold.PLP.Chemscore.Internal.Correction>
0.2648

> <Gold.Rescore>
     Score         DG    S(hbond)    S(metal)    S(lipo)     H(rot)  DE(clash)    DE(int)     intcor
     14.14     -18.34       3.00        0.00      66.20       1.91       1.46       2.75       ----

> <Gold.Chemscore.Fitness>
14.1372

> <Gold.Chemscore.DG>
-18.3425

> <Gold.Chemscore.ZeroCoef>
-5.4800

> <Gold.Chemscore.Hbond>
2.9992

> <Gold.Chemscore.Metal>
0.0000

> <Gold.Chemscore.Lipo>
66.1967

> <Gold.Chemscore.Internal_Hbond>
0.0000

> <Gold.Chemscore.DEClash>
1.4592

> <Gold.Chemscore.DEInternal>
2.7461

> <Gold.Chemscore.Rot>
1.9140

> <Gold.Chemscore.Internal.Correction>
   9.000000E+99

> <Gold.Chemscore.Hbonds>
donor molecule, donor type, donor heavy atom, donor atom, acceptor molecule, acceptor atom, score
      L1  H     6    31       P1 10175  1.00
      L1  H     9    32       P1 10175  0.86
      L1  H    15    42       P1  7948  0.93
      P1  H 11000 11005       L1    12  0.17

> <Gold.Chemscore.Hbond.Weighted>
-10.0173

> <Gold.Chemscore.Metal.Weighted>
-0.0000

> <Gold.Chemscore.Lipo.Weighted>
-7.7450

> <Gold.Chemscore.Internal_Hbond.Weighted>
0.0000

> <Gold.Chemscore.DEClash.Weighted>
1.4592

> <Gold.Chemscore.DEInternal.Weighted>
2.7461

> <Gold.Chemscore.Rot.Weighted>
4.8998

> <Gold.Chemscore.Internal.Correction.Weighted>
   9.000000E+99

> <Gold.Protein.RotatedTorsions>
[ 6907 6896 6895 6894 ] final -138.38 input  -60.11 | X-H torsion
[ 7974 7965 7964 7962 ] final   46.98 input  175.53 | X-H torsion
[ 8008 7997 7996 7995 ] final  -36.42 input   59.86 | X-H torsion
[ 10167 10162 10161 10158 ] final  -14.57 input  -65.29 | X-H torsion
[ 10718 10713 10712 10709 ] final -116.72 input   66.30 | X-H torsion
[ 10763 10752 10751 10750 ] final  130.11 input  -60.55 | X-H torsion
[ 11005 11000 10999 10996 ] final   85.07 input  -57.11 | X-H torsion

> <Gold.Protein.ActiveResidues>
 VAL166  LYS551  ARG553  GLY616  TRP617  ASP618  TYR619  PRO620  LYS621  CYS622 
 ASP623  PHE694  ASN695  SER759  ASP760  ASP761  ALA762  ILE779  LEU786  VAL792 
 PHE793  MET794  SER795  GLU796  ALA797  LYS798  CYS799  TRP800  GLU811  SER814 

> <Gold.Protein.RotatedAtoms>
  151.0343  133.5762  159.2657 H   0  0  0  0  0  0  0  0  0  0  0  0  # atno 6907 bound_to 6896
  151.2832  135.0719  159.9187 H   0  0  0  0  0  0  0  0  0  0  0  0  # atno 6908 bound_to 6896
  152.5351  134.0054  159.7968 H   0  0  0  0  0  0  0  0  0  0  0  0  # atno 6909 bound_to 6896
  146.0339  139.4797  142.9820 H   0  0  0  0  0  0  0  0  0  0  0  0  # atno 7974 bound_to 7965
  154.4073  140.1631  156.2371 H   0  0  0  0  0  0  0  0  0  0  0  0  # atno 8008 bound_to 7997
  155.9233  140.3420  155.6167 H   0  0  0  0  0  0  0  0  0  0  0  0  # atno 8009 bound_to 7997
  155.7195  140.0766  157.2327 H   0  0  0  0  0  0  0  0  0  0  0  0  # atno 8010 bound_to 7997
  140.7203  143.5308  150.9522 H   0  0  0  0  0  0  0  0  0  0  0  0  # atno 10167 bound_to 10162
  156.0983  130.6151  150.9073 H   0  0  0  0  0  0  0  0  0  0  0  0  # atno 10718 bound_to 10713
  153.7527  135.3207  155.3324 H   0  0  0  0  0  0  0  0  0  0  0  0  # atno 10763 bound_to 10752
  154.8257  135.4571  154.0915 H   0  0  0  0  0  0  0  0  0  0  0  0  # atno 10764 bound_to 10752
  153.2123  135.6937  153.8182 H   0  0  0  0  0  0  0  0  0  0  0  0  # atno 10765 bound_to 10752
  139.8982  134.8261  156.2531 H   0  0  0  0  0  0  0  0  0  0  0  0  # atno 11005 bound_to 11000
  145.6995  141.0140  143.1512 LP  0  0  0  0  0  0  0  0  0  0  0  0  # atno 17320 bound_to 7965
  144.7043  139.8627  143.7435 LP  0  0  0  0  0  0  0  0  0  0  0  0  # atno 17321 bound_to 7965
  139.9028  143.6815  152.3128 LP  0  0  0  0  0  0  0  0  0  0  0  0  # atno 17342 bound_to 10162
  139.7170  144.7610  151.1017 LP  0  0  0  0  0  0  0  0  0  0  0  0  # atno 17343 bound_to 10162
  157.6149  131.0934  150.8728 LP  0  0  0  0  0  0  0  0  0  0  0  0  # atno 17370 bound_to 10713
  156.8862  130.5196  149.5288 LP  0  0  0  0  0  0  0  0  0  0  0  0  # atno 17371 bound_to 10713
  141.0211  133.7041  156.1269 LP  0  0  0  0  0  0  0  0  0  0  0  0  # atno 17394 bound_to 11000
  140.7233  134.4335  157.5573 LP  0  0  0  0  0  0  0  0  0  0  0  0  # atno 17395 bound_to 11000

$$$$
