AV-unprocessed.smi:1739|AV-procd|sdf|7005|dock2
  -GOLD-   22720 8213D 1   1.00000     0.00000
 Structure written by MMmdl.
 41 42  0  0  0  0  0  0  0  0  1 V2000
  145.5610  143.5765  153.8905 C   0  0  0  0  0  0  0  0  0  0  0  0
  146.2849  142.7616  154.9696 C   0  0  0  0  0  0  0  0  0  0  0  0
  146.9036  141.5680  154.4253 N   0  0  0  0  0  0  0  0  0  0  0  0
  146.2879  140.4158  153.9773 C   0  0  0  0  0  0  0  0  0  0  0  0
  147.2975  139.5957  153.5587 C   0  0  0  0  0  0  0  0  0  0  0  0
  147.2278  138.2883  153.0141 N   0  0  0  0  0  0  0  0  0  0  0  0
  146.2506  137.3836  153.1890 C   0  0  0  0  0  0  0  0  0  0  0  0
  145.2216  137.5704  153.8388 O   0  0  0  0  0  0  0  0  0  0  0  0
  146.5313  136.2348  152.5571 N   0  0  0  0  0  0  0  0  0  0  0  0
  145.6785  135.0499  152.5458 C   0  0  0  0  0  0  0  0  0  0  0  0
  146.5174  133.8080  152.1751 C   0  0  0  0  0  0  0  0  0  0  0  0
  145.6234  132.5718  151.9690 C   0  0  0  0  0  0  0  0  0  0  0  0
  144.6182  132.8813  150.9454 N   0  0  0  0  0  0  0  0  0  0  0  0
  144.6467  132.3396  149.7040 C   0  0  0  0  0  0  0  0  0  0  0  0
  143.6130  132.7868  148.6680 C   0  0  0  0  0  0  0  0  0  0  0  0
  145.4784  131.4976  149.3644 O   0  0  0  0  0  0  0  0  0  0  0  0
  143.7001  133.9364  151.3920 C   0  0  0  0  0  0  0  0  0  0  0  0
  144.4940  135.2427  151.5711 C   0  0  0  0  0  0  0  0  0  0  0  0
  148.4993  140.3162  153.7826 C   0  0  0  0  0  0  0  0  0  0  0  0
  148.2533  141.5087  154.3036 N   0  0  0  0  0  0  0  0  0  0  0  0
  145.1210  144.4781  154.3168 H   0  0  0  0  0  0  0  0  0  0  0  0
  144.7565  143.0008  153.4316 H   0  0  0  0  0  0  0  0  0  0  0  0
  146.2482  143.8823  153.1012 H   0  0  0  0  0  0  0  0  0  0  0  0
  147.0569  143.3698  155.4424 H   0  0  0  0  0  0  0  0  0  0  0  0
  145.5878  142.4670  155.7549 H   0  0  0  0  0  0  0  0  0  0  0  0
  145.2154  140.2921  154.0009 H   0  0  0  0  0  0  0  0  0  0  0  0
  148.0086  138.0099  152.4380 H   0  0  0  0  0  0  0  0  0  0  0  0
  147.3997  136.1733  152.0459 H   0  0  0  0  0  0  0  0  0  0  0  0
  145.2758  134.8857  153.5473 H   0  0  0  0  0  0  0  0  0  0  0  0
  147.0774  133.9985  151.2579 H   0  0  0  0  0  0  0  0  0  0  0  0
  147.2555  133.6081  152.9527 H   0  0  0  0  0  0  0  0  0  0  0  0
  146.2374  131.7078  151.7120 H   0  0  0  0  0  0  0  0  0  0  0  0
  145.1218  132.3111  152.9020 H   0  0  0  0  0  0  0  0  0  0  0  0
  143.6746  133.8623  148.4983 H   0  0  0  0  0  0  0  0  0  0  0  0
  142.6038  132.5353  148.9953 H   0  0  0  0  0  0  0  0  0  0  0  0
  143.7864  132.2890  147.7133 H   0  0  0  0  0  0  0  0  0  0  0  0
  142.8619  134.1014  150.7167 H   0  0  0  0  0  0  0  0  0  0  0  0
  143.2522  133.6419  152.3423 H   0  0  0  0  0  0  0  0  0  0  0  0
  143.8332  136.0311  151.9334 H   0  0  0  0  0  0  0  0  0  0  0  0
  144.8636  135.5718  150.5986 H   0  0  0  0  0  0  0  0  0  0  0  0
  149.5201  140.0215  153.5884 H   0  0  0  0  0  0  0  0  0  0  0  0
  1  2  1  0  0  0  0
  1 21  1  0  0  0  0
  1 22  1  0  0  0  0
  1 23  1  0  0  0  0
  2  3  1  0  0  0  0
  2 24  1  0  0  0  0
  2 25  1  0  0  0  0
  3 20  1  0  0  0  0
  3  4  1  0  0  0  0
  4  5  2  0  0  0  0
  4 26  1  0  0  0  0
  5  6  1  0  0  0  0
  5 19  1  0  0  0  0
  6  7  1  0  0  0  0
  6 27  1  0  0  0  0
  7  8  2  0  0  0  0
  7  9  1  0  0  0  0
  9 10  1  0  0  0  0
  9 28  1  0  0  0  0
 10 18  1  0  0  0  0
 10 11  1  0  0  0  0
 10 29  1  0  0  0  0
 11 12  1  0  0  0  0
 11 30  1  0  0  0  0
 11 31  1  0  0  0  0
 12 13  1  0  0  0  0
 12 32  1  0  0  0  0
 12 33  1  0  0  0  0
 13 14  1  0  0  0  0
 13 17  1  0  0  0  0
 14 15  1  0  0  0  0
 14 16  2  0  0  0  0
 15 34  1  0  0  0  0
 15 35  1  0  0  0  0
 15 36  1  0  0  0  0
 17 18  1  0  0  0  0
 17 37  1  0  0  0  0
 17 38  1  0  0  0  0
 18 39  1  0  0  0  0
 18 40  1  0  0  0  0
 19 20  2  0  0  0  0
 19 41  1  0  0  0  0
M  END
> <s_m_source_file>
AV-unprocessed.smi

> <i_m_source_file_index>
1739

> <i_lp_mmshare_version>
43012

> <i_f3d_flags>
0

> <s_epik_input>
W0NIM11bQ0gyXW4xW2NIXWMoW2NIXW4xKVtOSF1DKD1PKVtOSF1bQ0hdMltDSDJdW0NIMl1OKEMoPU8pW0NIM10pW0NIMl1bQ0gyXTI=

> <s_epik_cmdline>
J2VwaWtfcHl0aG9uJywgJy1waCcsICc3LjAnLCAnLXRuJywgJzgnLCAnLW1hJywgJzIwMCcsICctbWV0YWxfYmluZGluZycsICctaW1hZScsICc8aW5maWxlLm1hZT4nLCAnLW9tYWUnLCAnPG91dGZpbGUubWFlPic=

> <r_lp_tautomer_probability>
1

> <r_epik_Ionization_Penalty>
0.000185887

> <r_epik_Ionization_Penalty_Charging>
0

> <r_epik_Ionization_Penalty_Neutral>
0.000185887

> <r_epik_State_Penalty>
-0

> <r_epik_Charging_Adjusted_Penalty>
0

> <i_epik_Tot_Q>
0

> <i_epik_Tot_abs_Q>
0

> <r_epik_Metal_State_Penalty>
-0

> <b_epik_Metal_Only>
0

> <s_lp_Force_Field>
OPLS_2005

> <r_lp_Energy>
25.6807

> <b_lp_Chiralities_Consistent>
1

> <s_lp_Variant>
AV-unprocessed.smi:1739-1

> <Gold.Version>
5.8.1

> <Gold.Id.Protein>
6NUR|6NUR_protein|mol2

> <Gold.PLP.Fitness>
41.4726

> <Gold.PLP.PLP>
-33.0542

> <Gold.PLP.part.hbond>
-2.4721

> <Gold.PLP.part.metal>
0.0000

> <Gold.PLP.part.buried>
-1.3242

> <Gold.PLP.part.nonpolar>
-31.3387

> <Gold.PLP.part.repulsive>
0.5080

> <Gold.PLP.ligand.clash>
0.0000

> <Gold.PLP.ligand.torsion>
0.5214

> <Gold.PLP.Chemscore.Hbond>
1.7676

> <Gold.PLP.Chemscore.CHOScore>
1.3792

> <Gold.PLP.Chemscore.Metal>
0.0000

> <Gold.Chemscore.Hbonds>
donor molecule, donor type, donor heavy atom, donor atom, acceptor molecule, acceptor atom, score
      L1  H     6    27       P1  7948  0.70
      L1  H     9    28       P1  7948  1.00
      L1  C     4    26       P1 10175  1.00
      L1  C    19    41       P1  7957  0.45

> <Gold.PLP.Chemscore.Internal.Correction>
0.0208

> <Gold.Rescore>
     Score         DG    S(hbond)    S(metal)    S(lipo)     H(rot)  DE(clash)    DE(int)     intcor
     13.97     -16.08       1.71        0.00      68.45       1.22       0.81       1.30       ----

> <Gold.Chemscore.Fitness>
13.9738

> <Gold.Chemscore.DG>
-16.0819

> <Gold.Chemscore.ZeroCoef>
-5.4800

> <Gold.Chemscore.Hbond>
1.7090

> <Gold.Chemscore.Metal>
0.0000

> <Gold.Chemscore.Lipo>
68.4459

> <Gold.Chemscore.Internal_Hbond>
0.0000

> <Gold.Chemscore.DEClash>
0.8062

> <Gold.Chemscore.DEInternal>
1.3019

> <Gold.Chemscore.Rot>
1.2166

> <Gold.Chemscore.Internal.Correction>
   9.000000E+99

> <Gold.Chemscore.Hbonds>
donor molecule, donor type, donor heavy atom, donor atom, acceptor molecule, acceptor atom, score
      L1  H     6    27       P1  7948  0.68
      L1  H     9    28       P1  7948  0.93

> <Gold.Chemscore.Hbond.Weighted>
-5.7082

> <Gold.Chemscore.Metal.Weighted>
-0.0000

> <Gold.Chemscore.Lipo.Weighted>
-8.0082

> <Gold.Chemscore.Internal_Hbond.Weighted>
0.0000

> <Gold.Chemscore.DEClash.Weighted>
0.8062

> <Gold.Chemscore.DEInternal.Weighted>
1.3019

> <Gold.Chemscore.Rot.Weighted>
3.1145

> <Gold.Chemscore.Internal.Correction.Weighted>
   9.000000E+99

> <Gold.Protein.RotatedTorsions>
[ 6907 6896 6895 6894 ] final  168.44 input  -60.11 | X-H torsion
[ 7974 7965 7964 7962 ] final   21.58 input  175.53 | X-H torsion
[ 8008 7997 7996 7995 ] final  -15.11 input   59.86 | X-H torsion
[ 10167 10162 10161 10158 ] final  126.98 input  -65.29 | X-H torsion
[ 10718 10713 10712 10709 ] final   35.35 input   66.30 | X-H torsion
[ 10763 10752 10751 10750 ] final  138.91 input  -60.55 | X-H torsion
[ 11005 11000 10999 10996 ] final -106.54 input  -57.11 | X-H torsion

> <Gold.Protein.ActiveResidues>
 VAL166  LYS551  ARG553  GLY616  TRP617  ASP618  TYR619  PRO620  LYS621  CYS622 
 ASP623  PHE694  ASN695  SER759  ASP760  ASP761  ALA762  ILE779  LEU786  VAL792 
 PHE793  MET794  SER795  GLU796  ALA797  LYS798  CYS799  TRP800  GLU811  SER814 

> <Gold.Protein.RotatedAtoms>
  151.8475  133.3434  159.3662 H   0  0  0  0  0  0  0  0  0  0  0  0  # atno 6907 bound_to 6896
  150.7216  134.5331  159.5719 H   0  0  0  0  0  0  0  0  0  0  0  0  # atno 6908 bound_to 6896
  152.2818  134.7821  160.0446 H   0  0  0  0  0  0  0  0  0  0  0  0  # atno 6909 bound_to 6896
  146.2065  139.8006  142.8722 H   0  0  0  0  0  0  0  0  0  0  0  0  # atno 7974 bound_to 7965
  154.5157  140.2205  155.9071 H   0  0  0  0  0  0  0  0  0  0  0  0  # atno 8008 bound_to 7997
  156.1604  140.3143  155.8763 H   0  0  0  0  0  0  0  0  0  0  0  0  # atno 8009 bound_to 7997
  155.3763  140.0469  157.3035 H   0  0  0  0  0  0  0  0  0  0  0  0  # atno 8010 bound_to 7997
  139.5602  144.6877  151.4064 H   0  0  0  0  0  0  0  0  0  0  0  0  # atno 10167 bound_to 10162
  157.3216  130.7451  149.6789 H   0  0  0  0  0  0  0  0  0  0  0  0  # atno 10718 bound_to 10713
  153.8974  135.3026  155.3448 H   0  0  0  0  0  0  0  0  0  0  0  0  # atno 10763 bound_to 10752
  154.7687  135.4897  153.9609 H   0  0  0  0  0  0  0  0  0  0  0  0  # atno 10764 bound_to 10752
  153.1264  135.6794  153.9350 H   0  0  0  0  0  0  0  0  0  0  0  0  # atno 10765 bound_to 10752
  141.0999  133.8902  157.1868 H   0  0  0  0  0  0  0  0  0  0  0  0  # atno 11005 bound_to 11000
  145.3300  141.0264  143.3452 LP  0  0  0  0  0  0  0  0  0  0  0  0  # atno 17320 bound_to 7965
  144.8806  139.4910  143.6725 LP  0  0  0  0  0  0  0  0  0  0  0  0  # atno 17321 bound_to 7965
  140.6881  143.7926  150.7215 LP  0  0  0  0  0  0  0  0  0  0  0  0  # atno 17342 bound_to 10162
  140.1400  143.4449  152.2200 LP  0  0  0  0  0  0  0  0  0  0  0  0  # atno 17343 bound_to 10162
  155.9686  130.4221  150.4502 LP  0  0  0  0  0  0  0  0  0  0  0  0  # atno 17370 bound_to 10713
  157.2519  131.0548  151.2374 LP  0  0  0  0  0  0  0  0  0  0  0  0  # atno 17371 bound_to 10713
  139.9848  135.0086  156.9835 LP  0  0  0  0  0  0  0  0  0  0  0  0  # atno 17394 bound_to 11000
  140.5047  134.1062  155.7257 LP  0  0  0  0  0  0  0  0  0  0  0  0  # atno 17395 bound_to 11000

$$$$
