AV-unprocessed.smi:667|AV-procd|sdf|3257|dock2
  -GOLD-   22720 0203D 1   1.00000     0.00000
 Structure written by MMmdl.
 48 49  0  0  0  0  0  0  0  0  1 V2000
  146.7224  131.7240  159.1428 C   0  0  0  0  0  0  0  0  0  0  0  0
  146.6902  133.1105  159.7195 C   0  0  0  0  0  0  0  0  0  0  0  0
  146.3027  133.2834  160.9722 N   0  0  0  0  0  0  0  0  0  0  0  0
  146.3955  134.6120  161.1816 N   0  0  0  0  0  0  0  0  0  0  0  0
  146.0410  135.1524  162.4797 C   0  0  0  0  0  0  0  0  0  0  0  0
  146.8366  135.2807  160.0562 C   0  0  0  0  0  0  0  0  0  0  0  0
  147.0248  136.7636  160.0309 C   0  0  0  0  0  0  0  0  0  0  0  0
  147.0439  134.3376  159.0851 C   0  0  0  0  0  0  0  0  0  0  0  0
  147.5374  134.5320  157.6740 C   0  0  0  0  0  0  0  0  0  0  0  0
  148.4885  135.7273  157.6256 C   0  0  0  0  0  0  0  0  0  0  0  0
  149.2775  135.9239  158.5498 O   0  0  0  0  0  0  0  0  0  0  0  0
  148.4083  136.5127  156.5403 N   0  0  0  0  0  0  0  0  0  0  0  0
  149.2400  137.6851  156.2916 C   0  0  0  0  0  0  0  0  0  0  0  0
  149.7055  137.7772  154.8166 C   0  0  2  0  0  0  0  0  0  0  0  0
  151.1047  137.2126  154.6108 C   0  0  0  0  0  0  0  0  0  0  0  0
  152.0184  138.4089  154.8897 C   0  0  0  0  0  0  0  0  0  0  0  0
  151.1814  139.5616  154.8586 O   0  0  0  0  0  0  0  0  0  0  0  0
  149.9207  139.2110  154.3030 C   0  0  2  0  0  0  0  0  0  0  0  0
  148.8375  140.2604  154.6417 C   0  0  0  0  0  0  0  0  0  0  0  0
  147.5349  140.0080  153.8629 C   0  0  0  0  0  0  0  0  0  0  0  0
  149.3452  141.6848  154.3652 C   0  0  0  0  0  0  0  0  0  0  0  0
  147.7487  131.3986  158.9713 H   0  0  0  0  0  0  0  0  0  0  0  0
  146.1971  131.6855  158.1883 H   0  0  0  0  0  0  0  0  0  0  0  0
  146.2510  130.9980  159.8066 H   0  0  0  0  0  0  0  0  0  0  0  0
  145.0685  135.6410  162.4184 H   0  0  0  0  0  0  0  0  0  0  0  0
  146.7882  135.8819  162.7934 H   0  0  0  0  0  0  0  0  0  0  0  0
  145.9935  134.3583  163.2263 H   0  0  0  0  0  0  0  0  0  0  0  0
  147.1653  137.1270  159.0132 H   0  0  0  0  0  0  0  0  0  0  0  0
  147.9016  137.0498  160.6116 H   0  0  0  0  0  0  0  0  0  0  0  0
  146.1579  137.2755  160.4486 H   0  0  0  0  0  0  0  0  0  0  0  0
  148.0532  133.6454  157.3034 H   0  0  0  0  0  0  0  0  0  0  0  0
  146.7121  134.7067  156.9833 H   0  0  0  0  0  0  0  0  0  0  0  0
  147.7322  136.2730  155.8297 H   0  0  0  0  0  0  0  0  0  0  0  0
  148.6787  138.5734  156.5823 H   0  0  0  0  0  0  0  0  0  0  0  0
  150.1006  137.6376  156.9595 H   0  0  0  0  0  0  0  0  0  0  0  0
  148.9882  137.2561  154.1814 H   0  0  0  0  0  0  0  0  0  0  0  0
  151.3354  136.3501  155.2365 H   0  0  0  0  0  0  0  0  0  0  0  0
  151.2212  136.9010  153.5720 H   0  0  0  0  0  0  0  0  0  0  0  0
  152.4837  138.3347  155.8729 H   0  0  0  0  0  0  0  0  0  0  0  0
  152.8100  138.4863  154.1440 H   0  0  0  0  0  0  0  0  0  0  0  0
  150.0431  139.1745  153.2182 H   0  0  0  0  0  0  0  0  0  0  0  0
  148.6131  140.2041  155.7068 H   0  0  0  0  0  0  0  0  0  0  0  0
  147.7026  140.0573  152.7866 H   0  0  0  0  0  0  0  0  0  0  0  0
  146.7778  140.7509  154.1148 H   0  0  0  0  0  0  0  0  0  0  0  0
  147.1122  139.0285  154.0863 H   0  0  0  0  0  0  0  0  0  0  0  0
  149.6022  141.8173  153.3137 H   0  0  0  0  0  0  0  0  0  0  0  0
  150.2335  141.9113  154.9556 H   0  0  0  0  0  0  0  0  0  0  0  0
  148.5890  142.4283  154.6190 H   0  0  0  0  0  0  0  0  0  0  0  0
  1  2  1  0  0  0  0
  1 22  1  0  0  0  0
  1 23  1  0  0  0  0
  1 24  1  0  0  0  0
  2  8  1  0  0  0  0
  2  3  2  0  0  0  0
  3  4  1  0  0  0  0
  4  5  1  0  0  0  0
  4  6  1  0  0  0  0
  5 25  1  0  0  0  0
  5 26  1  0  0  0  0
  5 27  1  0  0  0  0
  6  7  1  0  0  0  0
  6  8  2  0  0  0  0
  7 28  1  0  0  0  0
  7 29  1  0  0  0  0
  7 30  1  0  0  0  0
  8  9  1  0  0  0  0
  9 10  1  0  0  0  0
  9 31  1  0  0  0  0
  9 32  1  0  0  0  0
 10 11  2  0  0  0  0
 10 12  1  0  0  0  0
 12 13  1  0  0  0  0
 12 33  1  0  0  0  0
 13 14  1  0  0  0  0
 13 34  1  0  0  0  0
 13 35  1  0  0  0  0
 14 18  1  0  0  0  0
 14 15  1  0  0  0  0
 14 36  1  0  0  0  0
 15 16  1  0  0  0  0
 15 37  1  0  0  0  0
 15 38  1  0  0  0  0
 16 17  1  0  0  0  0
 16 39  1  0  0  0  0
 16 40  1  0  0  0  0
 17 18  1  0  0  0  0
 18 19  1  0  0  0  0
 18 41  1  0  0  0  0
 19 20  1  0  0  0  0
 19 21  1  0  0  0  0
 19 42  1  0  0  0  0
 20 43  1  0  0  0  0
 20 44  1  0  0  0  0
 20 45  1  0  0  0  0
 21 46  1  0  0  0  0
 21 47  1  0  0  0  0
 21 48  1  0  0  0  0
M  END
> <s_m_source_file>
AV-unprocessed.smi

> <i_m_source_file_index>
667

> <i_lp_mmshare_version>
43012

> <i_f3d_flags>
0

> <s_epik_input>
W0NIM11jMW5uKFtDSDNdKWMoW0NIM10pYzFbQ0gyXUMoPU8pW05IXVtDSDJdW0NAQEhdMltDSDJdW0NIMl1PW0NASF0yW0NIXShbQ0gzXSlbQ0gzXQ==

> <s_epik_cmdline>
J2VwaWtfcHl0aG9uJywgJy1waCcsICc3LjAnLCAnLXRuJywgJzgnLCAnLW1hJywgJzIwMCcsICctbWV0YWxfYmluZGluZycsICctaW1hZScsICc8aW5maWxlLm1hZT4nLCAnLW9tYWUnLCAnPG91dGZpbGUubWFlPic=

> <r_lp_tautomer_probability>
1

> <r_epik_Ionization_Penalty>
0.00315488

> <r_epik_Ionization_Penalty_Charging>
0

> <r_epik_Ionization_Penalty_Neutral>
0.00315488

> <r_epik_State_Penalty>
0.00222269

> <r_epik_Charging_Adjusted_Penalty>
0.00222269

> <i_epik_Tot_Q>
0

> <i_epik_Tot_abs_Q>
0

> <r_epik_Metal_State_Penalty>
-0

> <b_epik_Metal_Only>
0

> <s_lp_Force_Field>
OPLS_2005

> <r_lp_Energy>
17.3848

> <b_lp_Chiralities_Consistent>
1

> <s_lp_Variant>
AV-unprocessed.smi:667-3

> <Gold.Version>
5.8.1

> <Gold.Id.Protein>
6NUR|6NUR_protein|mol2

> <Gold.PLP.Fitness>
37.5123

> <Gold.PLP.PLP>
-34.2156

> <Gold.PLP.part.hbond>
-2.0000

> <Gold.PLP.part.metal>
0.0000

> <Gold.PLP.part.buried>
-3.3292

> <Gold.PLP.part.nonpolar>
-29.3889

> <Gold.PLP.part.repulsive>
0.0830

> <Gold.PLP.ligand.clash>
0.0000

> <Gold.PLP.ligand.torsion>
1.3850

> <Gold.PLP.Chemscore.Hbond>
2.0000

> <Gold.PLP.Chemscore.CHOScore>
0.0000

> <Gold.PLP.Chemscore.Metal>
0.0000

> <Gold.Chemscore.Hbonds>
donor molecule, donor type, donor heavy atom, donor atom, acceptor molecule, acceptor atom, score
      P1  H  6896  6907       L1    11  0.52
      P1  H  7989  7998       L1    17  0.80

> <Gold.PLP.Chemscore.Internal.Correction>
0.0668

> <Gold.Rescore>
     Score         DG    S(hbond)    S(metal)    S(lipo)     H(rot)  DE(clash)    DE(int)     intcor
     15.22     -16.32       1.59        0.00      80.46       1.52       0.38       0.72       ----

> <Gold.Chemscore.Fitness>
15.2227

> <Gold.Chemscore.DG>
-16.3205

> <Gold.Chemscore.ZeroCoef>
-5.4800

> <Gold.Chemscore.Hbond>
1.5933

> <Gold.Chemscore.Metal>
0.0000

> <Gold.Chemscore.Lipo>
80.4569

> <Gold.Chemscore.Internal_Hbond>
0.0000

> <Gold.Chemscore.DEClash>
0.3754

> <Gold.Chemscore.DEInternal>
0.7223

> <Gold.Chemscore.Rot>
1.5213

> <Gold.Chemscore.Internal.Correction>
   9.000000E+99

> <Gold.Chemscore.Hbonds>
donor molecule, donor type, donor heavy atom, donor atom, acceptor molecule, acceptor atom, score
      P1  H  6896  6907       L1    11  0.51
      P1  H  7989  7998       L1    17  0.11

> <Gold.Chemscore.Hbond.Weighted>
-5.3215

> <Gold.Chemscore.Metal.Weighted>
-0.0000

> <Gold.Chemscore.Lipo.Weighted>
-9.4135

> <Gold.Chemscore.Internal_Hbond.Weighted>
0.0000

> <Gold.Chemscore.DEClash.Weighted>
0.3754

> <Gold.Chemscore.DEInternal.Weighted>
0.7223

> <Gold.Chemscore.Rot.Weighted>
3.8945

> <Gold.Chemscore.Internal.Correction.Weighted>
   9.000000E+99

> <Gold.Protein.RotatedTorsions>
[ 6907 6896 6895 6894 ] final  -45.55 input  -60.11 | X-H torsion
[ 7974 7965 7964 7962 ] final   63.51 input  175.53 | X-H torsion
[ 8008 7997 7996 7995 ] final -162.73 input   59.86 | X-H torsion
[ 10167 10162 10161 10158 ] final   -5.80 input  -65.29 | X-H torsion
[ 10718 10713 10712 10709 ] final   33.50 input   66.30 | X-H torsion
[ 10763 10752 10751 10750 ] final   69.68 input  -60.55 | X-H torsion
[ 11005 11000 10999 10996 ] final -110.08 input  -57.11 | X-H torsion

> <Gold.Protein.ActiveResidues>
 VAL166  LYS551  ARG553  GLY616  TRP617  ASP618  TYR619  PRO620  LYS621  CYS622 
 ASP623  PHE694  ASN695  SER759  ASP760  ASP761  ALA762  ILE779  LEU786  VAL792 
 PHE793  MET794  SER795  GLU796  ALA797  LYS798  CYS799  TRP800  GLU811  SER814 

> <Gold.Protein.RotatedAtoms>
  150.9207  134.8625  159.7486 H   0  0  0  0  0  0  0  0  0  0  0  0  # atno 6907 bound_to 6896
  152.4991  134.4222  159.9494 H   0  0  0  0  0  0  0  0  0  0  0  0  # atno 6908 bound_to 6896
  151.4256  133.3645  159.2797 H   0  0  0  0  0  0  0  0  0  0  0  0  # atno 6909 bound_to 6896
  145.8610  139.3315  143.0819 H   0  0  0  0  0  0  0  0  0  0  0  0  # atno 7974 bound_to 7965
  155.8111  140.0906  157.1903 H   0  0  0  0  0  0  0  0  0  0  0  0  # atno 8008 bound_to 7997
  154.3980  140.1454  156.3447 H   0  0  0  0  0  0  0  0  0  0  0  0  # atno 8009 bound_to 7997
  155.8364  140.3440  155.5607 H   0  0  0  0  0  0  0  0  0  0  0  0  # atno 8010 bound_to 7997
  140.6975  143.6266  150.8562 H   0  0  0  0  0  0  0  0  0  0  0  0  # atno 10167 bound_to 10162
  157.2986  130.7339  149.6653 H   0  0  0  0  0  0  0  0  0  0  0  0  # atno 10718 bound_to 10713
  153.0300  135.5202  154.7325 H   0  0  0  0  0  0  0  0  0  0  0  0  # atno 10763 bound_to 10752
  154.6348  135.2905  155.0176 H   0  0  0  0  0  0  0  0  0  0  0  0  # atno 10764 bound_to 10752
  154.1115  135.6621  153.4938 H   0  0  0  0  0  0  0  0  0  0  0  0  # atno 10765 bound_to 10752
  141.0812  133.9217  157.2284 H   0  0  0  0  0  0  0  0  0  0  0  0  # atno 11005 bound_to 11000
  145.9248  140.9090  143.0386 LP  0  0  0  0  0  0  0  0  0  0  0  0  # atno 17320 bound_to 7965
  144.6726  140.1338  143.7442 LP  0  0  0  0  0  0  0  0  0  0  0  0  # atno 17321 bound_to 7965
  139.9986  143.5769  152.2884 LP  0  0  0  0  0  0  0  0  0  0  0  0  # atno 17342 bound_to 10162
  139.6450  144.7657  151.2262 LP  0  0  0  0  0  0  0  0  0  0  0  0  # atno 17343 bound_to 10162
  155.9670  130.4287  150.4799 LP  0  0  0  0  0  0  0  0  0  0  0  0  # atno 17370 bound_to 10713
  157.2775  131.0600  151.2219 LP  0  0  0  0  0  0  0  0  0  0  0  0  # atno 17371 bound_to 10713
  139.9626  135.0150  156.9302 LP  0  0  0  0  0  0  0  0  0  0  0  0  # atno 17394 bound_to 11000
  140.5464  134.0670  155.7356 LP  0  0  0  0  0  0  0  0  0  0  0  0  # atno 17395 bound_to 11000

$$$$
