#       Name:                AV-unprocessed.smi:2350
#       Creating user name   scv26
#       Creation time:       Fri Mar 27 13:00:02 2020


#       File generated by GOLD software.
#

@<TRIPOS>MOLECULE
AV-unprocessed.smi:2350
    33    34     1
SMALL
NO_CHARGES


@<TRIPOS>ATOM
      1 ****        -2.6106   1.5101   0.5380 C.3            1 S1                 0.0000
      2 ****        -2.0633   0.1246   0.8981 C.3            1 S1                 0.0000
      3 ****        -0.5996   0.1309   0.8355 N.am           1 S1                 0.0000
      4 ****         0.1506   0.1588  -0.2777 C.2            1 S1                 0.0000
      5 ****        -0.3198   0.1970  -1.4146 O.2            1 S1                 0.0000
      6 ****         1.4606   0.1567   0.0229 N.am           1 S1                 0.0000
      7 ****         2.5782   0.1540  -0.8562 C.ar           1 S1                 0.0000
      8 ****         2.5254  -0.2611  -2.2092 C.ar           1 S1                 0.0000
      9 ****         3.7120  -0.2357  -2.9696 C.ar           1 S1                 0.0000
     10 ****         4.9047   0.1581  -2.4753 N.ar           1 S1                 0.0000
     11 ****         4.9538   0.5409  -1.1819 C.ar           1 S1                 0.0000
     12 ****         3.8277   0.5517  -0.3345 C.ar           1 S1                 0.0000
     13 ****         3.9484   0.9416   0.9578 F              1 S1                 0.0000
     14 ****        -2.5352  -0.5112   2.2195 C.3            1 S1                 0.0000
     15 ****        -3.5989  -1.2660   1.4168 C.3            1 S1                 0.0000
     16 ****        -2.6723  -1.1151   0.2080 C.3            1 S1                 0.0000
     17 ****        -3.6924   1.5582   0.6642 H              1 S1                 0.0000
     18 ****        -2.3985   1.7708  -0.4990 H              1 S1                 0.0000
     19 ****        -2.1770   2.2864   1.1690 H              1 S1                 0.0000
     20 ****        -0.1170   0.1058   1.7219 H              1 S1                 0.0000
     21 ****         1.6894   0.2098   1.0047 H              1 S1                 0.0000
     22 ****         1.6142  -0.6069  -2.6723 H              1 S1                 0.0000
     23 ****         3.7029  -0.5471  -4.0036 H              1 S1                 0.0000
     24 ****         5.9208   0.8458  -0.8098 H              1 S1                 0.0000
     25 ****        -1.8030  -1.1828   2.6729 H              1 S1                 0.0000
     26 ****        -2.9358   0.1923   2.9501 H              1 S1                 0.0000
     27 ****        -3.7704  -2.2942   1.7360 H              1 S1                 0.0000
     28 ****        -4.5322  -0.7104   1.3123 H              1 S1                 0.0000
     29 ****        -3.1846  -0.9091  -0.7324 H              1 S1                 0.0000
     30 ****        -1.9787  -1.9529   0.1093 H              1 S1                 0.0000
     31 ****        -1.3111   0.2087  -1.5454 LP             1 S1                 0.0000
     32 ****         0.2894   0.2162  -2.2074 LP             1 S1                 0.0000
     33 ****         5.7244   0.1659  -3.0481 LP             1 S1                 0.0000
@<TRIPOS>BOND
    1    1    2 1     
    2    1   17 1     
    3    1   18 1     
    4    1   19 1     
    5    2   16 1     
    6    2    3 1     
    7    2   14 1     
    8    3    4 am    
    9    3   20 1     
   10    4    5 2     
   11    4    6 am    
   12    6    7 1     
   13    6   21 1     
   14    7   12 ar    
   15    7    8 ar    
   16    8    9 ar    
   17    8   22 1     
   18    9   10 ar    
   19    9   23 1     
   20   10   11 ar    
   21   11   12 ar    
   22   11   24 1     
   23   12   13 1     
   24   14   15 1     
   25   14   25 1     
   26   14   26 1     
   27   15   16 1     
   28   15   27 1     
   29   15   28 1     
   30   16   29 1     
   31   16   30 1     
   32    5   31 1     
   33    5   32 1     
   34   10   33 1     
@<TRIPOS>SUBSTRUCTURE
      1 S1             1
@<TRIPOS>SET
LONE_PAIRS      STATIC     ATOMS    <user>   **** ""
3 31 32 33
DONOR_HYDROGENS      STATIC     ATOMS    <user>   **** ""
2 20 21
ATOM$BLUE        STATIC     ATOMS    COLORGROUP SYSTEM
3 31 32 33
ATOM$RED        STATIC     ATOMS    COLORGROUP SYSTEM
2 20 21
