AV-unprocessed.smi:2344|AV-procd|sdf|9357|dock6
  -GOLD-   2272012583D 1   1.00000     0.00000
 Structure written by MMmdl.
 35 36  0  0  0  0  0  0  0  0  1 V2000
  153.1209  143.4832  162.5054 C   0  0  0  0  0  0  0  0  0  0  0  0
  152.4257  143.3535  161.1664 C   0  0  0  0  0  0  0  0  0  0  0  0
  152.6131  142.2122  160.3644 C   0  0  0  0  0  0  0  0  0  0  0  0
  151.9437  142.1338  159.1281 C   0  0  0  0  0  0  0  0  0  0  0  0
  151.1039  143.1958  158.7231 C   0  0  0  0  0  0  0  0  0  0  0  0
  150.4774  143.0189  157.4608 N   0  0  0  0  0  0  0  0  0  0  0  0
  150.2475  141.8703  156.8006 C   0  0  0  0  0  0  0  0  0  0  0  0
  150.5644  140.7465  157.1917 O   0  0  0  0  0  0  0  0  0  0  0  0
  149.6148  142.0957  155.6403 N   0  0  0  0  0  0  0  0  0  0  0  0
  149.2109  141.0590  154.6973 C   0  0  2  0  0  0  0  0  0  0  0  0
  148.2036  141.6001  153.7202 C   0  0  0  0  0  0  0  0  0  0  0  0
  147.0735  140.8973  153.7046 C   0  0  0  0  0  0  0  0  0  0  0  0
  147.0877  139.7439  154.6752 C   0  0  2  0  0  0  0  0  0  0  0  0
  145.9010  139.7713  155.6539 C   0  0  0  0  0  0  0  0  0  0  0  0
  144.7016  139.4307  154.9908 O   0  0  0  0  0  0  0  0  0  0  0  0
  148.4610  139.8844  155.3799 C   0  0  0  0  0  0  0  0  0  0  0  0
  150.9289  144.2912  159.5036 N   0  0  0  0  0  0  0  0  0  0  0  0
  151.5703  144.3655  160.6886 C   0  0  0  0  0  0  0  0  0  0  0  0
  150.0753  140.6983  154.1372 H   0  0  0  0  0  0  0  0  0  0  0  0
  147.0679  138.8183  154.0980 H   0  0  0  0  0  0  0  0  0  0  0  0
  154.1610  143.1650  162.4290 H   0  0  0  0  0  0  0  0  0  0  0  0
  152.6237  142.8605  163.2491 H   0  0  0  0  0  0  0  0  0  0  0  0
  153.1071  144.5154  162.8568 H   0  0  0  0  0  0  0  0  0  0  0  0
  153.2583  141.4090  160.6887 H   0  0  0  0  0  0  0  0  0  0  0  0
  152.0768  141.2648  158.5001 H   0  0  0  0  0  0  0  0  0  0  0  0
  150.1603  143.8653  157.0119 H   0  0  0  0  0  0  0  0  0  0  0  0
  149.3906  143.0485  155.3937 H   0  0  0  0  0  0  0  0  0  0  0  0
  148.4084  142.4594  153.0986 H   0  0  0  0  0  0  0  0  0  0  0  0
  146.2250  141.1025  153.0687 H   0  0  0  0  0  0  0  0  0  0  0  0
  146.0619  139.0585  156.4631 H   0  0  0  0  0  0  0  0  0  0  0  0
  145.7930  140.7571  156.1077 H   0  0  0  0  0  0  0  0  0  0  0  0
  144.6734  139.8892  154.1647 H   0  0  0  0  0  0  0  0  0  0  0  0
  149.0354  138.9609  155.2974 H   0  0  0  0  0  0  0  0  0  0  0  0
  148.3275  140.0712  156.4468 H   0  0  0  0  0  0  0  0  0  0  0  0
  151.3934  145.2588  161.2693 H   0  0  0  0  0  0  0  0  0  0  0  0
  1  2  1  0  0  0  0
  1 21  1  0  0  0  0
  1 22  1  0  0  0  0
  1 23  1  0  0  0  0
  2 18  1  0  0  0  0
  2  3  2  0  0  0  0
  3  4  1  0  0  0  0
  3 24  1  0  0  0  0
  4  5  2  0  0  0  0
  4 25  1  0  0  0  0
  5  6  1  0  0  0  0
  5 17  1  0  0  0  0
  6  7  1  0  0  0  0
  6 26  1  0  0  0  0
  7  8  2  0  0  0  0
  7  9  1  0  0  0  0
  9 10  1  0  0  0  0
  9 27  1  0  0  0  0
 10 19  1  0  0  0  0
 10 16  1  0  0  0  0
 10 11  1  0  0  0  0
 11 12  2  0  0  0  0
 11 28  1  0  0  0  0
 12 13  1  0  0  0  0
 12 29  1  0  0  0  0
 13 20  1  0  0  0  0
 13 14  1  0  0  0  0
 13 16  1  0  0  0  0
 14 15  1  0  0  0  0
 14 30  1  0  0  0  0
 14 31  1  0  0  0  0
 15 32  1  0  0  0  0
 16 33  1  0  0  0  0
 16 34  1  0  0  0  0
 17 18  2  0  0  0  0
 18 35  1  0  0  0  0
M  END
> <s_m_source_file>
AV-unprocessed.smi

> <i_m_source_file_index>
2344

> <i_lp_mmshare_version>
43012

> <i_f3d_flags>
0

> <s_epik_input>
W0NIM11jMVtjSF1bY0hdYyhuW2NIXTEpW05IXUMoPU8pW05IXVtDQEBIXTJbQ0hdPVtDSF1bQ0BASF0oW0NIMl0yKVtDSDJdW09IXQ==

> <s_epik_cmdline>
J2VwaWtfcHl0aG9uJywgJy1waCcsICc3LjAnLCAnLXRuJywgJzgnLCAnLW1hJywgJzIwMCcsICctbWV0YWxfYmluZGluZycsICctaW1hZScsICc8aW5maWxlLm1hZT4nLCAnLW9tYWUnLCAnPG91dGZpbGUubWFlPic=

> <r_lp_tautomer_probability>
1

> <r_epik_Ionization_Penalty>
5.7643e-05

> <r_epik_Ionization_Penalty_Charging>
0

> <r_epik_Ionization_Penalty_Neutral>
5.7643e-05

> <r_epik_State_Penalty>
-0

> <r_epik_Charging_Adjusted_Penalty>
0

> <i_epik_Tot_Q>
0

> <i_epik_Tot_abs_Q>
0

> <r_epik_Metal_State_Penalty>
-0

> <b_epik_Metal_Only>
0

> <s_lp_Force_Field>
OPLS_2005

> <r_lp_Energy>
16.9507

> <b_lp_Chiralities_Consistent>
1

> <s_lp_Variant>
AV-unprocessed.smi:2344-1

> <Gold.Version>
5.8.1

> <Gold.Id.Protein>
6NUR|6NUR_protein|mol2

> <Gold.PLP.Fitness>
41.9314

> <Gold.PLP.PLP>
-33.6437

> <Gold.PLP.part.hbond>
-3.0000

> <Gold.PLP.part.metal>
0.0000

> <Gold.PLP.part.buried>
-4.9859

> <Gold.PLP.part.nonpolar>
-25.9723

> <Gold.PLP.part.repulsive>
0.2956

> <Gold.PLP.ligand.clash>
0.0000

> <Gold.PLP.ligand.torsion>
0.3272

> <Gold.PLP.Chemscore.Hbond>
2.9760

> <Gold.PLP.Chemscore.CHOScore>
0.0000

> <Gold.PLP.Chemscore.Metal>
0.0000

> <Gold.Chemscore.Hbonds>
donor molecule, donor type, donor heavy atom, donor atom, acceptor molecule, acceptor atom, score
      L1  H     6    26       P1  8028  0.98
      L1  H     9    27       P1  8028  1.00
      L1  H    15    32       P1 10175  0.98

> <Gold.PLP.Chemscore.Internal.Correction>
0.0143

> <Gold.Rescore>
     Score         DG    S(hbond)    S(metal)    S(lipo)     H(rot)  DE(clash)    DE(int)     intcor
     17.30     -20.37       2.90        0.00      84.34       1.82       0.11       2.96       ----

> <Gold.Chemscore.Fitness>
17.2989

> <Gold.Chemscore.DG>
-20.3681

> <Gold.Chemscore.ZeroCoef>
-5.4800

> <Gold.Chemscore.Hbond>
2.8967

> <Gold.Chemscore.Metal>
0.0000

> <Gold.Chemscore.Lipo>
84.3418

> <Gold.Chemscore.Internal_Hbond>
0.0000

> <Gold.Chemscore.DEClash>
0.1089

> <Gold.Chemscore.DEInternal>
2.9602

> <Gold.Chemscore.Rot>
1.8184

> <Gold.Chemscore.Internal.Correction>
   9.000000E+99

> <Gold.Chemscore.Hbonds>
donor molecule, donor type, donor heavy atom, donor atom, acceptor molecule, acceptor atom, score
      L1  H     6    26       P1  8028  0.84
      L1  H     9    27       P1  8028  0.99
      L1  H    15    32       P1 10175  0.87

> <Gold.Chemscore.Hbond.Weighted>
-9.6751

> <Gold.Chemscore.Metal.Weighted>
-0.0000

> <Gold.Chemscore.Lipo.Weighted>
-9.8680

> <Gold.Chemscore.Internal_Hbond.Weighted>
0.0000

> <Gold.Chemscore.DEClash.Weighted>
0.1089

> <Gold.Chemscore.DEInternal.Weighted>
2.9602

> <Gold.Chemscore.Rot.Weighted>
4.6551

> <Gold.Chemscore.Internal.Correction.Weighted>
   9.000000E+99

> <Gold.Protein.RotatedTorsions>
[ 6907 6896 6895 6894 ] final -106.09 input  -60.11 | X-H torsion
[ 7974 7965 7964 7962 ] final  125.17 input  175.53 | X-H torsion
[ 8008 7997 7996 7995 ] final  136.11 input   59.86 | X-H torsion
[ 10167 10162 10161 10158 ] final  172.59 input  -65.29 | X-H torsion
[ 10718 10713 10712 10709 ] final  -99.50 input   66.30 | X-H torsion
[ 10763 10752 10751 10750 ] final  116.30 input  -60.55 | X-H torsion
[ 11005 11000 10999 10996 ] final  -12.25 input  -57.11 | X-H torsion

> <Gold.Protein.ActiveResidues>
 VAL166  LYS551  ARG553  GLY616  TRP617  ASP618  TYR619  PRO620  LYS621  CYS622 
 ASP623  PHE694  ASN695  SER759  ASP760  ASP761  ALA762  ILE779  LEU786  VAL792 
 PHE793  MET794  SER795  GLU796  ALA797  LYS798  CYS799  TRP800  GLU811  SER814 

> <Gold.Protein.RotatedAtoms>
  150.7370  134.0029  159.3643 H   0  0  0  0  0  0  0  0  0  0  0  0  # atno 6907 bound_to 6896
  151.7984  135.0714  160.0406 H   0  0  0  0  0  0  0  0  0  0  0  0  # atno 6908 bound_to 6896
  152.3158  133.5764  159.5747 H   0  0  0  0  0  0  0  0  0  0  0  0  # atno 6909 bound_to 6896
  145.0761  139.3693  143.4933 H   0  0  0  0  0  0  0  0  0  0  0  0  # atno 7974 bound_to 7965
  156.3004  140.2453  156.3691 H   0  0  0  0  0  0  0  0  0  0  0  0  # atno 8008 bound_to 7997
  154.8805  140.0413  157.1799 H   0  0  0  0  0  0  0  0  0  0  0  0  # atno 8009 bound_to 7997
  154.8700  140.2933  155.5491 H   0  0  0  0  0  0  0  0  0  0  0  0  # atno 8010 bound_to 7997
  139.5081  144.3356  152.0068 H   0  0  0  0  0  0  0  0  0  0  0  0  # atno 10167 bound_to 10162
  156.0136  130.5285  150.6680 H   0  0  0  0  0  0  0  0  0  0  0  0  # atno 10718 bound_to 10713
  153.5351  135.3570  155.2693 H   0  0  0  0  0  0  0  0  0  0  0  0  # atno 10763 bound_to 10752
  154.8723  135.4077  154.3107 H   0  0  0  0  0  0  0  0  0  0  0  0  # atno 10764 bound_to 10752
  153.3803  135.7068  153.6638 H   0  0  0  0  0  0  0  0  0  0  0  0  # atno 10765 bound_to 10752
  140.7638  133.8494  155.9147 H   0  0  0  0  0  0  0  0  0  0  0  0  # atno 11005 bound_to 11000
  146.3530  140.0529  142.8634 LP  0  0  0  0  0  0  0  0  0  0  0  0  # atno 17320 bound_to 7965
  145.1234  140.9476  143.4587 LP  0  0  0  0  0  0  0  0  0  0  0  0  # atno 17321 bound_to 7965
  140.2795  144.3875  150.6123 LP  0  0  0  0  0  0  0  0  0  0  0  0  # atno 17342 bound_to 10162
  140.6028  143.2167  151.7038 LP  0  0  0  0  0  0  0  0  0  0  0  0  # atno 17343 bound_to 10162
  157.4408  131.0861  151.0945 LP  0  0  0  0  0  0  0  0  0  0  0  0  # atno 17370 bound_to 10713
  157.1490  130.6176  149.5576 LP  0  0  0  0  0  0  0  0  0  0  0  0  # atno 17371 bound_to 10713
  140.9639  134.1620  157.4632 LP  0  0  0  0  0  0  0  0  0  0  0  0  # atno 17394 bound_to 11000
  139.8766  134.9954  156.5744 LP  0  0  0  0  0  0  0  0  0  0  0  0  # atno 17395 bound_to 11000

$$$$
