AV-unprocessed.smi:2190|AV-procd|sdf|8891|dock2
  -GOLD-   2272012 93D 1   1.00000     0.00000
 Structure written by MMmdl.
 47 49  0  0  0  0  0  0  0  0  2 V2000
  148.1530  132.3826  159.6421 C   0  0  0  0  0  0  0  0  0  0  0  0
  147.9022  133.6259  160.4706 C   0  0  0  0  0  0  0  0  0  0  0  0
  147.3700  133.5181  161.7696 C   0  0  0  0  0  0  0  0  0  0  0  0
  147.1376  134.6771  162.5315 C   0  0  0  0  0  0  0  0  0  0  0  0
  147.4340  135.9495  162.0005 C   0  0  0  0  0  0  0  0  0  0  0  0
  147.1758  137.1888  162.8369 C   0  0  0  0  0  0  0  0  0  0  0  0
  147.9683  136.0725  160.6966 C   0  0  0  0  0  0  0  0  0  0  0  0
  148.2359  137.3459  160.2370 O   0  0  0  0  0  0  0  0  0  0  0  0
  148.6428  137.5079  158.8848 C   0  0  0  0  0  0  0  0  0  0  0  0
  149.8536  138.4530  158.8420 C   0  0  1  0  0  0  0  0  0  0  0  0
  150.9698  137.7750  159.3842 O   0  0  0  0  0  0  0  0  0  0  0  0
  150.1811  138.8981  157.4029 C   0  0  0  0  0  0  0  0  0  0  0  0
  150.3867  140.3521  157.2853 N   0  0  0  0  0  0  0  0  0  0  0  0
  149.7759  141.2629  156.4729 C   0  0  0  0  0  0  0  0  0  0  0  0
  148.6995  140.9996  155.4717 C   0  0  0  0  0  0  0  0  0  0  0  0
  148.3096  142.1684  154.7858 O   0  0  0  0  0  0  0  0  0  0  0  0
  150.3196  142.4811  156.7507 N   0  3  0  0  0  0  0  0  0  0  0  0
  151.2840  142.3519  157.7503 C   0  0  0  0  0  0  0  0  0  0  0  0
  152.0956  143.3041  158.3593 C   0  0  0  0  0  0  0  0  0  0  0  0
  152.9757  142.8396  159.3583 C   0  0  0  0  0  0  0  0  0  0  0  0
  153.0236  141.4774  159.7182 C   0  0  0  0  0  0  0  0  0  0  0  0
  152.1969  140.5213  159.0923 C   0  0  0  0  0  0  0  0  0  0  0  0
  151.3312  140.9872  158.1024 C   0  0  0  0  0  0  0  0  0  0  0  0
  148.1978  134.8966  159.9372 C   0  0  0  0  0  0  0  0  0  0  0  0
  148.1305  131.4840  160.2594 H   0  0  0  0  0  0  0  0  0  0  0  0
  149.1287  132.4358  159.1582 H   0  0  0  0  0  0  0  0  0  0  0  0
  147.3905  132.2863  158.8690 H   0  0  0  0  0  0  0  0  0  0  0  0
  147.1378  132.5487  162.1858 H   0  0  0  0  0  0  0  0  0  0  0  0
  146.7296  134.5841  163.5273 H   0  0  0  0  0  0  0  0  0  0  0  0
  148.1021  137.7439  162.9876 H   0  0  0  0  0  0  0  0  0  0  0  0
  146.7713  136.9328  163.8165 H   0  0  0  0  0  0  0  0  0  0  0  0
  146.4608  137.8416  162.3357 H   0  0  0  0  0  0  0  0  0  0  0  0
  148.8822  136.5513  158.4164 H   0  0  0  0  0  0  0  0  0  0  0  0
  147.8165  137.9552  158.3295 H   0  0  0  0  0  0  0  0  0  0  0  0
  149.6488  139.3362  159.4481 H   0  0  0  0  0  0  0  0  0  0  0  0
  150.7143  136.8845  159.5719 H   0  0  0  0  0  0  0  0  0  0  0  0
  151.0559  138.3742  157.0182 H   0  0  0  0  0  0  0  0  0  0  0  0
  149.3609  138.6328  156.7356 H   0  0  0  0  0  0  0  0  0  0  0  0
  149.0519  140.2647  154.7476 H   0  0  0  0  0  0  0  0  0  0  0  0
  147.8298  140.5674  155.9660 H   0  0  0  0  0  0  0  0  0  0  0  0
  148.7508  142.9080  155.1756 H   0  0  0  0  0  0  0  0  0  0  0  0
  152.0577  144.3489  158.0879 H   0  0  0  0  0  0  0  0  0  0  0  0
  153.6246  143.5427  159.8605 H   0  0  0  0  0  0  0  0  0  0  0  0
  153.7071  141.1584  160.4916 H   0  0  0  0  0  0  0  0  0  0  0  0
  152.2390  139.4823  159.3830 H   0  0  0  0  0  0  0  0  0  0  0  0
  148.6014  134.9436  158.9374 H   0  0  0  0  0  0  0  0  0  0  0  0
  150.0426  143.3393  156.2919 H   0  0  0  0  0  0  0  0  0  0  0  0
  1  2  1  0  0  0  0
  1 25  1  0  0  0  0
  1 26  1  0  0  0  0
  1 27  1  0  0  0  0
  2 24  1  0  0  0  0
  2  3  2  0  0  0  0
  3  4  1  0  0  0  0
  3 28  1  0  0  0  0
  4  5  2  0  0  0  0
  4 29  1  0  0  0  0
  5  6  1  0  0  0  0
  5  7  1  0  0  0  0
  6 30  1  0  0  0  0
  6 31  1  0  0  0  0
  6 32  1  0  0  0  0
  7  8  1  0  0  0  0
  7 24  2  0  0  0  0
  8  9  1  0  0  0  0
  9 10  1  0  0  0  0
  9 33  1  0  0  0  0
  9 34  1  0  0  0  0
 10 11  1  0  0  0  0
 10 12  1  0  0  0  0
 10 35  1  0  0  0  0
 11 36  1  0  0  0  0
 12 13  1  0  0  0  0
 12 37  1  0  0  0  0
 12 38  1  0  0  0  0
 13 23  1  0  0  0  0
 13 14  1  0  0  0  0
 14 15  1  0  0  0  0
 14 17  2  0  0  0  0
 15 16  1  0  0  0  0
 15 39  1  0  0  0  0
 15 40  1  0  0  0  0
 16 41  1  0  0  0  0
 17 18  1  0  0  0  0
 17 47  1  0  0  0  0
 18 23  2  0  0  0  0
 18 19  1  0  0  0  0
 19 20  2  0  0  0  0
 19 42  1  0  0  0  0
 20 21  1  0  0  0  0
 20 43  1  0  0  0  0
 21 22  2  0  0  0  0
 21 44  1  0  0  0  0
 22 23  1  0  0  0  0
 22 45  1  0  0  0  0
 24 46  1  0  0  0  0
M  CHG  1  17   1
M  END
> <s_m_source_file>
AV-unprocessed.smi

> <i_m_source_file_index>
2190

> <i_lp_mmshare_version>
43012

> <i_f3d_flags>
0

> <s_epik_input>
W0NIM11jMVtjSF1bY0hdYyhbQ0gzXSljKFtjSF0xKU9bQ0gyXVtDQEhdKFtPSF0pW0NIMl1uKGMobjIpW0NIMl1bT0hdKWMoYzIzKVtjSF1bY0hdW2NIXVtjSF0z

> <s_epik_cmdline>
J2VwaWtfcHl0aG9uJywgJy1waCcsICc3LjAnLCAnLXRuJywgJzgnLCAnLW1hJywgJzIwMCcsICctbWV0YWxfYmluZGluZycsICctaW1hZScsICc8aW5maWxlLm1hZT4nLCAnLW9tYWUnLCAnPG91dGZpbGUubWFlPic=

> <r_lp_tautomer_probability>
1

> <r_epik_Ionization_Penalty>
1.43125

> <r_epik_Ionization_Penalty_Charging>
1.43039

> <r_epik_Ionization_Penalty_Neutral>
0.000858184

> <r_epik_State_Penalty>
1.51493

> <r_epik_Charging_Adjusted_Penalty>
2.94531

> <i_epik_Tot_Q>
1

> <i_epik_Tot_abs_Q>
1

> <r_epik_Metal_State_Penalty>
5.5599

> <b_epik_Metal_Only>
0

> <s_lp_Force_Field>
OPLS_2005

> <r_lp_Energy>
19.5123

> <b_lp_Chiralities_Consistent>
1

> <s_lp_Variant>
AV-unprocessed.smi:2190-4

> <Gold.Version>
5.8.1

> <Gold.Id.Protein>
6NUR|6NUR_protein|mol2

> <Gold.PLP.Fitness>
59.3695

> <Gold.PLP.PLP>
-49.2822

> <Gold.PLP.part.hbond>
-4.3921

> <Gold.PLP.part.metal>
0.0000

> <Gold.PLP.part.buried>
-4.8891

> <Gold.PLP.part.nonpolar>
-39.8622

> <Gold.PLP.part.repulsive>
0.0432

> <Gold.PLP.ligand.clash>
0.0000

> <Gold.PLP.ligand.torsion>
1.1357

> <Gold.PLP.Chemscore.Hbond>
4.0933

> <Gold.PLP.Chemscore.CHOScore>
0.0000

> <Gold.PLP.Chemscore.Metal>
0.0000

> <Gold.Chemscore.Hbonds>
donor molecule, donor type, donor heavy atom, donor atom, acceptor molecule, acceptor atom, score
      L1  H    16    41       P1  8028  1.00
      L1  H    17    47       P1  8028  2.00
      P1  H  6931  6943       L1     8  0.57
      P1  H  6934  6947       L1     8  0.52

> <Gold.PLP.Chemscore.Internal.Correction>
0.0789

> <Gold.Rescore>
     Score         DG    S(hbond)    S(metal)    S(lipo)     H(rot)  DE(clash)    DE(int)     intcor
     20.18     -21.45       2.75        0.00     124.69       3.05       0.14       1.12       ----

> <Gold.Chemscore.Fitness>
20.1830

> <Gold.Chemscore.DG>
-21.4505

> <Gold.Chemscore.ZeroCoef>
-5.4800

> <Gold.Chemscore.Hbond>
2.7494

> <Gold.Chemscore.Metal>
0.0000

> <Gold.Chemscore.Lipo>
124.6942

> <Gold.Chemscore.Internal_Hbond>
0.0000

> <Gold.Chemscore.DEClash>
0.1429

> <Gold.Chemscore.DEInternal>
1.1246

> <Gold.Chemscore.Rot>
3.0476

> <Gold.Chemscore.Internal.Correction>
   9.000000E+99

> <Gold.Chemscore.Hbonds>
donor molecule, donor type, donor heavy atom, donor atom, acceptor molecule, acceptor atom, score
      L1  H    16    41       P1  8028  0.96
      L1  H    17    47       P1  8028  0.99
      P1  H  6931  6943       L1     8  0.22
      P1  H  6934  6947       L1     8  0.39

> <Gold.Chemscore.Hbond.Weighted>
-9.1831

> <Gold.Chemscore.Metal.Weighted>
-0.0000

> <Gold.Chemscore.Lipo.Weighted>
-14.5892

> <Gold.Chemscore.Internal_Hbond.Weighted>
0.0000

> <Gold.Chemscore.DEClash.Weighted>
0.1429

> <Gold.Chemscore.DEInternal.Weighted>
1.1246

> <Gold.Chemscore.Rot.Weighted>
7.8018

> <Gold.Chemscore.Internal.Correction.Weighted>
   9.000000E+99

> <Gold.Protein.RotatedTorsions>
[ 6907 6896 6895 6894 ] final  108.78 input  -60.11 | X-H torsion
[ 7974 7965 7964 7962 ] final  -85.29 input  175.53 | X-H torsion
[ 8008 7997 7996 7995 ] final  -24.12 input   59.86 | X-H torsion
[ 10167 10162 10161 10158 ] final  -65.30 input  -65.29 | X-H torsion
[ 10718 10713 10712 10709 ] final -118.56 input   66.30 | X-H torsion
[ 10763 10752 10751 10750 ] final  -26.18 input  -60.55 | X-H torsion
[ 11005 11000 10999 10996 ] final -118.42 input  -57.11 | X-H torsion

> <Gold.Protein.ActiveResidues>
 VAL166  LYS551  ARG553  GLY616  TRP617  ASP618  TYR619  PRO620  LYS621  CYS622 
 ASP623  PHE694  ASN695  SER759  ASP760  ASP761  ALA762  ILE779  LEU786  VAL792 
 PHE793  MET794  SER795  GLU796  ALA797  LYS798  CYS799  TRP800  GLU811  SER814 

> <Gold.Protein.RotatedAtoms>
  152.5097  133.9039  159.7454 H   0  0  0  0  0  0  0  0  0  0  0  0  # atno 6907 bound_to 6896
  150.9448  133.6606  159.2790 H   0  0  0  0  0  0  0  0  0  0  0  0  # atno 6908 bound_to 6896
  151.3905  135.0960  159.9577 H   0  0  0  0  0  0  0  0  0  0  0  0  # atno 6909 bound_to 6896
  145.4952  140.9550  143.1790 H   0  0  0  0  0  0  0  0  0  0  0  0  # atno 7974 bound_to 7965
  154.4547  140.1962  156.0415 H   0  0  0  0  0  0  0  0  0  0  0  0  # atno 8008 bound_to 7997
  156.0721  140.3283  155.7561 H   0  0  0  0  0  0  0  0  0  0  0  0  # atno 8009 bound_to 7997
  155.5247  140.0573  157.2891 H   0  0  0  0  0  0  0  0  0  0  0  0  # atno 8010 bound_to 7997
  140.5740  143.2320  151.6481 H   0  0  0  0  0  0  0  0  0  0  0  0  # atno 10167 bound_to 10162
  156.1115  130.6252  150.9306 H   0  0  0  0  0  0  0  0  0  0  0  0  # atno 10718 bound_to 10713
  153.7118  135.6950  153.5035 H   0  0  0  0  0  0  0  0  0  0  0  0  # atno 10763 bound_to 10752
  153.2267  135.4351  155.0549 H   0  0  0  0  0  0  0  0  0  0  0  0  # atno 10764 bound_to 10752
  154.8312  135.3474  154.6654 H   0  0  0  0  0  0  0  0  0  0  0  0  # atno 10765 bound_to 10752
  141.0287  134.0015  157.3176 H   0  0  0  0  0  0  0  0  0  0  0  0  # atno 11005 bound_to 11000
  144.7811  139.6524  143.7154 LP  0  0  0  0  0  0  0  0  0  0  0  0  # atno 17320 bound_to 7965
  146.2260  139.5723  142.9587 LP  0  0  0  0  0  0  0  0  0  0  0  0  # atno 17321 bound_to 7965
  139.5132  144.3449  152.0706 LP  0  0  0  0  0  0  0  0  0  0  0  0  # atno 17342 bound_to 10162
  140.2591  144.4087  150.6192 LP  0  0  0  0  0  0  0  0  0  0  0  0  # atno 17343 bound_to 10162
  157.6296  131.0922  150.8466 LP  0  0  0  0  0  0  0  0  0  0  0  0  # atno 17370 bound_to 10713
  156.8576  130.5102  149.5306 LP  0  0  0  0  0  0  0  0  0  0  0  0  # atno 17371 bound_to 10713
  139.9193  135.0199  156.8003 LP  0  0  0  0  0  0  0  0  0  0  0  0  # atno 17394 bound_to 11000
  140.6446  133.9787  155.7724 LP  0  0  0  0  0  0  0  0  0  0  0  0  # atno 17395 bound_to 11000

$$$$
