AV-unprocessed.smi:594|AV-procd|sdf|3017|dock5
  -GOLD-   2262023523D 1   1.00000     0.00000
 Structure written by MMmdl.
 40 41  0  0  0  0  0  0  0  0  3 V2000
  150.8831  139.9423  157.8037 C   0  0  0  0  0  0  0  0  0  0  0  0
  151.0935  141.3942  158.2716 C   0  0  1  0  0  0  0  0  0  0  0  0
  152.2563  141.4711  159.2820 C   0  0  0  0  0  0  0  0  0  0  0  0
  152.4881  142.9047  159.7828 C   0  0  0  0  0  0  0  0  0  0  0  0
  152.7369  143.8624  158.6101 C   0  0  0  0  0  0  0  0  0  0  0  0
  151.5772  143.8112  157.6051 C   0  0  0  0  0  0  0  0  0  0  0  0
  151.3272  142.3781  157.0953 C   0  0  2  0  0  0  0  0  0  0  0  0
  150.1763  142.3937  156.1936 N   0  0  0  0  0  0  0  0  0  0  0  0
  149.8787  141.4578  155.2788 C   0  0  0  0  0  0  0  0  0  0  0  0
  150.5789  140.4668  155.0670 O   0  0  0  0  0  0  0  0  0  0  0  0
  148.5911  141.6882  154.4764 C   0  0  0  0  0  0  0  0  0  0  0  0
  147.6555  140.5541  154.5601 N   0  0  0  0  0  0  0  0  0  0  0  0
  147.3998  139.8425  153.3710 C   0  0  0  0  0  0  0  0  0  0  0  0
  146.5653  138.7851  153.3350 C   0  0  0  0  0  0  0  0  0  0  0  0
  146.3172  138.0637  152.1062 N   0  3  0  0  0  0  0  0  0  0  0  0
  146.8545  138.4555  151.0751 O   0  0  0  0  0  0  0  0  0  0  0  0
  145.5799  137.0826  152.1299 O   0  5  0  0  0  0  0  0  0  0  0  0
  145.9240  138.3896  154.5741 C   0  0  0  0  0  0  0  0  0  0  0  0
  146.1666  139.0641  155.7153 C   0  0  0  0  0  0  0  0  0  0  0  0
  147.0767  140.2136  155.7525 C   0  0  0  0  0  0  0  0  0  0  0  0
  147.3046  140.8325  156.7924 O   0  0  0  0  0  0  0  0  0  0  0  0
  151.7337  139.5879  157.2209 H   0  0  0  0  0  0  0  0  0  0  0  0
  149.9911  139.8426  157.1851 H   0  0  0  0  0  0  0  0  0  0  0  0
  150.7597  139.2706  158.6536 H   0  0  0  0  0  0  0  0  0  0  0  0
  150.1858  141.7015  158.7936 H   0  0  0  0  0  0  0  0  0  0  0  0
  152.0544  140.8193  160.1329 H   0  0  0  0  0  0  0  0  0  0  0  0
  153.1704  141.0969  158.8187 H   0  0  0  0  0  0  0  0  0  0  0  0
  151.6205  143.2395  160.3528 H   0  0  0  0  0  0  0  0  0  0  0  0
  153.3362  142.9272  160.4677 H   0  0  0  0  0  0  0  0  0  0  0  0
  152.8644  144.8798  158.9809 H   0  0  0  0  0  0  0  0  0  0  0  0
  153.6684  143.5956  158.1093 H   0  0  0  0  0  0  0  0  0  0  0  0
  150.6739  144.1987  158.0789 H   0  0  0  0  0  0  0  0  0  0  0  0
  151.7932  144.4732  156.7656 H   0  0  0  0  0  0  0  0  0  0  0  0
  152.2213  142.0606  156.5552 H   0  0  0  0  0  0  0  0  0  0  0  0
  149.5414  143.1730  156.2893 H   0  0  0  0  0  0  0  0  0  0  0  0
  148.1001  142.6007  154.8205 H   0  0  0  0  0  0  0  0  0  0  0  0
  148.8685  141.8870  153.4404 H   0  0  0  0  0  0  0  0  0  0  0  0
  147.9311  140.2102  152.5051 H   0  0  0  0  0  0  0  0  0  0  0  0
  145.2452  137.5498  154.5963 H   0  0  0  0  0  0  0  0  0  0  0  0
  145.6790  138.7519  156.6271 H   0  0  0  0  0  0  0  0  0  0  0  0
  1  2  1  0  0  0  0
  1 22  1  0  0  0  0
  1 23  1  0  0  0  0
  1 24  1  0  0  0  0
  2  7  1  0  0  0  0
  2  3  1  0  0  0  0
  2 25  1  0  0  0  0
  3  4  1  0  0  0  0
  3 26  1  0  0  0  0
  3 27  1  0  0  0  0
  4  5  1  0  0  0  0
  4 28  1  0  0  0  0
  4 29  1  0  0  0  0
  5  6  1  0  0  0  0
  5 30  1  0  0  0  0
  5 31  1  0  0  0  0
  6  7  1  0  0  0  0
  6 32  1  0  0  0  0
  6 33  1  0  0  0  0
  7  8  1  0  0  0  0
  7 34  1  0  0  0  0
  8  9  1  0  0  0  0
  8 35  1  0  0  0  0
  9 10  2  0  0  0  0
  9 11  1  0  0  0  0
 11 12  1  0  0  0  0
 11 36  1  0  0  0  0
 11 37  1  0  0  0  0
 12 20  1  0  0  0  0
 12 13  1  0  0  0  0
 13 14  2  0  0  0  0
 13 38  1  0  0  0  0
 14 15  1  0  0  0  0
 14 18  1  0  0  0  0
 15 16  2  0  0  0  0
 15 17  1  0  0  0  0
 18 19  2  0  0  0  0
 18 39  1  0  0  0  0
 19 20  1  0  0  0  0
 19 40  1  0  0  0  0
 20 21  2  0  0  0  0
M  CHG  1  15   1
M  CHG  1  17  -1
M  END
> <s_m_source_file>
AV-unprocessed.smi

> <i_m_source_file_index>
594

> <i_lp_mmshare_version>
43012

> <i_f3d_flags>
0

> <s_epik_input>
W0NIM11bQ0BASF0xW0NIMl1bQ0gyXVtDSDJdW0NIMl1bQ0BIXTFbTkhdQyg9TylbQ0gyXW4yW2NIXWMoW04rXSg9TylbTy1dKVtjSF1bY0hdYzI9Tw==

> <s_epik_cmdline>
J2VwaWtfcHl0aG9uJywgJy1waCcsICc3LjAnLCAnLXRuJywgJzgnLCAnLW1hJywgJzIwMCcsICctbWV0YWxfYmluZGluZycsICctaW1hZScsICc8aW5maWxlLm1hZT4nLCAnLW9tYWUnLCAnPG91dGZpbGUubWFlPic=

> <r_lp_tautomer_probability>
1

> <r_epik_Ionization_Penalty>
1.91305e-08

> <r_epik_Ionization_Penalty_Charging>
8.35811e-11

> <r_epik_Ionization_Penalty_Neutral>
1.90469e-08

> <r_epik_State_Penalty>
-0

> <r_epik_Charging_Adjusted_Penalty>
8.35811e-11

> <i_epik_Tot_Q>
0

> <i_epik_Tot_abs_Q>
2

> <r_epik_Metal_State_Penalty>
-0

> <b_epik_Metal_Only>
0

> <s_lp_Force_Field>
OPLS_2005

> <r_lp_Energy>
21.4369

> <b_lp_Chiralities_Consistent>
1

> <s_lp_Variant>
AV-unprocessed.smi:594-4

> <Gold.Version>
5.8.1

> <Gold.Id.Protein>
6NUR|6NUR_protein|mol2

> <Gold.PLP.Fitness>
49.3532

> <Gold.PLP.PLP>
-37.9579

> <Gold.PLP.part.hbond>
-3.0000

> <Gold.PLP.part.metal>
0.0000

> <Gold.PLP.part.buried>
-5.4877

> <Gold.PLP.part.nonpolar>
-30.9551

> <Gold.PLP.part.repulsive>
0.7906

> <Gold.PLP.ligand.clash>
0.0000

> <Gold.PLP.ligand.torsion>
0.3013

> <Gold.PLP.Chemscore.Hbond>
2.9920

> <Gold.PLP.Chemscore.CHOScore>
1.0000

> <Gold.PLP.Chemscore.Metal>
0.0000

> <Gold.Chemscore.Hbonds>
donor molecule, donor type, donor heavy atom, donor atom, acceptor molecule, acceptor atom, score
      L1  H     8    35       P1  8028  0.99
      P1  H  7954  7966       L1    16  1.00
      P1  H  7989  7998       L1    10  1.00
      L1  C    13    38       P1  7957  1.00

> <Gold.PLP.Chemscore.Internal.Correction>
0.0220

> <Gold.Rescore>
     Score         DG    S(hbond)    S(metal)    S(lipo)     H(rot)  DE(clash)    DE(int)     intcor
     20.17     -20.93       2.62        0.00      91.13       1.55       0.26       0.50       ----

> <Gold.Chemscore.Fitness>
20.1651

> <Gold.Chemscore.DG>
-20.9317

> <Gold.Chemscore.ZeroCoef>
-5.4800

> <Gold.Chemscore.Hbond>
2.6223

> <Gold.Chemscore.Metal>
0.0000

> <Gold.Chemscore.Lipo>
91.1310

> <Gold.Chemscore.Internal_Hbond>
0.0000

> <Gold.Chemscore.DEClash>
0.2632

> <Gold.Chemscore.DEInternal>
0.5034

> <Gold.Chemscore.Rot>
1.5505

> <Gold.Chemscore.Internal.Correction>
   9.000000E+99

> <Gold.Chemscore.Hbonds>
donor molecule, donor type, donor heavy atom, donor atom, acceptor molecule, acceptor atom, score
      L1  H     8    35       P1  8028  0.94
      P1  H  7954  7966       L1    16  0.98
      P1  H  7989  7998       L1    10  0.52

> <Gold.Chemscore.Hbond.Weighted>
-8.7586

> <Gold.Chemscore.Metal.Weighted>
-0.0000

> <Gold.Chemscore.Lipo.Weighted>
-10.6623

> <Gold.Chemscore.Internal_Hbond.Weighted>
0.0000

> <Gold.Chemscore.DEClash.Weighted>
0.2632

> <Gold.Chemscore.DEInternal.Weighted>
0.5034

> <Gold.Chemscore.Rot.Weighted>
3.9692

> <Gold.Chemscore.Internal.Correction.Weighted>
   9.000000E+99

> <Gold.Protein.RotatedTorsions>
[ 6907 6896 6895 6894 ] final   28.86 input  -60.11 | X-H torsion
[ 7974 7965 7964 7962 ] final  144.70 input  175.53 | X-H torsion
[ 8008 7997 7996 7995 ] final -152.84 input   59.86 | X-H torsion
[ 10167 10162 10161 10158 ] final   32.16 input  -65.29 | X-H torsion
[ 10718 10713 10712 10709 ] final  144.44 input   66.30 | X-H torsion
[ 10763 10752 10751 10750 ] final  132.97 input  -60.55 | X-H torsion
[ 11005 11000 10999 10996 ] final   76.28 input  -57.11 | X-H torsion

> <Gold.Protein.ActiveResidues>
 VAL166  LYS551  ARG553  GLY616  TRP617  ASP618  TYR619  PRO620  LYS621  CYS622 
 ASP623  PHE694  ASN695  SER759  ASP760  ASP761  ALA762  ILE779  LEU786  VAL792 
 PHE793  MET794  SER795  GLU796  ALA797  LYS798  CYS799  TRP800  GLU811  SER814 

> <Gold.Protein.RotatedAtoms>
  152.0232  134.9811  160.0570 H   0  0  0  0  0  0  0  0  0  0  0  0  # atno 6907 bound_to 6896
  152.1317  133.4407  159.4732 H   0  0  0  0  0  0  0  0  0  0  0  0  # atno 6908 bound_to 6896
  150.6857  134.2331  159.4485 H   0  0  0  0  0  0  0  0  0  0  0  0  # atno 6909 bound_to 6896
  144.8814  139.5694  143.5841 H   0  0  0  0  0  0  0  0  0  0  0  0  # atno 7974 bound_to 7965
  155.6615  140.0723  157.2552 H   0  0  0  0  0  0  0  0  0  0  0  0  # atno 8008 bound_to 7997
  154.4141  140.1715  156.1832 H   0  0  0  0  0  0  0  0  0  0  0  0  # atno 8009 bound_to 7997
  155.9693  140.3363  155.6564 H   0  0  0  0  0  0  0  0  0  0  0  0  # atno 8010 bound_to 7997
  140.4524  144.1029  150.6194 H   0  0  0  0  0  0  0  0  0  0  0  0  # atno 10167 bound_to 10162
  157.3571  131.0959  151.0948 H   0  0  0  0  0  0  0  0  0  0  0  0  # atno 10718 bound_to 10713
  153.7994  135.3144  155.3388 H   0  0  0  0  0  0  0  0  0  0  0  0  # atno 10763 bound_to 10752
  154.8095  135.4676  154.0482 H   0  0  0  0  0  0  0  0  0  0  0  0  # atno 10764 bound_to 10752
  153.1825  135.6896  153.8547 H   0  0  0  0  0  0  0  0  0  0  0  0  # atno 10765 bound_to 10752
  139.9305  134.7588  156.1376 H   0  0  0  0  0  0  0  0  0  0  0  0  # atno 11005 bound_to 11000
  146.2997  139.7387  142.9101 LP  0  0  0  0  0  0  0  0  0  0  0  0  # atno 17320 bound_to 7965
  145.3948  141.0377  143.3104 LP  0  0  0  0  0  0  0  0  0  0  0  0  # atno 17321 bound_to 7965
  140.4192  143.2620  151.9737 LP  0  0  0  0  0  0  0  0  0  0  0  0  # atno 17342 bound_to 10162
  139.4798  144.5846  151.7875 LP  0  0  0  0  0  0  0  0  0  0  0  0  # atno 17343 bound_to 10162
  157.2102  130.6434  149.5771 LP  0  0  0  0  0  0  0  0  0  0  0  0  # atno 17370 bound_to 10713
  155.9731  130.4662  150.6282 LP  0  0  0  0  0  0  0  0  0  0  0  0  # atno 17371 bound_to 10713
  141.0891  133.6722  156.2501 LP  0  0  0  0  0  0  0  0  0  0  0  0  # atno 17394 bound_to 11000
  140.6215  134.5357  157.5548 LP  0  0  0  0  0  0  0  0  0  0  0  0  # atno 17395 bound_to 11000

$$$$
