AV-unprocessed.smi:2240|AV-procd|sdf|9057|dock2
  -GOLD-   2272012263D 1   1.00000     0.00000
 Structure written by MMmdl.
 37 38  0  0  0  0  0  0  0  0  1 V2000
  150.5510  131.2364  157.7600 C   0  0  0  0  0  0  0  0  0  0  0  0
  151.2485  132.4201  157.3941 O   0  0  0  0  0  0  0  0  0  0  0  0
  150.6312  133.2263  156.3898 C   0  0  0  0  0  0  0  0  0  0  0  0
  150.4271  132.4518  155.0766 C   0  0  0  0  0  0  0  0  0  0  0  0
  149.5401  133.1658  154.1633 N   0  0  0  0  0  0  0  0  0  0  0  0
  148.4814  132.6404  153.5309 C   0  0  0  0  0  0  0  0  0  0  0  0
  148.1132  131.4738  153.6722 O   0  0  0  0  0  0  0  0  0  0  0  0
  147.9029  133.5457  152.7224 N   0  0  0  0  0  0  0  0  0  0  0  0
  146.8001  133.3688  151.8451 C   0  0  0  0  0  0  0  0  0  0  0  0
  145.9917  134.4711  151.4658 C   0  0  0  0  0  0  0  0  0  0  0  0
  144.9227  134.2691  150.5718 C   0  0  0  0  0  0  0  0  0  0  0  0
  144.6930  132.9755  150.0680 C   0  0  0  0  0  0  0  0  0  0  0  0
  143.5546  132.7081  149.1058 C   0  0  0  0  0  0  0  0  0  0  0  0
  145.5533  131.9412  150.4843 C   0  0  0  0  0  0  0  0  0  0  0  0
  146.5797  132.1331  151.3395 N   0  0  0  0  0  0  0  0  0  0  0  0
  149.4120  133.9256  157.0235 C   0  0  0  0  0  0  0  0  0  0  0  0
  149.8699  135.2299  156.3698 C   0  0  0  0  0  0  0  0  0  0  0  0
  151.2743  134.6270  156.3264 C   0  0  0  0  0  0  0  0  0  0  0  0
  151.1716  130.6515  158.4384 H   0  0  0  0  0  0  0  0  0  0  0  0
  150.3251  130.6106  156.8965 H   0  0  0  0  0  0  0  0  0  0  0  0
  149.6220  131.4609  158.2832 H   0  0  0  0  0  0  0  0  0  0  0  0
  151.3867  132.2506  154.5977 H   0  0  0  0  0  0  0  0  0  0  0  0
  149.9965  131.4694  155.2681 H   0  0  0  0  0  0  0  0  0  0  0  0
  149.7695  134.1313  153.9785 H   0  0  0  0  0  0  0  0  0  0  0  0
  148.3785  134.4320  152.6406 H   0  0  0  0  0  0  0  0  0  0  0  0
  146.1806  135.4681  151.8341 H   0  0  0  0  0  0  0  0  0  0  0  0
  144.2947  135.0964  150.2754 H   0  0  0  0  0  0  0  0  0  0  0  0
  143.6949  131.7605  148.5849 H   0  0  0  0  0  0  0  0  0  0  0  0
  143.4916  133.4997  148.3588 H   0  0  0  0  0  0  0  0  0  0  0  0
  142.6080  132.6669  149.6446 H   0  0  0  0  0  0  0  0  0  0  0  0
  145.4197  130.9325  150.1217 H   0  0  0  0  0  0  0  0  0  0  0  0
  148.4393  133.5721  156.6832 H   0  0  0  0  0  0  0  0  0  0  0  0
  149.4582  133.9675  158.1133 H   0  0  0  0  0  0  0  0  0  0  0  0
  149.4409  135.3816  155.3780 H   0  0  0  0  0  0  0  0  0  0  0  0
  149.7709  136.1165  156.9965 H   0  0  0  0  0  0  0  0  0  0  0  0
  151.8586  134.8762  157.2142 H   0  0  0  0  0  0  0  0  0  0  0  0
  151.8284  134.8363  155.4110 H   0  0  0  0  0  0  0  0  0  0  0  0
  1  2  1  0  0  0  0
  1 19  1  0  0  0  0
  1 20  1  0  0  0  0
  1 21  1  0  0  0  0
  2  3  1  0  0  0  0
  3 18  1  0  0  0  0
  3  4  1  0  0  0  0
  3 16  1  0  0  0  0
  4  5  1  0  0  0  0
  4 22  1  0  0  0  0
  4 23  1  0  0  0  0
  5  6  1  0  0  0  0
  5 24  1  0  0  0  0
  6  7  2  0  0  0  0
  6  8  1  0  0  0  0
  8  9  1  0  0  0  0
  8 25  1  0  0  0  0
  9 15  1  0  0  0  0
  9 10  2  0  0  0  0
 10 11  1  0  0  0  0
 10 26  1  0  0  0  0
 11 12  2  0  0  0  0
 11 27  1  0  0  0  0
 12 13  1  0  0  0  0
 12 14  1  0  0  0  0
 13 28  1  0  0  0  0
 13 29  1  0  0  0  0
 13 30  1  0  0  0  0
 14 15  2  0  0  0  0
 14 31  1  0  0  0  0
 16 17  1  0  0  0  0
 16 32  1  0  0  0  0
 16 33  1  0  0  0  0
 17 18  1  0  0  0  0
 17 34  1  0  0  0  0
 17 35  1  0  0  0  0
 18 36  1  0  0  0  0
 18 37  1  0  0  0  0
M  END
> <s_m_source_file>
AV-unprocessed.smi

> <i_m_source_file_index>
2240

> <i_lp_mmshare_version>
43012

> <i_f3d_flags>
0

> <s_epik_input>
W0NIMl0xW0NIMl1bQ0gyXUMxKE9bQ0gzXSlbQ0gyXVtOSF1DKD1PKVtOSF1jMltjSF1bY0hdYyhbQ0gzXSlbY0hdbjI=

> <s_epik_cmdline>
J2VwaWtfcHl0aG9uJywgJy1waCcsICc3LjAnLCAnLXRuJywgJzgnLCAnLW1hJywgJzIwMCcsICctbWV0YWxfYmluZGluZycsICctaW1hZScsICc8aW5maWxlLm1hZT4nLCAnLW9tYWUnLCAnPG91dGZpbGUubWFlPic=

> <r_lp_tautomer_probability>
1

> <r_epik_Ionization_Penalty>
5.83017e-05

> <r_epik_Ionization_Penalty_Charging>
0

> <r_epik_Ionization_Penalty_Neutral>
5.83017e-05

> <r_epik_State_Penalty>
-0

> <r_epik_Charging_Adjusted_Penalty>
0

> <i_epik_Tot_Q>
0

> <i_epik_Tot_abs_Q>
0

> <r_epik_Metal_State_Penalty>
-0

> <b_epik_Metal_Only>
0

> <s_lp_Force_Field>
OPLS_2005

> <r_lp_Energy>
21.5554

> <b_lp_Chiralities_Consistent>
1

> <s_lp_Variant>
AV-unprocessed.smi:2240-1

> <Gold.Version>
5.8.1

> <Gold.Id.Protein>
6NUR|6NUR_protein|mol2

> <Gold.PLP.Fitness>
34.2871

> <Gold.PLP.PLP>
-28.8410

> <Gold.PLP.part.hbond>
-2.0000

> <Gold.PLP.part.metal>
0.0000

> <Gold.PLP.part.buried>
-4.6712

> <Gold.PLP.part.nonpolar>
-23.3155

> <Gold.PLP.part.repulsive>
1.1026

> <Gold.PLP.ligand.clash>
0.0000

> <Gold.PLP.ligand.torsion>
0.4127

> <Gold.PLP.Chemscore.Hbond>
2.0000

> <Gold.PLP.Chemscore.CHOScore>
0.0000

> <Gold.PLP.Chemscore.Metal>
0.0000

> <Gold.Chemscore.Hbonds>
donor molecule, donor type, donor heavy atom, donor atom, acceptor molecule, acceptor atom, score
      L1  H     8    25       P1  7948  0.85
      P1  H  6896  6909       L1     2  0.91

> <Gold.PLP.Chemscore.Internal.Correction>
0.2715

> <Gold.Rescore>
     Score         DG    S(hbond)    S(metal)    S(lipo)     H(rot)  DE(clash)    DE(int)     intcor
     12.95     -14.95       1.65        0.00      65.64       1.45       0.01       1.99       ----

> <Gold.Chemscore.Fitness>
12.9519

> <Gold.Chemscore.DG>
-14.9523

> <Gold.Chemscore.ZeroCoef>
-5.4800

> <Gold.Chemscore.Hbond>
1.6498

> <Gold.Chemscore.Metal>
0.0000

> <Gold.Chemscore.Lipo>
65.6396

> <Gold.Chemscore.Internal_Hbond>
0.0000

> <Gold.Chemscore.DEClash>
0.0082

> <Gold.Chemscore.DEInternal>
1.9922

> <Gold.Chemscore.Rot>
1.4523

> <Gold.Chemscore.Internal.Correction>
   9.000000E+99

> <Gold.Chemscore.Hbonds>
donor molecule, donor type, donor heavy atom, donor atom, acceptor molecule, acceptor atom, score
      L1  H     8    25       P1  7948  0.14
      P1  H  6896  6909       L1     2  0.24

> <Gold.Chemscore.Hbond.Weighted>
-5.5104

> <Gold.Chemscore.Metal.Weighted>
-0.0000

> <Gold.Chemscore.Lipo.Weighted>
-7.6798

> <Gold.Chemscore.Internal_Hbond.Weighted>
0.0000

> <Gold.Chemscore.DEClash.Weighted>
0.0082

> <Gold.Chemscore.DEInternal.Weighted>
1.9922

> <Gold.Chemscore.Rot.Weighted>
3.7179

> <Gold.Chemscore.Internal.Correction.Weighted>
   9.000000E+99

> <Gold.Protein.RotatedTorsions>
[ 6907 6896 6895 6894 ] final  -52.90 input  -60.11 | X-H torsion
[ 7974 7965 7964 7962 ] final   49.06 input  175.53 | X-H torsion
[ 8008 7997 7996 7995 ] final  133.09 input   59.86 | X-H torsion
[ 10167 10162 10161 10158 ] final  111.90 input  -65.29 | X-H torsion
[ 10718 10713 10712 10709 ] final   -0.26 input   66.30 | X-H torsion
[ 10763 10752 10751 10750 ] final  103.06 input  -60.55 | X-H torsion
[ 11005 11000 10999 10996 ] final  -78.32 input  -57.11 | X-H torsion

> <Gold.Protein.ActiveResidues>
 VAL166  LYS551  ARG553  GLY616  TRP617  ASP618  TYR619  PRO620  LYS621  CYS622 
 ASP623  PHE694  ASN695  SER759  ASP760  ASP761  ALA762  ILE779  LEU786  VAL792 
 PHE793  MET794  SER795  GLU796  ALA797  LYS798  CYS799  TRP800  GLU811  SER814 

> <Gold.Protein.RotatedAtoms>
  150.8475  134.7789  159.6981 H   0  0  0  0  0  0  0  0  0  0  0  0  # atno 6907 bound_to 6896
  152.4548  134.5312  159.9821 H   0  0  0  0  0  0  0  0  0  0  0  0  # atno 6908 bound_to 6896
  151.5439  133.3390  159.2976 H   0  0  0  0  0  0  0  0  0  0  0  0  # atno 6909 bound_to 6896
  146.0145  139.4580  142.9935 H   0  0  0  0  0  0  0  0  0  0  0  0  # atno 7974 bound_to 7965
  156.2989  140.2530  156.3196 H   0  0  0  0  0  0  0  0  0  0  0  0  # atno 8008 bound_to 7997
  154.9248  140.0400  157.2036 H   0  0  0  0  0  0  0  0  0  0  0  0  # atno 8009 bound_to 7997
  154.8275  140.2870  155.5749 H   0  0  0  0  0  0  0  0  0  0  0  0  # atno 8010 bound_to 7997
  139.6576  144.7129  151.1926 H   0  0  0  0  0  0  0  0  0  0  0  0  # atno 10167 bound_to 10162
  156.8230  130.5463  149.5695 H   0  0  0  0  0  0  0  0  0  0  0  0  # atno 10718 bound_to 10713
  153.3478  135.3989  155.1622 H   0  0  0  0  0  0  0  0  0  0  0  0  # atno 10763 bound_to 10752
  154.8656  135.3649  154.5262 H   0  0  0  0  0  0  0  0  0  0  0  0  # atno 10764 bound_to 10752
  153.5711  135.7079  153.5564 H   0  0  0  0  0  0  0  0  0  0  0  0  # atno 10765 bound_to 10752
  141.1664  133.7058  156.7954 H   0  0  0  0  0  0  0  0  0  0  0  0  # atno 11005 bound_to 11000
  145.7290  141.0049  143.1362 LP  0  0  0  0  0  0  0  0  0  0  0  0  # atno 17320 bound_to 7965
  144.6965  139.8962  143.7456 LP  0  0  0  0  0  0  0  0  0  0  0  0  # atno 17321 bound_to 7965
  140.7566  143.6046  150.8666 LP  0  0  0  0  0  0  0  0  0  0  0  0  # atno 17342 bound_to 10162
  139.9700  143.6067  152.2976 LP  0  0  0  0  0  0  0  0  0  0  0  0  # atno 17343 bound_to 10162
  156.0978  130.5945  150.9842 LP  0  0  0  0  0  0  0  0  0  0  0  0  # atno 17370 bound_to 10713
  157.6447  131.0905  150.8179 LP  0  0  0  0  0  0  0  0  0  0  0  0  # atno 17371 bound_to 10713
  140.2295  134.8697  157.3461 LP  0  0  0  0  0  0  0  0  0  0  0  0  # atno 17394 bound_to 11000
  140.1906  134.4377  155.7718 LP  0  0  0  0  0  0  0  0  0  0  0  0  # atno 17395 bound_to 11000

$$$$
