#       Name:                AV-unprocessed.smi:3314
#       Creating user name   scv26
#       Creation time:       Fri Mar 27 19:08:03 2020


#       File generated by GOLD software.
#

@<TRIPOS>MOLECULE
AV-unprocessed.smi:3314
    43    44     1
SMALL
NO_CHARGES


@<TRIPOS>ATOM
      1 ****        -4.5549   3.2365  -0.1766 C.3            1 S1                 0.0000
      2 ****        -3.8813   1.8842  -0.0722 C.ar           1 S1                 0.0000
      3 ****        -4.6405   0.7011   0.0093 C.ar           1 S1                 0.0000
      4 ****        -3.9527  -0.5245   0.1079 C.ar           1 S1                 0.0000
      5 ****        -4.7044  -1.8360   0.1961 C.3            1 S1                 0.0000
      6 ****        -2.6057  -0.6138   0.1289 N.ar           1 S1                 0.0000
      7 ****        -1.8646   0.5192   0.0512 C.ar           1 S1                 0.0000
      8 ****        -0.4451   0.5349   0.0676 N.am           1 S1                 0.0000
      9 ****         0.4012  -0.5025   0.2095 C.2            1 S1                 0.0000
     10 ****         0.0506  -1.6752   0.3494 O.2            1 S1                 0.0000
     11 ****         1.8891  -0.1322   0.1983 C.3            1 S1                 0.0000
     12 ****         2.8165  -1.3002   0.6037 C.3            1 S1                 0.0000
     13 ****         4.2213  -0.9222   0.5212 N.3            1 S1                 0.0000
     14 ****         5.0957  -2.0179   0.9107 C.3            1 S1                 0.0000
     15 ****         4.5192  -0.4467  -0.8234 C.3            1 S1                 0.0000
     16 ****         3.5915   0.7093  -1.2360 C.3            1 S1                 0.0000
     17 ****         2.2312   0.3021  -1.1169 O.3            1 S1                 0.0000
     18 ****        -2.4754   1.7890  -0.0526 C.ar           1 S1                 0.0000
     19 ****        -5.6407   3.1389  -0.2021 H              1 S1                 0.0000
     20 ****        -4.2369   3.7480  -1.0854 H              1 S1                 0.0000
     21 ****        -4.2881   3.8574   0.6789 H              1 S1                 0.0000
     22 ****        -5.7204   0.7317  -0.0038 H              1 S1                 0.0000
     23 ****        -5.7819  -1.6729   0.2328 H              1 S1                 0.0000
     24 ****        -4.4127  -2.3820   1.0938 H              1 S1                 0.0000
     25 ****        -4.4828  -2.4576  -0.6718 H              1 S1                 0.0000
     26 ****        -0.0189   1.4443  -0.0340 H              1 S1                 0.0000
     27 ****         2.0330   0.6974   0.8934 H              1 S1                 0.0000
     28 ****         2.5821  -1.6170   1.6209 H              1 S1                 0.0000
     29 ****         2.6316  -2.1606  -0.0423 H              1 S1                 0.0000
     30 ****         6.1408  -1.7087   0.8753 H              1 S1                 0.0000
     31 ****         4.9719  -2.8764   0.2491 H              1 S1                 0.0000
     32 ****         4.8798  -2.3404   1.9297 H              1 S1                 0.0000
     33 ****         5.5574  -0.1171  -0.8785 H              1 S1                 0.0000
     34 ****         4.4132  -1.2650  -1.5373 H              1 S1                 0.0000
     35 ****         3.7694   1.5875  -0.6137 H              1 S1                 0.0000
     36 ****         3.7864   1.0024  -2.2677 H              1 S1                 0.0000
     37 ****        -1.8735   2.6843  -0.1138 H              1 S1                 0.0000
     38 ****        -2.1594  -1.5057   0.2010 LP             1 S1                 0.0000
     39 ****        -0.9218  -1.9081   0.3630 LP             1 S1                 0.0000
     40 ****         0.7384  -2.3942   0.4493 LP             1 S1                 0.0000
     41 ****         4.3929  -0.1798   1.1688 LP             1 S1                 0.0000
     42 ****         1.6453   1.0755  -1.3589 LP             1 S1                 0.0000
     43 ****         2.0679  -0.4517  -1.7533 LP             1 S1                 0.0000
@<TRIPOS>BOND
    1    1    2 1     
    2    1   19 1     
    3    1   20 1     
    4    1   21 1     
    5    2   18 ar    
    6    2    3 ar    
    7    3    4 ar    
    8    3   22 1     
    9    4    5 1     
   10    4    6 ar    
   11    5   23 1     
   12    5   24 1     
   13    5   25 1     
   14    6    7 ar    
   15    7    8 1     
   16    7   18 ar    
   17    8    9 am    
   18    8   26 1     
   19    9   10 2     
   20    9   11 1     
   21   11   17 1     
   22   11   12 1     
   23   11   27 1     
   24   12   13 1     
   25   12   28 1     
   26   12   29 1     
   27   13   14 1     
   28   13   15 1     
   29   14   30 1     
   30   14   31 1     
   31   14   32 1     
   32   15   16 1     
   33   15   33 1     
   34   15   34 1     
   35   16   17 1     
   36   16   35 1     
   37   16   36 1     
   38   18   37 1     
   39    6   38 1     
   40   10   39 1     
   41   10   40 1     
   42   13   41 1     
   43   17   42 1     
   44   17   43 1     
@<TRIPOS>SUBSTRUCTURE
      1 S1             1
@<TRIPOS>SET
LONE_PAIRS      STATIC     ATOMS    <user>   **** ""
6 38 39 40 41 42 43
DONOR_HYDROGENS      STATIC     ATOMS    <user>   **** ""
1 26
ATOM$BLUE        STATIC     ATOMS    COLORGROUP SYSTEM
6 38 39 40 41 42 43
ATOM$RED        STATIC     ATOMS    COLORGROUP SYSTEM
1 26
