AV-unprocessed.smi:3171|AV-procd|sdf|12111|dock6
  -GOLD-   2272017553D 1   1.00000     0.00000
 Structure written by MMmdl.
 33 34  0  0  0  0  0  0  0  0  1 V2000
  153.0950  143.5189  163.4304 C   0  0  0  0  0  0  0  0  0  0  0  0
  152.8183  143.2065  161.9705 C   0  0  0  0  0  0  0  0  0  0  0  0
  152.0612  144.1203  161.3251 N   0  0  0  0  0  0  0  0  0  0  0  0
  151.7613  143.9597  160.0355 N   0  0  0  0  0  0  0  0  0  0  0  0
  152.2061  142.8825  159.3440 C   0  0  0  0  0  0  0  0  0  0  0  0
  151.8575  142.7899  157.9832 N   0  0  0  0  0  0  0  0  0  0  0  0
  150.8394  141.8470  157.5341 C   0  0  0  0  0  0  0  0  0  0  0  0
  151.2367  141.1446  156.2257 C   0  0  2  0  0  0  0  0  0  0  0  0
  150.0980  140.3500  155.5925 C   0  0  0  0  0  0  0  0  0  0  0  0
  150.8225  139.3373  154.7217 C   0  0  0  0  0  0  0  0  0  0  0  0
  152.2382  139.2931  155.3054 C   0  0  0  0  0  0  0  0  0  0  0  0
  152.2013  140.1294  156.4542 O   0  0  0  0  0  0  0  0  0  0  0  0
  153.0082  141.8854  159.9586 C   0  0  0  0  0  0  0  0  0  0  0  0
  153.4944  140.7312  159.2053 C   0  0  0  0  0  0  0  0  0  0  0  0
  153.8796  139.8174  158.6091 N   0  0  0  0  0  0  0  0  0  0  0  0
  153.3228  142.0481  161.3316 C   0  0  0  0  0  0  0  0  0  0  0  0
  154.1755  141.0271  162.0810 C   0  0  0  0  0  0  0  0  0  0  0  0
  154.1685  143.5394  163.6200 H   0  0  0  0  0  0  0  0  0  0  0  0
  152.6402  142.7659  164.0741 H   0  0  0  0  0  0  0  0  0  0  0  0
  152.6896  144.4909  163.7150 H   0  0  0  0  0  0  0  0  0  0  0  0
  152.5471  143.0763  157.3034 H   0  0  0  0  0  0  0  0  0  0  0  0
  150.5935  141.1215  158.3100 H   0  0  0  0  0  0  0  0  0  0  0  0
  149.9294  142.4226  157.3637 H   0  0  0  0  0  0  0  0  0  0  0  0
  151.6299  141.8639  155.5043 H   0  0  0  0  0  0  0  0  0  0  0  0
  149.5309  139.8278  156.3646 H   0  0  0  0  0  0  0  0  0  0  0  0
  149.4048  140.9763  155.0305 H   0  0  0  0  0  0  0  0  0  0  0  0
  150.3332  138.3632  154.7542 H   0  0  0  0  0  0  0  0  0  0  0  0
  150.8515  139.6650  153.6819 H   0  0  0  0  0  0  0  0  0  0  0  0
  152.5475  138.2829  155.5747 H   0  0  0  0  0  0  0  0  0  0  0  0
  152.9607  139.6913  154.5917 H   0  0  0  0  0  0  0  0  0  0  0  0
  153.8197  140.0135  161.8924 H   0  0  0  0  0  0  0  0  0  0  0  0
  154.1592  141.1679  163.1604 H   0  0  0  0  0  0  0  0  0  0  0  0
  155.2125  141.0921  161.7508 H   0  0  0  0  0  0  0  0  0  0  0  0
  1  2  1  0  0  0  0
  1 18  1  0  0  0  0
  1 19  1  0  0  0  0
  1 20  1  0  0  0  0
  2 16  1  0  0  0  0
  2  3  2  0  0  0  0
  3  4  1  0  0  0  0
  4  5  2  0  0  0  0
  5  6  1  0  0  0  0
  5 13  1  0  0  0  0
  6  7  1  0  0  0  0
  6 21  1  0  0  0  0
  7  8  1  0  0  0  0
  7 22  1  0  0  0  0
  7 23  1  0  0  0  0
  8 12  1  0  0  0  0
  8  9  1  0  0  0  0
  8 24  1  0  0  0  0
  9 10  1  0  0  0  0
  9 25  1  0  0  0  0
  9 26  1  0  0  0  0
 10 11  1  0  0  0  0
 10 27  1  0  0  0  0
 10 28  1  0  0  0  0
 11 12  1  0  0  0  0
 11 29  1  0  0  0  0
 11 30  1  0  0  0  0
 13 14  1  0  0  0  0
 13 16  2  0  0  0  0
 14 15  3  0  0  0  0
 16 17  1  0  0  0  0
 17 31  1  0  0  0  0
 17 32  1  0  0  0  0
 17 33  1  0  0  0  0
M  END
> <s_m_source_file>
AV-unprocessed.smi

> <i_m_source_file_index>
3171

> <i_lp_mmshare_version>
43012

> <i_f3d_flags>
0

> <s_epik_input>
W0NIM11jMW5uYyhjKEMjTiljMVtDSDNdKVtOSF1bQ0gyXVtDQEBIXTJbQ0gyXVtDSDJdW0NIMl1PMg==

> <s_epik_cmdline>
J2VwaWtfcHl0aG9uJywgJy1waCcsICc3LjAnLCAnLXRuJywgJzgnLCAnLW1hJywgJzIwMCcsICctbWV0YWxfYmluZGluZycsICctaW1hZScsICc8aW5maWxlLm1hZT4nLCAnLW9tYWUnLCAnPG91dGZpbGUubWFlPic=

> <r_lp_tautomer_probability>
1

> <r_epik_Ionization_Penalty>
0.00108228

> <r_epik_Ionization_Penalty_Charging>
0

> <r_epik_Ionization_Penalty_Neutral>
0.00108228

> <r_epik_State_Penalty>
-0

> <r_epik_Charging_Adjusted_Penalty>
0

> <i_epik_Tot_Q>
0

> <i_epik_Tot_abs_Q>
0

> <r_epik_Metal_State_Penalty>
-0

> <b_epik_Metal_Only>
0

> <s_lp_Force_Field>
OPLS_2005

> <r_lp_Energy>
28.7028

> <b_lp_Chiralities_Consistent>
1

> <s_lp_Variant>
AV-unprocessed.smi:3171-1

> <Gold.Version>
5.8.1

> <Gold.Id.Protein>
6NUR|6NUR_protein|mol2

> <Gold.PLP.Fitness>
40.2308

> <Gold.PLP.PLP>
-39.0619

> <Gold.PLP.part.hbond>
-1.7353

> <Gold.PLP.part.metal>
0.0000

> <Gold.PLP.part.buried>
-2.0034

> <Gold.PLP.part.nonpolar>
-33.6774

> <Gold.PLP.part.repulsive>
0.2360

> <Gold.PLP.ligand.clash>
0.0000

> <Gold.PLP.ligand.torsion>
0.9204

> <Gold.PLP.Chemscore.Hbond>
1.0000

> <Gold.PLP.Chemscore.CHOScore>
0.0000

> <Gold.PLP.Chemscore.Metal>
0.0000

> <Gold.Chemscore.Hbonds>
donor molecule, donor type, donor heavy atom, donor atom, acceptor molecule, acceptor atom, score
      P1  H  7997  8009       L1    15  1.00

> <Gold.PLP.Chemscore.Internal.Correction>
0.0097

> <Gold.Rescore>
     Score         DG    S(hbond)    S(metal)    S(lipo)     H(rot)  DE(clash)    DE(int)     intcor
     14.89     -16.17       0.96        0.00      90.73       1.22       0.22       1.06       ----

> <Gold.Chemscore.Fitness>
14.8875

> <Gold.Chemscore.DG>
-16.1711

> <Gold.Chemscore.ZeroCoef>
-5.4800

> <Gold.Chemscore.Hbond>
0.9564

> <Gold.Chemscore.Metal>
0.0000

> <Gold.Chemscore.Lipo>
90.7267

> <Gold.Chemscore.Internal_Hbond>
0.0000

> <Gold.Chemscore.DEClash>
0.2208

> <Gold.Chemscore.DEInternal>
1.0628

> <Gold.Chemscore.Rot>
1.2181

> <Gold.Chemscore.Internal.Correction>
   9.000000E+99

> <Gold.Chemscore.Hbonds>
donor molecule, donor type, donor heavy atom, donor atom, acceptor molecule, acceptor atom, score
      P1  H  7997  8009       L1    15  0.92

> <Gold.Chemscore.Hbond.Weighted>
-3.1943

> <Gold.Chemscore.Metal.Weighted>
-0.0000

> <Gold.Chemscore.Lipo.Weighted>
-10.6150

> <Gold.Chemscore.Internal_Hbond.Weighted>
0.0000

> <Gold.Chemscore.DEClash.Weighted>
0.2208

> <Gold.Chemscore.DEInternal.Weighted>
1.0628

> <Gold.Chemscore.Rot.Weighted>
3.1182

> <Gold.Chemscore.Internal.Correction.Weighted>
   9.000000E+99

> <Gold.Protein.RotatedTorsions>
[ 6907 6896 6895 6894 ] final  -50.93 input  -60.11 | X-H torsion
[ 7974 7965 7964 7962 ] final  136.00 input  175.53 | X-H torsion
[ 8008 7997 7996 7995 ] final  125.39 input   59.86 | X-H torsion
[ 10167 10162 10161 10158 ] final -110.85 input  -65.29 | X-H torsion
[ 10718 10713 10712 10709 ] final   20.22 input   66.30 | X-H torsion
[ 10763 10752 10751 10750 ] final  -38.34 input  -60.55 | X-H torsion
[ 11005 11000 10999 10996 ] final   71.34 input  -57.11 | X-H torsion

> <Gold.Protein.ActiveResidues>
 VAL166  LYS551  ARG553  GLY616  TRP617  ASP618  TYR619  PRO620  LYS621  CYS622 
 ASP623  PHE694  ASN695  SER759  ASP760  ASP761  ALA762  ILE779  LEU786  VAL792 
 PHE793  MET794  SER795  GLU796  ALA797  LYS798  CYS799  TRP800  GLU811  SER814 

> <Gold.Protein.RotatedAtoms>
  150.8660  134.8023  159.7118 H   0  0  0  0  0  0  0  0  0  0  0  0  # atno 6907 bound_to 6896
  152.4681  134.5023  159.9738 H   0  0  0  0  0  0  0  0  0  0  0  0  # atno 6908 bound_to 6896
  151.5120  133.3445  159.2922 H   0  0  0  0  0  0  0  0  0  0  0  0  # atno 6909 bound_to 6896
  144.9607  139.4713  143.5481 H   0  0  0  0  0  0  0  0  0  0  0  0  # atno 7974 bound_to 7965
  156.2832  140.2717  156.1942 H   0  0  0  0  0  0  0  0  0  0  0  0  # atno 8008 bound_to 7997
  155.0427  140.0386  157.2533 H   0  0  0  0  0  0  0  0  0  0  0  0  # atno 8009 bound_to 7997
  154.7261  140.2697  155.6503 H   0  0  0  0  0  0  0  0  0  0  0  0  # atno 8010 bound_to 7997
  140.1400  143.4287  152.1568 H   0  0  0  0  0  0  0  0  0  0  0  0  # atno 10167 bound_to 10162
  157.1214  130.6551  149.5925 H   0  0  0  0  0  0  0  0  0  0  0  0  # atno 10718 bound_to 10713
  153.9112  135.6792  153.4751 H   0  0  0  0  0  0  0  0  0  0  0  0  # atno 10763 bound_to 10752
  153.1077  135.4797  154.8978 H   0  0  0  0  0  0  0  0  0  0  0  0  # atno 10764 bound_to 10752
  154.7526  135.3189  154.8485 H   0  0  0  0  0  0  0  0  0  0  0  0  # atno 10765 bound_to 10752
  139.9549  134.7162  156.0777 H   0  0  0  0  0  0  0  0  0  0  0  0  # atno 11005 bound_to 11000
  146.3352  139.8755  142.8833 LP  0  0  0  0  0  0  0  0  0  0  0  0  # atno 17320 bound_to 7965
  145.2704  141.0106  143.3775 LP  0  0  0  0  0  0  0  0  0  0  0  0  # atno 17321 bound_to 7965
  139.5476  144.7312  151.4533 LP  0  0  0  0  0  0  0  0  0  0  0  0  # atno 17342 bound_to 10162
  140.6766  143.8176  150.7066 LP  0  0  0  0  0  0  0  0  0  0  0  0  # atno 17343 bound_to 10162
  155.9828  130.4843  150.6898 LP  0  0  0  0  0  0  0  0  0  0  0  0  # atno 17370 bound_to 10713
  157.4473  131.0868  151.0882 LP  0  0  0  0  0  0  0  0  0  0  0  0  # atno 17371 bound_to 10713
  141.1218  133.6610  156.3235 LP  0  0  0  0  0  0  0  0  0  0  0  0  # atno 17394 bound_to 11000
  140.5633  134.5913  157.5439 LP  0  0  0  0  0  0  0  0  0  0  0  0  # atno 17395 bound_to 11000

$$$$
