AV-unprocessed.smi:2855|AV-procd|sdf|10987|dock2
  -GOLD-   2272015443D 1   1.00000     0.00000
 Structure written by MMmdl.
 46 47  0  0  0  0  0  0  0  0  2 V2000
  152.3060  143.9239  160.8888 C   0  0  0  0  0  0  0  0  0  0  0  0
  153.0894  143.3869  159.6776 C   0  0  2  0  0  0  0  0  0  0  0  0
  152.6839  144.0687  158.3578 C   0  0  0  0  0  0  0  0  0  0  0  0
  151.3052  143.6083  157.8554 C   0  0  0  0  0  0  0  0  0  0  0  0
  151.2296  142.0709  157.6995 C   0  0  2  0  0  0  0  0  0  0  0  0
  149.8776  141.5753  157.1021 C   0  0  0  0  0  0  0  0  0  0  0  0
  149.8428  141.6665  155.5670 C   0  0  0  0  0  0  0  0  0  0  0  0
  148.6341  142.2450  157.7157 C   0  0  0  0  0  0  0  0  0  0  0  0
  151.6142  141.3838  159.0386 C   0  0  1  0  0  0  0  0  0  0  0  0
  151.6328  139.9305  158.8870 N   0  0  0  0  0  0  0  0  0  0  0  0
  152.2067  139.2544  157.8804 C   0  0  0  0  0  0  0  0  0  0  0  0
  152.7352  139.7963  156.9091 O   0  0  0  0  0  0  0  0  0  0  0  0
  152.1609  137.7253  157.9819 C   0  0  0  0  0  0  0  0  0  0  0  0
  153.1636  137.2029  158.9229 N   0  0  0  0  0  0  0  0  0  0  0  0
  153.0627  137.5889  160.2710 C   0  0  0  0  0  0  0  0  0  0  0  0
  153.9331  137.1531  161.2016 C   0  0  0  0  0  0  0  0  0  0  0  0
  155.0026  136.2566  160.7806 C   0  0  0  0  0  0  0  0  0  0  0  0
  155.8091  135.8524  161.6159 O   0  0  0  0  0  0  0  0  0  0  0  0
  155.0554  135.9069  159.4621 N   0  5  0  0  0  0  0  0  0  0  0  0
  154.1625  136.3568  158.5269 C   0  0  0  0  0  0  0  0  0  0  0  0
  154.2279  136.0279  157.3416 O   0  0  0  0  0  0  0  0  0  0  0  0
  152.9943  141.8553  159.5405 C   0  0  0  0  0  0  0  0  0  0  0  0
  151.2364  143.7331  160.8058 H   0  0  0  0  0  0  0  0  0  0  0  0
  152.4405  145.0008  160.9937 H   0  0  0  0  0  0  0  0  0  0  0  0
  152.6516  143.4603  161.8131 H   0  0  0  0  0  0  0  0  0  0  0  0
  154.1367  143.6310  159.8604 H   0  0  0  0  0  0  0  0  0  0  0  0
  152.6948  145.1528  158.4755 H   0  0  0  0  0  0  0  0  0  0  0  0
  153.4301  143.8414  157.5953 H   0  0  0  0  0  0  0  0  0  0  0  0
  150.5347  143.9568  158.5429 H   0  0  0  0  0  0  0  0  0  0  0  0
  151.1064  144.0987  156.9033 H   0  0  0  0  0  0  0  0  0  0  0  0
  152.0003  141.7934  156.9781 H   0  0  0  0  0  0  0  0  0  0  0  0
  149.7932  140.5109  157.3222 H   0  0  0  0  0  0  0  0  0  0  0  0
  149.8085  142.6991  155.2203 H   0  0  0  0  0  0  0  0  0  0  0  0
  148.9612  141.1626  155.1697 H   0  0  0  0  0  0  0  0  0  0  0  0
  150.7170  141.1905  155.1223 H   0  0  0  0  0  0  0  0  0  0  0  0
  148.6124  143.3171  157.5224 H   0  0  0  0  0  0  0  0  0  0  0  0
  148.5836  142.0945  158.7936 H   0  0  0  0  0  0  0  0  0  0  0  0
  147.7217  141.8208  157.2955 H   0  0  0  0  0  0  0  0  0  0  0  0
  150.8736  141.6632  159.7882 H   0  0  0  0  0  0  0  0  0  0  0  0
  151.2221  139.3927  159.6362 H   0  0  0  0  0  0  0  0  0  0  0  0
  151.1631  137.3936  158.2761 H   0  0  0  0  0  0  0  0  0  0  0  0
  152.3173  137.3136  156.9842 H   0  0  0  0  0  0  0  0  0  0  0  0
  152.2391  138.2487  160.5009 H   0  0  0  0  0  0  0  0  0  0  0  0
  153.8400  137.4569  162.2338 H   0  0  0  0  0  0  0  0  0  0  0  0
  153.7625  141.5172  158.8431 H   0  0  0  0  0  0  0  0  0  0  0  0
  153.2277  141.3830  160.4957 H   0  0  0  0  0  0  0  0  0  0  0  0
  1  2  1  0  0  0  0
  1 23  1  0  0  0  0
  1 24  1  0  0  0  0
  1 25  1  0  0  0  0
  2 22  1  0  0  0  0
  2  3  1  0  0  0  0
  2 26  1  0  0  0  0
  3  4  1  0  0  0  0
  3 27  1  0  0  0  0
  3 28  1  0  0  0  0
  4  5  1  0  0  0  0
  4 29  1  0  0  0  0
  4 30  1  0  0  0  0
  5  6  1  0  0  0  0
  5  9  1  0  0  0  0
  5 31  1  0  0  0  0
  6  7  1  0  0  0  0
  6  8  1  0  0  0  0
  6 32  1  0  0  0  0
  7 33  1  0  0  0  0
  7 34  1  0  0  0  0
  7 35  1  0  0  0  0
  8 36  1  0  0  0  0
  8 37  1  0  0  0  0
  8 38  1  0  0  0  0
  9 10  1  0  0  0  0
  9 22  1  0  0  0  0
  9 39  1  0  0  0  0
 10 11  1  0  0  0  0
 10 40  1  0  0  0  0
 11 12  2  0  0  0  0
 11 13  1  0  0  0  0
 13 14  1  0  0  0  0
 13 41  1  0  0  0  0
 13 42  1  0  0  0  0
 14 20  1  0  0  0  0
 14 15  1  0  0  0  0
 15 16  2  0  0  0  0
 15 43  1  0  0  0  0
 16 17  1  0  0  0  0
 16 44  1  0  0  0  0
 17 18  2  0  0  0  0
 17 19  1  0  0  0  0
 19 20  1  0  0  0  0
 20 21  2  0  0  0  0
 22 45  1  0  0  0  0
 22 46  1  0  0  0  0
M  CHG  1  19  -1
M  END
> <s_m_source_file>
AV-unprocessed.smi

> <i_m_source_file_index>
2855

> <i_lp_mmshare_version>
43012

> <i_f3d_flags>
0

> <s_epik_input>
W0NIM11bQ0BASF0xW0NIMl1bQ0gyXVtDQEBIXShbQ0hdKFtDSDNdKVtDSDNdKVtDQEhdKFtDSDJdMSlbTkhdQyg9TylbQ0gyXW4yW2NIXVtjSF1jKD1PKVtuSF1jMj1P

> <s_epik_cmdline>
J2VwaWtfcHl0aG9uJywgJy1waCcsICc3LjAnLCAnLXRuJywgJzgnLCAnLW1hJywgJzIwMCcsICctbWV0YWxfYmluZGluZycsICctaW1hZScsICc8aW5maWxlLm1hZT4nLCAnLW9tYWUnLCAnPG91dGZpbGUubWFlPic=

> <r_lp_tautomer_probability>
0.999537

> <r_epik_Ionization_Penalty>
3.12102

> <r_epik_Ionization_Penalty_Charging>
2.9581e-08

> <r_epik_Ionization_Penalty_Neutral>
3.12102

> <r_epik_State_Penalty>
3.12011

> <r_epik_Charging_Adjusted_Penalty>
3.12011

> <i_epik_Tot_Q>
-1

> <i_epik_Tot_abs_Q>
1

> <r_epik_Metal_State_Penalty>
0.463583

> <b_epik_Metal_Only>
1

> <s_lp_Force_Field>
OPLS_2005

> <r_lp_Energy>
25.3875

> <b_lp_Chiralities_Consistent>
1

> <s_lp_Variant>
AV-unprocessed.smi:2855-11

> <Gold.Version>
5.8.1

> <Gold.Id.Protein>
6NUR|6NUR_protein|mol2

> <Gold.PLP.Fitness>
43.0416

> <Gold.PLP.PLP>
-38.7848

> <Gold.PLP.part.hbond>
-2.0000

> <Gold.PLP.part.metal>
0.0000

> <Gold.PLP.part.buried>
-3.5299

> <Gold.PLP.part.nonpolar>
-32.7373

> <Gold.PLP.part.repulsive>
0.1565

> <Gold.PLP.ligand.clash>
0.0000

> <Gold.PLP.ligand.torsion>
0.8962

> <Gold.PLP.Chemscore.Hbond>
1.9913

> <Gold.PLP.Chemscore.CHOScore>
0.0000

> <Gold.PLP.Chemscore.Metal>
0.0000

> <Gold.Chemscore.Hbonds>
donor molecule, donor type, donor heavy atom, donor atom, acceptor molecule, acceptor atom, score
      P1  H  7997  8009       L1    12  1.00
      P1  H 10752 10764       L1    21  0.89

> <Gold.PLP.Chemscore.Internal.Correction>
0.0755

> <Gold.Rescore>
     Score         DG    S(hbond)    S(metal)    S(lipo)     H(rot)  DE(clash)    DE(int)     intcor
     17.65     -19.89       1.97        0.00     106.44       1.81       0.04       2.20       ----

> <Gold.Chemscore.Fitness>
17.6476

> <Gold.Chemscore.DG>
-19.8910

> <Gold.Chemscore.ZeroCoef>
-5.4800

> <Gold.Chemscore.Hbond>
1.9733

> <Gold.Chemscore.Metal>
0.0000

> <Gold.Chemscore.Lipo>
106.4430

> <Gold.Chemscore.Internal_Hbond>
0.0000

> <Gold.Chemscore.DEClash>
0.0435

> <Gold.Chemscore.DEInternal>
2.1999

> <Gold.Chemscore.Rot>
1.8100

> <Gold.Chemscore.Internal.Correction>
   9.000000E+99

> <Gold.Chemscore.Hbonds>
donor molecule, donor type, donor heavy atom, donor atom, acceptor molecule, acceptor atom, score
      P1  H  7997  8009       L1    12  0.99
      P1  H 10752 10764       L1    21  0.86

> <Gold.Chemscore.Hbond.Weighted>
-6.5907

> <Gold.Chemscore.Metal.Weighted>
-0.0000

> <Gold.Chemscore.Lipo.Weighted>
-12.4538

> <Gold.Chemscore.Internal_Hbond.Weighted>
0.0000

> <Gold.Chemscore.DEClash.Weighted>
0.0435

> <Gold.Chemscore.DEInternal.Weighted>
2.1999

> <Gold.Chemscore.Rot.Weighted>
4.6335

> <Gold.Chemscore.Internal.Correction.Weighted>
   9.000000E+99

> <Gold.Protein.RotatedTorsions>
[ 6907 6896 6895 6894 ] final  177.33 input  -60.11 | X-H torsion
[ 7974 7965 7964 7962 ] final  155.89 input  175.53 | X-H torsion
[ 8008 7997 7996 7995 ] final  173.23 input   59.86 | X-H torsion
[ 10167 10162 10161 10158 ] final  141.46 input  -65.29 | X-H torsion
[ 10718 10713 10712 10709 ] final  155.00 input   66.30 | X-H torsion
[ 10763 10752 10751 10750 ] final   26.83 input  -60.55 | X-H torsion
[ 11005 11000 10999 10996 ] final    4.07 input  -57.11 | X-H torsion

> <Gold.Protein.ActiveResidues>
 VAL166  LYS551  ARG553  GLY616  TRP617  ASP618  TYR619  PRO620  LYS621  CYS622 
 ASP623  PHE694  ASN695  SER759  ASP760  ASP761  ALA762  ILE779  LEU786  VAL792 
 PHE793  MET794  SER795  GLU796  ALA797  LYS798  CYS799  TRP800  GLU811  SER814 

> <Gold.Protein.RotatedAtoms>
  151.7057  133.3311  159.3277 H   0  0  0  0  0  0  0  0  0  0  0  0  # atno 6907 bound_to 6896
  150.7716  134.6577  159.6332 H   0  0  0  0  0  0  0  0  0  0  0  0  # atno 6908 bound_to 6896
  152.3742  134.6690  160.0217 H   0  0  0  0  0  0  0  0  0  0  0  0  # atno 6909 bound_to 6896
  144.7996  139.7130  143.6187 H   0  0  0  0  0  0  0  0  0  0  0  0  # atno 7974 bound_to 7965
  156.1096  140.1465  156.9356 H   0  0  0  0  0  0  0  0  0  0  0  0  # atno 8008 bound_to 7997
  154.4758  140.0895  156.7301 H   0  0  0  0  0  0  0  0  0  0  0  0  # atno 8009 bound_to 7997
  155.4619  140.3438  155.4316 H   0  0  0  0  0  0  0  0  0  0  0  0  # atno 8010 bound_to 7997
  139.5020  144.6170  151.6141 H   0  0  0  0  0  0  0  0  0  0  0  0  # atno 10167 bound_to 10162
  157.2242  131.0725  151.1893 H   0  0  0  0  0  0  0  0  0  0  0  0  # atno 10718 bound_to 10713
  153.0596  135.6551  154.0495 H   0  0  0  0  0  0  0  0  0  0  0  0  # atno 10763 bound_to 10752
  154.0165  135.2923  155.3387 H   0  0  0  0  0  0  0  0  0  0  0  0  # atno 10764 bound_to 10752
  154.6928  135.5276  153.8484 H   0  0  0  0  0  0  0  0  0  0  0  0  # atno 10765 bound_to 10752
  140.5860  133.9968  155.8068 H   0  0  0  0  0  0  0  0  0  0  0  0  # atno 11005 bound_to 11000
  146.2274  139.5749  142.9578 LP  0  0  0  0  0  0  0  0  0  0  0  0  # atno 17320 bound_to 7965
  145.5585  141.0406  143.2239 LP  0  0  0  0  0  0  0  0  0  0  0  0  # atno 17321 bound_to 7965
  140.5860  143.9862  150.6296 LP  0  0  0  0  0  0  0  0  0  0  0  0  # atno 17342 bound_to 10162
  140.3027  143.3250  152.0956 LP  0  0  0  0  0  0  0  0  0  0  0  0  # atno 17343 bound_to 10162
  157.3544  130.7099  149.6461 LP  0  0  0  0  0  0  0  0  0  0  0  0  # atno 17370 bound_to 10713
  155.9680  130.4243  150.4602 LP  0  0  0  0  0  0  0  0  0  0  0  0  # atno 17371 bound_to 10713
  141.0965  133.9835  157.3151 LP  0  0  0  0  0  0  0  0  0  0  0  0  # atno 17394 bound_to 11000
  139.9295  135.0200  156.8352 LP  0  0  0  0  0  0  0  0  0  0  0  0  # atno 17395 bound_to 11000

$$$$
