AV-unprocessed.smi:1570|AV-procd|sdf|6321|dock7
  -GOLD-   22720 6533D 1   1.00000     0.00000
 Structure written by MMmdl.
 52 54  0  0  0  0  0  0  0  0  2 V2000
  153.3996  137.4223  162.2653 C   0  0  0  0  0  0  0  0  0  0  0  0
  154.1364  138.3459  161.2867 C   0  0  0  0  0  0  0  0  0  0  0  0
  153.3288  138.6073  160.0979 N   0  0  0  0  0  0  0  0  0  0  0  0
  152.8109  137.6832  159.2558 C   0  0  0  0  0  0  0  0  0  0  0  0
  152.9498  136.4630  159.3435 O   0  0  0  0  0  0  0  0  0  0  0  0
  152.0942  138.3317  158.3073 N   0  0  0  0  0  0  0  0  0  0  0  0
  151.3604  137.7138  157.2037 C   0  0  0  0  0  0  0  0  0  0  0  0
  151.5187  138.5111  155.8930 C   0  0  1  0  0  0  0  0  0  0  0  0
  152.8858  138.8379  155.7357 O   0  0  0  0  0  0  0  0  0  0  0  0
  151.0918  137.6821  154.6652 C   0  0  0  0  0  0  0  0  0  0  0  0
  149.6516  137.8526  154.3480 N   0  3  1  0  0  0  0  0  0  0  0  0
  148.7644  137.3179  155.4072 C   0  0  0  0  0  0  0  0  0  0  0  0
  147.2816  137.4439  155.0045 C   0  0  2  0  0  0  0  0  0  0  0  0
  146.8506  136.4342  153.9257 C   0  0  0  0  0  0  0  0  0  0  0  0
  146.9829  138.7903  154.6348 O   0  0  0  0  0  0  0  0  0  0  0  0
  147.8020  139.3247  153.5976 C   0  0  1  0  0  0  0  0  0  0  0  0
  147.3526  140.7667  153.3361 C   0  0  0  0  0  0  0  0  0  0  0  0
  149.2786  139.2505  154.0237 C   0  0  0  0  0  0  0  0  0  0  0  0
  152.1441  139.7110  158.5576 C   0  0  0  0  0  0  0  0  0  0  0  0
  151.5591  140.7981  157.8844 C   0  0  0  0  0  0  0  0  0  0  0  0
  151.8021  142.0898  158.4078 C   0  0  0  0  0  0  0  0  0  0  0  0
  152.6029  142.2666  159.5658 C   0  0  0  0  0  0  0  0  0  0  0  0
  153.1769  141.1553  160.2262 C   0  0  0  0  0  0  0  0  0  0  0  0
  152.9214  139.8836  159.6844 C   0  0  0  0  0  0  0  0  0  0  0  0
  154.0079  137.2295  163.1492 H   0  0  0  0  0  0  0  0  0  0  0  0
  153.1696  136.4614  161.8043 H   0  0  0  0  0  0  0  0  0  0  0  0
  152.4618  137.8678  162.5987 H   0  0  0  0  0  0  0  0  0  0  0  0
  154.3839  139.2886  161.7756 H   0  0  0  0  0  0  0  0  0  0  0  0
  155.0878  137.8962  160.9985 H   0  0  0  0  0  0  0  0  0  0  0  0
  151.6467  136.6702  157.0697 H   0  0  0  0  0  0  0  0  0  0  0  0
  150.3083  137.6913  157.4930 H   0  0  0  0  0  0  0  0  0  0  0  0
  150.9375  139.4310  155.9434 H   0  0  0  0  0  0  0  0  0  0  0  0
  153.2658  138.2543  155.0963 H   0  0  0  0  0  0  0  0  0  0  0  0
  151.7038  137.9785  153.8115 H   0  0  0  0  0  0  0  0  0  0  0  0
  151.2937  136.6218  154.8260 H   0  0  0  0  0  0  0  0  0  0  0  0
  149.0058  136.2735  155.6103 H   0  0  0  0  0  0  0  0  0  0  0  0
  148.9432  137.8691  156.3319 H   0  0  0  0  0  0  0  0  0  0  0  0
  146.6795  137.2341  155.8892 H   0  0  0  0  0  0  0  0  0  0  0  0
  146.9616  135.4118  154.2879 H   0  0  0  0  0  0  0  0  0  0  0  0
  147.4434  136.5205  153.0154 H   0  0  0  0  0  0  0  0  0  0  0  0
  145.8033  136.5755  153.6581 H   0  0  0  0  0  0  0  0  0  0  0  0
  147.6556  138.7539  152.6802 H   0  0  0  0  0  0  0  0  0  0  0  0
  147.9399  141.2230  152.5388 H   0  0  0  0  0  0  0  0  0  0  0  0
  147.4636  141.3834  154.2285 H   0  0  0  0  0  0  0  0  0  0  0  0
  146.3046  140.7999  153.0371 H   0  0  0  0  0  0  0  0  0  0  0  0
  149.4520  139.8854  154.8946 H   0  0  0  0  0  0  0  0  0  0  0  0
  149.9059  139.6371  153.2211 H   0  0  0  0  0  0  0  0  0  0  0  0
  150.9464  140.6610  157.0060 H   0  0  0  0  0  0  0  0  0  0  0  0
  151.3712  142.9522  157.9210 H   0  0  0  0  0  0  0  0  0  0  0  0
  152.7745  143.2617  159.9491 H   0  0  0  0  0  0  0  0  0  0  0  0
  153.7838  141.2834  161.1103 H   0  0  0  0  0  0  0  0  0  0  0  0
  149.4754  137.2964  153.5229 H   0  0  0  0  0  0  0  0  0  0  0  0
  1  2  1  0  0  0  0
  1 25  1  0  0  0  0
  1 26  1  0  0  0  0
  1 27  1  0  0  0  0
  2  3  1  0  0  0  0
  2 28  1  0  0  0  0
  2 29  1  0  0  0  0
  3 24  1  0  0  0  0
  3  4  1  0  0  0  0
  4  5  2  0  0  0  0
  4  6  1  0  0  0  0
  6  7  1  0  0  0  0
  6 19  1  0  0  0  0
  7  8  1  0  0  0  0
  7 30  1  0  0  0  0
  7 31  1  0  0  0  0
  8  9  1  0  0  0  0
  8 10  1  0  0  0  0
  8 32  1  0  0  0  0
  9 33  1  0  0  0  0
 10 11  1  0  0  0  0
 10 34  1  0  0  0  0
 10 35  1  0  0  0  0
 11 18  1  0  0  0  0
 11 12  1  0  0  0  0
 11 52  1  0  0  0  0
 12 13  1  0  0  0  0
 12 36  1  0  0  0  0
 12 37  1  0  0  0  0
 13 14  1  0  0  0  0
 13 15  1  0  0  0  0
 13 38  1  0  0  0  0
 14 39  1  0  0  0  0
 14 40  1  0  0  0  0
 14 41  1  0  0  0  0
 15 16  1  0  0  0  0
 16 17  1  0  0  0  0
 16 18  1  0  0  0  0
 16 42  1  0  0  0  0
 17 43  1  0  0  0  0
 17 44  1  0  0  0  0
 17 45  1  0  0  0  0
 18 46  1  0  0  0  0
 18 47  1  0  0  0  0
 19 24  2  0  0  0  0
 19 20  1  0  0  0  0
 20 21  2  0  0  0  0
 20 48  1  0  0  0  0
 21 22  1  0  0  0  0
 21 49  1  0  0  0  0
 22 23  2  0  0  0  0
 22 50  1  0  0  0  0
 23 24  1  0  0  0  0
 23 51  1  0  0  0  0
M  CHG  1  11   1
M  END
> <s_m_source_file>
AV-unprocessed.smi

> <i_m_source_file_index>
1570

> <i_lp_mmshare_version>
43012

> <i_f3d_flags>
0

> <s_epik_input>
W2NIXTFbY0hdW2NIXVtjSF1jKGMxMiluKFtDSDJdW0NIM10pYyg9TyluMltDSDJdW0NASF0oW09IXSlbQ0gyXU4zW0NIMl1bQ0BASF0oW0NIM10pT1tDQEBIXShbQ0gzXSlbQ0gyXTM=

> <s_epik_cmdline>
J2VwaWtfcHl0aG9uJywgJy1waCcsICc3LjAnLCAnLXRuJywgJzgnLCAnLW1hJywgJzIwMCcsICctbWV0YWxfYmluZGluZycsICctaW1hZScsICc8aW5maWxlLm1hZT4nLCAnLW9tYWUnLCAnPG91dGZpbGUubWFlPic=

> <r_epik_Ionization_Penalty>
0.706332

> <r_epik_Ionization_Penalty_Charging>
0.706318

> <r_epik_Ionization_Penalty_Neutral>
1.42224e-05

> <r_epik_State_Penalty>
0.729493

> <r_epik_Charging_Adjusted_Penalty>
1.43581

> <i_epik_Tot_Q>
1

> <i_epik_Tot_abs_Q>
1

> <r_epik_Metal_State_Penalty>
0.729493

> <b_epik_Metal_Only>
0

> <s_lp_Force_Field>
OPLS_2005

> <r_lp_Energy>
54.8336

> <b_lp_Chiralities_Consistent>
1

> <s_lp_Variant>
AV-unprocessed.smi:1570-10

> <Gold.Version>
5.8.1

> <Gold.Id.Protein>
6NUR|6NUR_protein|mol2

> <Gold.PLP.Fitness>
47.2400

> <Gold.PLP.PLP>
-36.6220

> <Gold.PLP.part.hbond>
-2.9755

> <Gold.PLP.part.metal>
0.0000

> <Gold.PLP.part.buried>
-3.6062

> <Gold.PLP.part.nonpolar>
-30.2486

> <Gold.PLP.part.repulsive>
0.0903

> <Gold.PLP.ligand.clash>
0.0000

> <Gold.PLP.ligand.torsion>
0.7479

> <Gold.PLP.Chemscore.Hbond>
4.0000

> <Gold.PLP.Chemscore.CHOScore>
0.0000

> <Gold.PLP.Chemscore.Metal>
0.0000

> <Gold.Chemscore.Hbonds>
donor molecule, donor type, donor heavy atom, donor atom, acceptor molecule, acceptor atom, score
      L1  H    11    52       P1  7948  2.00
      P1  H  6896  6909       L1     5  1.00
      P1  H  7997  8009       L1     9  1.00

> <Gold.PLP.Chemscore.Internal.Correction>
0.1139

> <Gold.Rescore>
     Score         DG    S(hbond)    S(metal)    S(lipo)     H(rot)  DE(clash)    DE(int)     intcor
     19.57     -20.17       2.53        0.00      99.93       2.13       0.02       0.58       ----

> <Gold.Chemscore.Fitness>
19.5696

> <Gold.Chemscore.DG>
-20.1721

> <Gold.Chemscore.ZeroCoef>
-5.4800

> <Gold.Chemscore.Hbond>
2.5309

> <Gold.Chemscore.Metal>
0.0000

> <Gold.Chemscore.Lipo>
99.9346

> <Gold.Chemscore.Internal_Hbond>
0.0000

> <Gold.Chemscore.DEClash>
0.0208

> <Gold.Chemscore.DEInternal>
0.5817

> <Gold.Chemscore.Rot>
2.1303

> <Gold.Chemscore.Internal.Correction>
   9.000000E+99

> <Gold.Chemscore.Hbonds>
donor molecule, donor type, donor heavy atom, donor atom, acceptor molecule, acceptor atom, score
      L1  H    11    52       P1  7948  0.88
      P1  H  6896  6909       L1     5  0.96
      P1  H  7997  8009       L1     9  0.52

> <Gold.Chemscore.Hbond.Weighted>
-8.4533

> <Gold.Chemscore.Metal.Weighted>
-0.0000

> <Gold.Chemscore.Lipo.Weighted>
-11.6924

> <Gold.Chemscore.Internal_Hbond.Weighted>
0.0000

> <Gold.Chemscore.DEClash.Weighted>
0.0208

> <Gold.Chemscore.DEInternal.Weighted>
0.5817

> <Gold.Chemscore.Rot.Weighted>
5.4535

> <Gold.Chemscore.Internal.Correction.Weighted>
   9.000000E+99

> <Gold.Protein.RotatedTorsions>
[ 6907 6896 6895 6894 ] final  152.96 input  -60.11 | X-H torsion
[ 7974 7965 7964 7962 ] final  -89.06 input  175.53 | X-H torsion
[ 8008 7997 7996 7995 ] final -160.33 input   59.86 | X-H torsion
[ 10167 10162 10161 10158 ] final  109.53 input  -65.29 | X-H torsion
[ 10718 10713 10712 10709 ] final   12.66 input   66.30 | X-H torsion
[ 10763 10752 10751 10750 ] final   -0.52 input  -60.55 | X-H torsion
[ 11005 11000 10999 10996 ] final -106.58 input  -57.11 | X-H torsion

> <Gold.Protein.ActiveResidues>
 VAL166  LYS551  ARG553  GLY616  TRP617  ASP618  TYR619  PRO620  LYS621  CYS622 
 ASP623  PHE694  ASN695  SER759  ASP760  ASP761  ALA762  ILE779  LEU786  VAL792 
 PHE793  MET794  SER795  GLU796  ALA797  LYS798  CYS799  TRP800  GLU811  SER814 

> <Gold.Protein.RotatedAtoms>
  152.0795  133.4145  159.4494 H   0  0  0  0  0  0  0  0  0  0  0  0  # atno 6907 bound_to 6896
  150.6862  134.2999  159.4711 H   0  0  0  0  0  0  0  0  0  0  0  0  # atno 6908 bound_to 6896
  152.0839  134.9452  160.0623 H   0  0  0  0  0  0  0  0  0  0  0  0  # atno 6909 bound_to 6896
  145.4448  140.9560  143.2055 H   0  0  0  0  0  0  0  0  0  0  0  0  # atno 7974 bound_to 7965
  155.7758  140.0858  157.2084 H   0  0  0  0  0  0  0  0  0  0  0  0  # atno 8008 bound_to 7997
  154.3993  140.1517  156.3052 H   0  0  0  0  0  0  0  0  0  0  0  0  # atno 8009 bound_to 7997
  155.8702  140.3426  155.5818 H   0  0  0  0  0  0  0  0  0  0  0  0  # atno 8010 bound_to 7997
  139.6759  144.7122  151.1602 H   0  0  0  0  0  0  0  0  0  0  0  0  # atno 10167 bound_to 10162
  157.0133  130.6126  149.5711 H   0  0  0  0  0  0  0  0  0  0  0  0  # atno 10718 bound_to 10713
  153.3330  135.6976  153.6931 H   0  0  0  0  0  0  0  0  0  0  0  0  # atno 10763 bound_to 10752
  153.5726  135.3513  155.2844 H   0  0  0  0  0  0  0  0  0  0  0  0  # atno 10764 bound_to 10752
  154.8622  135.4276  154.2524 H   0  0  0  0  0  0  0  0  0  0  0  0  # atno 10765 bound_to 10752
  141.0997  133.8906  157.1873 H   0  0  0  0  0  0  0  0  0  0  0  0  # atno 11005 bound_to 11000
  144.8098  139.5983  143.7034 LP  0  0  0  0  0  0  0  0  0  0  0  0  # atno 17320 bound_to 7965
  146.2536  139.6254  142.9410 LP  0  0  0  0  0  0  0  0  0  0  0  0  # atno 17321 bound_to 7965
  140.7635  143.5772  150.8933 LP  0  0  0  0  0  0  0  0  0  0  0  0  # atno 17342 bound_to 10162
  139.9441  143.6348  152.3046 LP  0  0  0  0  0  0  0  0  0  0  0  0  # atno 17343 bound_to 10162
  156.0128  130.5221  150.8042 LP  0  0  0  0  0  0  0  0  0  0  0  0  # atno 17370 bound_to 10713
  157.5304  131.0936  150.9962 LP  0  0  0  0  0  0  0  0  0  0  0  0  # atno 17371 bound_to 10713
  139.9845  135.0087  156.9830 LP  0  0  0  0  0  0  0  0  0  0  0  0  # atno 17394 bound_to 11000
  140.5051  134.1058  155.7258 LP  0  0  0  0  0  0  0  0  0  0  0  0  # atno 17395 bound_to 11000

$$$$
