AV-unprocessed.smi:2784|AV-procd|sdf|10744|dock4
  -GOLD-   2272015183D 1   1.00000     0.00000
 Structure written by MMmdl.
 30 31  0  0  0  0  0  0  0  0  2 V2000
  152.2675  144.5238  158.0222 C   0  0  0  0  0  0  0  0  0  0  0  0
  152.9545  143.9088  159.0998 O   0  0  0  0  0  0  0  0  0  0  0  0
  152.0973  143.2285  160.0125 C   0  0  2  0  0  0  0  0  0  0  0  0
  152.7626  143.2154  161.3929 C   0  0  0  0  0  0  0  0  0  0  0  0
  153.7497  142.0538  161.3181 C   0  0  0  0  0  0  0  0  0  0  0  0
  153.0374  140.9907  160.4777 C   0  0  0  0  0  0  0  0  0  0  0  0
  151.9859  141.7344  159.6305 C   0  0  2  0  0  0  0  0  0  0  0  0
  152.1825  141.4876  158.2026 N   0  0  0  0  0  0  0  0  0  0  0  0
  152.1342  140.2892  157.6033 C   0  0  0  0  0  0  0  0  0  0  0  0
  151.9081  139.2774  158.2713 O   0  0  0  0  0  0  0  0  0  0  0  0
  152.3467  140.3376  156.2687 N   0  5  0  0  0  0  0  0  0  0  0  0
  151.7377  139.4534  155.4624 C   0  0  0  0  0  0  0  0  0  0  0  0
  150.9654  139.7406  154.4129 N   0  0  0  0  0  0  0  0  0  0  0  0
  150.5577  138.5200  153.8973 C   0  0  0  0  0  0  0  0  0  0  0  0
  151.1033  137.5333  154.6724 C   0  0  0  0  0  0  0  0  0  0  0  0
  151.8466  138.1096  155.6650 O   0  0  0  0  0  0  0  0  0  0  0  0
  152.9814  145.0456  157.3853 H   0  0  0  0  0  0  0  0  0  0  0  0
  151.5348  145.2511  158.3723 H   0  0  0  0  0  0  0  0  0  0  0  0
  151.7564  143.7793  157.4103 H   0  0  0  0  0  0  0  0  0  0  0  0
  151.1085  143.6906  160.0343 H   0  0  0  0  0  0  0  0  0  0  0  0
  153.2435  144.1579  161.6547 H   0  0  0  0  0  0  0  0  0  0  0  0
  152.0124  143.0059  162.1566 H   0  0  0  0  0  0  0  0  0  0  0  0
  154.6554  142.3786  160.8043 H   0  0  0  0  0  0  0  0  0  0  0  0
  154.0407  141.6854  162.3021 H   0  0  0  0  0  0  0  0  0  0  0  0
  153.7497  140.4263  159.8742 H   0  0  0  0  0  0  0  0  0  0  0  0
  152.5370  140.2755  161.1318 H   0  0  0  0  0  0  0  0  0  0  0  0
  151.0011  141.3652  159.9227 H   0  0  0  0  0  0  0  0  0  0  0  0
  152.3623  142.2920  157.6202 H   0  0  0  0  0  0  0  0  0  0  0  0
  149.9186  138.4508  153.0297 H   0  0  0  0  0  0  0  0  0  0  0  0
  151.0650  136.4546  154.6556 H   0  0  0  0  0  0  0  0  0  0  0  0
  1  2  1  0  0  0  0
  1 17  1  0  0  0  0
  1 18  1  0  0  0  0
  1 19  1  0  0  0  0
  2  3  1  0  0  0  0
  3  7  1  0  0  0  0
  3  4  1  0  0  0  0
  3 20  1  0  0  0  0
  4  5  1  0  0  0  0
  4 21  1  0  0  0  0
  4 22  1  0  0  0  0
  5  6  1  0  0  0  0
  5 23  1  0  0  0  0
  5 24  1  0  0  0  0
  6  7  1  0  0  0  0
  6 25  1  0  0  0  0
  6 26  1  0  0  0  0
  7  8  1  0  0  0  0
  7 27  1  0  0  0  0
  8 28  1  0  0  0  0
  8  9  1  0  0  0  0
  9 11  1  0  0  0  0
  9 10  2  0  0  0  0
 11 12  1  0  0  0  0
 12 16  1  0  0  0  0
 12 13  2  0  0  0  0
 13 14  1  0  0  0  0
 14 29  1  0  0  0  0
 14 15  2  0  0  0  0
 15 30  1  0  0  0  0
 15 16  1  0  0  0  0
M  CHG  1  11  -1
M  END
> <s_m_source_file>
AV-unprocessed.smi

> <i_m_source_file_index>
2784

> <i_lp_mmshare_version>
43012

> <i_f3d_flags>
0

> <s_epik_input>
W0NIM11PW0NAQEhdMVtDSDJdW0NIMl1bQ0gyXVtDQEhdMVtOSF1DKD1PKVtOSF1jMm5bY0hdW2NIXW8y

> <s_epik_cmdline>
J2VwaWtfcHl0aG9uJywgJy1waCcsICc3LjAnLCAnLXRuJywgJzgnLCAnLW1hJywgJzIwMCcsICctbWV0YWxfYmluZGluZycsICctaW1hZScsICc8aW5maWxlLm1hZT4nLCAnLW9tYWUnLCAnPG91dGZpbGUubWFlPic=

> <r_lp_tautomer_probability>
0.107061

> <r_epik_Ionization_Penalty>
10.8857

> <r_epik_Ionization_Penalty_Charging>
7.67908

> <r_epik_Ionization_Penalty_Neutral>
3.20665

> <r_epik_State_Penalty>
5.80296

> <r_epik_Charging_Adjusted_Penalty>
13.482

> <i_epik_Tot_Q>
-1

> <i_epik_Tot_abs_Q>
1

> <r_epik_Metal_State_Penalty>
1.73217

> <b_epik_Metal_Only>
1

> <s_lp_Force_Field>
OPLS_2005

> <r_lp_Energy>
16.6082

> <b_lp_Chiralities_Consistent>
1

> <s_lp_Variant>
AV-unprocessed.smi:2784-19

> <Gold.Version>
5.8.1

> <Gold.Id.Protein>
6NUR|6NUR_protein|mol2

> <Gold.PLP.Fitness>
45.7392

> <Gold.PLP.PLP>
-33.0661

> <Gold.PLP.part.hbond>
-2.0000

> <Gold.PLP.part.metal>
0.0000

> <Gold.PLP.part.buried>
-3.6414

> <Gold.PLP.part.nonpolar>
-27.8488

> <Gold.PLP.part.repulsive>
0.2237

> <Gold.PLP.ligand.clash>
0.0000

> <Gold.PLP.ligand.torsion>
1.1004

> <Gold.PLP.Chemscore.Hbond>
3.0000

> <Gold.PLP.Chemscore.CHOScore>
1.9530

> <Gold.PLP.Chemscore.Metal>
0.0000

> <Gold.Chemscore.Hbonds>
donor molecule, donor type, donor heavy atom, donor atom, acceptor molecule, acceptor atom, score
      P1  H  7989  7998       L1    13  1.00
      P1  H  7997  8009       L1    11  1.98
      L1  C    14    29       P1  7948  0.70
      L1  C    14    29       P1  7957  1.00

> <Gold.PLP.Chemscore.Internal.Correction>
0.0148

> <Gold.Rescore>
     Score         DG    S(hbond)    S(metal)    S(lipo)     H(rot)  DE(clash)    DE(int)     intcor
     15.38     -18.01       1.84        0.00      83.19       1.31       0.01       2.61       ----

> <Gold.Chemscore.Fitness>
15.3822

> <Gold.Chemscore.DG>
-18.0085

> <Gold.Chemscore.ZeroCoef>
-5.4800

> <Gold.Chemscore.Hbond>
1.8413

> <Gold.Chemscore.Metal>
0.0000

> <Gold.Chemscore.Lipo>
83.1940

> <Gold.Chemscore.Internal_Hbond>
0.0000

> <Gold.Chemscore.DEClash>
0.0126

> <Gold.Chemscore.DEInternal>
2.6136

> <Gold.Chemscore.Rot>
1.3106

> <Gold.Chemscore.Internal.Correction>
   9.000000E+99

> <Gold.Chemscore.Hbonds>
donor molecule, donor type, donor heavy atom, donor atom, acceptor molecule, acceptor atom, score
      P1  H  7989  7998       L1    13  0.76
      P1  H  7997  8009       L1    11  0.25

> <Gold.Chemscore.Hbond.Weighted>
-6.1498

> <Gold.Chemscore.Metal.Weighted>
-0.0000

> <Gold.Chemscore.Lipo.Weighted>
-9.7337

> <Gold.Chemscore.Internal_Hbond.Weighted>
0.0000

> <Gold.Chemscore.DEClash.Weighted>
0.0126

> <Gold.Chemscore.DEInternal.Weighted>
2.6136

> <Gold.Chemscore.Rot.Weighted>
3.3550

> <Gold.Chemscore.Internal.Correction.Weighted>
   9.000000E+99

> <Gold.Protein.RotatedTorsions>
[ 6907 6896 6895 6894 ] final   40.46 input  -60.11 | X-H torsion
[ 7974 7965 7964 7962 ] final  -41.26 input  175.53 | X-H torsion
[ 8008 7997 7996 7995 ] final -151.78 input   59.86 | X-H torsion
[ 10167 10162 10161 10158 ] final   86.58 input  -65.29 | X-H torsion
[ 10718 10713 10712 10709 ] final   71.63 input   66.30 | X-H torsion
[ 10763 10752 10751 10750 ] final -175.03 input  -60.55 | X-H torsion
[ 11005 11000 10999 10996 ] final   60.91 input  -57.11 | X-H torsion

> <Gold.Protein.ActiveResidues>
 VAL166  LYS551  ARG553  GLY616  TRP617  ASP618  TYR619  PRO620  LYS621  CYS622 
 ASP623  PHE694  ASN695  SER759  ASP760  ASP761  ALA762  ILE779  LEU786  VAL792 
 PHE793  MET794  SER795  GLU796  ALA797  LYS798  CYS799  TRP800  GLU811  SER814 

> <Gold.Protein.RotatedAtoms>
  152.1827  134.8740  160.0524 H   0  0  0  0  0  0  0  0  0  0  0  0  # atno 6907 bound_to 6896
  151.9658  133.3705  159.4060 H   0  0  0  0  0  0  0  0  0  0  0  0  # atno 6908 bound_to 6896
  150.6920  134.4116  159.5208 H   0  0  0  0  0  0  0  0  0  0  0  0  # atno 6909 bound_to 6896
  146.0227  140.6830  142.9170 H   0  0  0  0  0  0  0  0  0  0  0  0  # atno 7974 bound_to 7965
  155.6448  140.0705  157.2607 H   0  0  0  0  0  0  0  0  0  0  0  0  # atno 8008 bound_to 7997
  154.4175  140.1744  156.1661 H   0  0  0  0  0  0  0  0  0  0  0  0  # atno 8009 bound_to 7997
  155.9826  140.3352  155.6680 H   0  0  0  0  0  0  0  0  0  0  0  0  # atno 8010 bound_to 7997
  139.8861  144.6412  150.8790 H   0  0  0  0  0  0  0  0  0  0  0  0  # atno 10167 bound_to 10162
  157.6461  130.9538  150.0816 H   0  0  0  0  0  0  0  0  0  0  0  0  # atno 10718 bound_to 10713
  154.5893  135.2843  155.0652 H   0  0  0  0  0  0  0  0  0  0  0  0  # atno 10763 bound_to 10752
  154.1959  135.6433  153.5077 H   0  0  0  0  0  0  0  0  0  0  0  0  # atno 10764 bound_to 10752
  153.0115  135.5457  154.6573 H   0  0  0  0  0  0  0  0  0  0  0  0  # atno 10765 bound_to 10752
  140.0198  134.6170  155.9656 H   0  0  0  0  0  0  0  0  0  0  0  0  # atno 11005 bound_to 11000
  144.6996  140.3595  143.7166 LP  0  0  0  0  0  0  0  0  0  0  0  0  # atno 17320 bound_to 7965
  145.7167  139.1699  143.2508 LP  0  0  0  0  0  0  0  0  0  0  0  0  # atno 17321 bound_to 7965
  140.7735  143.3547  151.1945 LP  0  0  0  0  0  0  0  0  0  0  0  0  # atno 17342 bound_to 10162
  139.7152  143.9312  152.2963 LP  0  0  0  0  0  0  0  0  0  0  0  0  # atno 17343 bound_to 10162
  156.1790  130.3649  149.9060 LP  0  0  0  0  0  0  0  0  0  0  0  0  # atno 17370 bound_to 10713
  156.7017  130.8936  151.3600 LP  0  0  0  0  0  0  0  0  0  0  0  0  # atno 17371 bound_to 10713
  141.1766  133.6541  156.4855 LP  0  0  0  0  0  0  0  0  0  0  0  0  # atno 17394 bound_to 11000
  140.4407  134.7018  157.4990 LP  0  0  0  0  0  0  0  0  0  0  0  0  # atno 17395 bound_to 11000

$$$$
