AV-unprocessed.smi:1452|AV-procd|sdf|5908|dock3
  -GOLD-   22720 5593D 1   1.00000     0.00000
 Structure written by MMmdl.
 40 42  0  0  0  0  0  0  0  0  2 V2000
  146.5570  136.8584  153.8862 O   0  0  0  0  0  0  0  0  0  0  0  0
  145.7660  137.6211  153.3338 C   0  0  0  0  0  0  0  0  0  0  0  0
  146.0518  138.9324  153.1846 N   0  0  0  0  0  0  0  0  0  0  0  0
  147.1890  139.7036  153.5681 C   0  0  0  0  0  0  0  0  0  0  0  0
  146.9720  141.1002  153.5778 C   0  0  0  0  0  0  0  0  0  0  0  0
  148.0207  141.9662  153.9427 C   0  0  0  0  0  0  0  0  0  0  0  0
  149.2651  141.4133  154.2920 C   0  0  0  0  0  0  0  0  0  0  0  0
  149.4003  140.0138  154.2596 C   0  0  0  0  0  0  0  0  0  0  0  0
  148.3955  139.1825  153.9100 N   0  0  0  0  0  0  0  0  0  0  0  0
  144.5829  137.2104  152.8488 N   0  0  0  0  0  0  0  0  0  0  0  0
  144.0721  135.8444  152.8906 C   0  0  1  0  0  0  0  0  0  0  0  0
  142.5607  135.7795  153.0739 C   0  0  0  0  0  0  0  0  0  0  0  0
  142.2374  134.3659  152.5883 C   0  0  0  0  0  0  0  0  0  0  0  0
  143.1989  134.0804  151.4990 N   0  3  2  0  0  0  0  0  0  0  0  0
  143.6390  132.6659  151.4188 C   0  0  0  0  0  0  0  0  0  0  0  0
  144.6232  132.4668  150.2515 C   0  0  0  0  0  0  0  0  0  0  0  0
  145.7750  133.4938  150.2489 C   0  0  0  0  0  0  0  0  0  0  0  0
  145.6998  134.4631  151.4387 C   0  0  0  0  0  0  0  0  0  0  0  0
  144.2931  135.0904  151.5683 C   0  0  2  0  0  0  0  0  0  0  0  0
  145.3242  139.4660  152.7311 H   0  0  0  0  0  0  0  0  0  0  0  0
  146.0098  141.5107  153.3070 H   0  0  0  0  0  0  0  0  0  0  0  0
  147.8718  143.0358  153.9541 H   0  0  0  0  0  0  0  0  0  0  0  0
  150.0936  142.0447  154.5773 H   0  0  0  0  0  0  0  0  0  0  0  0
  150.3391  139.5485  154.5207 H   0  0  0  0  0  0  0  0  0  0  0  0
  143.9933  137.9059  152.4126 H   0  0  0  0  0  0  0  0  0  0  0  0
  144.5313  135.2929  153.7140 H   0  0  0  0  0  0  0  0  0  0  0  0
  142.2481  135.9549  154.1038 H   0  0  0  0  0  0  0  0  0  0  0  0
  142.0658  136.5154  152.4381 H   0  0  0  0  0  0  0  0  0  0  0  0
  142.3859  133.6624  153.4094 H   0  0  0  0  0  0  0  0  0  0  0  0
  141.2066  134.2662  152.2470 H   0  0  0  0  0  0  0  0  0  0  0  0
  144.1082  132.3718  152.3590 H   0  0  0  0  0  0  0  0  0  0  0  0
  142.7690  132.0214  151.2875 H   0  0  0  0  0  0  0  0  0  0  0  0
  145.0277  131.4547  150.2873 H   0  0  0  0  0  0  0  0  0  0  0  0
  144.0807  132.5387  149.3079 H   0  0  0  0  0  0  0  0  0  0  0  0
  146.7370  132.9802  150.2516 H   0  0  0  0  0  0  0  0  0  0  0  0
  145.7415  134.0656  149.3207 H   0  0  0  0  0  0  0  0  0  0  0  0
  145.9575  133.9288  152.3543 H   0  0  0  0  0  0  0  0  0  0  0  0
  146.4514  135.2447  151.3254 H   0  0  0  0  0  0  0  0  0  0  0  0
  144.1278  135.7705  150.7309 H   0  0  0  0  0  0  0  0  0  0  0  0
  142.7151  134.2728  150.6334 H   0  0  0  0  0  0  0  0  0  0  0  0
  1  2  2  0  0  0  0
  2  3  1  0  0  0  0
  2 10  1  0  0  0  0
  3  4  1  0  0  0  0
  3 20  1  0  0  0  0
  4  9  1  0  0  0  0
  4  5  2  0  0  0  0
  5  6  1  0  0  0  0
  5 21  1  0  0  0  0
  6  7  2  0  0  0  0
  6 22  1  0  0  0  0
  7  8  1  0  0  0  0
  7 23  1  0  0  0  0
  8  9  2  0  0  0  0
  8 24  1  0  0  0  0
 10 11  1  0  0  0  0
 10 25  1  0  0  0  0
 11 19  1  0  0  0  0
 11 12  1  0  0  0  0
 11 26  1  0  0  0  0
 12 13  1  0  0  0  0
 12 27  1  0  0  0  0
 12 28  1  0  0  0  0
 13 14  1  0  0  0  0
 13 29  1  0  0  0  0
 13 30  1  0  0  0  0
 14 19  1  0  0  0  0
 14 15  1  0  0  0  0
 14 40  1  0  0  0  0
 15 16  1  0  0  0  0
 15 31  1  0  0  0  0
 15 32  1  0  0  0  0
 16 17  1  0  0  0  0
 16 33  1  0  0  0  0
 16 34  1  0  0  0  0
 17 18  1  0  0  0  0
 17 35  1  0  0  0  0
 17 36  1  0  0  0  0
 18 19  1  0  0  0  0
 18 37  1  0  0  0  0
 18 38  1  0  0  0  0
 19 39  1  0  0  0  0
M  CHG  1  14   1
M  END
> <s_m_source_file>
AV-unprocessed.smi

> <i_m_source_file_index>
1452

> <i_lp_mmshare_version>
43012

> <i_f3d_flags>
0

> <s_epik_input>
W0NIMl0xW0NIMl1bQ0gyXVtDSDJdW0NASF0oTjEyKVtDQEBIXShbQ0gyXVtDSDJdMilbTkhdQyg9TylbTkhdYzNbY0hdW2NIXVtjSF1bY0hdbjM=

> <s_epik_cmdline>
J2VwaWtfcHl0aG9uJywgJy1waCcsICc3LjAnLCAnLXRuJywgJzgnLCAnLW1hJywgJzIwMCcsICctbWV0YWxfYmluZGluZycsICctaW1hZScsICc8aW5maWxlLm1hZT4nLCAnLW9tYWUnLCAnPG91dGZpbGUubWFlPic=

> <r_epik_Ionization_Penalty>
0.00100813

> <r_epik_Ionization_Penalty_Charging>
0.000974069

> <r_epik_Ionization_Penalty_Neutral>
3.40643e-05

> <r_epik_State_Penalty>
0.000633842

> <r_epik_Charging_Adjusted_Penalty>
0.00160791

> <i_epik_Tot_Q>
1

> <i_epik_Tot_abs_Q>
1

> <r_epik_Metal_State_Penalty>
-0

> <b_epik_Metal_Only>
0

> <s_lp_Force_Field>
OPLS_2005

> <r_lp_Energy>
44.0476

> <b_lp_Chiralities_Consistent>
1

> <s_lp_Variant>
AV-unprocessed.smi:1452-6

> <Gold.Version>
5.8.1

> <Gold.Id.Protein>
6NUR|6NUR_protein|mol2

> <Gold.PLP.Fitness>
41.6408

> <Gold.PLP.PLP>
-33.4184

> <Gold.PLP.part.hbond>
-2.0000

> <Gold.PLP.part.metal>
0.0000

> <Gold.PLP.part.buried>
-2.6261

> <Gold.PLP.part.nonpolar>
-27.5250

> <Gold.PLP.part.repulsive>
0.2600

> <Gold.PLP.ligand.clash>
0.0000

> <Gold.PLP.ligand.torsion>
0.3926

> <Gold.PLP.Chemscore.Hbond>
3.0000

> <Gold.PLP.Chemscore.CHOScore>
0.0000

> <Gold.PLP.Chemscore.Metal>
0.0000

> <Gold.Chemscore.Hbonds>
donor molecule, donor type, donor heavy atom, donor atom, acceptor molecule, acceptor atom, score
      L1  H     3    20       P1 10175  1.00
      L1  H    14    40       P1 10186  2.00

> <Gold.PLP.Chemscore.Internal.Correction>
0.0075

> <Gold.Rescore>
     Score         DG    S(hbond)    S(metal)    S(lipo)     H(rot)  DE(clash)    DE(int)     intcor
     16.75     -19.06       1.83        0.00      85.67       1.00       0.83       1.47       ----

> <Gold.Chemscore.Fitness>
16.7517

> <Gold.Chemscore.DG>
-19.0586

> <Gold.Chemscore.ZeroCoef>
-5.4800

> <Gold.Chemscore.Hbond>
1.8308

> <Gold.Chemscore.Metal>
0.0000

> <Gold.Chemscore.Lipo>
85.6743

> <Gold.Chemscore.Internal_Hbond>
0.0000

> <Gold.Chemscore.DEClash>
0.8335

> <Gold.Chemscore.DEInternal>
1.4735

> <Gold.Chemscore.Rot>
1.0000

> <Gold.Chemscore.Internal.Correction>
   9.000000E+99

> <Gold.Chemscore.Hbonds>
donor molecule, donor type, donor heavy atom, donor atom, acceptor molecule, acceptor atom, score
      L1  H     3    20       P1 10175  0.99
      L1  H    14    40       P1 10186  0.50

> <Gold.Chemscore.Hbond.Weighted>
-6.1147

> <Gold.Chemscore.Metal.Weighted>
-0.0000

> <Gold.Chemscore.Lipo.Weighted>
-10.0239

> <Gold.Chemscore.Internal_Hbond.Weighted>
0.0000

> <Gold.Chemscore.DEClash.Weighted>
0.8335

> <Gold.Chemscore.DEInternal.Weighted>
1.4735

> <Gold.Chemscore.Rot.Weighted>
2.5600

> <Gold.Chemscore.Internal.Correction.Weighted>
   9.000000E+99

> <Gold.Protein.RotatedTorsions>
[ 6907 6896 6895 6894 ] final -101.71 input  -60.11 | X-H torsion
[ 7974 7965 7964 7962 ] final  117.98 input  175.53 | X-H torsion
[ 8008 7997 7996 7995 ] final  119.45 input   59.86 | X-H torsion
[ 10167 10162 10161 10158 ] final    3.29 input  -65.29 | X-H torsion
[ 10718 10713 10712 10709 ] final  167.25 input   66.30 | X-H torsion
[ 10763 10752 10751 10750 ] final  -92.54 input  -60.55 | X-H torsion
[ 11005 11000 10999 10996 ] final  148.36 input  -57.11 | X-H torsion

> <Gold.Protein.ActiveResidues>
 VAL166  LYS551  ARG553  GLY616  TRP617  ASP618  TYR619  PRO620  LYS621  CYS622 
 ASP623  PHE694  ASN695  SER759  ASP760  ASP761  ALA762  ILE779  LEU786  VAL792 
 PHE793  MET794  SER795  GLU796  ALA797  LYS798  CYS799  TRP800  GLU811  SER814 

> <Gold.Protein.RotatedAtoms>
  150.7166  134.0692  159.3858 H   0  0  0  0  0  0  0  0  0  0  0  0  # atno 6907 bound_to 6896
  151.8674  135.0500  160.0485 H   0  0  0  0  0  0  0  0  0  0  0  0  # atno 6908 bound_to 6896
  152.2670  133.5312  159.5452 H   0  0  0  0  0  0  0  0  0  0  0  0  # atno 6909 bound_to 6896
  145.1607  139.3156  143.4518 H   0  0  0  0  0  0  0  0  0  0  0  0  # atno 7974 bound_to 7965
  156.2596  140.2852  156.0994 H   0  0  0  0  0  0  0  0  0  0  0  0  # atno 8008 bound_to 7997
  155.1376  140.0395  157.2808 H   0  0  0  0  0  0  0  0  0  0  0  0  # atno 8009 bound_to 7997
  154.6553  140.2554  155.7174 H   0  0  0  0  0  0  0  0  0  0  0  0  # atno 8010 bound_to 7997
  140.6593  143.7346  150.7709 H   0  0  0  0  0  0  0  0  0  0  0  0  # atno 10167 bound_to 10162
  157.0542  131.0322  151.2670 H   0  0  0  0  0  0  0  0  0  0  0  0  # atno 10718 bound_to 10713
  154.6871  135.5227  153.8342 H   0  0  0  0  0  0  0  0  0  0  0  0  # atno 10763 bound_to 10752
  153.0605  135.6566  154.0483 H   0  0  0  0  0  0  0  0  0  0  0  0  # atno 10764 bound_to 10752
  154.0362  135.2981  155.3341 H   0  0  0  0  0  0  0  0  0  0  0  0  # atno 10765 bound_to 10752
  140.0953  134.9016  157.1714 H   0  0  0  0  0  0  0  0  0  0  0  0  # atno 11005 bound_to 11000
  146.3483  140.1716  142.8589 LP  0  0  0  0  0  0  0  0  0  0  0  0  # atno 17320 bound_to 7965
  145.0334  140.8888  143.5096 LP  0  0  0  0  0  0  0  0  0  0  0  0  # atno 17321 bound_to 7965
  140.1012  143.4786  152.2424 LP  0  0  0  0  0  0  0  0  0  0  0  0  # atno 17342 bound_to 10162
  139.5822  144.7516  151.3610 LP  0  0  0  0  0  0  0  0  0  0  0  0  # atno 17343 bound_to 10162
  157.5006  130.7877  149.7600 LP  0  0  0  0  0  0  0  0  0  0  0  0  # atno 17370 bound_to 10713
  155.9998  130.3887  150.2651 LP  0  0  0  0  0  0  0  0  0  0  0  0  # atno 17371 bound_to 10713
  140.3295  134.2826  155.7231 LP  0  0  0  0  0  0  0  0  0  0  0  0  # atno 17394 bound_to 11000
  141.2090  133.7761  157.0023 LP  0  0  0  0  0  0  0  0  0  0  0  0  # atno 17395 bound_to 11000

$$$$
