#       Name:                AV-unprocessed.smi:759
#       Creating user name   scv26
#       Creation time:       Fri Mar 27 01:01:50 2020


#       File generated by GOLD software.
#

@<TRIPOS>MOLECULE
AV-unprocessed.smi:759
    26    27     1
SMALL
NO_CHARGES


@<TRIPOS>ATOM
      1 ****        -3.7461   0.0272   0.0928 C.2            1 S1                 0.0000
      2 ****        -3.7169   1.2531   0.6116 N.2            1 S1                 0.0000
      3 ****        -2.3920   1.4968   0.6877 N.pl3          1 S1                 0.0000
      4 ****        -1.7206   0.4382   0.2291 C.2            1 S1                 0.0000
      5 ****        -0.2237   0.3989   0.1796 C.3            1 S1                 0.0000
      6 ****         0.3050   0.3181  -1.2653 C.3            1 S1                 0.0000
      7 ****         1.8407   0.2678  -1.2750 C.3            1 S1                 0.0000
      8 ****         2.3596  -0.8776  -0.3899 C.3            1 S1                 0.0000
      9 ****         1.8319  -0.7545   0.9865 N.4            1 S1                 1.0000
     10 ****         0.3532  -0.7439   1.0407 C.3            1 S1                 0.0000
     11 ****        -2.5298  -0.5384  -0.1701 N.2            1 S1                 0.0000
     12 ****        -4.6792  -0.4805  -0.1033 H              1 S1                 0.0000
     13 ****         0.1354   1.3381   0.6046 H              1 S1                 0.0000
     14 ****        -0.0903  -0.5712  -1.7587 H              1 S1                 0.0000
     15 ****        -0.0423   1.1753  -1.8433 H              1 S1                 0.0000
     16 ****         2.2029   0.1444  -2.2961 H              1 S1                 0.0000
     17 ****         2.2408   1.2176  -0.9176 H              1 S1                 0.0000
     18 ****         2.0639  -1.8427  -0.8041 H              1 S1                 0.0000
     19 ****         3.4492  -0.8657  -0.3555 H              1 S1                 0.0000
     20 ****         2.1742  -1.5276   1.5393 H              1 S1                 0.0000
     21 ****         0.0410  -0.6321   2.0794 H              1 S1                 0.0000
     22 ****        -0.0204  -1.7103   0.6983 H              1 S1                 0.0000
     23 ****         2.1744   0.1077   1.3855 H              1 S1                 0.0000
     24 ****        -2.0112   2.3623   1.0430 H              1 S1                 0.0000
     25 ****        -4.4805   1.8418   0.8767 LP             1 S1                 0.0000
     26 ****        -2.3102  -1.4350  -0.5547 LP             1 S1                 0.0000
@<TRIPOS>BOND
    1    1   11 1     
    2    1   12 1     
    3    1    2 2     
    4    2    3 1     
    5    3    4 1     
    6    3   24 1     
    7    4   11 2     
    8    4    5 1     
    9    5   10 1     
   10    5    6 1     
   11    5   13 1     
   12    6    7 1     
   13    6   14 1     
   14    6   15 1     
   15    7    8 1     
   16    7   16 1     
   17    7   17 1     
   18    8    9 1     
   19    8   18 1     
   20    8   19 1     
   21    9   10 1     
   22    9   20 1     
   23    9   23 1     
   24   10   21 1     
   25   10   22 1     
   26    2   25 1     
   27   11   26 1     
@<TRIPOS>SUBSTRUCTURE
      1 S1             1
@<TRIPOS>SET
LONE_PAIRS      STATIC     ATOMS    <user>   **** ""
2 25 26
DONOR_HYDROGENS      STATIC     ATOMS    <user>   **** ""
3 24 20 23
ATOM$BLUE        STATIC     ATOMS    COLORGROUP SYSTEM
2 25 26
ATOM$RED        STATIC     ATOMS    COLORGROUP SYSTEM
3 24 20 23
