AV-unprocessed.smi:1749|AV-procd|sdf|7047|dock8
  -GOLD-   22720 8263D 1   1.00000     0.00000
 Structure written by MMmdl.
 32 33  0  0  0  0  0  0  0  0  1 V2000
  144.1078  132.4942  148.6663 C   0  0  0  0  0  0  0  0  0  0  0  0
  145.0800  132.3791  149.8486 C   0  0  1  0  0  0  0  0  0  0  0  0
  145.5171  133.7666  150.3559 C   0  0  0  0  0  0  0  0  0  0  0  0
  146.4872  133.6558  151.5428 C   0  0  0  0  0  0  0  0  0  0  0  0
  145.8816  132.8223  152.6858 C   0  0  0  0  0  0  0  0  0  0  0  0
  145.4236  131.4307  152.2088 C   0  0  2  0  0  0  0  0  0  0  0  0
  146.5844  130.6066  151.8813 N   0  0  0  0  0  0  0  0  0  0  0  0
  146.8097  129.3522  152.3046 C   0  0  0  0  0  0  0  0  0  0  0  0
  146.0592  128.7659  153.0826 O   0  0  0  0  0  0  0  0  0  0  0  0
  147.9262  128.7585  151.8314 N   0  0  0  0  0  0  0  0  0  0  0  0
  148.4703  127.4612  152.0617 C   0  0  0  0  0  0  0  0  0  0  0  0
  148.2138  126.7124  153.1473 N   0  0  0  0  0  0  0  0  0  0  0  0
  148.8944  125.5031  153.1217 N   0  0  0  0  0  0  0  0  0  0  0  0
  149.6490  125.3896  152.0255 C   0  0  0  0  0  0  0  0  0  0  0  0
  149.6014  126.7505  150.9184 S   0  0  0  0  0  0  0  0  0  0  0  0
  144.4705  131.5513  151.0001 C   0  0  0  0  0  0  0  0  0  0  0  0
  143.1907  133.0085  148.9547 H   0  0  0  0  0  0  0  0  0  0  0  0
  143.8327  131.5094  148.2880 H   0  0  0  0  0  0  0  0  0  0  0  0
  144.5564  133.0497  147.8423 H   0  0  0  0  0  0  0  0  0  0  0  0
  145.9681  131.8585  149.4870 H   0  0  0  0  0  0  0  0  0  0  0  0
  145.9913  134.3266  149.5493 H   0  0  0  0  0  0  0  0  0  0  0  0
  144.6407  134.3421  150.6569 H   0  0  0  0  0  0  0  0  0  0  0  0
  147.4226  133.2042  151.2098 H   0  0  0  0  0  0  0  0  0  0  0  0
  146.7415  134.6515  151.9068 H   0  0  0  0  0  0  0  0  0  0  0  0
  146.6009  132.7254  153.5000 H   0  0  0  0  0  0  0  0  0  0  0  0
  145.0259  133.3570  153.1000 H   0  0  0  0  0  0  0  0  0  0  0  0
  144.8873  130.9547  153.0317 H   0  0  0  0  0  0  0  0  0  0  0  0
  147.2578  131.0123  151.2469 H   0  0  0  0  0  0  0  0  0  0  0  0
  148.5070  129.3565  151.2618 H   0  0  0  0  0  0  0  0  0  0  0  0
  150.2406  124.4999  151.8693 H   0  0  0  0  0  0  0  0  0  0  0  0
  143.5425  132.0217  151.3278 H   0  0  0  0  0  0  0  0  0  0  0  0
  144.1924  130.5592  150.6419 H   0  0  0  0  0  0  0  0  0  0  0  0
  1  2  1  0  0  0  0
  1 17  1  0  0  0  0
  1 18  1  0  0  0  0
  1 19  1  0  0  0  0
  2 16  1  0  0  0  0
  2  3  1  0  0  0  0
  2 20  1  0  0  0  0
  3  4  1  0  0  0  0
  3 21  1  0  0  0  0
  3 22  1  0  0  0  0
  4  5  1  0  0  0  0
  4 23  1  0  0  0  0
  4 24  1  0  0  0  0
  5  6  1  0  0  0  0
  5 25  1  0  0  0  0
  5 26  1  0  0  0  0
  6  7  1  0  0  0  0
  6 16  1  0  0  0  0
  6 27  1  0  0  0  0
  7  8  1  0  0  0  0
  7 28  1  0  0  0  0
  8  9  2  0  0  0  0
  8 10  1  0  0  0  0
 10 11  1  0  0  0  0
 10 29  1  0  0  0  0
 11 15  1  0  0  0  0
 11 12  2  0  0  0  0
 12 13  1  0  0  0  0
 13 14  2  0  0  0  0
 14 15  1  0  0  0  0
 14 30  1  0  0  0  0
 16 31  1  0  0  0  0
 16 32  1  0  0  0  0
M  END
> <s_m_source_file>
AV-unprocessed.smi

> <i_m_source_file_index>
1749

> <i_lp_mmshare_version>
43012

> <i_f3d_flags>
0

> <s_epik_input>
W0NIM11bQ0BASF0xW0NIMl1bQ0gyXVtDSDJdW0NASF0oW0NIMl0xKVtOSF1DKD1PKVtOSF1jMm5uW2NIXXMy

> <s_epik_cmdline>
J2VwaWtfcHl0aG9uJywgJy1waCcsICc3LjAnLCAnLXRuJywgJzgnLCAnLW1hJywgJzIwMCcsICctbWV0YWxfYmluZGluZycsICctaW1hZScsICc8aW5maWxlLm1hZT4nLCAnLW9tYWUnLCAnPG91dGZpbGUubWFlPic=

> <r_lp_tautomer_probability>
1

> <r_epik_Ionization_Penalty>
0.000318591

> <r_epik_Ionization_Penalty_Charging>
0

> <r_epik_Ionization_Penalty_Neutral>
0.000318591

> <r_epik_State_Penalty>
-0

> <r_epik_Charging_Adjusted_Penalty>
0

> <i_epik_Tot_Q>
0

> <i_epik_Tot_abs_Q>
0

> <r_epik_Metal_State_Penalty>
0.169791

> <b_epik_Metal_Only>
0

> <s_lp_Force_Field>
OPLS_2005

> <r_lp_Energy>
10.2473

> <b_lp_Chiralities_Consistent>
1

> <s_lp_Variant>
AV-unprocessed.smi:1749-4

> <Gold.Version>
5.8.1

> <Gold.Id.Protein>
6NUR|6NUR_protein|mol2

> <Gold.PLP.Fitness>
40.7481

> <Gold.PLP.PLP>
-35.7773

> <Gold.PLP.part.hbond>
-3.0253

> <Gold.PLP.part.metal>
0.0000

> <Gold.PLP.part.buried>
-4.2388

> <Gold.PLP.part.nonpolar>
-27.5784

> <Gold.PLP.part.repulsive>
0.2833

> <Gold.PLP.ligand.clash>
0.0000

> <Gold.PLP.ligand.torsion>
0.2435

> <Gold.PLP.Chemscore.Hbond>
1.8175

> <Gold.PLP.Chemscore.CHOScore>
0.0000

> <Gold.PLP.Chemscore.Metal>
0.0000

> <Gold.Chemscore.Hbonds>
donor molecule, donor type, donor heavy atom, donor atom, acceptor molecule, acceptor atom, score
      L1  H     7    28       P1 10747  0.96
      L1  H    10    29       P1 10747  0.70

> <Gold.PLP.Chemscore.Internal.Correction>
0.0054

> <Gold.Rescore>
     Score         DG    S(hbond)    S(metal)    S(lipo)     H(rot)  DE(clash)    DE(int)     intcor
     11.98     -13.71       0.80        0.00      69.34       1.00       0.47       1.25       ----

> <Gold.Chemscore.Fitness>
11.9845

> <Gold.Chemscore.DG>
-13.7050

> <Gold.Chemscore.ZeroCoef>
-5.4800

> <Gold.Chemscore.Hbond>
0.8000

> <Gold.Chemscore.Metal>
0.0000

> <Gold.Chemscore.Lipo>
69.3434

> <Gold.Chemscore.Internal_Hbond>
0.0000

> <Gold.Chemscore.DEClash>
0.4731

> <Gold.Chemscore.DEInternal>
1.2475

> <Gold.Chemscore.Rot>
1.0000

> <Gold.Chemscore.Internal.Correction>
   9.000000E+99

> <Gold.Chemscore.Hbonds>
donor molecule, donor type, donor heavy atom, donor atom, acceptor molecule, acceptor atom, score
      L1  H     7    28       P1 10747  0.90
      L1  H    10    29       P1 10747  0.07

> <Gold.Chemscore.Hbond.Weighted>
-2.6719

> <Gold.Chemscore.Metal.Weighted>
-0.0000

> <Gold.Chemscore.Lipo.Weighted>
-8.1132

> <Gold.Chemscore.Internal_Hbond.Weighted>
0.0000

> <Gold.Chemscore.DEClash.Weighted>
0.4731

> <Gold.Chemscore.DEInternal.Weighted>
1.2475

> <Gold.Chemscore.Rot.Weighted>
2.5600

> <Gold.Chemscore.Internal.Correction.Weighted>
   9.000000E+99

> <Gold.Protein.RotatedTorsions>
[ 6907 6896 6895 6894 ] final  -99.36 input  -60.11 | X-H torsion
[ 7974 7965 7964 7962 ] final -174.75 input  175.53 | X-H torsion
[ 8008 7997 7996 7995 ] final -160.29 input   59.86 | X-H torsion
[ 10167 10162 10161 10158 ] final   58.32 input  -65.29 | X-H torsion
[ 10718 10713 10712 10709 ] final  176.23 input   66.30 | X-H torsion
[ 10763 10752 10751 10750 ] final -149.44 input  -60.55 | X-H torsion
[ 11005 11000 10999 10996 ] final  -91.52 input  -57.11 | X-H torsion

> <Gold.Protein.ActiveResidues>
 VAL166  LYS551  ARG553  GLY616  TRP617  ASP618  TYR619  PRO620  LYS621  CYS622 
 ASP623  PHE694  ASN695  SER759  ASP760  ASP761  ALA762  ILE779  LEU786  VAL792 
 PHE793  MET794  SER795  GLU796  ALA797  LYS798  CYS799  TRP800  GLU811  SER814 

> <Gold.Protein.RotatedAtoms>
  150.7077  134.1052  159.3980 H   0  0  0  0  0  0  0  0  0  0  0  0  # atno 6907 bound_to 6896
  151.9039  135.0365  160.0518 H   0  0  0  0  0  0  0  0  0  0  0  0  # atno 6908 bound_to 6896
  152.2392  133.5085  159.5296 H   0  0  0  0  0  0  0  0  0  0  0  0  # atno 6909 bound_to 6896
  144.7130  140.1425  143.6390 H   0  0  0  0  0  0  0  0  0  0  0  0  # atno 7974 bound_to 7965
  155.7752  140.0857  157.2087 H   0  0  0  0  0  0  0  0  0  0  0  0  # atno 8008 bound_to 7997
  154.3993  140.1518  156.3045 H   0  0  0  0  0  0  0  0  0  0  0  0  # atno 8009 bound_to 7997
  155.8708  140.3425  155.5822 H   0  0  0  0  0  0  0  0  0  0  0  0  # atno 8010 bound_to 7997
  140.1884  144.4110  150.6582 H   0  0  0  0  0  0  0  0  0  0  0  0  # atno 10167 bound_to 10162
  156.9231  130.9947  151.3001 H   0  0  0  0  0  0  0  0  0  0  0  0  # atno 10718 bound_to 10713
  154.8177  135.3309  154.7129 H   0  0  0  0  0  0  0  0  0  0  0  0  # atno 10763 bound_to 10752
  153.7767  135.6921  153.4900 H   0  0  0  0  0  0  0  0  0  0  0  0  # atno 10764 bound_to 10752
  153.2008  135.4517  155.0212 H   0  0  0  0  0  0  0  0  0  0  0  0  # atno 10765 bound_to 10752
  141.1543  133.7761  156.9891 H   0  0  0  0  0  0  0  0  0  0  0  0  # atno 11005 bound_to 11000
  145.9189  139.2533  143.1393 LP  0  0  0  0  0  0  0  0  0  0  0  0  # atno 17320 bound_to 7965
  145.9641  140.8813  143.0196 LP  0  0  0  0  0  0  0  0  0  0  0  0  # atno 17321 bound_to 7965
  140.6472  143.2216  151.6159 LP  0  0  0  0  0  0  0  0  0  0  0  0  # atno 17342 bound_to 10162
  139.5266  144.3041  152.1049 LP  0  0  0  0  0  0  0  0  0  0  0  0  # atno 17343 bound_to 10162
  157.5895  130.8433  149.8638 LP  0  0  0  0  0  0  0  0  0  0  0  0  # atno 17370 bound_to 10713
  156.0481  130.3723  150.1267 LP  0  0  0  0  0  0  0  0  0  0  0  0  # atno 17371 bound_to 10713
  140.1015  134.9532  157.1930 LP  0  0  0  0  0  0  0  0  0  0  0  0  # atno 17394 bound_to 11000
  140.3312  134.2807  155.7227 LP  0  0  0  0  0  0  0  0  0  0  0  0  # atno 17395 bound_to 11000

$$$$
