AV-unprocessed.smi:962|AV-procd|sdf|4275|dock8
  -GOLD-   22720 2183D 1   1.00000     0.00000
 Structure written by MMmdl.
 42 43  0  0  0  0  0  0  0  0  1 V2000
  154.7361  132.7326  164.4401 C   0  0  0  0  0  0  0  0  0  0  0  0
  155.6973  133.6826  163.6943 C   0  0  0  0  0  0  0  0  0  0  0  0
  157.0855  133.5702  164.3551 C   0  0  0  0  0  0  0  0  0  0  0  0
  155.7748  133.2240  162.2248 C   0  0  0  0  0  0  0  0  0  0  0  0
  155.2133  135.1165  163.7651 C   0  0  0  0  0  0  0  0  0  0  0  0
  155.0061  135.8885  164.8857 C   0  0  0  0  0  0  0  0  0  0  0  0
  154.4889  137.5034  164.4905 S   0  0  0  0  0  0  0  0  0  0  0  0
  154.5591  137.0735  162.7870 C   0  0  0  0  0  0  0  0  0  0  0  0
  154.3070  138.0486  161.6822 C   0  0  0  0  0  0  0  0  0  0  0  0
  155.0234  139.4016  161.8667 C   0  0  0  0  0  0  0  0  0  0  0  0
  154.2008  140.5285  161.4307 N   0  0  0  0  0  0  0  0  0  0  0  0
  153.8837  140.8184  160.1555 C   0  0  0  0  0  0  0  0  0  0  0  0
  154.1760  140.0888  159.2072 O   0  0  0  0  0  0  0  0  0  0  0  0
  153.2229  141.9864  160.0044 N   0  0  0  0  0  0  0  0  0  0  0  0
  152.9147  142.9586  161.0574 C   0  0  0  0  0  0  0  0  0  0  0  0
  152.4561  144.2241  160.3323 C   0  0  0  0  0  0  0  0  0  0  0  0
  151.9273  143.7179  158.9980 C   0  0  0  0  0  0  0  0  0  0  0  0
  152.7799  142.4841  158.7035 C   0  0  0  0  0  0  0  0  0  0  0  0
  154.9401  135.8119  162.5799 N   0  0  0  0  0  0  0  0  0  0  0  0
  155.0798  131.6990  164.3878 H   0  0  0  0  0  0  0  0  0  0  0  0
  153.7327  132.7616  164.0131 H   0  0  0  0  0  0  0  0  0  0  0  0
  154.6559  132.9924  165.4965 H   0  0  0  0  0  0  0  0  0  0  0  0
  157.0546  133.8953  165.3959 H   0  0  0  0  0  0  0  0  0  0  0  0
  157.8265  134.1853  163.8433 H   0  0  0  0  0  0  0  0  0  0  0  0
  157.4520  132.5432  164.3410 H   0  0  0  0  0  0  0  0  0  0  0  0
  156.1059  132.1876  162.1492 H   0  0  0  0  0  0  0  0  0  0  0  0
  156.4769  133.8296  161.6506 H   0  0  0  0  0  0  0  0  0  0  0  0
  154.8026  133.2960  161.7357 H   0  0  0  0  0  0  0  0  0  0  0  0
  155.1379  135.6138  165.9215 H   0  0  0  0  0  0  0  0  0  0  0  0
  154.6051  137.5955  160.7362 H   0  0  0  0  0  0  0  0  0  0  0  0
  153.2312  138.2140  161.6169 H   0  0  0  0  0  0  0  0  0  0  0  0
  155.3091  139.5224  162.9130 H   0  0  0  0  0  0  0  0  0  0  0  0
  155.9535  139.4071  161.2987 H   0  0  0  0  0  0  0  0  0  0  0  0
  153.9045  141.1770  162.1457 H   0  0  0  0  0  0  0  0  0  0  0  0
  152.1128  142.5632  161.6828 H   0  0  0  0  0  0  0  0  0  0  0  0
  153.7756  143.1670  161.6950 H   0  0  0  0  0  0  0  0  0  0  0  0
  151.7139  144.7904  160.8956 H   0  0  0  0  0  0  0  0  0  0  0  0
  153.3130  144.8768  160.1600 H   0  0  0  0  0  0  0  0  0  0  0  0
  150.8828  143.4228  159.1081 H   0  0  0  0  0  0  0  0  0  0  0  0
  151.9811  144.4680  158.2083 H   0  0  0  0  0  0  0  0  0  0  0  0
  153.6554  142.7561  158.1116 H   0  0  0  0  0  0  0  0  0  0  0  0
  152.2153  141.7333  158.1487 H   0  0  0  0  0  0  0  0  0  0  0  0
  1  2  1  0  0  0  0
  1 20  1  0  0  0  0
  1 21  1  0  0  0  0
  1 22  1  0  0  0  0
  2  3  1  0  0  0  0
  2  4  1  0  0  0  0
  2  5  1  0  0  0  0
  3 23  1  0  0  0  0
  3 24  1  0  0  0  0
  3 25  1  0  0  0  0
  4 26  1  0  0  0  0
  4 27  1  0  0  0  0
  4 28  1  0  0  0  0
  5 19  1  0  0  0  0
  5  6  2  0  0  0  0
  6  7  1  0  0  0  0
  6 29  1  0  0  0  0
  7  8  1  0  0  0  0
  8  9  1  0  0  0  0
  8 19  2  0  0  0  0
  9 10  1  0  0  0  0
  9 30  1  0  0  0  0
  9 31  1  0  0  0  0
 10 11  1  0  0  0  0
 10 32  1  0  0  0  0
 10 33  1  0  0  0  0
 11 12  1  0  0  0  0
 11 34  1  0  0  0  0
 12 13  2  0  0  0  0
 12 14  1  0  0  0  0
 14 18  1  0  0  0  0
 14 15  1  0  0  0  0
 15 16  1  0  0  0  0
 15 35  1  0  0  0  0
 15 36  1  0  0  0  0
 16 17  1  0  0  0  0
 16 37  1  0  0  0  0
 16 38  1  0  0  0  0
 17 18  1  0  0  0  0
 17 39  1  0  0  0  0
 17 40  1  0  0  0  0
 18 41  1  0  0  0  0
 18 42  1  0  0  0  0
M  END
> <s_m_source_file>
AV-unprocessed.smi

> <i_m_source_file_index>
962

> <i_lp_mmshare_version>
43012

> <i_f3d_flags>
0

> <s_epik_input>
W0NIM11DKFtDSDNdKShbQ0gzXSljMVtjSF1zYyhuMSlbQ0gyXVtDSDJdW05IXUMoPU8pTjJbQ0gyXVtDSDJdW0NIMl1bQ0gyXTI=

> <s_epik_cmdline>
J2VwaWtfcHl0aG9uJywgJy1waCcsICc3LjAnLCAnLXRuJywgJzgnLCAnLW1hJywgJzIwMCcsICctbWV0YWxfYmluZGluZycsICctaW1hZScsICc8aW5maWxlLm1hZT4nLCAnLW9tYWUnLCAnPG91dGZpbGUubWFlPic=

> <r_epik_Ionization_Penalty>
0.00160156

> <r_epik_Ionization_Penalty_Charging>
0

> <r_epik_Ionization_Penalty_Neutral>
0.00160156

> <r_epik_State_Penalty>
0.00103428

> <r_epik_Charging_Adjusted_Penalty>
0.00103428

> <i_epik_Tot_Q>
0

> <i_epik_Tot_abs_Q>
0

> <r_epik_Metal_State_Penalty>
-0

> <b_epik_Metal_Only>
0

> <s_lp_Force_Field>
OPLS_2005

> <r_lp_Energy>
25.7371

> <b_lp_Chiralities_Consistent>
1

> <s_lp_Variant>
AV-unprocessed.smi:962-1

> <Gold.Version>
5.8.1

> <Gold.Id.Protein>
6NUR|6NUR_protein|mol2

> <Gold.PLP.Fitness>
43.5204

> <Gold.PLP.PLP>
-42.0417

> <Gold.PLP.part.hbond>
-1.0000

> <Gold.PLP.part.metal>
0.0000

> <Gold.PLP.part.buried>
-3.8661

> <Gold.PLP.part.nonpolar>
-36.5458

> <Gold.PLP.part.repulsive>
0.0247

> <Gold.PLP.ligand.clash>
0.0000

> <Gold.PLP.ligand.torsion>
0.4571

> <Gold.PLP.Chemscore.Hbond>
0.7865

> <Gold.PLP.Chemscore.CHOScore>
0.0000

> <Gold.PLP.Chemscore.Metal>
0.0000

> <Gold.Chemscore.Hbonds>
donor molecule, donor type, donor heavy atom, donor atom, acceptor molecule, acceptor atom, score
      P1  H  7997  8009       L1    13  0.90

> <Gold.PLP.Chemscore.Internal.Correction>
0.0333

> <Gold.Rescore>
     Score         DG    S(hbond)    S(metal)    S(lipo)     H(rot)  DE(clash)    DE(int)     intcor
     16.42     -17.68       0.95        0.00     107.99       1.41       0.12       1.14       ----

> <Gold.Chemscore.Fitness>
16.4208

> <Gold.Chemscore.DG>
-17.6800

> <Gold.Chemscore.ZeroCoef>
-5.4800

> <Gold.Chemscore.Hbond>
0.9544

> <Gold.Chemscore.Metal>
0.0000

> <Gold.Chemscore.Lipo>
107.9862

> <Gold.Chemscore.Internal_Hbond>
0.0000

> <Gold.Chemscore.DEClash>
0.1160

> <Gold.Chemscore.DEInternal>
1.1432

> <Gold.Chemscore.Rot>
1.4149

> <Gold.Chemscore.Internal.Correction>
   9.000000E+99

> <Gold.Chemscore.Hbonds>
donor molecule, donor type, donor heavy atom, donor atom, acceptor molecule, acceptor atom, score
      P1  H  7997  8009       L1    13  0.82

> <Gold.Chemscore.Hbond.Weighted>
-3.1878

> <Gold.Chemscore.Metal.Weighted>
-0.0000

> <Gold.Chemscore.Lipo.Weighted>
-12.6344

> <Gold.Chemscore.Internal_Hbond.Weighted>
0.0000

> <Gold.Chemscore.DEClash.Weighted>
0.1160

> <Gold.Chemscore.DEInternal.Weighted>
1.1432

> <Gold.Chemscore.Rot.Weighted>
3.6222

> <Gold.Chemscore.Internal.Correction.Weighted>
   9.000000E+99

> <Gold.Protein.RotatedTorsions>
[ 6907 6896 6895 6894 ] final   86.47 input  -60.11 | X-H torsion
[ 7974 7965 7964 7962 ] final  -94.72 input  175.53 | X-H torsion
[ 8008 7997 7996 7995 ] final  129.63 input   59.86 | X-H torsion
[ 10167 10162 10161 10158 ] final  -24.46 input  -65.29 | X-H torsion
[ 10718 10713 10712 10709 ] final  -84.60 input   66.30 | X-H torsion
[ 10763 10752 10751 10750 ] final   56.27 input  -60.55 | X-H torsion
[ 11005 11000 10999 10996 ] final   27.78 input  -57.11 | X-H torsion

> <Gold.Protein.ActiveResidues>
 VAL166  LYS551  ARG553  GLY616  TRP617  ASP618  TYR619  PRO620  LYS621  CYS622 
 ASP623  PHE694  ASN695  SER759  ASP760  ASP761  ALA762  ILE779  LEU786  VAL792 
 PHE793  MET794  SER795  GLU796  ALA797  LYS798  CYS799  TRP800  GLU811  SER814 

> <Gold.Protein.RotatedAtoms>
  152.5395  134.2426  159.8867 H   0  0  0  0  0  0  0  0  0  0  0  0  # atno 6907 bound_to 6896
  151.2393  133.4401  159.2614 H   0  0  0  0  0  0  0  0  0  0  0  0  # atno 6908 bound_to 6896
  151.0642  134.9770  159.8332 H   0  0  0  0  0  0  0  0  0  0  0  0  # atno 6909 bound_to 6896
  145.3695  140.9503  143.2455 H   0  0  0  0  0  0  0  0  0  0  0  0  # atno 7974 bound_to 7965
  156.2940  140.2616  156.2630 H   0  0  0  0  0  0  0  0  0  0  0  0  # atno 8008 bound_to 7997
  154.9770  140.0390  157.2279 H   0  0  0  0  0  0  0  0  0  0  0  0  # atno 8009 bound_to 7997
  154.7806  140.2794  155.6071 H   0  0  0  0  0  0  0  0  0  0  0  0  # atno 8010 bound_to 7997
  140.7288  143.4351  151.0742 H   0  0  0  0  0  0  0  0  0  0  0  0  # atno 10167 bound_to 10162
  156.0004  130.4703  150.4434 H   0  0  0  0  0  0  0  0  0  0  0  0  # atno 10718 bound_to 10713
  152.9829  135.5682  154.5201 H   0  0  0  0  0  0  0  0  0  0  0  0  # atno 10763 bound_to 10752
  154.4690  135.2784  155.1658 H   0  0  0  0  0  0  0  0  0  0  0  0  # atno 10764 bound_to 10752
  154.3214  135.6268  153.5563 H   0  0  0  0  0  0  0  0  0  0  0  0  # atno 10765 bound_to 10752
  140.3226  134.2527  155.7715 H   0  0  0  0  0  0  0  0  0  0  0  0  # atno 11005 bound_to 11000
  144.8586  139.5211  143.6822 LP  0  0  0  0  0  0  0  0  0  0  0  0  # atno 17320 bound_to 7965
  146.2891  139.7089  142.9174 LP  0  0  0  0  0  0  0  0  0  0  0  0  # atno 17321 bound_to 7965
  139.8012  143.8081  152.3163 LP  0  0  0  0  0  0  0  0  0  0  0  0  # atno 17342 bound_to 10162
  139.8098  144.7340  150.9712 LP  0  0  0  0  0  0  0  0  0  0  0  0  # atno 17343 bound_to 10162
  157.2473  131.0538  151.2400 LP  0  0  0  0  0  0  0  0  0  0  0  0  # atno 17370 bound_to 10713
  157.3562  130.7107  149.6472 LP  0  0  0  0  0  0  0  0  0  0  0  0  # atno 17371 bound_to 10713
  141.2083  133.7782  157.0068 LP  0  0  0  0  0  0  0  0  0  0  0  0  # atno 17394 bound_to 11000
  140.0929  134.9582  157.1804 LP  0  0  0  0  0  0  0  0  0  0  0  0  # atno 17395 bound_to 11000

$$$$
