AV-unprocessed.smi:212|AV-procd|sdf|1621|dock5
  -GOLD-   2262019553D 1   1.00000     0.00000
 Structure written by MMmdl.
 65 68  0  0  0  0  0  0  0  0  2 V2000
  146.8289  131.9383  157.2297 C   0  0  0  0  0  0  0  0  0  0  0  0
  145.7812  132.8389  156.5464 C   0  0  2  0  0  0  0  0  0  0  0  0
  145.9974  132.9385  155.0225 C   0  0  0  0  0  0  0  0  0  0  0  0
  144.9269  133.7487  154.3873 N   0  3  2  0  0  0  0  0  0  0  0  0
  145.0139  133.7754  152.9029 C   0  0  0  0  0  0  0  0  0  0  0  0
  143.6652  134.1312  152.2347 C   0  0  0  0  0  0  0  0  0  0  0  0
  143.6894  135.5855  151.7348 C   0  0  0  0  0  0  0  0  0  0  0  0
  143.3174  133.1764  151.0774 C   0  0  0  0  0  0  0  0  0  0  0  0
  142.6349  134.0555  153.2004 O   0  0  0  0  0  0  0  0  0  0  0  0
  144.8083  135.1007  154.9924 C   0  0  0  0  0  0  0  0  0  0  0  0
  144.6430  135.0219  156.5242 C   0  0  0  0  0  0  0  0  0  0  0  0
  145.6544  134.1710  157.1476 N   0  0  0  0  0  0  0  0  0  0  0  0
  146.7925  134.8030  157.5227 C   0  0  0  0  0  0  0  0  0  0  0  0
  146.9750  135.1762  158.8157 N   0  0  0  0  0  0  0  0  0  0  0  0
  148.0949  135.8104  159.1756 C   0  0  0  0  0  0  0  0  0  0  0  0
  149.1331  136.1652  158.4159 N   0  0  0  0  0  0  0  0  0  0  0  0
  148.9494  135.7980  157.1157 C   0  0  0  0  0  0  0  0  0  0  0  0
  147.8186  135.1122  156.5915 C   0  0  0  0  0  0  0  0  0  0  0  0
  147.9809  134.8928  155.2306 N   0  0  0  0  0  0  0  0  0  0  0  0
  149.1447  135.4200  154.9642 C   0  0  0  0  0  0  0  0  0  0  0  0
  149.7894  136.0033  156.0337 N   0  0  0  0  0  0  0  0  0  0  0  0
  151.0882  136.6637  156.0108 C   0  0  0  0  0  0  0  0  0  0  0  0
  151.0384  138.1601  155.6015 C   0  0  1  0  0  0  0  0  0  0  0  0
  149.9881  138.3878  154.4876 C   0  0  0  0  0  0  0  0  0  0  0  0
  150.0185  139.7110  153.9951 O   0  0  0  0  0  0  0  0  0  0  0  0
  150.8277  139.0913  156.8280 C   0  0  2  0  0  0  0  0  0  0  0  0
  151.1989  140.5505  156.6253 C   0  0  0  0  0  0  0  0  0  0  0  0
  151.3310  141.0604  158.0567 C   0  0  0  0  0  0  0  0  0  0  0  0
  151.7583  139.9427  158.8269 O   0  0  0  0  0  0  0  0  0  0  0  0
  151.7250  138.7653  158.0280 C   0  0  0  0  0  0  0  0  0  0  0  0
  146.8024  130.9304  156.8150 H   0  0  0  0  0  0  0  0  0  0  0  0
  146.6377  131.8541  158.3001 H   0  0  0  0  0  0  0  0  0  0  0  0
  147.8427  132.3178  157.0971 H   0  0  0  0  0  0  0  0  0  0  0  0
  144.8157  132.3558  156.7035 H   0  0  0  0  0  0  0  0  0  0  0  0
  146.9714  133.3754  154.7968 H   0  0  0  0  0  0  0  0  0  0  0  0
  145.9916  131.9365  154.5911 H   0  0  0  0  0  0  0  0  0  0  0  0
  145.7950  134.4677  152.5833 H   0  0  0  0  0  0  0  0  0  0  0  0
  145.3300  132.7977  152.5348 H   0  0  0  0  0  0  0  0  0  0  0  0
  144.4602  135.7299  150.9768 H   0  0  0  0  0  0  0  0  0  0  0  0
  143.8937  136.2836  152.5478 H   0  0  0  0  0  0  0  0  0  0  0  0
  142.7354  135.8710  151.2896 H   0  0  0  0  0  0  0  0  0  0  0  0
  144.0922  133.1911  150.3100 H   0  0  0  0  0  0  0  0  0  0  0  0
  142.3782  133.4581  150.5999 H   0  0  0  0  0  0  0  0  0  0  0  0
  143.2103  132.1459  151.4176 H   0  0  0  0  0  0  0  0  0  0  0  0
  142.6746  133.2083  153.6191 H   0  0  0  0  0  0  0  0  0  0  0  0
  145.6903  135.6879  154.7353 H   0  0  0  0  0  0  0  0  0  0  0  0
  143.9548  135.6263  154.5644 H   0  0  0  0  0  0  0  0  0  0  0  0
  144.6678  136.0227  156.9584 H   0  0  0  0  0  0  0  0  0  0  0  0
  143.6628  134.6087  156.7644 H   0  0  0  0  0  0  0  0  0  0  0  0
  148.1698  136.0734  160.2204 H   0  0  0  0  0  0  0  0  0  0  0  0
  149.5645  135.4018  153.9691 H   0  0  0  0  0  0  0  0  0  0  0  0
  151.5578  136.5424  156.9871 H   0  0  0  0  0  0  0  0  0  0  0  0
  151.7244  136.1183  155.3125 H   0  0  0  0  0  0  0  0  0  0  0  0
  152.0167  138.3885  155.1755 H   0  0  0  0  0  0  0  0  0  0  0  0
  150.1908  137.7363  153.6374 H   0  0  0  0  0  0  0  0  0  0  0  0
  148.9836  138.1515  154.8404 H   0  0  0  0  0  0  0  0  0  0  0  0
  149.5926  139.7282  153.1515 H   0  0  0  0  0  0  0  0  0  0  0  0
  149.7844  139.0542  157.1441 H   0  0  0  0  0  0  0  0  0  0  0  0
  152.1587  140.6316  156.1127 H   0  0  0  0  0  0  0  0  0  0  0  0
  150.4568  141.1091  156.0545 H   0  0  0  0  0  0  0  0  0  0  0  0
  152.0301  141.8932  158.1380 H   0  0  0  0  0  0  0  0  0  0  0  0
  150.3629  141.3916  158.4345 H   0  0  0  0  0  0  0  0  0  0  0  0
  151.3760  137.9136  158.6097 H   0  0  0  0  0  0  0  0  0  0  0  0
  152.7423  138.5475  157.6992 H   0  0  0  0  0  0  0  0  0  0  0  0
  144.0633  133.2704  154.6003 H   0  0  0  0  0  0  0  0  0  0  0  0
  1  2  1  0  0  0  0
  1 31  1  0  0  0  0
  1 32  1  0  0  0  0
  1 33  1  0  0  0  0
  2 12  1  0  0  0  0
  2  3  1  0  0  0  0
  2 34  1  0  0  0  0
  3  4  1  0  0  0  0
  3 35  1  0  0  0  0
  3 36  1  0  0  0  0
  4  5  1  0  0  0  0
  4 10  1  0  0  0  0
  4 65  1  0  0  0  0
  5  6  1  0  0  0  0
  5 37  1  0  0  0  0
  5 38  1  0  0  0  0
  6  7  1  0  0  0  0
  6  8  1  0  0  0  0
  6  9  1  0  0  0  0
  7 39  1  0  0  0  0
  7 40  1  0  0  0  0
  7 41  1  0  0  0  0
  8 42  1  0  0  0  0
  8 43  1  0  0  0  0
  8 44  1  0  0  0  0
  9 45  1  0  0  0  0
 10 11  1  0  0  0  0
 10 46  1  0  0  0  0
 10 47  1  0  0  0  0
 11 12  1  0  0  0  0
 11 48  1  0  0  0  0
 11 49  1  0  0  0  0
 12 13  1  0  0  0  0
 13 18  1  0  0  0  0
 13 14  2  0  0  0  0
 14 15  1  0  0  0  0
 15 16  2  0  0  0  0
 15 50  1  0  0  0  0
 16 17  1  0  0  0  0
 17 21  1  0  0  0  0
 17 18  2  0  0  0  0
 18 19  1  0  0  0  0
 19 20  2  0  0  0  0
 20 21  1  0  0  0  0
 20 51  1  0  0  0  0
 21 22  1  0  0  0  0
 22 23  1  0  0  0  0
 22 52  1  0  0  0  0
 22 53  1  0  0  0  0
 23 24  1  0  0  0  0
 23 26  1  0  0  0  0
 23 54  1  0  0  0  0
 24 25  1  0  0  0  0
 24 55  1  0  0  0  0
 24 56  1  0  0  0  0
 25 57  1  0  0  0  0
 26 30  1  0  0  0  0
 26 27  1  0  0  0  0
 26 58  1  0  0  0  0
 27 28  1  0  0  0  0
 27 59  1  0  0  0  0
 27 60  1  0  0  0  0
 28 29  1  0  0  0  0
 28 61  1  0  0  0  0
 28 62  1  0  0  0  0
 29 30  1  0  0  0  0
 30 63  1  0  0  0  0
 30 64  1  0  0  0  0
M  CHG  1   4   1
M  END
> <s_m_source_file>
AV-unprocessed.smi

> <i_m_source_file_index>
212

> <i_lp_mmshare_version>
43012

> <i_f3d_flags>
0

> <s_epik_input>
W0NIM11bQ0BASF0xW0NIMl1OKFtDSDJdQyhbQ0gzXSkoW0NIM10pW09IXSlbQ0gyXVtDSDJdTjFjKG5bY0hdbjIpYyhjMjMpbltjSF1uM1tDSDJdW0NASF0oW0NIMl1bT0hdKVtDQEBIXTRbQ0gyXVtDSDJdT1tDSDJdNA==

> <s_epik_cmdline>
J2VwaWtfcHl0aG9uJywgJy1waCcsICc3LjAnLCAnLXRuJywgJzgnLCAnLW1hJywgJzIwMCcsICctbWV0YWxfYmluZGluZycsICctaW1hZScsICc8aW5maWxlLm1hZT4nLCAnLW9tYWUnLCAnPG91dGZpbGUubWFlPic=

> <r_lp_tautomer_probability>
1

> <r_epik_Ionization_Penalty>
0.00182193

> <r_epik_Ionization_Penalty_Charging>
0.00173996

> <r_epik_Ionization_Penalty_Neutral>
8.19718e-05

> <r_epik_State_Penalty>
-0

> <r_epik_Charging_Adjusted_Penalty>
0.00173996

> <i_epik_Tot_Q>
1

> <i_epik_Tot_abs_Q>
1

> <r_epik_Metal_State_Penalty>
-0

> <b_epik_Metal_Only>
0

> <s_lp_Force_Field>
OPLS_2005

> <r_lp_Energy>
60.0398

> <b_lp_Chiralities_Consistent>
1

> <s_lp_Variant>
AV-unprocessed.smi:212-5

> <Gold.Version>
5.8.1

> <Gold.Id.Protein>
6NUR|6NUR_protein|mol2

> <Gold.PLP.Fitness>
43.5864

> <Gold.PLP.PLP>
-29.5482

> <Gold.PLP.part.hbond>
-4.0000

> <Gold.PLP.part.metal>
0.0000

> <Gold.PLP.part.buried>
-6.6850

> <Gold.PLP.part.nonpolar>
-20.0061

> <Gold.PLP.part.repulsive>
0.0870

> <Gold.PLP.ligand.clash>
0.0000

> <Gold.PLP.ligand.torsion>
2.2541

> <Gold.PLP.Chemscore.Hbond>
4.9105

> <Gold.PLP.Chemscore.CHOScore>
0.8829

> <Gold.PLP.Chemscore.Metal>
0.0000

> <Gold.Chemscore.Hbonds>
donor molecule, donor type, donor heavy atom, donor atom, acceptor molecule, acceptor atom, score
      L1  H     4    65       P1 10957  1.85
      L1  H     9    45       P1 10957  1.00
      L1  H    25    57       P1  7957  1.00
      P1  H  7989  7998       L1    25  0.77
      L1  C    20    51       P1  7948  0.96

> <Gold.PLP.Chemscore.Internal.Correction>
1.1661

> <Gold.Rescore>
     Score         DG    S(hbond)    S(metal)    S(lipo)     H(rot)  DE(clash)    DE(int)     intcor
      9.86     -15.19       3.39        0.00      66.69       3.68       0.05       5.28       ----

> <Gold.Chemscore.Fitness>
9.8582

> <Gold.Chemscore.DG>
-15.1923

> <Gold.Chemscore.ZeroCoef>
-5.4800

> <Gold.Chemscore.Hbond>
3.3932

> <Gold.Chemscore.Metal>
0.0000

> <Gold.Chemscore.Lipo>
66.6919

> <Gold.Chemscore.Internal_Hbond>
0.0000

> <Gold.Chemscore.DEClash>
0.0529

> <Gold.Chemscore.DEInternal>
5.2811

> <Gold.Chemscore.Rot>
3.6812

> <Gold.Chemscore.Internal.Correction>
   9.000000E+99

> <Gold.Chemscore.Hbonds>
donor molecule, donor type, donor heavy atom, donor atom, acceptor molecule, acceptor atom, score
      L1  H     4    65       P1 10957  0.88
      L1  H     9    45       P1 10957  0.98
      L1  H    25    57       P1  7957  0.91
      P1  H  7989  7998       L1    25  0.10

> <Gold.Chemscore.Hbond.Weighted>
-11.3332

> <Gold.Chemscore.Metal.Weighted>
-0.0000

> <Gold.Chemscore.Lipo.Weighted>
-7.8030

> <Gold.Chemscore.Internal_Hbond.Weighted>
0.0000

> <Gold.Chemscore.DEClash.Weighted>
0.0529

> <Gold.Chemscore.DEInternal.Weighted>
5.2811

> <Gold.Chemscore.Rot.Weighted>
9.4239

> <Gold.Chemscore.Internal.Correction.Weighted>
   9.000000E+99

> <Gold.Protein.RotatedTorsions>
[ 6907 6896 6895 6894 ] final    4.44 input  -60.11 | X-H torsion
[ 7974 7965 7964 7962 ] final  103.99 input  175.53 | X-H torsion
[ 8008 7997 7996 7995 ] final -126.38 input   59.86 | X-H torsion
[ 10167 10162 10161 10158 ] final   38.88 input  -65.29 | X-H torsion
[ 10718 10713 10712 10709 ] final   53.71 input   66.30 | X-H torsion
[ 10763 10752 10751 10750 ] final  -74.16 input  -60.55 | X-H torsion
[ 11005 11000 10999 10996 ] final  119.74 input  -57.11 | X-H torsion

> <Gold.Protein.ActiveResidues>
 VAL166  LYS551  ARG553  GLY616  TRP617  ASP618  TYR619  PRO620  LYS621  CYS622 
 ASP623  PHE694  ASN695  SER759  ASP760  ASP761  ALA762  ILE779  LEU786  VAL792 
 PHE793  MET794  SER795  GLU796  ALA797  LYS798  CYS799  TRP800  GLU811  SER814 

> <Gold.Protein.RotatedAtoms>
  151.6413  135.1012  160.0141 H   0  0  0  0  0  0  0  0  0  0  0  0  # atno 6907 bound_to 6896
  152.4052  133.6874  159.6359 H   0  0  0  0  0  0  0  0  0  0  0  0  # atno 6908 bound_to 6896
  150.7947  133.8638  159.3280 H   0  0  0  0  0  0  0  0  0  0  0  0  # atno 6909 bound_to 6896
  145.3387  139.2468  143.3621 H   0  0  0  0  0  0  0  0  0  0  0  0  # atno 7974 bound_to 7965
  155.2288  140.0424  157.2959 H   0  0  0  0  0  0  0  0  0  0  0  0  # atno 8008 bound_to 7997
  154.5902  140.2424  155.7902 H   0  0  0  0  0  0  0  0  0  0  0  0  # atno 8009 bound_to 7997
  156.2254  140.2956  156.0062 H   0  0  0  0  0  0  0  0  0  0  0  0  # atno 8010 bound_to 7997
  140.3894  144.1873  150.6130 H   0  0  0  0  0  0  0  0  0  0  0  0  # atno 10167 bound_to 10162
  157.5191  130.8553  149.8535 H   0  0  0  0  0  0  0  0  0  0  0  0  # atno 10718 bound_to 10713
  154.4693  135.5873  153.6310 H   0  0  0  0  0  0  0  0  0  0  0  0  # atno 10763 bound_to 10752
  152.9832  135.6063  154.3386 H   0  0  0  0  0  0  0  0  0  0  0  0  # atno 10764 bound_to 10752
  154.3267  135.2843  155.2472 H   0  0  0  0  0  0  0  0  0  0  0  0  # atno 10765 bound_to 10752
  139.9158  134.9630  156.7702 H   0  0  0  0  0  0  0  0  0  0  0  0  # atno 11005 bound_to 11000
  146.3016  140.3980  142.8702 LP  0  0  0  0  0  0  0  0  0  0  0  0  # atno 17320 bound_to 7965
  144.8807  140.7397  143.5988 LP  0  0  0  0  0  0  0  0  0  0  0  0  # atno 17321 bound_to 7965
  140.4855  143.2364  151.8894 LP  0  0  0  0  0  0  0  0  0  0  0  0  # atno 17342 bound_to 10162
  139.4790  144.5223  151.8784 LP  0  0  0  0  0  0  0  0  0  0  0  0  # atno 17343 bound_to 10162
  156.0341  130.3756  150.1608 LP  0  0  0  0  0  0  0  0  0  0  0  0  # atno 17370 bound_to 10713
  156.9796  130.9860  151.3440 LP  0  0  0  0  0  0  0  0  0  0  0  0  # atno 17371 bound_to 10713
  140.6627  133.9630  155.7813 LP  0  0  0  0  0  0  0  0  0  0  0  0  # atno 17394 bound_to 11000
  141.0632  134.0315  157.3630 LP  0  0  0  0  0  0  0  0  0  0  0  0  # atno 17395 bound_to 11000

$$$$
