AV-unprocessed.smi:2898|AV-procd|sdf|11141|dock10
  -GOLD-   2272016 23D 1   1.00000     0.00000
 Structure written by MMmdl.
 44 45  0  0  0  0  0  0  0  0  1 V2000
  149.7600  138.6173  154.1407 C   0  0  0  0  0  0  0  0  0  0  0  0
  150.8988  138.8521  155.0912 C   0  0  0  0  0  0  0  0  0  0  0  0
  151.9465  139.5509  154.6908 N   0  0  0  0  0  0  0  0  0  0  0  0
  152.8291  139.5678  155.7735 O   0  0  0  0  0  0  0  0  0  0  0  0
  152.2735  138.8681  156.7953 C   0  0  0  0  0  0  0  0  0  0  0  0
  153.0924  138.7590  158.0374 C   0  0  0  0  0  0  0  0  0  0  0  0
  151.0408  138.3915  156.4326 C   0  0  0  0  0  0  0  0  0  0  0  0
  150.0566  137.5446  157.2139 C   0  0  2  0  0  0  0  0  0  0  0  0
  148.6486  138.1594  157.2126 C   0  0  0  0  0  0  0  0  0  0  0  0
  150.5449  137.2537  158.6497 C   0  0  0  0  0  0  0  0  0  0  0  0
  149.4386  136.8996  159.5361 N   0  0  0  0  0  0  0  0  0  0  0  0
  148.6927  135.7835  159.4567 C   0  0  0  0  0  0  0  0  0  0  0  0
  148.9423  134.8773  158.6600 O   0  0  0  0  0  0  0  0  0  0  0  0
  147.4639  135.6724  160.3864 C   0  0  0  0  0  0  0  0  0  0  0  0
  146.5848  136.8542  160.2592 C   0  0  0  0  0  0  0  0  0  0  0  0
  145.8970  137.7803  160.1598 N   0  0  0  0  0  0  0  0  0  0  0  0
  146.6635  134.3989  160.0117 C   0  0  0  0  0  0  0  0  0  0  0  0
  145.4856  134.1478  160.9696 C   0  0  0  0  0  0  0  0  0  0  0  0
  145.9690  134.0550  162.4247 C   0  0  0  0  0  0  0  0  0  0  0  0
  146.7760  135.2982  162.8278 C   0  0  0  0  0  0  0  0  0  0  0  0
  147.9429  135.5392  161.8536 C   0  0  0  0  0  0  0  0  0  0  0  0
  149.6271  137.5517  153.9514 H   0  0  0  0  0  0  0  0  0  0  0  0
  149.9264  139.1045  153.1791 H   0  0  0  0  0  0  0  0  0  0  0  0
  148.8256  139.0022  154.5492 H   0  0  0  0  0  0  0  0  0  0  0  0
  153.0301  137.7563  158.4590 H   0  0  0  0  0  0  0  0  0  0  0  0
  152.7473  139.4673  158.7904 H   0  0  0  0  0  0  0  0  0  0  0  0
  154.1424  138.9690  157.8332 H   0  0  0  0  0  0  0  0  0  0  0  0
  149.9609  136.5767  156.7203 H   0  0  0  0  0  0  0  0  0  0  0  0
  148.2908  138.3180  156.1949 H   0  0  0  0  0  0  0  0  0  0  0  0
  148.6239  139.1186  157.7289 H   0  0  0  0  0  0  0  0  0  0  0  0
  147.9365  137.5020  157.7119 H   0  0  0  0  0  0  0  0  0  0  0  0
  151.3015  136.4678  158.6428 H   0  0  0  0  0  0  0  0  0  0  0  0
  151.0353  138.1376  159.0586 H   0  0  0  0  0  0  0  0  0  0  0  0
  149.1765  137.5908  160.2241 H   0  0  0  0  0  0  0  0  0  0  0  0
  146.2849  134.4827  158.9920 H   0  0  0  0  0  0  0  0  0  0  0  0
  147.3132  133.5221  160.0217 H   0  0  0  0  0  0  0  0  0  0  0  0
  144.7502  134.9474  160.8763 H   0  0  0  0  0  0  0  0  0  0  0  0
  144.9727  133.2268  160.6916 H   0  0  0  0  0  0  0  0  0  0  0  0
  145.1166  133.9314  163.0932 H   0  0  0  0  0  0  0  0  0  0  0  0
  146.5878  133.1650  162.5459 H   0  0  0  0  0  0  0  0  0  0  0  0
  146.1216  136.1702  162.8507 H   0  0  0  0  0  0  0  0  0  0  0  0
  147.1594  135.1768  163.8412 H   0  0  0  0  0  0  0  0  0  0  0  0
  148.6526  134.7157  161.9497 H   0  0  0  0  0  0  0  0  0  0  0  0
  148.4808  136.4399  162.1528 H   0  0  0  0  0  0  0  0  0  0  0  0
  1  2  1  0  0  0  0
  1 22  1  0  0  0  0
  1 23  1  0  0  0  0
  1 24  1  0  0  0  0
  2  7  1  0  0  0  0
  2  3  2  0  0  0  0
  3  4  1  0  0  0  0
  4  5  1  0  0  0  0
  5  6  1  0  0  0  0
  5  7  2  0  0  0  0
  6 25  1  0  0  0  0
  6 26  1  0  0  0  0
  6 27  1  0  0  0  0
  7  8  1  0  0  0  0
  8  9  1  0  0  0  0
  8 10  1  0  0  0  0
  8 28  1  0  0  0  0
  9 29  1  0  0  0  0
  9 30  1  0  0  0  0
  9 31  1  0  0  0  0
 10 11  1  0  0  0  0
 10 32  1  0  0  0  0
 10 33  1  0  0  0  0
 11 12  1  0  0  0  0
 11 34  1  0  0  0  0
 12 13  2  0  0  0  0
 12 14  1  0  0  0  0
 14 21  1  0  0  0  0
 14 15  1  0  0  0  0
 14 17  1  0  0  0  0
 15 16  3  0  0  0  0
 17 18  1  0  0  0  0
 17 35  1  0  0  0  0
 17 36  1  0  0  0  0
 18 19  1  0  0  0  0
 18 37  1  0  0  0  0
 18 38  1  0  0  0  0
 19 20  1  0  0  0  0
 19 39  1  0  0  0  0
 19 40  1  0  0  0  0
 20 21  1  0  0  0  0
 20 41  1  0  0  0  0
 20 42  1  0  0  0  0
 21 43  1  0  0  0  0
 21 44  1  0  0  0  0
M  END
> <s_m_source_file>
AV-unprocessed.smi

> <i_m_source_file_index>
2898

> <i_lp_mmshare_version>
43012

> <i_f3d_flags>
0

> <s_epik_input>
W0NIM11jMW5vYyhbQ0gzXSljMVtDQEhdKFtDSDNdKVtDSDJdW05IXUMoPU8pQzIoQyNOKVtDSDJdW0NIMl1bQ0gyXVtDSDJdW0NIMl0y

> <s_epik_cmdline>
J2VwaWtfcHl0aG9uJywgJy1waCcsICc3LjAnLCAnLXRuJywgJzgnLCAnLW1hJywgJzIwMCcsICctbWV0YWxfYmluZGluZycsICctaW1hZScsICc8aW5maWxlLm1hZT4nLCAnLW9tYWUnLCAnPG91dGZpbGUubWFlPic=

> <r_lp_tautomer_probability>
1

> <r_epik_Ionization_Penalty>
4.33734e-07

> <r_epik_Ionization_Penalty_Charging>
0

> <r_epik_Ionization_Penalty_Neutral>
4.33734e-07

> <r_epik_State_Penalty>
-0

> <r_epik_Charging_Adjusted_Penalty>
0

> <i_epik_Tot_Q>
0

> <i_epik_Tot_abs_Q>
0

> <r_epik_Metal_State_Penalty>
-0

> <b_epik_Metal_Only>
0

> <s_lp_Force_Field>
OPLS_2005

> <r_lp_Energy>
7.89046

> <b_lp_Chiralities_Consistent>
1

> <s_lp_Variant>
AV-unprocessed.smi:2898-1

> <Gold.Version>
5.8.1

> <Gold.Id.Protein>
6NUR|6NUR_protein|mol2

> <Gold.PLP.Fitness>
39.6304

> <Gold.PLP.PLP>
-28.9807

> <Gold.PLP.part.hbond>
-4.0000

> <Gold.PLP.part.metal>
0.0000

> <Gold.PLP.part.buried>
-3.8474

> <Gold.PLP.part.nonpolar>
-20.5884

> <Gold.PLP.part.repulsive>
0.2854

> <Gold.PLP.ligand.clash>
0.0000

> <Gold.PLP.ligand.torsion>
0.4970

> <Gold.PLP.Chemscore.Hbond>
3.8600

> <Gold.PLP.Chemscore.CHOScore>
0.0000

> <Gold.PLP.Chemscore.Metal>
0.0000

> <Gold.Chemscore.Hbonds>
donor molecule, donor type, donor heavy atom, donor atom, acceptor molecule, acceptor atom, score
      P1  H  6896  6909       L1    13  1.00
      P1  H  6934  6947       L1    16  0.80
      P1  H  7989  7998       L1     3  0.94
      P1  H  7997  8010       L1     4  1.00

> <Gold.PLP.Chemscore.Internal.Correction>
0.0636

> <Gold.Rescore>
     Score         DG    S(hbond)    S(metal)    S(lipo)     H(rot)  DE(clash)    DE(int)     intcor
     18.77     -20.18       2.80        0.00      79.17       1.52       0.07       1.35       ----

> <Gold.Chemscore.Fitness>
18.7657

> <Gold.Chemscore.DG>
-20.1844

> <Gold.Chemscore.ZeroCoef>
-5.4800

> <Gold.Chemscore.Hbond>
2.7974

> <Gold.Chemscore.Metal>
0.0000

> <Gold.Chemscore.Lipo>
79.1731

> <Gold.Chemscore.Internal_Hbond>
0.0000

> <Gold.Chemscore.DEClash>
0.0708

> <Gold.Chemscore.DEInternal>
1.3479

> <Gold.Chemscore.Rot>
1.5243

> <Gold.Chemscore.Internal.Correction>
   9.000000E+99

> <Gold.Chemscore.Hbonds>
donor molecule, donor type, donor heavy atom, donor atom, acceptor molecule, acceptor atom, score
      P1  H  6896  6909       L1    13  0.33
      P1  H  6934  6947       L1    16  0.11
      P1  H  7989  7998       L1     3  0.87
      P1  H  7997  8010       L1     4  0.88

> <Gold.Chemscore.Hbond.Weighted>
-9.3434

> <Gold.Chemscore.Metal.Weighted>
-0.0000

> <Gold.Chemscore.Lipo.Weighted>
-9.2633

> <Gold.Chemscore.Internal_Hbond.Weighted>
0.0000

> <Gold.Chemscore.DEClash.Weighted>
0.0708

> <Gold.Chemscore.DEInternal.Weighted>
1.3479

> <Gold.Chemscore.Rot.Weighted>
3.9022

> <Gold.Chemscore.Internal.Correction.Weighted>
   9.000000E+99

> <Gold.Protein.RotatedTorsions>
[ 6907 6896 6895 6894 ] final   21.97 input  -60.11 | X-H torsion
[ 7974 7965 7964 7962 ] final  -18.54 input  175.53 | X-H torsion
[ 8008 7997 7996 7995 ] final   90.70 input   59.86 | X-H torsion
[ 10167 10162 10161 10158 ] final -164.92 input  -65.29 | X-H torsion
[ 10718 10713 10712 10709 ] final -109.76 input   66.30 | X-H torsion
[ 10763 10752 10751 10750 ] final -159.31 input  -60.55 | X-H torsion
[ 11005 11000 10999 10996 ] final  -12.70 input  -57.11 | X-H torsion

> <Gold.Protein.ActiveResidues>
 VAL166  LYS551  ARG553  GLY616  TRP617  ASP618  TYR619  PRO620  LYS621  CYS622 
 ASP623  PHE694  ASN695  SER759  ASP760  ASP761  ALA762  ILE779  LEU786  VAL792 
 PHE793  MET794  SER795  GLU796  ALA797  LYS798  CYS799  TRP800  GLU811  SER814 

> <Gold.Protein.RotatedAtoms>
  151.9200  135.0302  160.0520 H   0  0  0  0  0  0  0  0  0  0  0  0  # atno 6907 bound_to 6896
  152.2208  133.4977  159.5169 H   0  0  0  0  0  0  0  0  0  0  0  0  # atno 6908 bound_to 6896
  150.6999  134.1262  159.4095 H   0  0  0  0  0  0  0  0  0  0  0  0  # atno 6909 bound_to 6896
  146.1887  140.3936  142.8466 H   0  0  0  0  0  0  0  0  0  0  0  0  # atno 7974 bound_to 7965
  156.0151  140.3346  155.6980 H   0  0  0  0  0  0  0  0  0  0  0  0  # atno 8008 bound_to 7997
  155.6103  140.0664  157.2726 H   0  0  0  0  0  0  0  0  0  0  0  0  # atno 8009 bound_to 7997
  154.4295  140.1794  156.1253 H   0  0  0  0  0  0  0  0  0  0  0  0  # atno 8010 bound_to 7997
  139.6217  144.0611  152.1939 H   0  0  0  0  0  0  0  0  0  0  0  0  # atno 10167 bound_to 10162
  156.0554  130.5780  150.8144 H   0  0  0  0  0  0  0  0  0  0  0  0  # atno 10718 bound_to 10713
  154.7485  135.3086  154.8601 H   0  0  0  0  0  0  0  0  0  0  0  0  # atno 10763 bound_to 10752
  153.9395  135.6776  153.4748 H   0  0  0  0  0  0  0  0  0  0  0  0  # atno 10764 bound_to 10752
  153.1081  135.4879  154.8914 H   0  0  0  0  0  0  0  0  0  0  0  0  # atno 10765 bound_to 10752
  140.7685  133.8458  155.9186 H   0  0  0  0  0  0  0  0  0  0  0  0  # atno 11005 bound_to 11000
  144.8445  140.6907  143.6208 LP  0  0  0  0  0  0  0  0  0  0  0  0  # atno 17320 bound_to 7965
  145.3861  139.1626  143.4254 LP  0  0  0  0  0  0  0  0  0  0  0  0  # atno 17321 bound_to 7965
  140.0254  144.6121  150.7531 LP  0  0  0  0  0  0  0  0  0  0  0  0  # atno 17342 bound_to 10162
  140.7386  143.2780  151.3682 LP  0  0  0  0  0  0  0  0  0  0  0  0  # atno 17343 bound_to 10162
  157.5519  131.0944  150.9683 LP  0  0  0  0  0  0  0  0  0  0  0  0  # atno 17370 bound_to 10713
  156.9941  130.5574  149.5305 LP  0  0  0  0  0  0  0  0  0  0  0  0  # atno 17371 bound_to 10713
  140.9596  134.1672  157.4664 LP  0  0  0  0  0  0  0  0  0  0  0  0  # atno 17394 bound_to 11000
  139.8759  134.9940  156.5671 LP  0  0  0  0  0  0  0  0  0  0  0  0  # atno 17395 bound_to 11000

$$$$
