AV-unprocessed.smi:1493|AV-procd|sdf|6048|dock4
  -GOLD-   22720 6163D 1   1.00000     0.00000
 Structure written by MMmdl.
 33 33  0  0  0  0  0  0  0  0  2 V2000
  153.6227  141.9240  160.0732 C   0  0  0  0  0  0  0  0  0  0  0  0
  153.4346  140.6036  159.3183 C   0  0  0  0  0  0  0  0  0  0  0  0
  151.9567  140.3082  159.0091 C   0  0  0  0  0  0  0  0  0  0  0  0
  151.6813  138.8417  158.6258 C   0  0  2  0  0  0  0  0  0  0  0  0
  152.0396  138.5688  157.1561 C   0  0  0  0  0  0  0  0  0  0  0  0
  150.2795  138.5088  158.8686 N   0  0  0  0  0  0  0  0  0  0  0  0
  149.7524  137.2752  158.8251 C   0  0  0  0  0  0  0  0  0  0  0  0
  150.4171  136.2664  158.5830 O   0  0  0  0  0  0  0  0  0  0  0  0
  148.2463  137.1808  159.1157 C   0  0  0  0  0  0  0  0  0  0  0  0
  147.9206  136.4158  160.3285 N   0  0  0  0  0  0  0  0  0  0  0  0
  148.1418  137.1529  161.5697 N   0  5  0  0  0  0  0  0  0  0  0  0
  147.8951  136.5395  162.7576 C   0  0  0  0  0  0  0  0  0  0  0  0
  148.0748  137.0895  163.8417 O   0  0  0  0  0  0  0  0  0  0  0  0
  147.3920  135.1761  162.7321 C   0  0  0  0  0  0  0  0  0  0  0  0
  147.1706  134.5294  161.5707 C   0  0  0  0  0  0  0  0  0  0  0  0
  147.4241  135.1465  160.2745 C   0  0  0  0  0  0  0  0  0  0  0  0
  147.2097  134.5667  159.2096 O   0  0  0  0  0  0  0  0  0  0  0  0
  154.6778  142.1070  160.2773 H   0  0  0  0  0  0  0  0  0  0  0  0
  153.0965  141.9109  161.0281 H   0  0  0  0  0  0  0  0  0  0  0  0
  153.2448  142.7662  159.4930 H   0  0  0  0  0  0  0  0  0  0  0  0
  154.0024  140.6385  158.3881 H   0  0  0  0  0  0  0  0  0  0  0  0
  153.8629  139.7937  159.9097 H   0  0  0  0  0  0  0  0  0  0  0  0
  151.3437  140.5840  159.8685 H   0  0  0  0  0  0  0  0  0  0  0  0
  151.6345  140.9521  158.1899 H   0  0  0  0  0  0  0  0  0  0  0  0
  152.3114  138.2088  159.2537 H   0  0  0  0  0  0  0  0  0  0  0  0
  153.0877  138.7961  156.9597 H   0  0  0  0  0  0  0  0  0  0  0  0
  151.4348  139.1755  156.4812 H   0  0  0  0  0  0  0  0  0  0  0  0
  151.8784  137.5218  156.8970 H   0  0  0  0  0  0  0  0  0  0  0  0
  149.6602  139.2772  159.0816 H   0  0  0  0  0  0  0  0  0  0  0  0
  147.8548  138.1971  159.1861 H   0  0  0  0  0  0  0  0  0  0  0  0
  147.7394  136.7302  158.2604 H   0  0  0  0  0  0  0  0  0  0  0  0
  147.1891  134.6711  163.6649 H   0  0  0  0  0  0  0  0  0  0  0  0
  146.7946  133.5178  161.5996 H   0  0  0  0  0  0  0  0  0  0  0  0
  1  2  1  0  0  0  0
  1 18  1  0  0  0  0
  1 19  1  0  0  0  0
  1 20  1  0  0  0  0
  2  3  1  0  0  0  0
  2 21  1  0  0  0  0
  2 22  1  0  0  0  0
  3  4  1  0  0  0  0
  3 23  1  0  0  0  0
  3 24  1  0  0  0  0
  4  5  1  0  0  0  0
  4  6  1  0  0  0  0
  4 25  1  0  0  0  0
  5 26  1  0  0  0  0
  5 27  1  0  0  0  0
  5 28  1  0  0  0  0
  6  7  1  0  0  0  0
  6 29  1  0  0  0  0
  7  8  2  0  0  0  0
  7  9  1  0  0  0  0
  9 30  1  0  0  0  0
  9 31  1  0  0  0  0
  9 10  1  0  0  0  0
 10 11  1  0  0  0  0
 10 16  1  0  0  0  0
 11 12  1  0  0  0  0
 12 13  2  0  0  0  0
 12 14  1  0  0  0  0
 14 32  1  0  0  0  0
 14 15  2  0  0  0  0
 15 33  1  0  0  0  0
 15 16  1  0  0  0  0
 16 17  2  0  0  0  0
M  CHG  1  11  -1
M  END
> <s_m_source_file>
AV-unprocessed.smi

> <i_m_source_file_index>
1493

> <i_lp_mmshare_version>
43012

> <i_f3d_flags>
0

> <s_epik_input>
W0NIM11bQ0gyXVtDSDJdW0NASF0oW0NIM10pW05IXUMoPU8pW0NIMl1uMVtuSF1jKD1PKVtjSF1bY0hdYzE9Tw==

> <s_epik_cmdline>
J2VwaWtfcHl0aG9uJywgJy1waCcsICc3LjAnLCAnLXRuJywgJzgnLCAnLW1hJywgJzIwMCcsICctbWV0YWxfYmluZGluZycsICctaW1hZScsICc8aW5maWxlLm1hZT4nLCAnLW9tYWUnLCAnPG91dGZpbGUubWFlPic=

> <r_lp_tautomer_probability>
1

> <r_epik_Ionization_Penalty>
0.0986298

> <r_epik_Ionization_Penalty_Charging>
0.0986298

> <r_epik_Ionization_Penalty_Neutral>
1.93017e-08

> <r_epik_State_Penalty>
0.0347731

> <r_epik_Charging_Adjusted_Penalty>
0.133403

> <i_epik_Tot_Q>
-1

> <i_epik_Tot_abs_Q>
1

> <r_epik_Metal_State_Penalty>
0.0347731

> <b_epik_Metal_Only>
0

> <s_lp_Force_Field>
OPLS_2005

> <r_lp_Energy>
18.8288

> <b_lp_Chiralities_Consistent>
1

> <s_lp_Variant>
AV-unprocessed.smi:1493-1

> <Gold.Version>
5.8.1

> <Gold.Id.Protein>
6NUR|6NUR_protein|mol2

> <Gold.PLP.Fitness>
43.8179

> <Gold.PLP.PLP>
-31.9900

> <Gold.PLP.part.hbond>
-3.7513

> <Gold.PLP.part.metal>
0.0000

> <Gold.PLP.part.buried>
-2.3678

> <Gold.PLP.part.nonpolar>
-26.3264

> <Gold.PLP.part.repulsive>
0.2578

> <Gold.PLP.ligand.clash>
0.0000

> <Gold.PLP.ligand.torsion>
0.5768

> <Gold.PLP.Chemscore.Hbond>
4.3104

> <Gold.PLP.Chemscore.CHOScore>
0.0000

> <Gold.PLP.Chemscore.Metal>
0.0000

> <Gold.Chemscore.Hbonds>
donor molecule, donor type, donor heavy atom, donor atom, acceptor molecule, acceptor atom, score
      P1  H  6896  6909       L1     8  0.93
      P1  H  6931  6943       L1    11  1.59
      P1  H  6934  6947       L1    11  0.60

> <Gold.PLP.Chemscore.Internal.Correction>
0.0503

> <Gold.Rescore>
     Score         DG    S(hbond)    S(metal)    S(lipo)     H(rot)  DE(clash)    DE(int)     intcor
     11.50     -11.98       1.72        0.00      53.17       2.14       0.04       0.44       ----

> <Gold.Chemscore.Fitness>
11.4951

> <Gold.Chemscore.DG>
-11.9807

> <Gold.Chemscore.ZeroCoef>
-5.4800

> <Gold.Chemscore.Hbond>
1.7218

> <Gold.Chemscore.Metal>
0.0000

> <Gold.Chemscore.Lipo>
53.1725

> <Gold.Chemscore.Internal_Hbond>
0.0000

> <Gold.Chemscore.DEClash>
0.0419

> <Gold.Chemscore.DEInternal>
0.4438

> <Gold.Chemscore.Rot>
2.1372

> <Gold.Chemscore.Internal.Correction>
   9.000000E+99

> <Gold.Chemscore.Hbonds>
donor molecule, donor type, donor heavy atom, donor atom, acceptor molecule, acceptor atom, score
      P1  H  6896  6909       L1     8  0.89
      P1  H  6931  6943       L1    11  0.35
      P1  H  6934  6947       L1    11  0.05

> <Gold.Chemscore.Hbond.Weighted>
-5.7509

> <Gold.Chemscore.Metal.Weighted>
-0.0000

> <Gold.Chemscore.Lipo.Weighted>
-6.2212

> <Gold.Chemscore.Internal_Hbond.Weighted>
0.0000

> <Gold.Chemscore.DEClash.Weighted>
0.0419

> <Gold.Chemscore.DEInternal.Weighted>
0.4438

> <Gold.Chemscore.Rot.Weighted>
5.4713

> <Gold.Chemscore.Internal.Correction.Weighted>
   9.000000E+99

> <Gold.Protein.RotatedTorsions>
[ 6907 6896 6895 6894 ] final   87.52 input  -60.11 | X-H torsion
[ 7974 7965 7964 7962 ] final  -59.32 input  175.53 | X-H torsion
[ 8008 7997 7996 7995 ] final    9.83 input   59.86 | X-H torsion
[ 10167 10162 10161 10158 ] final -103.87 input  -65.29 | X-H torsion
[ 10718 10713 10712 10709 ] final  -65.68 input   66.30 | X-H torsion
[ 10763 10752 10751 10750 ] final  -49.71 input  -60.55 | X-H torsion
[ 11005 11000 10999 10996 ] final  173.70 input  -57.11 | X-H torsion

> <Gold.Protein.ActiveResidues>
 VAL166  LYS551  ARG553  GLY616  TRP617  ASP618  TYR619  PRO620  LYS621  CYS622 
 ASP623  PHE694  ASN695  SER759  ASP760  ASP761  ALA762  ILE779  LEU786  VAL792 
 PHE793  MET794  SER795  GLU796  ALA797  LYS798  CYS799  TRP800  GLU811  SER814 

> <Gold.Protein.RotatedAtoms>
  152.5412  134.2263  159.8807 H   0  0  0  0  0  0  0  0  0  0  0  0  # atno 6907 bound_to 6896
  151.2238  133.4481  159.2609 H   0  0  0  0  0  0  0  0  0  0  0  0  # atno 6908 bound_to 6896
  151.0781  134.9854  159.8398 H   0  0  0  0  0  0  0  0  0  0  0  0  # atno 6909 bound_to 6896
  145.8288  140.8493  143.0094 H   0  0  0  0  0  0  0  0  0  0  0  0  # atno 7974 bound_to 7965
  154.7853  140.2826  155.6032 H   0  0  0  0  0  0  0  0  0  0  0  0  # atno 8008 bound_to 7997
  156.2956  140.2615  156.2616 H   0  0  0  0  0  0  0  0  0  0  0  0  # atno 8009 bound_to 7997
  154.9735  140.0376  157.2235 H   0  0  0  0  0  0  0  0  0  0  0  0  # atno 8010 bound_to 7997
  140.2154  143.3715  152.1015 H   0  0  0  0  0  0  0  0  0  0  0  0  # atno 10167 bound_to 10162
  156.0655  130.4251  150.1599 H   0  0  0  0  0  0  0  0  0  0  0  0  # atno 10718 bound_to 10713
  154.0984  135.6567  153.4864 H   0  0  0  0  0  0  0  0  0  0  0  0  # atno 10763 bound_to 10752
  153.0297  135.5219  154.7310 H   0  0  0  0  0  0  0  0  0  0  0  0  # atno 10764 bound_to 10752
  154.6455  135.2994  155.0020 H   0  0  0  0  0  0  0  0  0  0  0  0  # atno 10765 bound_to 10752
  140.3433  134.7257  157.4218 H   0  0  0  0  0  0  0  0  0  0  0  0  # atno 11005 bound_to 11000
  144.6741  140.0642  143.7475 LP  0  0  0  0  0  0  0  0  0  0  0  0  # atno 17320 bound_to 7965
  145.9593  139.2789  143.1165 LP  0  0  0  0  0  0  0  0  0  0  0  0  # atno 17321 bound_to 7965
  139.5164  144.6977  151.5583 LP  0  0  0  0  0  0  0  0  0  0  0  0  # atno 17342 bound_to 10162
  140.6294  143.9106  150.6592 LP  0  0  0  0  0  0  0  0  0  0  0  0  # atno 17343 bound_to 10162
  156.9660  130.9820  151.3469 LP  0  0  0  0  0  0  0  0  0  0  0  0  # atno 17370 bound_to 10713
  157.5694  130.8300  149.8371 LP  0  0  0  0  0  0  0  0  0  0  0  0  # atno 17371 bound_to 10713
  140.0763  134.5793  155.8588 LP  0  0  0  0  0  0  0  0  0  0  0  0  # atno 17394 bound_to 11000
  141.2032  133.6630  156.6051 LP  0  0  0  0  0  0  0  0  0  0  0  0  # atno 17395 bound_to 11000

$$$$
