AV-unprocessed.smi:836|AV-procd|sdf|3890|dock10
  -GOLD-   22720 1343D 1   1.00000     0.00000
 Structure written by MMmdl.
 38 39  0  0  0  0  0  0  0  0  1 V2000
  153.4230  142.3487  160.8861 C   0  0  0  0  0  0  0  0  0  0  0  0
  152.2861  142.3903  159.8552 C   0  0  2  0  0  0  0  0  0  0  0  0
  152.1545  141.0499  159.1072 C   0  0  0  0  0  0  0  0  0  0  0  0
  151.0184  141.0871  158.0726 C   0  0  0  0  0  0  0  0  0  0  0  0
  151.2024  142.2475  157.0745 C   0  0  1  0  0  0  0  0  0  0  0  0
  150.0737  142.3162  156.1525 N   0  0  0  0  0  0  0  0  0  0  0  0
  149.7880  141.4149  155.1996 C   0  0  0  0  0  0  0  0  0  0  0  0
  150.4529  140.3977  155.0046 O   0  0  0  0  0  0  0  0  0  0  0  0
  148.5571  141.7007  154.3371 C   0  0  0  0  0  0  0  0  0  0  0  0
  147.6600  140.5588  154.2999 N   0  0  0  0  0  0  0  0  0  0  0  0
  147.2309  139.8412  153.2041 C   0  0  0  0  0  0  0  0  0  0  0  0
  146.3897  138.8679  153.6611 C   0  0  0  0  0  0  0  0  0  0  0  0
  146.3614  139.0677  155.0721 C   0  0  0  0  0  0  0  0  0  0  0  0
  145.5951  138.2924  156.1111 C   0  0  0  0  0  0  0  0  0  0  0  0
  144.2853  138.3744  155.8772 F   0  0  0  0  0  0  0  0  0  0  0  0
  145.9569  137.0098  156.0813 F   0  0  0  0  0  0  0  0  0  0  0  0
  145.8463  138.7874  157.3229 F   0  0  0  0  0  0  0  0  0  0  0  0
  147.1273  140.0837  155.4464 N   0  0  0  0  0  0  0  0  0  0  0  0
  151.3391  143.5882  157.8186 C   0  0  0  0  0  0  0  0  0  0  0  0
  152.4745  143.5458  158.8540 C   0  0  0  0  0  0  0  0  0  0  0  0
  154.3862  142.1701  160.4073 H   0  0  0  0  0  0  0  0  0  0  0  0
  153.2621  141.5552  161.6165 H   0  0  0  0  0  0  0  0  0  0  0  0
  153.4916  143.2897  161.4324 H   0  0  0  0  0  0  0  0  0  0  0  0
  151.3567  142.5647  160.3992 H   0  0  0  0  0  0  0  0  0  0  0  0
  153.0933  140.8140  158.6044 H   0  0  0  0  0  0  0  0  0  0  0  0
  151.9740  140.2422  159.8172 H   0  0  0  0  0  0  0  0  0  0  0  0
  150.9793  140.1357  157.5411 H   0  0  0  0  0  0  0  0  0  0  0  0
  150.0632  141.1917  158.5892 H   0  0  0  0  0  0  0  0  0  0  0  0
  152.1188  142.0820  156.5042 H   0  0  0  0  0  0  0  0  0  0  0  0
  149.4682  143.1204  156.2346 H   0  0  0  0  0  0  0  0  0  0  0  0
  148.0132  142.5590  154.7339 H   0  0  0  0  0  0  0  0  0  0  0  0
  148.8668  141.9576  153.3228 H   0  0  0  0  0  0  0  0  0  0  0  0
  147.5543  140.0824  152.2022 H   0  0  0  0  0  0  0  0  0  0  0  0
  145.8698  138.1243  153.0754 H   0  0  0  0  0  0  0  0  0  0  0  0
  151.5227  144.3932  157.1061 H   0  0  0  0  0  0  0  0  0  0  0  0
  150.4016  143.8294  158.3221 H   0  0  0  0  0  0  0  0  0  0  0  0
  152.5181  144.4969  159.3857 H   0  0  0  0  0  0  0  0  0  0  0  0
  153.4304  143.4365  158.3399 H   0  0  0  0  0  0  0  0  0  0  0  0
  1  2  1  0  0  0  0
  1 21  1  0  0  0  0
  1 22  1  0  0  0  0
  1 23  1  0  0  0  0
  2 20  1  0  0  0  0
  2  3  1  0  0  0  0
  2 24  1  0  0  0  0
  3  4  1  0  0  0  0
  3 25  1  0  0  0  0
  3 26  1  0  0  0  0
  4  5  1  0  0  0  0
  4 27  1  0  0  0  0
  4 28  1  0  0  0  0
  5  6  1  0  0  0  0
  5 19  1  0  0  0  0
  5 29  1  0  0  0  0
  6  7  1  0  0  0  0
  6 30  1  0  0  0  0
  7  8  2  0  0  0  0
  7  9  1  0  0  0  0
  9 10  1  0  0  0  0
  9 31  1  0  0  0  0
  9 32  1  0  0  0  0
 10 18  1  0  0  0  0
 10 11  1  0  0  0  0
 11 12  2  0  0  0  0
 11 33  1  0  0  0  0
 12 13  1  0  0  0  0
 12 34  1  0  0  0  0
 13 14  1  0  0  0  0
 13 18  2  0  0  0  0
 14 15  1  0  0  0  0
 14 16  1  0  0  0  0
 14 17  1  0  0  0  0
 19 20  1  0  0  0  0
 19 35  1  0  0  0  0
 19 36  1  0  0  0  0
 20 37  1  0  0  0  0
 20 38  1  0  0  0  0
M  END
> <s_m_source_file>
AV-unprocessed.smi

> <i_m_source_file_index>
836

> <i_lp_mmshare_version>
43012

> <i_f3d_flags>
0

> <s_epik_input>
W0NIM11bQ0BASF0xW0NIMl1bQ0gyXVtDQEhdKFtDSDJdW0NIMl0xKVtOSF1DKD1PKVtDSDJdbjJbY0hdW2NIXWMobjIpQyhGKShGKUY=

> <s_epik_cmdline>
J2VwaWtfcHl0aG9uJywgJy1waCcsICc3LjAnLCAnLXRuJywgJzgnLCAnLW1hJywgJzIwMCcsICctbWV0YWxfYmluZGluZycsICctaW1hZScsICc8aW5maWxlLm1hZT4nLCAnLW9tYWUnLCAnPG91dGZpbGUubWFlPic=

> <r_lp_tautomer_probability>
1

> <r_epik_Ionization_Penalty>
8.28749e-08

> <r_epik_Ionization_Penalty_Charging>
0

> <r_epik_Ionization_Penalty_Neutral>
8.28749e-08

> <r_epik_State_Penalty>
-0

> <r_epik_Charging_Adjusted_Penalty>
0

> <i_epik_Tot_Q>
0

> <i_epik_Tot_abs_Q>
0

> <r_epik_Metal_State_Penalty>
-0

> <b_epik_Metal_Only>
0

> <s_lp_Force_Field>
OPLS_2005

> <r_lp_Energy>
10.955

> <b_lp_Chiralities_Consistent>
1

> <s_lp_Variant>
AV-unprocessed.smi:836-1

> <Gold.Version>
5.8.1

> <Gold.Id.Protein>
6NUR|6NUR_protein|mol2

> <Gold.PLP.Fitness>
43.0034

> <Gold.PLP.PLP>
-34.3207

> <Gold.PLP.part.hbond>
-2.0000

> <Gold.PLP.part.metal>
0.0000

> <Gold.PLP.part.buried>
-3.0332

> <Gold.PLP.part.nonpolar>
-29.3889

> <Gold.PLP.part.repulsive>
0.1979

> <Gold.PLP.ligand.clash>
0.0000

> <Gold.PLP.ligand.torsion>
0.1611

> <Gold.PLP.Chemscore.Hbond>
2.0000

> <Gold.PLP.Chemscore.CHOScore>
1.0000

> <Gold.PLP.Chemscore.Metal>
0.0000

> <Gold.Chemscore.Hbonds>
donor molecule, donor type, donor heavy atom, donor atom, acceptor molecule, acceptor atom, score
      L1  H     6    30       P1  8028  1.00
      P1  H  7989  7998       L1     8  1.00
      L1  C    11    33       P1  7957  1.00

> <Gold.PLP.Chemscore.Internal.Correction>
0.0050

> <Gold.Rescore>
     Score         DG    S(hbond)    S(metal)    S(lipo)     H(rot)  DE(clash)    DE(int)     intcor
     17.61     -17.90       1.70        0.00      91.34       1.54       0.09       0.19       ----

> <Gold.Chemscore.Fitness>
17.6134

> <Gold.Chemscore.DG>
-17.8988

> <Gold.Chemscore.ZeroCoef>
-5.4800

> <Gold.Chemscore.Hbond>
1.7005

> <Gold.Chemscore.Metal>
0.0000

> <Gold.Chemscore.Lipo>
91.3414

> <Gold.Chemscore.Internal_Hbond>
0.0000

> <Gold.Chemscore.DEClash>
0.0932

> <Gold.Chemscore.DEInternal>
0.1923

> <Gold.Chemscore.Rot>
1.5422

> <Gold.Chemscore.Internal.Correction>
   9.000000E+99

> <Gold.Chemscore.Hbonds>
donor molecule, donor type, donor heavy atom, donor atom, acceptor molecule, acceptor atom, score
      L1  H     6    30       P1  8028  0.95
      P1  H  7989  7998       L1     8  0.43

> <Gold.Chemscore.Hbond.Weighted>
-5.6798

> <Gold.Chemscore.Metal.Weighted>
-0.0000

> <Gold.Chemscore.Lipo.Weighted>
-10.6869

> <Gold.Chemscore.Internal_Hbond.Weighted>
0.0000

> <Gold.Chemscore.DEClash.Weighted>
0.0932

> <Gold.Chemscore.DEInternal.Weighted>
0.1923

> <Gold.Chemscore.Rot.Weighted>
3.9479

> <Gold.Chemscore.Internal.Correction.Weighted>
   9.000000E+99

> <Gold.Protein.RotatedTorsions>
[ 6907 6896 6895 6894 ] final  176.48 input  -60.11 | X-H torsion
[ 7974 7965 7964 7962 ] final  121.55 input  175.53 | X-H torsion
[ 8008 7997 7996 7995 ] final -123.04 input   59.86 | X-H torsion
[ 10167 10162 10161 10158 ] final    5.50 input  -65.29 | X-H torsion
[ 10718 10713 10712 10709 ] final   59.86 input   66.30 | X-H torsion
[ 10763 10752 10751 10750 ] final  176.33 input  -60.55 | X-H torsion
[ 11005 11000 10999 10996 ] final  168.53 input  -57.11 | X-H torsion

> <Gold.Protein.ActiveResidues>
 VAL166  LYS551  ARG553  GLY616  TRP617  ASP618  TYR619  PRO620  LYS621  CYS622 
 ASP623  PHE694  ASN695  SER759  ASP760  ASP761  ALA762  ILE779  LEU786  VAL792 
 PHE793  MET794  SER795  GLU796  ALA797  LYS798  CYS799  TRP800  GLU811  SER814 

> <Gold.Protein.RotatedAtoms>
  151.7195  133.3314  159.3311 H   0  0  0  0  0  0  0  0  0  0  0  0  # atno 6907 bound_to 6896
  150.7659  134.6460  159.6272 H   0  0  0  0  0  0  0  0  0  0  0  0  # atno 6908 bound_to 6896
  152.3661  134.6805  160.0243 H   0  0  0  0  0  0  0  0  0  0  0  0  # atno 6909 bound_to 6896
  145.1180  139.3408  143.4729 H   0  0  0  0  0  0  0  0  0  0  0  0  # atno 7974 bound_to 7965
  155.1741  140.0409  157.2869 H   0  0  0  0  0  0  0  0  0  0  0  0  # atno 8008 bound_to 7997
  154.6249  140.2510  155.7476 H   0  0  0  0  0  0  0  0  0  0  0  0  # atno 8009 bound_to 7997
  156.2454  140.2887  156.0574 H   0  0  0  0  0  0  0  0  0  0  0  0  # atno 8010 bound_to 7997
  140.6479  143.7618  150.7527 H   0  0  0  0  0  0  0  0  0  0  0  0  # atno 10167 bound_to 10162
  157.5709  130.8906  149.9265 H   0  0  0  0  0  0  0  0  0  0  0  0  # atno 10718 bound_to 10713
  154.4797  135.2774  155.1580 H   0  0  0  0  0  0  0  0  0  0  0  0  # atno 10763 bound_to 10752
  154.3295  135.6193  153.5548 H   0  0  0  0  0  0  0  0  0  0  0  0  # atno 10764 bound_to 10752
  152.9874  135.5762  154.5195 H   0  0  0  0  0  0  0  0  0  0  0  0  # atno 10765 bound_to 10752
  140.2882  134.7695  157.3816 H   0  0  0  0  0  0  0  0  0  0  0  0  # atno 11005 bound_to 11000
  146.3522  140.1127  142.8603 LP  0  0  0  0  0  0  0  0  0  0  0  0  # atno 17320 bound_to 7965
  145.0772  140.9196  143.4847 LP  0  0  0  0  0  0  0  0  0  0  0  0  # atno 17321 bound_to 7965
  140.1262  143.4567  152.2282 LP  0  0  0  0  0  0  0  0  0  0  0  0  # atno 17342 bound_to 10162
  139.5691  144.7452  151.3941 LP  0  0  0  0  0  0  0  0  0  0  0  0  # atno 17343 bound_to 10162
  156.0754  130.3679  150.0688 LP  0  0  0  0  0  0  0  0  0  0  0  0  # atno 17370 bound_to 10713
  156.8841  130.9566  151.3596 LP  0  0  0  0  0  0  0  0  0  0  0  0  # atno 17371 bound_to 10713
  140.1220  134.5207  155.8176 LP  0  0  0  0  0  0  0  0  0  0  0  0  # atno 17394 bound_to 11000
  141.2151  133.6759  156.6883 LP  0  0  0  0  0  0  0  0  0  0  0  0  # atno 17395 bound_to 11000

$$$$
