AV-unprocessed.smi:3314|AV-procd|sdf|12737|dock2
  -GOLD-   2272019 83D 1   1.00000     0.00000
 Structure written by MMmdl.
 38 39  0  0  0  0  0  0  0  0  2 V2000
  151.3033  145.5129  159.8022 C   0  0  0  0  0  0  0  0  0  0  0  0
  151.7186  144.1309  159.3407 C   0  0  0  0  0  0  0  0  0  0  0  0
  152.6379  143.3355  160.1366 C   0  0  0  0  0  0  0  0  0  0  0  0
  152.9945  142.1122  159.7094 C   0  0  0  0  0  0  0  0  0  0  0  0
  153.9433  141.2021  160.4606 C   0  0  0  0  0  0  0  0  0  0  0  0
  152.4969  141.5998  158.5179 N   0  0  0  0  0  0  0  0  0  0  0  0
  151.6036  142.3054  157.6925 C   0  0  0  0  0  0  0  0  0  0  0  0
  151.1083  141.8710  156.5701 N   0  0  0  0  0  0  0  0  0  0  0  0
  151.4259  140.6227  156.0416 C   0  0  0  0  0  0  0  0  0  0  0  0
  152.3661  139.8719  156.3175 O   0  0  0  0  0  0  0  0  0  0  0  0
  150.4164  140.1793  154.9759 C   0  0  2  0  0  0  0  0  0  0  0  0
  149.3146  141.2426  154.7800 C   0  0  0  0  0  0  0  0  0  0  0  0
  148.2935  140.7598  153.8220 N   0  3  2  0  0  0  0  0  0  0  0  0
  147.2334  141.7581  153.5671 C   0  0  0  0  0  0  0  0  0  0  0  0
  147.7541  139.4464  154.2410 C   0  0  0  0  0  0  0  0  0  0  0  0
  148.8994  138.4417  154.4449 C   0  0  0  0  0  0  0  0  0  0  0  0
  149.8181  138.9568  155.4004 O   0  0  0  0  0  0  0  0  0  0  0  0
  151.2352  143.6256  158.1813 C   0  0  0  0  0  0  0  0  0  0  0  0
  151.7746  145.7708  160.7510 H   0  0  0  0  0  0  0  0  0  0  0  0
  150.2221  145.5591  159.9357 H   0  0  0  0  0  0  0  0  0  0  0  0
  151.5921  146.2618  159.0641 H   0  0  0  0  0  0  0  0  0  0  0  0
  153.0311  143.7249  161.0644 H   0  0  0  0  0  0  0  0  0  0  0  0
  154.3028  141.6749  161.3752 H   0  0  0  0  0  0  0  0  0  0  0  0
  154.8071  140.9588  159.8413 H   0  0  0  0  0  0  0  0  0  0  0  0
  153.4418  140.2729  160.7326 H   0  0  0  0  0  0  0  0  0  0  0  0
  150.9393  140.0050  154.0327 H   0  0  0  0  0  0  0  0  0  0  0  0
  148.8351  141.4764  155.7329 H   0  0  0  0  0  0  0  0  0  0  0  0
  149.7509  142.1699  154.4052 H   0  0  0  0  0  0  0  0  0  0  0  0
  146.6731  141.9768  154.4772 H   0  0  0  0  0  0  0  0  0  0  0  0
  146.5340  141.3930  152.8142 H   0  0  0  0  0  0  0  0  0  0  0  0
  147.6639  142.6896  153.1982 H   0  0  0  0  0  0  0  0  0  0  0  0
  147.1883  139.5595  155.1671 H   0  0  0  0  0  0  0  0  0  0  0  0
  147.0623  139.0730  153.4850 H   0  0  0  0  0  0  0  0  0  0  0  0
  148.5063  137.4921  154.8089 H   0  0  0  0  0  0  0  0  0  0  0  0
  149.4112  138.2350  153.5036 H   0  0  0  0  0  0  0  0  0  0  0  0
  150.5539  144.2462  157.6167 H   0  0  0  0  0  0  0  0  0  0  0  0
  152.8152  140.6747  158.2668 H   0  0  0  0  0  0  0  0  0  0  0  0
  148.7688  140.6108  152.9432 H   0  0  0  0  0  0  0  0  0  0  0  0
  1  2  1  0  0  0  0
  1 19  1  0  0  0  0
  1 20  1  0  0  0  0
  1 21  1  0  0  0  0
  2 18  2  0  0  0  0
  2  3  1  0  0  0  0
  3  4  2  0  0  0  0
  3 22  1  0  0  0  0
  4  5  1  0  0  0  0
  4  6  1  0  0  0  0
  5 23  1  0  0  0  0
  5 24  1  0  0  0  0
  5 25  1  0  0  0  0
  6  7  1  0  0  0  0
  6 37  1  0  0  0  0
  7  8  2  0  0  0  0
  7 18  1  0  0  0  0
  8  9  1  0  0  0  0
  9 10  2  0  0  0  0
  9 11  1  0  0  0  0
 11 17  1  0  0  0  0
 11 12  1  0  0  0  0
 11 26  1  0  0  0  0
 12 13  1  0  0  0  0
 12 27  1  0  0  0  0
 12 28  1  0  0  0  0
 13 14  1  0  0  0  0
 13 15  1  0  0  0  0
 13 38  1  0  0  0  0
 14 29  1  0  0  0  0
 14 30  1  0  0  0  0
 14 31  1  0  0  0  0
 15 16  1  0  0  0  0
 15 32  1  0  0  0  0
 15 33  1  0  0  0  0
 16 17  1  0  0  0  0
 16 34  1  0  0  0  0
 16 35  1  0  0  0  0
 18 36  1  0  0  0  0
M  CHG  1  13   1
M  END
> <s_m_source_file>
AV-unprocessed.smi

> <i_m_source_file_index>
3314

> <i_lp_mmshare_version>
43012

> <i_f3d_flags>
0

> <s_epik_input>
W0NIM11jMVtjSF1jKFtDSDNdKW5jKFtjSF0xKVtOSF1DKD1PKVtDQEBIXTJbQ0gyXU4oW0NIM10pW0NIMl1bQ0gyXU8y

> <s_epik_cmdline>
J2VwaWtfcHl0aG9uJywgJy1waCcsICc3LjAnLCAnLXRuJywgJzgnLCAnLW1hJywgJzIwMCcsICctbWV0YWxfYmluZGluZycsICctaW1hZScsICc8aW5maWxlLm1hZT4nLCAnLW9tYWUnLCAnPG91dGZpbGUubWFlPic=

> <r_epik_Ionization_Penalty>
0.519783

> <r_epik_Ionization_Penalty_Charging>
0.519783

> <r_epik_Ionization_Penalty_Neutral>
1.74183e-13

> <r_epik_State_Penalty>
2.39351

> <r_epik_Charging_Adjusted_Penalty>
2.91329

> <i_epik_Tot_Q>
1

> <i_epik_Tot_abs_Q>
1

> <r_epik_Metal_State_Penalty>
2.41924

> <b_epik_Metal_Only>
0

> <s_lp_Force_Field>
OPLS_2005

> <r_lp_Energy>
34.3137

> <b_lp_Chiralities_Consistent>
1

> <s_lp_Variant>
AV-unprocessed.smi:3314-7

> <Gold.Version>
5.8.1

> <Gold.Id.Protein>
6NUR|6NUR_protein|mol2

> <Gold.PLP.Fitness>
45.0397

> <Gold.PLP.PLP>
-39.1976

> <Gold.PLP.part.hbond>
-1.9650

> <Gold.PLP.part.metal>
0.0000

> <Gold.PLP.part.buried>
-3.9800

> <Gold.PLP.part.nonpolar>
-33.3781

> <Gold.PLP.part.repulsive>
0.3431

> <Gold.PLP.ligand.clash>
0.0000

> <Gold.PLP.ligand.torsion>
0.0659

> <Gold.PLP.Chemscore.Hbond>
1.9913

> <Gold.PLP.Chemscore.CHOScore>
0.0000

> <Gold.PLP.Chemscore.Metal>
0.0000

> <Gold.Chemscore.Hbonds>
donor molecule, donor type, donor heavy atom, donor atom, acceptor molecule, acceptor atom, score
      L1  H    13    38       P1  7957  0.96
      P1  H  7997  8009       L1    10  1.00

> <Gold.PLP.Chemscore.Internal.Correction>
0.0002

> <Gold.Rescore>
     Score         DG    S(hbond)    S(metal)    S(lipo)     H(rot)  DE(clash)    DE(int)     intcor
     19.38     -21.02       1.99        0.00      97.88       1.00       0.19       1.45       ----

> <Gold.Chemscore.Fitness>
19.3822

> <Gold.Chemscore.DG>
-21.0243

> <Gold.Chemscore.ZeroCoef>
-5.4800

> <Gold.Chemscore.Hbond>
1.9916

> <Gold.Chemscore.Metal>
0.0000

> <Gold.Chemscore.Lipo>
97.8837

> <Gold.Chemscore.Internal_Hbond>
0.0000

> <Gold.Chemscore.DEClash>
0.1885

> <Gold.Chemscore.DEInternal>
1.4536

> <Gold.Chemscore.Rot>
1.0000

> <Gold.Chemscore.Internal.Correction>
   9.000000E+99

> <Gold.Chemscore.Hbonds>
donor molecule, donor type, donor heavy atom, donor atom, acceptor molecule, acceptor atom, score
      L1  H    13    38       P1  7957  0.91
      P1  H  7997  8009       L1    10  0.97

> <Gold.Chemscore.Hbond.Weighted>
-6.6519

> <Gold.Chemscore.Metal.Weighted>
-0.0000

> <Gold.Chemscore.Lipo.Weighted>
-11.4524

> <Gold.Chemscore.Internal_Hbond.Weighted>
0.0000

> <Gold.Chemscore.DEClash.Weighted>
0.1885

> <Gold.Chemscore.DEInternal.Weighted>
1.4536

> <Gold.Chemscore.Rot.Weighted>
2.5600

> <Gold.Chemscore.Internal.Correction.Weighted>
   9.000000E+99

> <Gold.Protein.RotatedTorsions>
[ 6907 6896 6895 6894 ] final  118.00 input  -60.11 | X-H torsion
[ 7974 7965 7964 7962 ] final   14.65 input  175.53 | X-H torsion
[ 8008 7997 7996 7995 ] final -160.65 input   59.86 | X-H torsion
[ 10167 10162 10161 10158 ] final  167.14 input  -65.29 | X-H torsion
[ 10718 10713 10712 10709 ] final   21.96 input   66.30 | X-H torsion
[ 10763 10752 10751 10750 ] final  140.97 input  -60.55 | X-H torsion
[ 11005 11000 10999 10996 ] final -117.26 input  -57.11 | X-H torsion

> <Gold.Protein.ActiveResidues>
 VAL166  LYS551  ARG553  GLY616  TRP617  ASP618  TYR619  PRO620  LYS621  CYS622 
 ASP623  PHE694  ASN695  SER759  ASP760  ASP761  ALA762  ILE779  LEU786  VAL792 
 PHE793  MET794  SER795  GLU796  ALA797  LYS798  CYS799  TRP800  GLU811  SER814 

> <Gold.Protein.RotatedAtoms>
  152.4573  133.7750  159.6819 H   0  0  0  0  0  0  0  0  0  0  0  0  # atno 6907 bound_to 6896
  150.8504  133.7785  159.3034 H   0  0  0  0  0  0  0  0  0  0  0  0  # atno 6908 bound_to 6896
  151.5383  135.1071  159.9972 H   0  0  0  0  0  0  0  0  0  0  0  0  # atno 6909 bound_to 6896
  146.2299  139.9010  142.8539 H   0  0  0  0  0  0  0  0  0  0  0  0  # atno 7974 bound_to 7965
  155.7805  140.0864  157.2061 H   0  0  0  0  0  0  0  0  0  0  0  0  # atno 8008 bound_to 7997
  154.3990  140.1508  156.3104 H   0  0  0  0  0  0  0  0  0  0  0  0  # atno 8009 bound_to 7997
  155.8658  140.3428  155.5790 H   0  0  0  0  0  0  0  0  0  0  0  0  # atno 8010 bound_to 7997
  139.4939  144.3953  151.9471 H   0  0  0  0  0  0  0  0  0  0  0  0  # atno 10167 bound_to 10162
  157.1456  130.6652  149.5995 H   0  0  0  0  0  0  0  0  0  0  0  0  # atno 10718 bound_to 10713
  153.9315  135.2989  155.3445 H   0  0  0  0  0  0  0  0  0  0  0  0  # atno 10763 bound_to 10752
  154.7524  135.4974  153.9317 H   0  0  0  0  0  0  0  0  0  0  0  0  # atno 10764 bound_to 10752
  153.1089  135.6754  153.9640 H   0  0  0  0  0  0  0  0  0  0  0  0  # atno 10765 bound_to 10752
  141.0366  133.9899  157.3060 H   0  0  0  0  0  0  0  0  0  0  0  0  # atno 11005 bound_to 11000
  145.2323  140.9978  143.3983 LP  0  0  0  0  0  0  0  0  0  0  0  0  # atno 17320 bound_to 7965
  144.9520  139.4072  143.6398 LP  0  0  0  0  0  0  0  0  0  0  0  0  # atno 17321 bound_to 7965
  140.3391  144.3225  150.5971 LP  0  0  0  0  0  0  0  0  0  0  0  0  # atno 17342 bound_to 10162
  140.5581  143.2196  151.7812 LP  0  0  0  0  0  0  0  0  0  0  0  0  # atno 17343 bound_to 10162
  155.9780  130.4762  150.6629 LP  0  0  0  0  0  0  0  0  0  0  0  0  # atno 17370 bound_to 10713
  157.4267  131.0844  151.1078 LP  0  0  0  0  0  0  0  0  0  0  0  0  # atno 17371 bound_to 10713
  139.9245  135.0201  156.8186 LP  0  0  0  0  0  0  0  0  0  0  0  0  # atno 17394 bound_to 11000
  140.6310  133.9906  155.7662 LP  0  0  0  0  0  0  0  0  0  0  0  0  # atno 17395 bound_to 11000

$$$$
