#       Name:                AV-unprocessed.smi:1005
#       Creating user name   scv26
#       Creation time:       Fri Mar 27 02:31:45 2020


#       File generated by GOLD software.
#

@<TRIPOS>MOLECULE
AV-unprocessed.smi:1005
    62    64     1
SMALL
NO_CHARGES


@<TRIPOS>ATOM
      1 ****        -5.7909   0.7376   0.9349 C.3            1 S1                 0.0000
      2 ****        -4.6056   0.7634  -0.0138 C.ar           1 S1                 0.0000
      3 ****        -4.8364   0.9281  -1.3988 C.ar           1 S1                 0.0000
      4 ****        -3.7615   0.9507  -2.3146 C.ar           1 S1                 0.0000
      5 ****        -3.7532   1.0959  -3.6918 N.2            1 S1                 0.0000
      6 ****        -2.4525   1.0236  -3.9620 C.2            1 S1                 0.0000
      7 ****        -1.6172   0.8490  -2.9205 N.pl3          1 S1                 0.0000
      8 ****        -0.1725   0.7260  -2.9540 C.3            1 S1                 0.0000
      9 ****         0.2787  -0.7464  -2.8754 C.3            1 S1                 0.0000
     10 ****        -0.0823  -1.4058  -4.0721 O.3            1 S1                 0.0000
     11 ****         1.7993  -0.9050  -2.6763 C.3            1 S1                 0.0000
     12 ****         2.3373  -0.3023  -1.4560 N.3            1 S1                 0.0000
     13 ****         3.7941  -0.3546  -1.4397 C.3            1 S1                 0.0000
     14 ****         4.3751   0.2859  -0.1681 C.3            1 S1                 0.0000
     15 ****         3.8150  -0.3439   0.9797 O.3            1 S1                 0.0000
     16 ****         2.3925  -0.2523   1.0296 C.3            1 S1                 0.0000
     17 ****         1.8703  -0.9258   2.3132 C.3            1 S1                 0.0000
     18 ****         1.9608  -0.1206   3.5325 N.3            1 S1                 0.0000
     19 ****         3.3380   0.1456   3.9300 C.3            1 S1                 0.0000
     20 ****         1.2361  -0.7570   4.6234 C.3            1 S1                 0.0000
     21 ****         1.8271  -0.9244  -0.2364 C.3            1 S1                 0.0000
     22 ****        -2.4404   0.8011  -1.8019 C.ar           1 S1                 0.0000
     23 ****        -2.1970   0.6433  -0.4264 C.ar           1 S1                 0.0000
     24 ****        -3.2814   0.6239   0.4747 C.ar           1 S1                 0.0000
     25 ****        -3.0062   0.4517   1.9581 C.3            1 S1                 0.0000
     26 ****        -6.7338   0.8454   0.3981 H              1 S1                 0.0000
     27 ****        -5.7205   1.5523   1.6558 H              1 S1                 0.0000
     28 ****        -5.8233  -0.2060   1.4799 H              1 S1                 0.0000
     29 ****        -5.8445   1.0362  -1.7711 H              1 S1                 0.0000
     30 ****        -2.0857   1.0948  -4.9755 H              1 S1                 0.0000
     31 ****         0.2090   1.2054  -3.8567 H              1 S1                 0.0000
     32 ****         0.2232   1.2929  -2.1107 H              1 S1                 0.0000
     33 ****        -0.2543  -1.2531  -2.0711 H              1 S1                 0.0000
     34 ****         0.3660  -0.9881  -4.7914 H              1 S1                 0.0000
     35 ****         2.0543  -1.9658  -2.6954 H              1 S1                 0.0000
     36 ****         2.3004  -0.4615  -3.5380 H              1 S1                 0.0000
     37 ****         4.1272  -1.3917  -1.5043 H              1 S1                 0.0000
     38 ****         4.1942   0.1568  -2.3158 H              1 S1                 0.0000
     39 ****         5.4588   0.1704  -0.1456 H              1 S1                 0.0000
     40 ****         4.1653   1.3563  -0.1430 H              1 S1                 0.0000
     41 ****         2.0950   0.7982   1.0346 H              1 S1                 0.0000
     42 ****         0.8176  -1.1600   2.1477 H              1 S1                 0.0000
     43 ****         2.3669  -1.8868   2.4561 H              1 S1                 0.0000
     44 ****         3.3694   0.6980   4.8698 H              1 S1                 0.0000
     45 ****         3.8523   0.7542   3.1872 H              1 S1                 0.0000
     46 ****         3.8968  -0.7815   4.0641 H              1 S1                 0.0000
     47 ****         1.2589  -0.1347   5.5187 H              1 S1                 0.0000
     48 ****         1.6699  -1.7266   4.8721 H              1 S1                 0.0000
     49 ****         0.1897  -0.9101   4.3573 H              1 S1                 0.0000
     50 ****         0.7413  -0.8533  -0.2028 H              1 S1                 0.0000
     51 ****         2.0721  -1.9878  -0.2302 H              1 S1                 0.0000
     52 ****        -1.1836   0.5372  -0.0690 H              1 S1                 0.0000
     53 ****        -1.9378   0.3609   2.1567 H              1 S1                 0.0000
     54 ****        -3.4938  -0.4472   2.3359 H              1 S1                 0.0000
     55 ****        -3.3782   1.3102   2.5178 H              1 S1                 0.0000
     56 ****        -4.5224   1.2219  -4.3183 LP             1 S1                 0.0000
     57 ****        -1.0710  -1.3415  -4.2077 LP             1 S1                 0.0000
     58 ****         0.1852  -2.3681  -4.0210 LP             1 S1                 0.0000
     59 ****         2.0296   0.6490  -1.4692 LP             1 S1                 0.0000
     60 ****         4.1909   0.0921   1.7973 LP             1 S1                 0.0000
     61 ****         4.0716  -1.3104   0.9695 LP             1 S1                 0.0000
     62 ****         1.5384   0.7617   3.3252 LP             1 S1                 0.0000
@<TRIPOS>BOND
    1    1    2 1     
    2    1   26 1     
    3    1   27 1     
    4    1   28 1     
    5    2   24 ar    
    6    2    3 ar    
    7    3    4 ar    
    8    3   29 1     
    9    4   22 ar    
   10    4    5 1     
   11    5    6 2     
   12    6    7 1     
   13    6   30 1     
   14    7    8 1     
   15    7   22 1     
   16    8    9 1     
   17    8   31 1     
   18    8   32 1     
   19    9   10 1     
   20    9   11 1     
   21    9   33 1     
   22   10   34 1     
   23   11   12 1     
   24   11   35 1     
   25   11   36 1     
   26   12   21 1     
   27   12   13 1     
   28   13   14 1     
   29   13   37 1     
   30   13   38 1     
   31   14   15 1     
   32   14   39 1     
   33   14   40 1     
   34   15   16 1     
   35   16   17 1     
   36   16   21 1     
   37   16   41 1     
   38   17   18 1     
   39   17   42 1     
   40   17   43 1     
   41   18   19 1     
   42   18   20 1     
   43   19   44 1     
   44   19   45 1     
   45   19   46 1     
   46   20   47 1     
   47   20   48 1     
   48   20   49 1     
   49   21   50 1     
   50   21   51 1     
   51   22   23 ar    
   52   23   24 ar    
   53   23   52 1     
   54   24   25 1     
   55   25   53 1     
   56   25   54 1     
   57   25   55 1     
   58    5   56 1     
   59   10   57 1     
   60   10   58 1     
   61   12   59 1     
   62   15   60 1     
   63   15   61 1     
   64   18   62 1     
@<TRIPOS>SUBSTRUCTURE
      1 S1             1
@<TRIPOS>SET
LONE_PAIRS      STATIC     ATOMS    <user>   **** ""
7 56 57 58 59 60 61 62
DONOR_HYDROGENS      STATIC     ATOMS    <user>   **** ""
1 34
ATOM$BLUE        STATIC     ATOMS    COLORGROUP SYSTEM
7 56 57 58 59 60 61 62
ATOM$RED        STATIC     ATOMS    COLORGROUP SYSTEM
1 34
