#       Name:                AV-unprocessed.smi:1899
#       Creating user name   scv26
#       Creation time:       Fri Mar 27 09:44:40 2020


#       File generated by GOLD software.
#

@<TRIPOS>MOLECULE
AV-unprocessed.smi:1899
    36    37     1
SMALL
NO_CHARGES


@<TRIPOS>ATOM
      1 ****         0.7518   1.9918  -0.5963 O.2            1 S1                 0.0000
      2 ****         0.3057   0.8582  -0.7755 C.2            1 S1                 0.0000
      3 ****         1.0858  -0.2249  -0.9111 N.am           1 S1                 0.0000
      4 ****         2.5429  -0.2293  -0.8246 C.3            1 S1                 0.0000
      5 ****         3.0476  -0.0659   0.6223 C.3            1 S1                 0.0000
      6 ****         2.6106  -1.1485   1.4835 N.pl3          1 S1                 0.0000
      7 ****         3.2128  -2.3895   1.6412 C.2            1 S1                 0.0000
      8 ****         2.4470  -3.0846   2.5498 C.2            1 S1                 0.0000
      9 ****         1.3753  -2.2956   2.9616 N.2            1 S1                 0.0000
     10 ****         1.5401  -1.1634   2.2900 C.2            1 S1                 0.0000
     11 ****        -1.2089   0.6240  -0.8424 C.3            1 S1                 0.0000
     12 ****        -1.8721   0.9009   0.5265 C.3            1 S1                 0.0000
     13 ****        -3.3872   0.9417   0.4338 C.2            1 S1                 0.0000
     14 ****        -4.0544   1.0602  -0.7269 C.2            1 S1                 0.0000
     15 ****        -3.3689   1.1700  -2.0773 C.3            1 S1                 0.0000
     16 ****        -1.8657   1.4792  -1.9448 C.3            1 S1                 0.0000
     17 ****         0.6358  -1.1170  -1.0583 H              1 S1                 0.0000
     18 ****         2.9080  -1.1678  -1.2425 H              1 S1                 0.0000
     19 ****         2.9481   0.5650  -1.4535 H              1 S1                 0.0000
     20 ****         4.1377  -0.0408   0.6335 H              1 S1                 0.0000
     21 ****         2.7126   0.8808   1.0485 H              1 S1                 0.0000
     22 ****         4.1098  -2.6679   1.1078 H              1 S1                 0.0000
     23 ****         2.5835  -4.0843   2.9352 H              1 S1                 0.0000
     24 ****         0.8624  -0.3271   2.3813 H              1 S1                 0.0000
     25 ****        -1.3807  -0.4243  -1.0947 H              1 S1                 0.0000
     26 ****        -1.5888   0.1231   1.2366 H              1 S1                 0.0000
     27 ****        -1.5363   1.8502   0.9463 H              1 S1                 0.0000
     28 ****        -3.9340   0.8833   1.3635 H              1 S1                 0.0000
     29 ****        -5.1345   1.0710  -0.7268 H              1 S1                 0.0000
     30 ****        -3.5150   0.2283  -2.6069 H              1 S1                 0.0000
     31 ****        -3.8568   1.9460  -2.6677 H              1 S1                 0.0000
     32 ****        -1.7402   2.5372  -1.7085 H              1 S1                 0.0000
     33 ****        -1.3729   1.3190  -2.9049 H              1 S1                 0.0000
     34 ****         1.7397   2.1382  -0.5457 LP             1 S1                 0.0000
     35 ****         0.1261   2.7661  -0.5013 LP             1 S1                 0.0000
     36 ****         0.6514  -2.5281   3.6112 LP             1 S1                 0.0000
@<TRIPOS>BOND
    1    1    2 2     
    2    2    3 am    
    3    2   11 1     
    4    3    4 1     
    5    3   17 1     
    6    4    5 1     
    7    4   18 1     
    8    4   19 1     
    9    5    6 1     
   10    5   20 1     
   11    5   21 1     
   12    6   10 1     
   13    6    7 1     
   14    7    8 2     
   15    7   22 1     
   16    8    9 1     
   17    8   23 1     
   18    9   10 2     
   19   10   24 1     
   20   11   16 1     
   21   11   12 1     
   22   11   25 1     
   23   12   13 1     
   24   12   26 1     
   25   12   27 1     
   26   13   14 2     
   27   13   28 1     
   28   14   15 1     
   29   14   29 1     
   30   15   16 1     
   31   15   30 1     
   32   15   31 1     
   33   16   32 1     
   34   16   33 1     
   35    1   34 1     
   36    1   35 1     
   37    9   36 1     
@<TRIPOS>SUBSTRUCTURE
      1 S1             1
@<TRIPOS>SET
LONE_PAIRS      STATIC     ATOMS    <user>   **** ""
3 34 35 36
DONOR_HYDROGENS      STATIC     ATOMS    <user>   **** ""
1 17
ATOM$BLUE        STATIC     ATOMS    COLORGROUP SYSTEM
3 34 35 36
ATOM$RED        STATIC     ATOMS    COLORGROUP SYSTEM
1 17
