AV-unprocessed.smi:1718|AV-procd|sdf|6923|dock9
  -GOLD-   22720 8133D 1   1.00000     0.00000
 Structure written by MMmdl.
 40 41  0  0  0  0  0  0  0  0  1 V2000
  152.1669  136.5286  157.3379 C   0  0  0  0  0  0  0  0  0  0  0  0
  150.6489  136.7636  157.3380 C   0  0  1  0  0  0  0  0  0  0  0  0
  150.1694  136.4632  158.6461 O   0  0  0  0  0  0  0  0  0  0  0  0
  148.7866  136.7187  158.8659 C   0  0  0  0  0  0  0  0  0  0  0  0
  148.4086  136.2148  160.2637 C   0  0  2  0  0  0  0  0  0  0  0  0
  147.7036  134.8611  160.2739 C   0  0  0  0  0  0  0  0  0  0  0  0
  146.9999  134.9002  161.6117 C   0  0  0  0  0  0  0  0  0  0  0  0
  146.5930  136.3692  161.7247 C   0  0  0  0  0  0  0  0  0  0  0  0
  147.4796  137.1001  160.8793 O   0  0  0  0  0  0  0  0  0  0  0  0
  150.3042  138.2144  156.9626 C   0  0  0  0  0  0  0  0  0  0  0  0
  149.3720  138.4347  156.1895 O   0  0  0  0  0  0  0  0  0  0  0  0
  151.0780  139.1588  157.5336 N   0  0  0  0  0  0  0  0  0  0  0  0
  151.0592  140.5525  157.3574 C   0  0  0  0  0  0  0  0  0  0  0  0
  151.2162  141.4628  158.3538 C   0  0  0  0  0  0  0  0  0  0  0  0
  151.1691  142.8940  158.1058 C   0  0  0  0  0  0  0  0  0  0  0  0
  151.4263  143.9025  159.2147 C   0  0  0  0  0  0  0  0  0  0  0  0
  151.7871  143.2964  160.3467 F   0  0  0  0  0  0  0  0  0  0  0  0
  152.4074  144.7291  158.8554 F   0  0  0  0  0  0  0  0  0  0  0  0
  150.3378  144.6325  159.4594 F   0  0  0  0  0  0  0  0  0  0  0  0
  150.9687  143.2760  156.8309 C   0  0  0  0  0  0  0  0  0  0  0  0
  150.7835  142.3468  155.8047 N   0  0  0  0  0  0  0  0  0  0  0  0
  150.8111  141.0065  155.9790 C   0  0  0  0  0  0  0  0  0  0  0  0
  150.6363  140.2520  155.0226 O   0  0  0  0  0  0  0  0  0  0  0  0
  150.6212  142.7132  154.8777 H   0  0  0  0  0  0  0  0  0  0  0  0
  152.6026  136.7523  156.3634 H   0  0  0  0  0  0  0  0  0  0  0  0
  152.3960  135.4882  157.5698 H   0  0  0  0  0  0  0  0  0  0  0  0
  152.6700  137.1481  158.0813 H   0  0  0  0  0  0  0  0  0  0  0  0
  150.1973  136.0753  156.6207 H   0  0  0  0  0  0  0  0  0  0  0  0
  148.5795  137.7874  158.8031 H   0  0  0  0  0  0  0  0  0  0  0  0
  148.1793  136.2231  158.1070 H   0  0  0  0  0  0  0  0  0  0  0  0
  149.2955  136.1713  160.8982 H   0  0  0  0  0  0  0  0  0  0  0  0
  146.9716  134.8003  159.4673 H   0  0  0  0  0  0  0  0  0  0  0  0
  148.3929  134.0218  160.1769 H   0  0  0  0  0  0  0  0  0  0  0  0
  146.1524  134.2170  161.6715 H   0  0  0  0  0  0  0  0  0  0  0  0
  147.7014  134.6435  162.4067 H   0  0  0  0  0  0  0  0  0  0  0  0
  145.5733  136.5164  161.3679 H   0  0  0  0  0  0  0  0  0  0  0  0
  146.6454  136.7273  162.7532 H   0  0  0  0  0  0  0  0  0  0  0  0
  151.7554  138.8309  158.2074 H   0  0  0  0  0  0  0  0  0  0  0  0
  151.3587  141.1492  159.3750 H   0  0  0  0  0  0  0  0  0  0  0  0
  150.9392  144.3041  156.5013 H   0  0  0  0  0  0  0  0  0  0  0  0
  1  2  1  0  0  0  0
  1 25  1  0  0  0  0
  1 26  1  0  0  0  0
  1 27  1  0  0  0  0
  2  3  1  0  0  0  0
  2 10  1  0  0  0  0
  2 28  1  0  0  0  0
  3  4  1  0  0  0  0
  4  5  1  0  0  0  0
  4 29  1  0  0  0  0
  4 30  1  0  0  0  0
  5  9  1  0  0  0  0
  5  6  1  0  0  0  0
  5 31  1  0  0  0  0
  6  7  1  0  0  0  0
  6 32  1  0  0  0  0
  6 33  1  0  0  0  0
  7  8  1  0  0  0  0
  7 34  1  0  0  0  0
  7 35  1  0  0  0  0
  8  9  1  0  0  0  0
  8 36  1  0  0  0  0
  8 37  1  0  0  0  0
 10 11  2  0  0  0  0
 10 12  1  0  0  0  0
 12 13  1  0  0  0  0
 12 38  1  0  0  0  0
 13 22  1  0  0  0  0
 13 14  2  0  0  0  0
 14 15  1  0  0  0  0
 14 39  1  0  0  0  0
 15 16  1  0  0  0  0
 15 20  2  0  0  0  0
 16 17  1  0  0  0  0
 16 18  1  0  0  0  0
 16 19  1  0  0  0  0
 20 21  1  0  0  0  0
 20 40  1  0  0  0  0
 21 24  1  0  0  0  0
 21 22  1  0  0  0  0
 22 23  2  0  0  0  0
M  END
> <s_m_source_file>
AV-unprocessed.smi

> <i_m_source_file_index>
1718

> <i_lp_mmshare_version>
43012

> <i_f3d_flags>
0

> <s_epik_input>
TzFbQ0gyXVtDSDJdW0NIMl1bQ0BIXTFbQ0gyXU9bQ0BASF0oW0NIM10pQyg9TylbTkhdYzJbY0hdYyhDKEYpKEYpRilbY0hdW25IXWMyPU8=

> <s_epik_cmdline>
J2VwaWtfcHl0aG9uJywgJy1waCcsICc3LjAnLCAnLXRuJywgJzgnLCAnLW1hJywgJzIwMCcsICctbWV0YWxfYmluZGluZycsICctaW1hZScsICc8aW5maWxlLm1hZT4nLCAnLW9tYWUnLCAnPG91dGZpbGUubWFlPic=

> <r_lp_tautomer_probability>
0.999

> <r_epik_Ionization_Penalty>
0.00894336

> <r_epik_Ionization_Penalty_Charging>
0.00894326

> <r_epik_Ionization_Penalty_Neutral>
1.00145e-07

> <r_epik_State_Penalty>
0.00676626

> <r_epik_Charging_Adjusted_Penalty>
0.0157095

> <i_epik_Tot_Q>
0

> <i_epik_Tot_abs_Q>
0

> <r_epik_Metal_State_Penalty>
0.321145

> <b_epik_Metal_Only>
0

> <s_lp_Force_Field>
OPLS_2005

> <r_lp_Energy>
34.2201

> <b_lp_Chiralities_Consistent>
1

> <s_lp_Variant>
AV-unprocessed.smi:1718-2

> <Gold.Version>
5.8.1

> <Gold.Id.Protein>
6NUR|6NUR_protein|mol2

> <Gold.PLP.Fitness>
52.3244

> <Gold.PLP.PLP>
-41.9962

> <Gold.PLP.part.hbond>
-5.0000

> <Gold.PLP.part.metal>
0.0000

> <Gold.PLP.part.buried>
-1.1342

> <Gold.PLP.part.nonpolar>
-36.1446

> <Gold.PLP.part.repulsive>
0.2538

> <Gold.PLP.ligand.clash>
0.0000

> <Gold.PLP.ligand.torsion>
1.4641

> <Gold.PLP.Chemscore.Hbond>
3.7760

> <Gold.PLP.Chemscore.CHOScore>
0.6082

> <Gold.PLP.Chemscore.Metal>
0.0000

> <Gold.Chemscore.Hbonds>
donor molecule, donor type, donor heavy atom, donor atom, acceptor molecule, acceptor atom, score
      P1  H  6896  6908       L1     3  1.00
      P1  H  6931  6943       L1     9  0.37
      P1  H  6934  6947       L1     9  1.00
      P1  H  7989  7998       L1    23  1.00
      L1  C    20    40       P1  8028  0.59

> <Gold.PLP.Chemscore.Internal.Correction>
0.1039

> <Gold.Rescore>
     Score         DG    S(hbond)    S(metal)    S(lipo)     H(rot)  DE(clash)    DE(int)     intcor
     14.01     -20.05       3.03        0.00      79.07       1.88       0.22       5.83       ----

> <Gold.Chemscore.Fitness>
14.0067

> <Gold.Chemscore.DG>
-20.0498

> <Gold.Chemscore.ZeroCoef>
-5.4800

> <Gold.Chemscore.Hbond>
3.0325

> <Gold.Chemscore.Metal>
0.0000

> <Gold.Chemscore.Lipo>
79.0725

> <Gold.Chemscore.Internal_Hbond>
0.0000

> <Gold.Chemscore.DEClash>
0.2173

> <Gold.Chemscore.DEInternal>
5.8257

> <Gold.Chemscore.Rot>
1.8790

> <Gold.Chemscore.Internal.Correction>
   9.000000E+99

> <Gold.Chemscore.Hbonds>
donor molecule, donor type, donor heavy atom, donor atom, acceptor molecule, acceptor atom, score
      P1  H  6896  6908       L1     3  0.79
      P1  H  6931  6943       L1     9  0.03
      P1  H  6934  6947       L1     9  0.81
      P1  H  7989  7998       L1    23  0.73

> <Gold.Chemscore.Hbond.Weighted>
-10.1285

> <Gold.Chemscore.Metal.Weighted>
-0.0000

> <Gold.Chemscore.Lipo.Weighted>
-9.2515

> <Gold.Chemscore.Internal_Hbond.Weighted>
0.0000

> <Gold.Chemscore.DEClash.Weighted>
0.2173

> <Gold.Chemscore.DEInternal.Weighted>
5.8257

> <Gold.Chemscore.Rot.Weighted>
4.8102

> <Gold.Chemscore.Internal.Correction.Weighted>
   9.000000E+99

> <Gold.Protein.RotatedTorsions>
[ 6907 6896 6895 6894 ] final -169.14 input  -60.11 | X-H torsion
[ 7974 7965 7964 7962 ] final  167.08 input  175.53 | X-H torsion
[ 8008 7997 7996 7995 ] final  124.49 input   59.86 | X-H torsion
[ 10167 10162 10161 10158 ] final -154.83 input  -65.29 | X-H torsion
[ 10718 10713 10712 10709 ] final   49.22 input   66.30 | X-H torsion
[ 10763 10752 10751 10750 ] final  160.48 input  -60.55 | X-H torsion
[ 11005 11000 10999 10996 ] final -153.12 input  -57.11 | X-H torsion

> <Gold.Protein.ActiveResidues>
 VAL166  LYS551  ARG553  GLY616  TRP617  ASP618  TYR619  PRO620  LYS621  CYS622 
 ASP623  PHE694  ASN695  SER759  ASP760  ASP761  ALA762  ILE779  LEU786  VAL792 
 PHE793  MET794  SER795  GLU796  ALA797  LYS798  CYS799  TRP800  GLU811  SER814 

> <Gold.Protein.RotatedAtoms>
  151.4868  133.3534  159.2846 H   0  0  0  0  0  0  0  0  0  0  0  0  # atno 6907 bound_to 6896
  150.8861  134.8261  159.7271 H   0  0  0  0  0  0  0  0  0  0  0  0  # atno 6908 bound_to 6896
  152.4794  134.4772  159.9706 H   0  0  0  0  0  0  0  0  0  0  0  0  # atno 6909 bound_to 6896
  144.7438  139.8708  143.6388 H   0  0  0  0  0  0  0  0  0  0  0  0  # atno 7974 bound_to 7965
  156.2803  140.2738  156.1796 H   0  0  0  0  0  0  0  0  0  0  0  0  # atno 8008 bound_to 7997
  155.0570  140.0386  157.2581 H   0  0  0  0  0  0  0  0  0  0  0  0  # atno 8009 bound_to 7997
  154.7148  140.2676  155.6601 H   0  0  0  0  0  0  0  0  0  0  0  0  # atno 8010 bound_to 7997
  139.6981  143.9308  152.2416 H   0  0  0  0  0  0  0  0  0  0  0  0  # atno 10167 bound_to 10162
  157.4765  130.8288  149.8045 H   0  0  0  0  0  0  0  0  0  0  0  0  # atno 10718 bound_to 10713
  154.2481  135.2772  155.2827 H   0  0  0  0  0  0  0  0  0  0  0  0  # atno 10763 bound_to 10752
  154.5488  135.5681  153.6907 H   0  0  0  0  0  0  0  0  0  0  0  0  # atno 10764 bound_to 10752
  152.9986  135.6269  154.2627 H   0  0  0  0  0  0  0  0  0  0  0  0  # atno 10765 bound_to 10752
  140.7115  134.3827  157.5197 H   0  0  0  0  0  0  0  0  0  0  0  0  # atno 11005 bound_to 11000
  146.1281  139.4311  143.0186 LP  0  0  0  0  0  0  0  0  0  0  0  0  # atno 17320 bound_to 7965
  145.7204  141.0077  143.1406 LP  0  0  0  0  0  0  0  0  0  0  0  0  # atno 17321 bound_to 7965
  139.9143  144.6838  150.8529 LP  0  0  0  0  0  0  0  0  0  0  0  0  # atno 17342 bound_to 10162
  140.7702  143.3421  151.2187 LP  0  0  0  0  0  0  0  0  0  0  0  0  # atno 17343 bound_to 10162
  156.0099  130.3838  150.2299 LP  0  0  0  0  0  0  0  0  0  0  0  0  # atno 17370 bound_to 10713
  157.0484  131.0055  151.3261 LP  0  0  0  0  0  0  0  0  0  0  0  0  # atno 17371 bound_to 10713
  139.8870  134.8893  156.2551 LP  0  0  0  0  0  0  0  0  0  0  0  0  # atno 17394 bound_to 11000
  141.0080  133.7112  156.1066 LP  0  0  0  0  0  0  0  0  0  0  0  0  # atno 17395 bound_to 11000

$$$$
