#       Name:                AV-unprocessed.smi:3145
#       Creating user name   scv26
#       Creation time:       Fri Mar 27 17:38:03 2020


#       File generated by GOLD software.
#

@<TRIPOS>MOLECULE
AV-unprocessed.smi:3145
    39    39     1
SMALL
NO_CHARGES


@<TRIPOS>ATOM
      1 ****        -2.7636  -0.3391  -0.4681 C.3            1 S1                 0.0000
      2 ****        -1.2389  -0.4351  -0.6467 C.3            1 S1                 0.0000
      3 ****        -0.7017   0.5252  -1.7335 C.3            1 S1                 0.0000
      4 ****        -1.0921   1.9055  -1.5086 N.pl3          1 S1                 0.0000
      5 ****        -0.5740   2.8039  -0.5995 C.2            1 S1                 0.0000
      6 ****        -1.2563   3.9764  -0.7536 C.2            1 S1                 0.0000
      7 ****        -2.1812   3.6949  -1.7976 C.2            1 S1                 0.0000
      8 ****        -2.0798   2.4545  -2.2480 N.2            1 S1                 0.0000
      9 ****        -0.8756  -1.8437  -0.9413 N.4            1 S1                 1.0000
     10 ****         0.5560  -2.2038  -0.8068 C.3            1 S1                 0.0000
     11 ****         1.0386  -2.2005   0.6457 C.2            1 S1                 0.0000
     12 ****         0.2877  -2.5690   1.5490 O.2            1 S1                 0.0000
     13 ****         2.2948  -1.7807   0.8537 N.am           1 S1                 0.0000
     14 ****         2.9298  -1.6469   2.1601 C.3            1 S1                 0.0000
     15 ****         2.3366  -0.4852   2.9742 C.3            1 S1                 0.0000
     16 ****         2.4330   0.8129   2.2881 C.1            1 S1                 0.0000
     17 ****         2.5065   1.8320   1.7456 N.1            1 S1                 0.0000
     18 ****        -3.0690   0.6545  -0.1392 H              1 S1                 0.0000
     19 ****        -3.1153  -1.0458   0.2841 H              1 S1                 0.0000
     20 ****        -3.2865  -0.5569  -1.4001 H              1 S1                 0.0000
     21 ****        -0.7932  -0.1556   0.3085 H              1 S1                 0.0000
     22 ****         0.3872   0.5004  -1.7717 H              1 S1                 0.0000
     23 ****        -1.0538   0.2150  -2.7189 H              1 S1                 0.0000
     24 ****         0.2262   2.5371   0.0749 H              1 S1                 0.0000
     25 ****        -1.1157   4.8963  -0.2053 H              1 S1                 0.0000
     26 ****        -2.9176   4.3507  -2.2385 H              1 S1                 0.0000
     27 ****        -1.3912  -2.4352  -0.3049 H              1 S1                 0.0000
     28 ****         0.6821  -3.2150  -1.1944 H              1 S1                 0.0000
     29 ****         1.1793  -1.5591  -1.4265 H              1 S1                 0.0000
     30 ****         2.8462  -1.5092   0.0520 H              1 S1                 0.0000
     31 ****         2.8365  -2.5824   2.7137 H              1 S1                 0.0000
     32 ****         3.9964  -1.4819   2.0059 H              1 S1                 0.0000
     33 ****         1.2859  -0.6654   3.2021 H              1 S1                 0.0000
     34 ****         2.8561  -0.3952   3.9284 H              1 S1                 0.0000
     35 ****        -1.1743  -2.0541  -1.8828 H              1 S1                 0.0000
     36 ****        -2.6147   2.0210  -2.9733 LP             1 S1                 0.0000
     37 ****        -0.6410  -2.8718   1.3349 LP             1 S1                 0.0000
     38 ****         0.6065  -2.5655   2.4968 LP             1 S1                 0.0000
     39 ****         2.5701   2.7130   1.2766 LP             1 S1                 0.0000
@<TRIPOS>BOND
    1    1    2 1     
    2    1   18 1     
    3    1   19 1     
    4    1   20 1     
    5    2    3 1     
    6    2    9 1     
    7    2   21 1     
    8    3    4 1     
    9    3   22 1     
   10    3   23 1     
   11    4    8 1     
   12    4    5 1     
   13    5    6 2     
   14    5   24 1     
   15    6    7 1     
   16    6   25 1     
   17    7    8 2     
   18    7   26 1     
   19    9   10 1     
   20    9   27 1     
   21    9   35 1     
   22   10   11 1     
   23   10   28 1     
   24   10   29 1     
   25   11   12 2     
   26   11   13 am    
   27   13   14 1     
   28   13   30 1     
   29   14   15 1     
   30   14   31 1     
   31   14   32 1     
   32   15   16 1     
   33   15   33 1     
   34   15   34 1     
   35   16   17 3     
   36    8   36 1     
   37   12   37 1     
   38   12   38 1     
   39   17   39 1     
@<TRIPOS>SUBSTRUCTURE
      1 S1             1
@<TRIPOS>SET
LONE_PAIRS      STATIC     ATOMS    <user>   **** ""
4 36 37 38 39
DONOR_HYDROGENS      STATIC     ATOMS    <user>   **** ""
3 27 35 30
ATOM$BLUE        STATIC     ATOMS    COLORGROUP SYSTEM
4 36 37 38 39
ATOM$RED        STATIC     ATOMS    COLORGROUP SYSTEM
3 27 35 30
