AV-unprocessed.smi:1517|AV-procd|sdf|6121|dock5
  -GOLD-   22720 6253D 1   1.00000     0.00000
 Structure written by MMmdl.
 42 44  0  0  0  0  0  0  0  0  2 V2000
  148.3658  139.6619  153.3296 O   0  0  0  0  0  0  0  0  0  0  0  0
  147.1003  139.0992  153.0568 C   0  0  0  0  0  0  0  0  0  0  0  0
  146.9510  137.7636  153.7968 C   0  0  0  0  0  0  0  0  0  0  0  0
  145.6007  137.2363  153.6836 N   0  0  0  0  0  0  0  0  0  0  0  0
  145.3772  136.1033  152.8947 C   0  0  0  0  0  0  0  0  0  0  0  0
  146.2693  135.5363  152.0388 N   0  3  0  0  0  0  0  0  0  0  0  0
  145.6645  134.4237  151.4465 C   0  0  0  0  0  0  0  0  0  0  0  0
  146.1517  133.5143  150.5127 C   0  0  0  0  0  0  0  0  0  0  0  0
  145.2740  132.4849  150.1130 C   0  0  0  0  0  0  0  0  0  0  0  0
  143.9690  132.3854  150.6380 C   0  0  0  0  0  0  0  0  0  0  0  0
  143.4830  133.3112  151.5846 C   0  0  0  0  0  0  0  0  0  0  0  0
  144.3541  134.3279  151.9740 C   0  0  0  0  0  0  0  0  0  0  0  0
  144.2181  135.3958  152.8692 N   0  0  0  0  0  0  0  0  0  0  0  0
  142.9548  135.5787  153.5989 C   0  0  0  0  0  0  0  0  0  0  0  0
  142.5923  137.0627  153.8011 C   0  0  1  0  0  0  0  0  0  0  0  0
  142.8436  137.7820  152.6080 O   0  0  0  0  0  0  0  0  0  0  0  0
  141.1580  137.2149  154.2895 C   0  0  0  0  0  0  0  0  0  0  0  0
  140.0767  136.7629  153.4995 C   0  0  0  0  0  0  0  0  0  0  0  0
  138.7529  136.8992  153.9598 C   0  0  0  0  0  0  0  0  0  0  0  0
  138.5003  137.4833  155.2153 C   0  0  0  0  0  0  0  0  0  0  0  0
  137.2275  137.6140  155.6585 F   0  0  0  0  0  0  0  0  0  0  0  0
  139.5727  137.9275  156.0119 C   0  0  0  0  0  0  0  0  0  0  0  0
  140.8978  137.7923  155.5532 C   0  0  0  0  0  0  0  0  0  0  0  0
  141.9193  138.2156  156.3366 F   0  0  0  0  0  0  0  0  0  0  0  0
  148.8124  139.8101  152.5098 H   0  0  0  0  0  0  0  0  0  0  0  0
  146.3049  139.7988  153.3165 H   0  0  0  0  0  0  0  0  0  0  0  0
  147.0414  138.9307  151.9812 H   0  0  0  0  0  0  0  0  0  0  0  0
  147.6281  137.0341  153.3507 H   0  0  0  0  0  0  0  0  0  0  0  0
  147.2382  137.8662  154.8442 H   0  0  0  0  0  0  0  0  0  0  0  0
  144.8998  137.5331  154.3480 H   0  0  0  0  0  0  0  0  0  0  0  0
  147.1512  133.5859  150.1092 H   0  0  0  0  0  0  0  0  0  0  0  0
  145.6090  131.7559  149.3894 H   0  0  0  0  0  0  0  0  0  0  0  0
  143.3267  131.5817  150.3081 H   0  0  0  0  0  0  0  0  0  0  0  0
  142.4821  133.2248  151.9820 H   0  0  0  0  0  0  0  0  0  0  0  0
  142.1694  135.0673  153.0405 H   0  0  0  0  0  0  0  0  0  0  0  0
  143.0347  135.0625  154.5563 H   0  0  0  0  0  0  0  0  0  0  0  0
  143.2559  137.4902  154.5534 H   0  0  0  0  0  0  0  0  0  0  0  0
  142.9071  138.7011  152.8195 H   0  0  0  0  0  0  0  0  0  0  0  0
  140.2562  136.3058  152.5373 H   0  0  0  0  0  0  0  0  0  0  0  0
  137.9313  136.5536  153.3499 H   0  0  0  0  0  0  0  0  0  0  0  0
  139.3790  138.3709  156.9776 H   0  0  0  0  0  0  0  0  0  0  0  0
  147.2076  135.8786  151.8780 H   0  0  0  0  0  0  0  0  0  0  0  0
  1  2  1  0  0  0  0
  1 25  1  0  0  0  0
  2  3  1  0  0  0  0
  2 26  1  0  0  0  0
  2 27  1  0  0  0  0
  3  4  1  0  0  0  0
  3 28  1  0  0  0  0
  3 29  1  0  0  0  0
  4  5  1  0  0  0  0
  4 30  1  0  0  0  0
  5 13  1  0  0  0  0
  5  6  2  0  0  0  0
  6  7  1  0  0  0  0
  6 42  1  0  0  0  0
  7 12  2  0  0  0  0
  7  8  1  0  0  0  0
  8  9  2  0  0  0  0
  8 31  1  0  0  0  0
  9 10  1  0  0  0  0
  9 32  1  0  0  0  0
 10 11  2  0  0  0  0
 10 33  1  0  0  0  0
 11 12  1  0  0  0  0
 11 34  1  0  0  0  0
 12 13  1  0  0  0  0
 13 14  1  0  0  0  0
 14 15  1  0  0  0  0
 14 35  1  0  0  0  0
 14 36  1  0  0  0  0
 15 16  1  0  0  0  0
 15 17  1  0  0  0  0
 15 37  1  0  0  0  0
 16 38  1  0  0  0  0
 17 23  1  0  0  0  0
 17 18  2  0  0  0  0
 18 19  1  0  0  0  0
 18 39  1  0  0  0  0
 19 20  2  0  0  0  0
 19 40  1  0  0  0  0
 20 21  1  0  0  0  0
 20 22  1  0  0  0  0
 22 23  2  0  0  0  0
 22 41  1  0  0  0  0
 23 24  1  0  0  0  0
M  CHG  1   6   1
M  END
> <s_m_source_file>
AV-unprocessed.smi

> <i_m_source_file_index>
1517

> <i_lp_mmshare_version>
43012

> <i_f3d_flags>
0

> <s_epik_input>
W09IXVtDSDJdW0NIMl1bTkhdYyhuMSluKGMoYzEyKVtjSF1bY0hdW2NIXVtjSF0yKVtDSDJdW0NASF0oW09IXSljM1tjSF1bY0hdYyhGKVtjSF1jM0Y=

> <s_epik_cmdline>
J2VwaWtfcHl0aG9uJywgJy1waCcsICc3LjAnLCAnLXRuJywgJzgnLCAnLW1hJywgJzIwMCcsICctbWV0YWxfYmluZGluZycsICctaW1hZScsICc8aW5maWxlLm1hZT4nLCAnLW9tYWUnLCAnPG91dGZpbGUubWFlPic=

> <r_epik_Ionization_Penalty>
0.0688096

> <r_epik_Ionization_Penalty_Charging>
0.0688055

> <r_epik_Ionization_Penalty_Neutral>
4.12262e-06

> <r_epik_State_Penalty>
0.0602293

> <r_epik_Charging_Adjusted_Penalty>
0.129035

> <i_epik_Tot_Q>
1

> <i_epik_Tot_abs_Q>
1

> <r_epik_Metal_State_Penalty>
2.77411

> <b_epik_Metal_Only>
0

> <s_lp_Force_Field>
OPLS_2005

> <r_lp_Energy>
23.6459

> <b_lp_Chiralities_Consistent>
1

> <s_lp_Variant>
AV-unprocessed.smi:1517-2

> <Gold.Version>
5.8.1

> <Gold.Id.Protein>
6NUR|6NUR_protein|mol2

> <Gold.PLP.Fitness>
50.6230

> <Gold.PLP.PLP>
-39.5910

> <Gold.PLP.part.hbond>
-3.8788

> <Gold.PLP.part.metal>
0.0000

> <Gold.PLP.part.buried>
-6.7771

> <Gold.PLP.part.nonpolar>
-28.5167

> <Gold.PLP.part.repulsive>
0.0335

> <Gold.PLP.ligand.clash>
0.0000

> <Gold.PLP.ligand.torsion>
0.5211

> <Gold.PLP.Chemscore.Hbond>
4.0000

> <Gold.PLP.Chemscore.CHOScore>
0.0000

> <Gold.PLP.Chemscore.Metal>
0.0000

> <Gold.Chemscore.Hbonds>
donor molecule, donor type, donor heavy atom, donor atom, acceptor molecule, acceptor atom, score
      L1  H     1    25       P1  7957  1.00
      L1  H     6    42       P1  7948  2.00
      L1  H    16    38       P1 10175  1.00

> <Gold.PLP.Chemscore.Internal.Correction>
0.0742

> <Gold.Rescore>
     Score         DG    S(hbond)    S(metal)    S(lipo)     H(rot)  DE(clash)    DE(int)     intcor
     17.11     -17.51       2.99        0.00      89.46       3.29       0.07       0.33       ----

> <Gold.Chemscore.Fitness>
17.1096

> <Gold.Chemscore.DG>
-17.5122

> <Gold.Chemscore.ZeroCoef>
-5.4800

> <Gold.Chemscore.Hbond>
2.9885

> <Gold.Chemscore.Metal>
0.0000

> <Gold.Chemscore.Lipo>
89.4576

> <Gold.Chemscore.Internal_Hbond>
0.0000

> <Gold.Chemscore.DEClash>
0.0714

> <Gold.Chemscore.DEInternal>
0.3312

> <Gold.Chemscore.Rot>
3.2874

> <Gold.Chemscore.Internal.Correction>
   9.000000E+99

> <Gold.Chemscore.Hbonds>
donor molecule, donor type, donor heavy atom, donor atom, acceptor molecule, acceptor atom, score
      L1  H     1    25       P1  7957  0.97
      L1  H     6    42       P1  7948  1.00
      L1  H    16    38       P1 10175  0.94

> <Gold.Chemscore.Hbond.Weighted>
-9.9815

> <Gold.Chemscore.Metal.Weighted>
-0.0000

> <Gold.Chemscore.Lipo.Weighted>
-10.4665

> <Gold.Chemscore.Internal_Hbond.Weighted>
0.0000

> <Gold.Chemscore.DEClash.Weighted>
0.0714

> <Gold.Chemscore.DEInternal.Weighted>
0.3312

> <Gold.Chemscore.Rot.Weighted>
8.4158

> <Gold.Chemscore.Internal.Correction.Weighted>
   9.000000E+99

> <Gold.Protein.RotatedTorsions>
[ 6907 6896 6895 6894 ] final -171.40 input  -60.11 | X-H torsion
[ 7974 7965 7964 7962 ] final  -92.93 input  175.53 | X-H torsion
[ 8008 7997 7996 7995 ] final  -82.47 input   59.86 | X-H torsion
[ 10167 10162 10161 10158 ] final  -79.56 input  -65.29 | X-H torsion
[ 10718 10713 10712 10709 ] final  -38.70 input   66.30 | X-H torsion
[ 10763 10752 10751 10750 ] final   78.57 input  -60.55 | X-H torsion
[ 11005 11000 10999 10996 ] final    4.84 input  -57.11 | X-H torsion

> <Gold.Protein.ActiveResidues>
 VAL166  LYS551  ARG553  GLY616  TRP617  ASP618  TYR619  PRO620  LYS621  CYS622 
 ASP623  PHE694  ASN695  SER759  ASP760  ASP761  ALA762  ILE779  LEU786  VAL792 
 PHE793  MET794  SER795  GLU796  ALA797  LYS798  CYS799  TRP800  GLU811  SER814 

> <Gold.Protein.RotatedAtoms>
  151.5232  133.3462  159.2904 H   0  0  0  0  0  0  0  0  0  0  0  0  # atno 6907 bound_to 6896
  150.8640  134.8001  159.7115 H   0  0  0  0  0  0  0  0  0  0  0  0  # atno 6908 bound_to 6896
  152.4650  134.5105  159.9804 H   0  0  0  0  0  0  0  0  0  0  0  0  # atno 6909 bound_to 6896
  145.3933  140.9530  143.2328 H   0  0  0  0  0  0  0  0  0  0  0  0  # atno 7974 bound_to 7965
  154.6089  140.0633  156.9468 H   0  0  0  0  0  0  0  0  0  0  0  0  # atno 8008 bound_to 7997
  155.2006  140.3314  155.4325 H   0  0  0  0  0  0  0  0  0  0  0  0  # atno 8009 bound_to 7997
  156.2365  140.1865  156.7089 H   0  0  0  0  0  0  0  0  0  0  0  0  # atno 8010 bound_to 7997
  140.4582  143.2462  151.8388 H   0  0  0  0  0  0  0  0  0  0  0  0  # atno 10167 bound_to 10162
  156.3008  130.4240  149.8145 H   0  0  0  0  0  0  0  0  0  0  0  0  # atno 10718 bound_to 10713
  153.0885  135.4872  154.8643 H   0  0  0  0  0  0  0  0  0  0  0  0  # atno 10763 bound_to 10752
  154.7240  135.3045  154.9004 H   0  0  0  0  0  0  0  0  0  0  0  0  # atno 10764 bound_to 10752
  153.9659  135.6807  153.4799 H   0  0  0  0  0  0  0  0  0  0  0  0  # atno 10765 bound_to 10752
  140.5775  134.0044  155.8033 H   0  0  0  0  0  0  0  0  0  0  0  0  # atno 11005 bound_to 11000
  144.8425  139.5449  143.6893 LP  0  0  0  0  0  0  0  0  0  0  0  0  # atno 17320 bound_to 7965
  146.2787  139.6821  142.9244 LP  0  0  0  0  0  0  0  0  0  0  0  0  # atno 17321 bound_to 7965
  139.4803  144.5039  151.9023 LP  0  0  0  0  0  0  0  0  0  0  0  0  # atno 17342 bound_to 10162
  140.4125  144.2350  150.5888 LP  0  0  0  0  0  0  0  0  0  0  0  0  # atno 17343 bound_to 10162
  156.5524  130.8347  151.3303 LP  0  0  0  0  0  0  0  0  0  0  0  0  # atno 17370 bound_to 10713
  157.7367  130.9784  150.2153 LP  0  0  0  0  0  0  0  0  0  0  0  0  # atno 17371 bound_to 10713
  141.1017  133.9757  157.3066 LP  0  0  0  0  0  0  0  0  0  0  0  0  # atno 17394 bound_to 11000
  139.9333  135.0198  156.8472 LP  0  0  0  0  0  0  0  0  0  0  0  0  # atno 17395 bound_to 11000

$$$$
