#       Name:                AV-unprocessed.smi:2787
#       Creating user name   scv26
#       Creation time:       Fri Mar 27 15:19:19 2020


#       File generated by GOLD software.
#

@<TRIPOS>MOLECULE
AV-unprocessed.smi:2787
    40    41     1
SMALL
NO_CHARGES


@<TRIPOS>ATOM
      1 ****        -4.4142   1.6646   0.7302 O.3            1 S1                 0.0000
      2 ****        -3.8683   2.2592  -0.4280 C.3            1 S1                 0.0000
      3 ****        -2.3340   2.2145  -0.3804 C.3            1 S1                 0.0000
      4 ****        -1.7687   0.7889  -0.5161 C.3            1 S1                 0.0000
      5 ****        -0.2725   0.7322  -0.4528 C.2            1 S1                 0.0000
      6 ****         0.5913   1.7892  -0.4613 N.pl3          1 S1                 1.0000
      7 ****         1.9071   1.3287  -0.3985 C.ar           1 S1                 0.0000
      8 ****         3.1156   2.0183  -0.3759 C.ar           1 S1                 0.0000
      9 ****         4.2885   1.2374  -0.3100 C.ar           1 S1                 0.0000
     10 ****         4.2319  -0.1711  -0.2724 C.ar           1 S1                 0.0000
     11 ****         3.0006  -0.8589  -0.2972 C.ar           1 S1                 0.0000
     12 ****         1.8465  -0.0787  -0.3581 C.ar           1 S1                 0.0000
     13 ****         0.4857  -0.4008  -0.3914 N.pl3          1 S1                 0.0000
     14 ****         0.0833  -1.8157  -0.3632 C.3            1 S1                 0.0000
     15 ****         0.1220  -2.4249   1.0542 C.3            1 S1                 0.0000
     16 ****        -0.6868  -1.6554   1.9233 O.3            1 S1                 0.0000
     17 ****        -0.3435  -3.8931   1.0876 C.3            1 S1                 0.0000
     18 ****        -0.2572  -4.3734   2.3282 F              1 S1                 0.0000
     19 ****        -1.5973  -4.0087   0.6489 F              1 S1                 0.0000
     20 ****         0.4510  -4.6247   0.3062 F              1 S1                 0.0000
     21 ****        -5.3566   1.7184   0.6811 H              1 S1                 0.0000
     22 ****        -4.2459   1.7481  -1.3140 H              1 S1                 0.0000
     23 ****        -4.2124   3.2924  -0.4799 H              1 S1                 0.0000
     24 ****        -1.9450   2.8310  -1.1915 H              1 S1                 0.0000
     25 ****        -1.9864   2.6703   0.5479 H              1 S1                 0.0000
     26 ****        -2.1695   0.1542   0.2746 H              1 S1                 0.0000
     27 ****        -2.0912   0.3511  -1.4613 H              1 S1                 0.0000
     28 ****         3.1614   3.0971  -0.4060 H              1 S1                 0.0000
     29 ****         5.2506   1.7287  -0.2884 H              1 S1                 0.0000
     30 ****         5.1517  -0.7361  -0.2236 H              1 S1                 0.0000
     31 ****         2.9669  -1.9381  -0.2686 H              1 S1                 0.0000
     32 ****        -0.9239  -1.8814  -0.7755 H              1 S1                 0.0000
     33 ****         0.7283  -2.3695  -1.0461 H              1 S1                 0.0000
     34 ****         1.1420  -2.3767   1.4368 H              1 S1                 0.0000
     35 ****        -0.3489  -0.7734   1.9449 H              1 S1                 0.0000
     36 ****         0.2973   2.7565  -0.5054 H              1 S1                 0.0000
     37 ****        -4.0909   2.1501   1.5425 LP             1 S1                 0.0000
     38 ****        -4.1336   0.7061   0.7811 LP             1 S1                 0.0000
     39 ****        -0.6629  -2.0484   2.8426 LP             1 S1                 0.0000
     40 ****        -1.6291  -1.6475   1.5886 LP             1 S1                 0.0000
@<TRIPOS>BOND
    1    1    2 1     
    2    1   21 1     
    3    2    3 1     
    4    2   22 1     
    5    2   23 1     
    6    3    4 1     
    7    3   24 1     
    8    3   25 1     
    9    4    5 1     
   10    4   26 1     
   11    4   27 1     
   12    5   13 1     
   13    5    6 2     
   14    6    7 1     
   15    6   36 1     
   16    7   12 ar    
   17    7    8 ar    
   18    8    9 ar    
   19    8   28 1     
   20    9   10 ar    
   21    9   29 1     
   22   10   11 ar    
   23   10   30 1     
   24   11   12 ar    
   25   11   31 1     
   26   12   13 1     
   27   13   14 1     
   28   14   15 1     
   29   14   32 1     
   30   14   33 1     
   31   15   16 1     
   32   15   17 1     
   33   15   34 1     
   34   16   35 1     
   35   17   18 1     
   36   17   19 1     
   37   17   20 1     
   38    1   37 1     
   39    1   38 1     
   40   16   39 1     
   41   16   40 1     
@<TRIPOS>SUBSTRUCTURE
      1 S1             1
@<TRIPOS>SET
LONE_PAIRS      STATIC     ATOMS    <user>   **** ""
4 37 38 39 40
DONOR_HYDROGENS      STATIC     ATOMS    <user>   **** ""
3 21 36 35
ATOM$BLUE        STATIC     ATOMS    COLORGROUP SYSTEM
4 37 38 39 40
ATOM$RED        STATIC     ATOMS    COLORGROUP SYSTEM
3 21 36 35
