AV-unprocessed.smi:2456|AV-procd|sdf|9703|dock3
  -GOLD-   2272013343D 1   1.00000     0.00000
 Structure written by MMmdl.
 33 34  0  0  0  0  0  0  0  0  2 V2000
  151.6396  138.4799  156.2464 C   0  0  0  0  0  0  0  0  0  0  0  0
  151.2777  138.9814  157.6545 C   0  0  1  0  0  0  0  0  0  0  0  0
  150.7113  137.8566  158.4000 N   0  0  0  0  0  0  0  0  0  0  0  0
  149.4825  137.8075  158.9372 C   0  0  0  0  0  0  0  0  0  0  0  0
  148.7210  138.7705  158.8177 O   0  0  0  0  0  0  0  0  0  0  0  0
  149.2139  136.6480  159.5793 N   0  5  0  0  0  0  0  0  0  0  0  0
  148.2624  136.6100  160.5261 C   0  0  0  0  0  0  0  0  0  0  0  0
  147.7077  137.7102  161.0478 N   0  0  0  0  0  0  0  0  0  0  0  0
  146.7355  137.4384  162.0119 C   0  0  0  0  0  0  0  0  0  0  0  0
  146.5385  136.0997  162.2227 C   0  0  0  0  0  0  0  0  0  0  0  0
  147.5748  135.1347  161.2107 S   0  0  0  0  0  0  0  0  0  0  0  0
  152.5718  139.4897  158.3288 C   0  0  0  0  0  0  0  0  0  0  0  0
  153.5566  138.7496  158.3784 O   0  0  0  0  0  0  0  0  0  0  0  0
  152.6016  140.7434  158.8306 N   0  0  0  0  0  0  0  0  0  0  0  0
  153.7317  141.3780  159.5086 C   0  0  0  0  0  0  0  0  0  0  0  0
  153.1884  142.6830  160.0913 C   0  0  0  0  0  0  0  0  0  0  0  0
  152.0038  143.0236  159.1988 C   0  0  0  0  0  0  0  0  0  0  0  0
  151.4664  141.6618  158.7586 C   0  0  0  0  0  0  0  0  0  0  0  0
  152.0582  139.2801  155.6349 H   0  0  0  0  0  0  0  0  0  0  0  0
  150.7557  138.1059  155.7286 H   0  0  0  0  0  0  0  0  0  0  0  0
  152.3692  137.6690  156.2791 H   0  0  0  0  0  0  0  0  0  0  0  0
  150.5214  139.7628  157.5783 H   0  0  0  0  0  0  0  0  0  0  0  0
  151.3047  137.0503  158.5285 H   0  0  0  0  0  0  0  0  0  0  0  0
  146.2316  138.2607  162.4974 H   0  0  0  0  0  0  0  0  0  0  0  0
  145.8508  135.6245  162.9058 H   0  0  0  0  0  0  0  0  0  0  0  0
  154.1526  140.7463  160.2919 H   0  0  0  0  0  0  0  0  0  0  0  0
  154.5139  141.5857  158.7767 H   0  0  0  0  0  0  0  0  0  0  0  0
  152.8391  142.5110  161.1103 H   0  0  0  0  0  0  0  0  0  0  0  0
  153.9364  143.4758  160.1232 H   0  0  0  0  0  0  0  0  0  0  0  0
  151.2532  143.6321  159.7040 H   0  0  0  0  0  0  0  0  0  0  0  0
  152.3528  143.5778  158.3264 H   0  0  0  0  0  0  0  0  0  0  0  0
  151.0404  141.7106  157.7552 H   0  0  0  0  0  0  0  0  0  0  0  0
  150.6881  141.3177  159.4415 H   0  0  0  0  0  0  0  0  0  0  0  0
  1  2  1  0  0  0  0
  1 19  1  0  0  0  0
  1 20  1  0  0  0  0
  1 21  1  0  0  0  0
  2  3  1  0  0  0  0
  2 12  1  0  0  0  0
  2 22  1  0  0  0  0
  3  4  1  0  0  0  0
  3 23  1  0  0  0  0
  4  5  2  0  0  0  0
  4  6  1  0  0  0  0
  6  7  1  0  0  0  0
  7 11  1  0  0  0  0
  7  8  2  0  0  0  0
  8  9  1  0  0  0  0
  9 10  2  0  0  0  0
  9 24  1  0  0  0  0
 10 11  1  0  0  0  0
 10 25  1  0  0  0  0
 12 13  2  0  0  0  0
 12 14  1  0  0  0  0
 14 18  1  0  0  0  0
 14 15  1  0  0  0  0
 15 16  1  0  0  0  0
 15 26  1  0  0  0  0
 15 27  1  0  0  0  0
 16 17  1  0  0  0  0
 16 28  1  0  0  0  0
 16 29  1  0  0  0  0
 17 18  1  0  0  0  0
 17 30  1  0  0  0  0
 17 31  1  0  0  0  0
 18 32  1  0  0  0  0
 18 33  1  0  0  0  0
M  CHG  1   6  -1
M  END
> <s_m_source_file>
AV-unprocessed.smi

> <i_m_source_file_index>
2456

> <i_lp_mmshare_version>
43012

> <i_f3d_flags>
0

> <s_epik_input>
W0NIMl0xW0NIMl1bQ0gyXVtDSDJdTjFDKD1PKVtDQEhdKFtDSDNdKVtOSF1DKD1PKVtOSF1jMm5bY0hdW2NIXXMy

> <s_epik_cmdline>
J2VwaWtfcHl0aG9uJywgJy1waCcsICc3LjAnLCAnLXRuJywgJzgnLCAnLW1hJywgJzIwMCcsICctbWV0YWxfYmluZGluZycsICctaW1hZScsICc8aW5maWxlLm1hZT4nLCAnLW9tYWUnLCAnPG91dGZpbGUubWFlPic=

> <r_lp_tautomer_probability>
1

> <r_epik_Ionization_Penalty>
5.99337

> <r_epik_Ionization_Penalty_Charging>
5.23786

> <r_epik_Ionization_Penalty_Neutral>
0.755512

> <r_epik_State_Penalty>
5.23778

> <r_epik_Charging_Adjusted_Penalty>
10.4756

> <i_epik_Tot_Q>
-1

> <i_epik_Tot_abs_Q>
1

> <r_epik_Metal_State_Penalty>
1.29566

> <b_epik_Metal_Only>
1

> <s_lp_Force_Field>
OPLS_2005

> <r_lp_Energy>
24.1286

> <b_lp_Chiralities_Consistent>
1

> <s_lp_Variant>
AV-unprocessed.smi:2456-4

> <Gold.Version>
5.8.1

> <Gold.Id.Protein>
6NUR|6NUR_protein|mol2

> <Gold.PLP.Fitness>
46.6261

> <Gold.PLP.PLP>
-33.3232

> <Gold.PLP.part.hbond>
-5.3638

> <Gold.PLP.part.metal>
0.0000

> <Gold.PLP.part.buried>
-3.6770

> <Gold.PLP.part.nonpolar>
-24.6511

> <Gold.PLP.part.repulsive>
0.1025

> <Gold.PLP.ligand.clash>
0.0000

> <Gold.PLP.ligand.torsion>
0.2098

> <Gold.PLP.Chemscore.Hbond>
4.5680

> <Gold.PLP.Chemscore.CHOScore>
0.0000

> <Gold.PLP.Chemscore.Metal>
0.0000

> <Gold.Chemscore.Hbonds>
donor molecule, donor type, donor heavy atom, donor atom, acceptor molecule, acceptor atom, score
      P1  H  6896  6908       L1     6  0.06
      P1  H  6931  6943       L1     8  0.59
      P1  H  6934  6947       L1     8  0.24
      P1  H  7997  8008       L1    13  0.55

> <Gold.PLP.Chemscore.Internal.Correction>
0.0185

> <Gold.Rescore>
     Score         DG    S(hbond)    S(metal)    S(lipo)     H(rot)  DE(clash)    DE(int)     intcor
     13.99     -15.92       1.60        0.00      72.60       1.33       0.19       1.74       ----

> <Gold.Chemscore.Fitness>
13.9941

> <Gold.Chemscore.DG>
-15.9217

> <Gold.Chemscore.ZeroCoef>
-5.4800

> <Gold.Chemscore.Hbond>
1.6016

> <Gold.Chemscore.Metal>
0.0000

> <Gold.Chemscore.Lipo>
72.5975

> <Gold.Chemscore.Internal_Hbond>
0.0000

> <Gold.Chemscore.DEClash>
0.1915

> <Gold.Chemscore.DEInternal>
1.7361

> <Gold.Chemscore.Rot>
1.3288

> <Gold.Chemscore.Internal.Correction>
   9.000000E+99

> <Gold.Chemscore.Hbonds>
donor molecule, donor type, donor heavy atom, donor atom, acceptor molecule, acceptor atom, score
      P1  H  6896  6908       L1     6  0.08
      P1  H  6931  6943       L1     8  0.07
      P1  H  6934  6947       L1     8  0.01
      P1  H  7997  8008       L1    13  0.06

> <Gold.Chemscore.Hbond.Weighted>
-5.3495

> <Gold.Chemscore.Metal.Weighted>
-0.0000

> <Gold.Chemscore.Lipo.Weighted>
-8.4939

> <Gold.Chemscore.Internal_Hbond.Weighted>
0.0000

> <Gold.Chemscore.DEClash.Weighted>
0.1915

> <Gold.Chemscore.DEInternal.Weighted>
1.7361

> <Gold.Chemscore.Rot.Weighted>
3.4017

> <Gold.Chemscore.Internal.Correction.Weighted>
   9.000000E+99

> <Gold.Protein.RotatedTorsions>
[ 6907 6896 6895 6894 ] final -174.19 input  -60.11 | X-H torsion
[ 7974 7965 7964 7962 ] final  -87.87 input  175.53 | X-H torsion
[ 8008 7997 7996 7995 ] final  -98.57 input   59.86 | X-H torsion
[ 10167 10162 10161 10158 ] final  162.47 input  -65.29 | X-H torsion
[ 10718 10713 10712 10709 ] final   -3.42 input   66.30 | X-H torsion
[ 10763 10752 10751 10750 ] final -111.55 input  -60.55 | X-H torsion
[ 11005 11000 10999 10996 ] final -172.64 input  -57.11 | X-H torsion

> <Gold.Protein.ActiveResidues>
 VAL166  LYS551  ARG553  GLY616  TRP617  ASP618  TYR619  PRO620  LYS621  CYS622 
 ASP623  PHE694  ASN695  SER759  ASP760  ASP761  ALA762  ILE779  LEU786  VAL792 
 PHE793  MET794  SER795  GLU796  ALA797  LYS798  CYS799  TRP800  GLU811  SER814 

> <Gold.Protein.RotatedAtoms>
  151.5684  133.3393  159.2984 H   0  0  0  0  0  0  0  0  0  0  0  0  # atno 6907 bound_to 6896
  150.8382  134.7666  159.6921 H   0  0  0  0  0  0  0  0  0  0  0  0  # atno 6908 bound_to 6896
  152.4454  134.5511  159.9919 H   0  0  0  0  0  0  0  0  0  0  0  0  # atno 6909 bound_to 6896
  145.4608  140.9561  143.1970 H   0  0  0  0  0  0  0  0  0  0  0  0  # atno 7974 bound_to 7965
  154.8030  140.0454  157.1287 H   0  0  0  0  0  0  0  0  0  0  0  0  # atno 8008 bound_to 7997
  154.9456  140.3058  155.5079 H   0  0  0  0  0  0  0  0  0  0  0  0  # atno 8009 bound_to 7997
  156.2964  140.2297  156.4529 H   0  0  0  0  0  0  0  0  0  0  0  0  # atno 8010 bound_to 7997
  139.4861  144.4434  151.8923 H   0  0  0  0  0  0  0  0  0  0  0  0  # atno 10167 bound_to 10162
  156.7762  130.5316  149.5758 H   0  0  0  0  0  0  0  0  0  0  0  0  # atno 10718 bound_to 10713
  154.8305  135.4523  154.1056 H   0  0  0  0  0  0  0  0  0  0  0  0  # atno 10763 bound_to 10752
  153.2333  135.6908  153.7872 H   0  0  0  0  0  0  0  0  0  0  0  0  # atno 10764 bound_to 10752
  153.7247  135.3336  155.3250 H   0  0  0  0  0  0  0  0  0  0  0  0  # atno 10765 bound_to 10752
  140.4947  134.5951  157.4967 H   0  0  0  0  0  0  0  0  0  0  0  0  # atno 11005 bound_to 11000
  144.8004  139.6152  143.7074 LP  0  0  0  0  0  0  0  0  0  0  0  0  # atno 17320 bound_to 7965
  146.2452  139.6083  142.9464 LP  0  0  0  0  0  0  0  0  0  0  0  0  # atno 17321 bound_to 7965
  140.3887  144.2643  150.5901 LP  0  0  0  0  0  0  0  0  0  0  0  0  # atno 17342 bound_to 10162
  140.5166  143.2276  151.8453 LP  0  0  0  0  0  0  0  0  0  0  0  0  # atno 17343 bound_to 10162
  156.1246  130.6135  151.0245 LP  0  0  0  0  0  0  0  0  0  0  0  0  # atno 17370 bound_to 10713
  157.6668  131.0870  150.7710 LP  0  0  0  0  0  0  0  0  0  0  0  0  # atno 17371 bound_to 10713
  139.9748  134.7233  155.9970 LP  0  0  0  0  0  0  0  0  0  0  0  0  # atno 17394 bound_to 11000
  141.1466  133.6555  156.3886 LP  0  0  0  0  0  0  0  0  0  0  0  0  # atno 17395 bound_to 11000

$$$$
