AV-unprocessed.smi:620|AV-procd|sdf|3087|dock7
  -GOLD-   22720 0 13D 1   1.00000     0.00000
 Structure written by MMmdl.
 33 35  0  0  0  0  0  0  0  0  1 V2000
  146.8100  133.9355  162.6392 C   0  0  0  0  0  0  0  0  0  0  0  0
  147.2478  135.0620  161.7668 C   0  0  0  0  0  0  0  0  0  0  0  0
  146.7990  136.3147  161.9174 N   0  0  0  0  0  0  0  0  0  0  0  0
  147.3542  137.1902  160.9934 N   0  0  0  0  0  0  0  0  0  0  0  0
  148.2052  136.5722  160.1695 C   0  0  0  0  0  0  0  0  0  0  0  0
  148.8532  137.3472  159.1756 N   0  0  0  0  0  0  0  0  0  0  0  0
  150.1723  137.5184  158.9918 C   0  0  0  0  0  0  0  0  0  0  0  0
  151.0580  136.9913  159.6645 O   0  0  0  0  0  0  0  0  0  0  0  0
  150.4139  138.3472  157.9658 N   0  0  0  0  0  0  0  0  0  0  0  0
  151.7329  138.7591  157.4965 C   0  0  0  0  0  0  0  0  0  0  0  0
  151.8603  140.2688  157.3673 C   0  0  0  0  0  0  0  0  0  0  0  0
  151.1815  141.2033  158.3409 C   0  0  0  0  0  0  0  0  0  0  0  0
  150.6985  141.1207  156.9115 C   0  0  0  0  0  0  0  0  0  0  0  0
  152.0898  138.0853  156.1840 C   0  0  0  0  0  0  0  0  0  0  0  0
  153.1906  138.6276  155.3043 C   0  0  0  0  0  0  0  0  0  0  0  0
  151.7494  138.7165  154.8546 C   0  0  0  0  0  0  0  0  0  0  0  0
  148.4029  134.8435  160.4585 S   0  0  0  0  0  0  0  0  0  0  0  0
  146.0761  134.2761  163.3707 H   0  0  0  0  0  0  0  0  0  0  0  0
  147.6674  133.5235  163.1714 H   0  0  0  0  0  0  0  0  0  0  0  0
  146.3611  133.1475  162.0342 H   0  0  0  0  0  0  0  0  0  0  0  0
  148.2409  137.8326  158.5367 H   0  0  0  0  0  0  0  0  0  0  0  0
  149.6217  138.7284  157.4697 H   0  0  0  0  0  0  0  0  0  0  0  0
  152.4705  138.4286  158.2311 H   0  0  0  0  0  0  0  0  0  0  0  0
  152.8430  140.5900  157.0258 H   0  0  0  0  0  0  0  0  0  0  0  0
  150.5419  140.7695  159.1067 H   0  0  0  0  0  0  0  0  0  0  0  0
  151.7244  142.0978  158.6389 H   0  0  0  0  0  0  0  0  0  0  0  0
  150.9194  141.9586  156.2536 H   0  0  0  0  0  0  0  0  0  0  0  0
  149.7426  140.6311  156.7370 H   0  0  0  0  0  0  0  0  0  0  0  0
  152.0104  137.0001  156.2202 H   0  0  0  0  0  0  0  0  0  0  0  0
  153.6787  139.5498  155.6136 H   0  0  0  0  0  0  0  0  0  0  0  0
  153.8317  137.9070  154.8005 H   0  0  0  0  0  0  0  0  0  0  0  0
  151.4302  138.0544  154.0524 H   0  0  0  0  0  0  0  0  0  0  0  0
  151.2863  139.7011  154.8588 H   0  0  0  0  0  0  0  0  0  0  0  0
  1  2  1  0  0  0  0
  1 18  1  0  0  0  0
  1 19  1  0  0  0  0
  1 20  1  0  0  0  0
  2 17  1  0  0  0  0
  2  3  2  0  0  0  0
  3  4  1  0  0  0  0
  4  5  2  0  0  0  0
  5  6  1  0  0  0  0
  5 17  1  0  0  0  0
  6  7  1  0  0  0  0
  6 21  1  0  0  0  0
  7  8  2  0  0  0  0
  7  9  1  0  0  0  0
  9 10  1  0  0  0  0
  9 22  1  0  0  0  0
 10 11  1  0  0  0  0
 10 14  1  0  0  0  0
 10 23  1  0  0  0  0
 11 13  1  0  0  0  0
 11 12  1  0  0  0  0
 11 24  1  0  0  0  0
 12 13  1  0  0  0  0
 12 25  1  0  0  0  0
 12 26  1  0  0  0  0
 13 27  1  0  0  0  0
 13 28  1  0  0  0  0
 14 16  1  0  0  0  0
 14 15  1  0  0  0  0
 14 29  1  0  0  0  0
 15 16  1  0  0  0  0
 15 30  1  0  0  0  0
 15 31  1  0  0  0  0
 16 32  1  0  0  0  0
 16 33  1  0  0  0  0
M  END
> <s_m_source_file>
AV-unprocessed.smi

> <i_m_source_file_index>
620

> <i_lp_mmshare_version>
43012

> <i_f3d_flags>
0

> <s_epik_input>
W0NIM11jMW5uYyhzMSlbTkhdQyg9TylbTkhdW0NIXShbQ0hdMltDSDJdW0NIMl0yKVtDSF0zW0NIMl1bQ0gyXTM=

> <s_epik_cmdline>
J2VwaWtfcHl0aG9uJywgJy1waCcsICc3LjAnLCAnLXRuJywgJzgnLCAnLW1hJywgJzIwMCcsICctbWV0YWxfYmluZGluZycsICctaW1hZScsICc8aW5maWxlLm1hZT4nLCAnLW9tYWUnLCAnPG91dGZpbGUubWFlPic=

> <r_lp_tautomer_probability>
1

> <r_epik_Ionization_Penalty>
0.000349386

> <r_epik_Ionization_Penalty_Charging>
0

> <r_epik_Ionization_Penalty_Neutral>
0.000349386

> <r_epik_State_Penalty>
-0

> <r_epik_Charging_Adjusted_Penalty>
0

> <i_epik_Tot_Q>
0

> <i_epik_Tot_abs_Q>
0

> <r_epik_Metal_State_Penalty>
0.178889

> <b_epik_Metal_Only>
0

> <s_lp_Force_Field>
OPLS_2005

> <r_lp_Energy>
21.1743

> <b_lp_Chiralities_Consistent>
1

> <s_lp_Variant>
AV-unprocessed.smi:620-1

> <Gold.Version>
5.8.1

> <Gold.Id.Protein>
6NUR|6NUR_protein|mol2

> <Gold.PLP.Fitness>
37.5883

> <Gold.PLP.PLP>
-30.4254

> <Gold.PLP.part.hbond>
-3.0000

> <Gold.PLP.part.metal>
0.0000

> <Gold.PLP.part.buried>
-4.8365

> <Gold.PLP.part.nonpolar>
-22.6062

> <Gold.PLP.part.repulsive>
0.2390

> <Gold.PLP.ligand.clash>
0.0000

> <Gold.PLP.ligand.torsion>
1.7161

> <Gold.PLP.Chemscore.Hbond>
2.8240

> <Gold.PLP.Chemscore.CHOScore>
0.0000

> <Gold.PLP.Chemscore.Metal>
0.0000

> <Gold.Chemscore.Hbonds>
donor molecule, donor type, donor heavy atom, donor atom, acceptor molecule, acceptor atom, score
      P1  H  6896  6907       L1     8  0.98
      P1  H  6931  6943       L1     4  0.26
      P1  H  6934  6947       L1     4  1.00

> <Gold.PLP.Chemscore.Internal.Correction>
2.1232

> <Gold.Rescore>
     Score         DG    S(hbond)    S(metal)    S(lipo)     H(rot)  DE(clash)    DE(int)     intcor
     14.95     -16.51       1.95        0.00      70.07       1.44       0.00       1.55       ----

> <Gold.Chemscore.Fitness>
14.9512

> <Gold.Chemscore.DG>
-16.5058

> <Gold.Chemscore.ZeroCoef>
-5.4800

> <Gold.Chemscore.Hbond>
1.9502

> <Gold.Chemscore.Metal>
0.0000

> <Gold.Chemscore.Lipo>
70.0741

> <Gold.Chemscore.Internal_Hbond>
0.0000

> <Gold.Chemscore.DEClash>
0.0046

> <Gold.Chemscore.DEInternal>
1.5500

> <Gold.Chemscore.Rot>
1.4400

> <Gold.Chemscore.Internal.Correction>
   9.000000E+99

> <Gold.Chemscore.Hbonds>
donor molecule, donor type, donor heavy atom, donor atom, acceptor molecule, acceptor atom, score
      P1  H  6896  6907       L1     8  0.87
      P1  H  6931  6943       L1     4  0.01
      P1  H  6934  6947       L1     4  0.95

> <Gold.Chemscore.Hbond.Weighted>
-6.5135

> <Gold.Chemscore.Metal.Weighted>
-0.0000

> <Gold.Chemscore.Lipo.Weighted>
-8.1987

> <Gold.Chemscore.Internal_Hbond.Weighted>
0.0000

> <Gold.Chemscore.DEClash.Weighted>
0.0046

> <Gold.Chemscore.DEInternal.Weighted>
1.5500

> <Gold.Chemscore.Rot.Weighted>
3.6864

> <Gold.Chemscore.Internal.Correction.Weighted>
   9.000000E+99

> <Gold.Protein.RotatedTorsions>
[ 6907 6896 6895 6894 ] final  -35.80 input  -60.11 | X-H torsion
[ 7974 7965 7964 7962 ] final  115.66 input  175.53 | X-H torsion
[ 8008 7997 7996 7995 ] final  -36.30 input   59.86 | X-H torsion
[ 10167 10162 10161 10158 ] final  133.84 input  -65.29 | X-H torsion
[ 10718 10713 10712 10709 ] final   61.26 input   66.30 | X-H torsion
[ 10763 10752 10751 10750 ] final  160.04 input  -60.55 | X-H torsion
[ 11005 11000 10999 10996 ] final -100.42 input  -57.11 | X-H torsion

> <Gold.Protein.ActiveResidues>
 VAL166  LYS551  ARG553  GLY616  TRP617  ASP618  TYR619  PRO620  LYS621  CYS622 
 ASP623  PHE694  ASN695  SER759  ASP760  ASP761  ALA762  ILE779  LEU786  VAL792 
 PHE793  MET794  SER795  GLU796  ALA797  LYS798  CYS799  TRP800  GLU811  SER814 

> <Gold.Protein.RotatedAtoms>
  151.0352  134.9568  159.8131 H   0  0  0  0  0  0  0  0  0  0  0  0  # atno 6907 bound_to 6896
  152.5353  134.2729  159.8988 H   0  0  0  0  0  0  0  0  0  0  0  0  # atno 6908 bound_to 6896
  151.2739  133.4199  159.2657 H   0  0  0  0  0  0  0  0  0  0  0  0  # atno 6909 bound_to 6896
  145.1892  139.3009  143.4377 H   0  0  0  0  0  0  0  0  0  0  0  0  # atno 7974 bound_to 7965
  154.4076  140.1634  156.2352 H   0  0  0  0  0  0  0  0  0  0  0  0  # atno 8008 bound_to 7997
  155.9248  140.3419  155.6179 H   0  0  0  0  0  0  0  0  0  0  0  0  # atno 8009 bound_to 7997
  155.7178  140.0764  157.2334 H   0  0  0  0  0  0  0  0  0  0  0  0  # atno 8010 bound_to 7997
  139.5280  144.6596  151.5054 H   0  0  0  0  0  0  0  0  0  0  0  0  # atno 10167 bound_to 10162
  157.5815  130.8985  149.9439 H   0  0  0  0  0  0  0  0  0  0  0  0  # atno 10718 bound_to 10713
  154.2413  135.2774  155.2853 H   0  0  0  0  0  0  0  0  0  0  0  0  # atno 10763 bound_to 10752
  154.5543  135.5666  153.6953 H   0  0  0  0  0  0  0  0  0  0  0  0  # atno 10764 bound_to 10752
  152.9999  135.6282  154.2557 H   0  0  0  0  0  0  0  0  0  0  0  0  # atno 10765 bound_to 10752
  141.1271  133.8397  157.1100 H   0  0  0  0  0  0  0  0  0  0  0  0  # atno 11005 bound_to 11000
  146.3439  140.2099  142.8590 LP  0  0  0  0  0  0  0  0  0  0  0  0  # atno 17320 bound_to 7965
  145.0058  140.8672  143.5254 LP  0  0  0  0  0  0  0  0  0  0  0  0  # atno 17321 bound_to 7965
  140.6438  143.8835  150.6717 LP  0  0  0  0  0  0  0  0  0  0  0  0  # atno 17342 bound_to 10162
  140.2178  143.3832  152.1667 LP  0  0  0  0  0  0  0  0  0  0  0  0  # atno 17343 bound_to 10162
  156.0861  130.3668  150.0485 LP  0  0  0  0  0  0  0  0  0  0  0  0  # atno 17370 bound_to 10713
  156.8623  130.9496  151.3617 LP  0  0  0  0  0  0  0  0  0  0  0  0  # atno 17371 bound_to 10713
  140.0281  134.9914  157.0726 LP  0  0  0  0  0  0  0  0  0  0  0  0  # atno 17394 bound_to 11000
  140.4330  134.1761  155.7169 LP  0  0  0  0  0  0  0  0  0  0  0  0  # atno 17395 bound_to 11000

$$$$
