AV-unprocessed.smi:2310|AV-procd|sdf|9256|dock4
  -GOLD-   2272012473D 1   1.00000     0.00000
 Structure written by MMmdl.
 45 46  0  0  0  0  0  0  0  0  1 V2000
  155.2498  133.5541  165.1636 C   0  0  0  0  0  0  0  0  0  0  0  0
  155.0362  134.7334  164.2037 C   0  0  0  0  0  0  0  0  0  0  0  0
  155.2913  134.3858  162.7250 C   0  0  1  0  0  0  0  0  0  0  0  0
  154.7301  132.9992  162.3739 C   0  0  0  0  0  0  0  0  0  0  0  0
  154.8820  132.6529  160.9515 C   0  0  0  0  0  0  0  0  0  0  0  0
  155.0004  132.3811  159.8334 N   0  0  0  0  0  0  0  0  0  0  0  0
  154.6869  135.3943  161.8531 N   0  0  0  0  0  0  0  0  0  0  0  0
  154.7441  136.7226  162.0311 C   0  0  0  0  0  0  0  0  0  0  0  0
  155.3107  137.2589  162.9829 O   0  0  0  0  0  0  0  0  0  0  0  0
  154.0877  137.3706  161.0532 N   0  0  0  0  0  0  0  0  0  0  0  0
  153.9139  138.7731  160.8815 C   0  0  0  0  0  0  0  0  0  0  0  0
  154.7743  139.7287  161.4747 C   0  0  0  0  0  0  0  0  0  0  0  0
  154.5503  141.0975  161.2393 C   0  0  0  0  0  0  0  0  0  0  0  0
  153.4802  141.4775  160.4069 C   0  0  0  0  0  0  0  0  0  0  0  0
  153.2584  142.8426  160.1699 N   0  0  0  0  0  0  0  0  0  0  0  0
  152.3181  143.1460  159.1035 C   0  0  0  0  0  0  0  0  0  0  0  0
  151.9529  144.6205  159.2905 C   0  0  0  0  0  0  0  0  0  0  0  0
  152.2620  144.9179  160.7630 C   0  0  0  0  0  0  0  0  0  0  0  0
  152.8092  143.6025  161.3246 C   0  0  0  0  0  0  0  0  0  0  0  0
  152.6607  140.5727  159.8228 N   0  0  0  0  0  0  0  0  0  0  0  0
  152.8725  139.2574  160.0486 C   0  0  0  0  0  0  0  0  0  0  0  0
  151.8916  138.3401  159.3353 C   0  0  0  0  0  0  0  0  0  0  0  0
  155.0040  133.8389  166.1868 H   0  0  0  0  0  0  0  0  0  0  0  0
  156.2850  133.2125  165.1573 H   0  0  0  0  0  0  0  0  0  0  0  0
  154.6166  132.7087  164.8933 H   0  0  0  0  0  0  0  0  0  0  0  0
  154.0102  135.0866  164.3133 H   0  0  0  0  0  0  0  0  0  0  0  0
  155.6751  135.5649  164.5039 H   0  0  0  0  0  0  0  0  0  0  0  0
  156.3715  134.3477  162.5729 H   0  0  0  0  0  0  0  0  0  0  0  0
  155.2443  132.2284  162.9483 H   0  0  0  0  0  0  0  0  0  0  0  0
  153.6716  132.9352  162.6275 H   0  0  0  0  0  0  0  0  0  0  0  0
  154.1895  135.0503  161.0447 H   0  0  0  0  0  0  0  0  0  0  0  0
  153.5933  136.7907  160.3912 H   0  0  0  0  0  0  0  0  0  0  0  0
  155.6104  139.4397  162.0922 H   0  0  0  0  0  0  0  0  0  0  0  0
  155.1955  141.8400  161.6860 H   0  0  0  0  0  0  0  0  0  0  0  0
  152.7622  142.9633  158.1246 H   0  0  0  0  0  0  0  0  0  0  0  0
  151.4242  142.5264  159.1897 H   0  0  0  0  0  0  0  0  0  0  0  0
  152.5718  145.2478  158.6479 H   0  0  0  0  0  0  0  0  0  0  0  0
  150.9098  144.8118  159.0370 H   0  0  0  0  0  0  0  0  0  0  0  0
  153.0147  145.7041  160.8332 H   0  0  0  0  0  0  0  0  0  0  0  0
  151.3813  145.2514  161.3125 H   0  0  0  0  0  0  0  0  0  0  0  0
  152.0215  143.0650  161.8546 H   0  0  0  0  0  0  0  0  0  0  0  0
  153.6279  143.7747  162.0240 H   0  0  0  0  0  0  0  0  0  0  0  0
  152.0360  137.2855  159.5655 H   0  0  0  0  0  0  0  0  0  0  0  0
  151.9871  138.4616  158.2561 H   0  0  0  0  0  0  0  0  0  0  0  0
  150.8697  138.5998  159.6142 H   0  0  0  0  0  0  0  0  0  0  0  0
  1  2  1  0  0  0  0
  1 23  1  0  0  0  0
  1 24  1  0  0  0  0
  1 25  1  0  0  0  0
  2  3  1  0  0  0  0
  2 26  1  0  0  0  0
  2 27  1  0  0  0  0
  3  4  1  0  0  0  0
  3  7  1  0  0  0  0
  3 28  1  0  0  0  0
  4  5  1  0  0  0  0
  4 29  1  0  0  0  0
  4 30  1  0  0  0  0
  5  6  3  0  0  0  0
  7  8  1  0  0  0  0
  7 31  1  0  0  0  0
  8  9  2  0  0  0  0
  8 10  1  0  0  0  0
 10 11  1  0  0  0  0
 10 32  1  0  0  0  0
 11 21  1  0  0  0  0
 11 12  2  0  0  0  0
 12 13  1  0  0  0  0
 12 33  1  0  0  0  0
 13 14  2  0  0  0  0
 13 34  1  0  0  0  0
 14 15  1  0  0  0  0
 14 20  1  0  0  0  0
 15 19  1  0  0  0  0
 15 16  1  0  0  0  0
 16 17  1  0  0  0  0
 16 35  1  0  0  0  0
 16 36  1  0  0  0  0
 17 18  1  0  0  0  0
 17 37  1  0  0  0  0
 17 38  1  0  0  0  0
 18 19  1  0  0  0  0
 18 39  1  0  0  0  0
 18 40  1  0  0  0  0
 19 41  1  0  0  0  0
 19 42  1  0  0  0  0
 20 21  2  0  0  0  0
 21 22  1  0  0  0  0
 22 43  1  0  0  0  0
 22 44  1  0  0  0  0
 22 45  1  0  0  0  0
M  END
> <s_m_source_file>
AV-unprocessed.smi

> <i_m_source_file_index>
2310

> <i_lp_mmshare_version>
43012

> <i_f3d_flags>
0

> <s_epik_input>
TiNDW0NIMl1bQ0BASF0oW0NIMl1bQ0gzXSlbTkhdQyg9TylbTkhdYzFbY0hdW2NIXWMobmMxW0NIM10pTjJbQ0gyXVtDSDJdW0NIMl1bQ0gyXTI=

> <s_epik_cmdline>
J2VwaWtfcHl0aG9uJywgJy1waCcsICc3LjAnLCAnLXRuJywgJzgnLCAnLW1hJywgJzIwMCcsICctbWV0YWxfYmluZGluZycsICctaW1hZScsICc8aW5maWxlLm1hZT4nLCAnLW9tYWUnLCAnPG91dGZpbGUubWFlPic=

> <r_lp_tautomer_probability>
1

> <r_epik_Ionization_Penalty>
0.281354

> <r_epik_Ionization_Penalty_Charging>
0

> <r_epik_Ionization_Penalty_Neutral>
0.281354

> <r_epik_State_Penalty>
0.273364

> <r_epik_Charging_Adjusted_Penalty>
0.273364

> <i_epik_Tot_Q>
0

> <i_epik_Tot_abs_Q>
0

> <r_epik_Metal_State_Penalty>
0.18752

> <b_epik_Metal_Only>
0

> <s_lp_Force_Field>
OPLS_2005

> <r_lp_Energy>
36.0303

> <b_lp_Chiralities_Consistent>
1

> <s_lp_Variant>
AV-unprocessed.smi:2310-2

> <Gold.Version>
5.8.1

> <Gold.Id.Protein>
6NUR|6NUR_protein|mol2

> <Gold.PLP.Fitness>
42.4316

> <Gold.PLP.PLP>
-43.5688

> <Gold.PLP.part.hbond>
0.0000

> <Gold.PLP.part.metal>
0.0000

> <Gold.PLP.part.buried>
-6.0194

> <Gold.PLP.part.nonpolar>
-37.5025

> <Gold.PLP.part.repulsive>
0.1166

> <Gold.PLP.ligand.clash>
0.0000

> <Gold.PLP.ligand.torsion>
0.6265

> <Gold.PLP.Chemscore.Hbond>
0.0000

> <Gold.PLP.Chemscore.CHOScore>
0.0000

> <Gold.PLP.Chemscore.Metal>
0.0000

> <Gold.PLP.Chemscore.Internal.Correction>
0.1158

> <Gold.Rescore>
     Score         DG    S(hbond)    S(metal)    S(lipo)     H(rot)  DE(clash)    DE(int)     intcor
     11.56     -14.24       0.00        0.00     111.03       1.65       0.03       2.65       ----

> <Gold.Chemscore.Fitness>
11.5610

> <Gold.Chemscore.DG>
-14.2433

> <Gold.Chemscore.ZeroCoef>
-5.4800

> <Gold.Chemscore.Hbond>
0.0000

> <Gold.Chemscore.Metal>
0.0000

> <Gold.Chemscore.Lipo>
111.0333

> <Gold.Chemscore.Internal_Hbond>
0.0000

> <Gold.Chemscore.DEClash>
0.0303

> <Gold.Chemscore.DEInternal>
2.6520

> <Gold.Chemscore.Rot>
1.6514

> <Gold.Chemscore.Internal.Correction>
   9.000000E+99

> <Gold.Chemscore.Hbond.Weighted>
-0.0000

> <Gold.Chemscore.Metal.Weighted>
-0.0000

> <Gold.Chemscore.Lipo.Weighted>
-12.9909

> <Gold.Chemscore.Internal_Hbond.Weighted>
0.0000

> <Gold.Chemscore.DEClash.Weighted>
0.0303

> <Gold.Chemscore.DEInternal.Weighted>
2.6520

> <Gold.Chemscore.Rot.Weighted>
4.2276

> <Gold.Chemscore.Internal.Correction.Weighted>
   9.000000E+99

> <Gold.Protein.RotatedTorsions>
[ 6907 6896 6895 6894 ] final  -15.58 input  -60.11 | X-H torsion
[ 7974 7965 7964 7962 ] final  148.43 input  175.53 | X-H torsion
[ 8008 7997 7996 7995 ] final -112.94 input   59.86 | X-H torsion
[ 10167 10162 10161 10158 ] final   40.98 input  -65.29 | X-H torsion
[ 10718 10713 10712 10709 ] final -105.22 input   66.30 | X-H torsion
[ 10763 10752 10751 10750 ] final   22.30 input  -60.55 | X-H torsion
[ 11005 11000 10999 10996 ] final  179.57 input  -57.11 | X-H torsion

> <Gold.Protein.ActiveResidues>
 VAL166  LYS551  ARG553  GLY616  TRP617  ASP618  TYR619  PRO620  LYS621  CYS622 
 ASP623  PHE694  ASN695  SER759  ASP760  ASP761  ALA762  ILE779  LEU786  VAL792 
 PHE793  MET794  SER795  GLU796  ALA797  LYS798  CYS799  TRP800  GLU811  SER814 

> <Gold.Protein.RotatedAtoms>
  151.3217  135.0820  159.9307 H   0  0  0  0  0  0  0  0  0  0  0  0  # atno 6907 bound_to 6896
  152.5255  133.9632  159.7737 H   0  0  0  0  0  0  0  0  0  0  0  0  # atno 6908 bound_to 6896
  150.9954  133.6055  159.2732 H   0  0  0  0  0  0  0  0  0  0  0  0  # atno 6909 bound_to 6896
  144.8515  139.6152  143.5972 H   0  0  0  0  0  0  0  0  0  0  0  0  # atno 7974 bound_to 7965
  155.0130  140.0393  157.2407 H   0  0  0  0  0  0  0  0  0  0  0  0  # atno 8008 bound_to 7997
  154.7444  140.2755  155.6323 H   0  0  0  0  0  0  0  0  0  0  0  0  # atno 8009 bound_to 7997
  156.2871  140.2659  156.2180 H   0  0  0  0  0  0  0  0  0  0  0  0  # atno 8010 bound_to 7997
  140.3688  144.2132  150.6134 H   0  0  0  0  0  0  0  0  0  0  0  0  # atno 10167 bound_to 10162
  156.0337  130.5553  150.7508 H   0  0  0  0  0  0  0  0  0  0  0  0  # atno 10718 bound_to 10713
  153.0926  135.6651  153.9824 H   0  0  0  0  0  0  0  0  0  0  0  0  # atno 10763 bound_to 10752
  153.9417  135.2993  155.3444 H   0  0  0  0  0  0  0  0  0  0  0  0  # atno 10764 bound_to 10752
  154.7342  135.5109  153.9087 H   0  0  0  0  0  0  0  0  0  0  0  0  # atno 10765 bound_to 10752
  140.4076  134.6720  157.4597 H   0  0  0  0  0  0  0  0  0  0  0  0  # atno 11005 bound_to 11000
  146.2788  139.6823  142.9244 LP  0  0  0  0  0  0  0  0  0  0  0  0  # atno 17320 bound_to 7965
  145.4491  141.0427  143.2814 LP  0  0  0  0  0  0  0  0  0  0  0  0  # atno 17321 bound_to 7965
  140.5054  143.2306  151.8616 LP  0  0  0  0  0  0  0  0  0  0  0  0  # atno 17342 bound_to 10162
  139.4806  144.5012  151.9058 LP  0  0  0  0  0  0  0  0  0  0  0  0  # atno 17343 bound_to 10162
  157.5053  131.0921  151.0265 LP  0  0  0  0  0  0  0  0  0  0  0  0  # atno 17370 bound_to 10713
  157.0635  130.5835  149.5390 LP  0  0  0  0  0  0  0  0  0  0  0  0  # atno 17371 bound_to 10713
  140.0290  134.6434  155.9132 LP  0  0  0  0  0  0  0  0  0  0  0  0  # atno 17394 bound_to 11000
  141.1833  133.6550  156.5111 LP  0  0  0  0  0  0  0  0  0  0  0  0  # atno 17395 bound_to 11000

$$$$
