AV-unprocessed.smi:2927|AV-procd|sdf|11230|dock3
  -GOLD-   2272016123D 1   1.00000     0.00000
 Structure written by MMmdl.
 54 55  0  0  0  0  0  0  0  0  1 V2000
  153.0123  138.3692  156.6606 C   0  0  0  0  0  0  0  0  0  0  0  0
  151.6205  137.9952  157.1524 C   0  0  0  0  0  0  0  0  0  0  0  0
  151.3853  136.7386  157.5763 C   0  0  0  0  0  0  0  0  0  0  0  0
  150.0843  136.2980  158.0708 C   0  0  0  0  0  0  0  0  0  0  0  0
  149.9075  135.1397  158.4518 O   0  0  0  0  0  0  0  0  0  0  0  0
  149.0922  137.2422  158.0964 N   0  0  0  0  0  0  0  0  0  0  0  0
  147.7886  136.8468  158.6852 C   0  0  0  0  0  0  0  0  0  0  0  0
  147.8270  136.6890  160.2139 C   0  0  0  0  0  0  0  0  0  0  0  0
  148.4687  137.4732  160.9144 O   0  0  0  0  0  0  0  0  0  0  0  0
  147.1397  135.6505  160.7138 N   0  0  0  0  0  0  0  0  0  0  0  0
  147.0366  135.3069  162.1292 C   0  0  0  0  0  0  0  0  0  0  0  0
  147.6339  133.9149  162.3891 C   0  0  0  0  0  0  0  0  0  0  0  0
  145.5684  135.3861  162.5675 C   0  0  0  0  0  0  0  0  0  0  0  0
  149.2917  138.5687  157.6055 C   0  0  0  0  0  0  0  0  0  0  0  0
  148.0583  139.4859  157.5762 C   0  0  0  0  0  0  0  0  0  0  0  0
  150.5212  138.9524  157.1712 C   0  0  0  0  0  0  0  0  0  0  0  0
  150.7543  140.2998  156.6527 C   0  0  0  0  0  0  0  0  0  0  0  0
  150.9290  140.5251  155.4545 O   0  0  0  0  0  0  0  0  0  0  0  0
  150.7400  141.2874  157.5870 N   0  0  0  0  0  0  0  0  0  0  0  0
  150.6684  141.0427  159.0356 C   0  0  0  0  0  0  0  0  0  0  0  0
  150.8345  142.6997  157.1869 C   0  0  0  0  0  0  0  0  0  0  0  0
  152.0573  143.3825  157.8092 C   0  0  0  0  0  0  0  0  0  0  0  0
  152.0326  143.7002  159.3123 C   0  0  0  0  0  0  0  0  0  0  0  0
  151.6864  145.1486  158.9608 C   0  0  0  0  0  0  0  0  0  0  0  0
  152.2792  144.8863  157.5753 C   0  0  0  0  0  0  0  0  0  0  0  0
  153.7123  137.5387  156.7583 H   0  0  0  0  0  0  0  0  0  0  0  0
  153.4093  139.2069  157.2347 H   0  0  0  0  0  0  0  0  0  0  0  0
  152.9803  138.6550  155.6088 H   0  0  0  0  0  0  0  0  0  0  0  0
  152.1889  136.0166  157.5614 H   0  0  0  0  0  0  0  0  0  0  0  0
  147.0225  137.5843  158.4377 H   0  0  0  0  0  0  0  0  0  0  0  0
  147.3928  135.9354  158.2397 H   0  0  0  0  0  0  0  0  0  0  0  0
  146.6438  135.0563  160.0653 H   0  0  0  0  0  0  0  0  0  0  0  0
  147.5959  136.0390  162.7146 H   0  0  0  0  0  0  0  0  0  0  0  0
  147.5660  133.6509  163.4447 H   0  0  0  0  0  0  0  0  0  0  0  0
  148.6875  133.8779  162.1102 H   0  0  0  0  0  0  0  0  0  0  0  0
  147.1114  133.1454  161.8198 H   0  0  0  0  0  0  0  0  0  0  0  0
  145.4655  135.1691  163.6310 H   0  0  0  0  0  0  0  0  0  0  0  0
  144.9505  134.6727  162.0210 H   0  0  0  0  0  0  0  0  0  0  0  0
  145.1603  136.3826  162.3948 H   0  0  0  0  0  0  0  0  0  0  0  0
  148.1434  140.2849  156.8408 H   0  0  0  0  0  0  0  0  0  0  0  0
  147.9108  139.9517  158.5508 H   0  0  0  0  0  0  0  0  0  0  0  0
  147.1479  138.9568  157.3000 H   0  0  0  0  0  0  0  0  0  0  0  0
  149.7115  140.5970  159.3072 H   0  0  0  0  0  0  0  0  0  0  0  0
  150.7675  141.9532  159.6263 H   0  0  0  0  0  0  0  0  0  0  0  0
  151.4639  140.3688  159.3559 H   0  0  0  0  0  0  0  0  0  0  0  0
  150.8626  142.7984  156.1015 H   0  0  0  0  0  0  0  0  0  0  0  0
  149.9241  143.2244  157.4810 H   0  0  0  0  0  0  0  0  0  0  0  0
  152.9725  142.8379  157.5723 H   0  0  0  0  0  0  0  0  0  0  0  0
  151.2631  143.1759  159.8798 H   0  0  0  0  0  0  0  0  0  0  0  0
  153.0135  143.6029  159.7810 H   0  0  0  0  0  0  0  0  0  0  0  0
  150.6112  145.3325  158.9333 H   0  0  0  0  0  0  0  0  0  0  0  0
  152.2133  145.9005  159.5488 H   0  0  0  0  0  0  0  0  0  0  0  0
  153.3360  145.1515  157.5116 H   0  0  0  0  0  0  0  0  0  0  0  0
  151.7093  145.3175  156.7519 H   0  0  0  0  0  0  0  0  0  0  0  0
  1  2  1  0  0  0  0
  1 26  1  0  0  0  0
  1 27  1  0  0  0  0
  1 28  1  0  0  0  0
  2 16  1  0  0  0  0
  2  3  2  0  0  0  0
  3  4  1  0  0  0  0
  3 29  1  0  0  0  0
  4  5  2  0  0  0  0
  4  6  1  0  0  0  0
  6  7  1  0  0  0  0
  6 14  1  0  0  0  0
  7  8  1  0  0  0  0
  7 30  1  0  0  0  0
  7 31  1  0  0  0  0
  8  9  2  0  0  0  0
  8 10  1  0  0  0  0
 10 11  1  0  0  0  0
 10 32  1  0  0  0  0
 11 12  1  0  0  0  0
 11 13  1  0  0  0  0
 11 33  1  0  0  0  0
 12 34  1  0  0  0  0
 12 35  1  0  0  0  0
 12 36  1  0  0  0  0
 13 37  1  0  0  0  0
 13 38  1  0  0  0  0
 13 39  1  0  0  0  0
 14 15  1  0  0  0  0
 14 16  2  0  0  0  0
 15 40  1  0  0  0  0
 15 41  1  0  0  0  0
 15 42  1  0  0  0  0
 16 17  1  0  0  0  0
 17 18  2  0  0  0  0
 17 19  1  0  0  0  0
 19 20  1  0  0  0  0
 19 21  1  0  0  0  0
 20 43  1  0  0  0  0
 20 44  1  0  0  0  0
 20 45  1  0  0  0  0
 21 22  1  0  0  0  0
 21 46  1  0  0  0  0
 21 47  1  0  0  0  0
 22 25  1  0  0  0  0
 22 23  1  0  0  0  0
 22 48  1  0  0  0  0
 23 24  1  0  0  0  0
 23 49  1  0  0  0  0
 23 50  1  0  0  0  0
 24 25  1  0  0  0  0
 24 51  1  0  0  0  0
 24 52  1  0  0  0  0
 25 53  1  0  0  0  0
 25 54  1  0  0  0  0
M  END
> <s_m_source_file>
AV-unprocessed.smi

> <i_m_source_file_index>
2927

> <i_lp_mmshare_version>
43012

> <i_f3d_flags>
0

> <s_epik_input>
W0NIM11bQ0hdKFtDSDNdKVtOSF1DKD1PKVtDSDJdbihjKD1PKVtjSF1jMVtDSDNdKWMoW0NIM10pYzFDKD1PKU4oW0NIM10pW0NIMl1bQ0hdMltDSDJdW0NIMl1bQ0gyXTI=

> <s_epik_cmdline>
J2VwaWtfcHl0aG9uJywgJy1waCcsICc3LjAnLCAnLXRuJywgJzgnLCAnLW1hJywgJzIwMCcsICctbWV0YWxfYmluZGluZycsICctaW1hZScsICc8aW5maWxlLm1hZT4nLCAnLW9tYWUnLCAnPG91dGZpbGUubWFlPic=

> <r_lp_tautomer_probability>
1

> <r_epik_Ionization_Penalty>
4.54151e-08

> <r_epik_Ionization_Penalty_Charging>
2.47394e-08

> <r_epik_Ionization_Penalty_Neutral>
2.06757e-08

> <r_epik_State_Penalty>
-0

> <r_epik_Charging_Adjusted_Penalty>
2.47394e-08

> <i_epik_Tot_Q>
0

> <i_epik_Tot_abs_Q>
0

> <r_epik_Metal_State_Penalty>
-0

> <b_epik_Metal_Only>
0

> <s_lp_Force_Field>
OPLS_2005

> <r_lp_Energy>
49.3499

> <b_lp_Chiralities_Consistent>
1

> <s_lp_Variant>
AV-unprocessed.smi:2927-1

> <Gold.Version>
5.8.1

> <Gold.Id.Protein>
6NUR|6NUR_protein|mol2

> <Gold.PLP.Fitness>
47.2933

> <Gold.PLP.PLP>
-39.6937

> <Gold.PLP.part.hbond>
-3.9054

> <Gold.PLP.part.metal>
0.0000

> <Gold.PLP.part.buried>
-6.0566

> <Gold.PLP.part.nonpolar>
-30.3741

> <Gold.PLP.part.repulsive>
0.1084

> <Gold.PLP.ligand.clash>
0.0006

> <Gold.PLP.ligand.torsion>
1.8196

> <Gold.PLP.Chemscore.Hbond>
2.8738

> <Gold.PLP.Chemscore.CHOScore>
0.0000

> <Gold.PLP.Chemscore.Metal>
0.0000

> <Gold.Chemscore.Hbonds>
donor molecule, donor type, donor heavy atom, donor atom, acceptor molecule, acceptor atom, score
      P1  H  6896  6908       L1     5  0.81
      P1  H  6931  6943       L1     9  0.47
      P1  H  6934  6947       L1     9  0.45
      P1  H  7989  7998       L1    18  0.78

> <Gold.PLP.Chemscore.Internal.Correction>
2.6178

> <Gold.Rescore>
     Score         DG    S(hbond)    S(metal)    S(lipo)     H(rot)  DE(clash)    DE(int)     intcor
     21.71     -23.89       3.13        0.00     103.33       1.62       0.27       1.91       ----

> <Gold.Chemscore.Fitness>
21.7093

> <Gold.Chemscore.DG>
-23.8868

> <Gold.Chemscore.ZeroCoef>
-5.4800

> <Gold.Chemscore.Hbond>
3.1309

> <Gold.Chemscore.Metal>
0.0000

> <Gold.Chemscore.Lipo>
103.3297

> <Gold.Chemscore.Internal_Hbond>
0.0000

> <Gold.Chemscore.DEClash>
0.2665

> <Gold.Chemscore.DEInternal>
1.9111

> <Gold.Chemscore.Rot>
1.6172

> <Gold.Chemscore.Internal.Correction>
   9.000000E+99

> <Gold.Chemscore.Hbonds>
donor molecule, donor type, donor heavy atom, donor atom, acceptor molecule, acceptor atom, score
      P1  H  6896  6908       L1     5  0.76
      P1  H  6931  6943       L1     9  0.47
      P1  H  6934  6947       L1     9  0.11
      P1  H  7989  7998       L1    18  0.73

> <Gold.Chemscore.Hbond.Weighted>
-10.4573

> <Gold.Chemscore.Metal.Weighted>
-0.0000

> <Gold.Chemscore.Lipo.Weighted>
-12.0896

> <Gold.Chemscore.Internal_Hbond.Weighted>
0.0000

> <Gold.Chemscore.DEClash.Weighted>
0.2665

> <Gold.Chemscore.DEInternal.Weighted>
1.9111

> <Gold.Chemscore.Rot.Weighted>
4.1400

> <Gold.Chemscore.Internal.Correction.Weighted>
   9.000000E+99

> <Gold.Protein.RotatedTorsions>
[ 6907 6896 6895 6894 ] final  144.48 input  -60.11 | X-H torsion
[ 7974 7965 7964 7962 ] final  104.72 input  175.53 | X-H torsion
[ 8008 7997 7996 7995 ] final   96.50 input   59.86 | X-H torsion
[ 10167 10162 10161 10158 ] final  157.43 input  -65.29 | X-H torsion
[ 10718 10713 10712 10709 ] final  -73.65 input   66.30 | X-H torsion
[ 10763 10752 10751 10750 ] final   29.72 input  -60.55 | X-H torsion
[ 11005 11000 10999 10996 ] final   77.03 input  -57.11 | X-H torsion

> <Gold.Protein.ActiveResidues>
 VAL166  LYS551  ARG553  GLY616  TRP617  ASP618  TYR619  PRO620  LYS621  CYS622 
 ASP623  PHE694  ASN695  SER759  ASP760  ASP761  ALA762  ILE779  LEU786  VAL792 
 PHE793  MET794  SER795  GLU796  ALA797  LYS798  CYS799  TRP800  GLU811  SER814 

> <Gold.Protein.RotatedAtoms>
  152.1931  133.4787  159.5018 H   0  0  0  0  0  0  0  0  0  0  0  0  # atno 6907 bound_to 6896
  150.6955  134.1687  159.4213 H   0  0  0  0  0  0  0  0  0  0  0  0  # atno 6908 bound_to 6896
  151.9602  135.0127  160.0598 H   0  0  0  0  0  0  0  0  0  0  0  0  # atno 6909 bound_to 6896
  145.3291  139.2491  143.3670 H   0  0  0  0  0  0  0  0  0  0  0  0  # atno 7974 bound_to 7965
  156.0803  140.3271  155.7685 H   0  0  0  0  0  0  0  0  0  0  0  0  # atno 8008 bound_to 7997
  155.5163  140.0581  157.2932 H   0  0  0  0  0  0  0  0  0  0  0  0  # atno 8009 bound_to 7997
  154.4578  140.1951  156.0346 H   0  0  0  0  0  0  0  0  0  0  0  0  # atno 8010 bound_to 7997
  139.4823  144.4918  151.8298 H   0  0  0  0  0  0  0  0  0  0  0  0  # atno 10167 bound_to 10162
  156.0272  130.4399  150.2774 H   0  0  0  0  0  0  0  0  0  0  0  0  # atno 10718 bound_to 10713
  153.0413  135.6482  154.0935 H   0  0  0  0  0  0  0  0  0  0  0  0  # atno 10763 bound_to 10752
  154.0640  135.2885  155.3321 H   0  0  0  0  0  0  0  0  0  0  0  0  # atno 10764 bound_to 10752
  154.6638  135.5381  153.8116 H   0  0  0  0  0  0  0  0  0  0  0  0  # atno 10765 bound_to 10752
  139.9272  134.7649  156.1470 H   0  0  0  0  0  0  0  0  0  0  0  0  # atno 11005 bound_to 11000
  146.3052  140.3865  142.8689 LP  0  0  0  0  0  0  0  0  0  0  0  0  # atno 17320 bound_to 7965
  144.8878  140.7485  143.5945 LP  0  0  0  0  0  0  0  0  0  0  0  0  # atno 17321 bound_to 7965
  140.4402  144.1996  150.5891 LP  0  0  0  0  0  0  0  0  0  0  0  0  # atno 17342 bound_to 10162
  140.4690  143.2420  151.9115 LP  0  0  0  0  0  0  0  0  0  0  0  0  # atno 17343 bound_to 10162
  157.0877  131.0161  151.3133 LP  0  0  0  0  0  0  0  0  0  0  0  0  # atno 17370 bound_to 10713
  157.4878  130.7804  149.7478 LP  0  0  0  0  0  0  0  0  0  0  0  0  # atno 17371 bound_to 10713
  141.0838  133.6743  156.2392 LP  0  0  0  0  0  0  0  0  0  0  0  0  # atno 17394 bound_to 11000
  140.6303  134.5271  157.5558 LP  0  0  0  0  0  0  0  0  0  0  0  0  # atno 17395 bound_to 11000

$$$$
