AV-unprocessed.smi:702|AV-procd|sdf|3424|dock2
  -GOLD-   22720 0403D 1   1.00000     0.00000
 Structure written by MMmdl.
 50 52  0  0  0  0  0  0  0  0  4 V2000
  150.3071  137.8644  155.5357 C   0  0  0  0  0  0  0  0  0  0  0  0
  150.1246  138.8995  154.4082 C   0  0  2  0  0  0  0  0  0  0  0  0
  151.0428  140.0219  154.6531 N   0  5  0  0  0  0  0  0  0  0  0  0
  151.6662  140.2843  155.8330 C   0  0  0  0  0  0  0  0  0  0  0  0
  152.4838  139.5728  156.4274 O   0  0  0  0  0  0  0  0  0  0  0  0
  151.3180  141.4828  156.3338 N   0  0  0  0  0  0  0  0  0  0  0  0
  151.7388  142.1000  157.5420 C   0  0  0  0  0  0  0  0  0  0  0  0
  151.5671  143.4966  157.6624 C   0  0  0  0  0  0  0  0  0  0  0  0
  151.9544  144.1433  158.8535 C   0  0  0  0  0  0  0  0  0  0  0  0
  152.4722  143.4235  159.8721 N   0  3  0  0  0  0  0  0  0  0  0  0
  152.6371  142.0846  159.8103 C   0  0  0  0  0  0  0  0  0  0  0  0
  152.2684  141.3831  158.6447 C   0  0  0  0  0  0  0  0  0  0  0  0
  148.6204  139.4004  154.2561 C   0  0  0  0  0  0  0  0  0  0  0  0
  147.7310  138.2942  153.6876 N   0  3  0  0  0  0  0  0  0  0  0  0
  147.2873  137.2394  154.6503 C   0  0  0  0  0  0  0  0  0  0  0  0
  146.6930  136.0395  153.8973 C   0  0  0  0  0  0  0  0  0  0  0  0
  145.5665  136.4678  153.1471 O   0  0  0  0  0  0  0  0  0  0  0  0
  145.9204  137.4503  152.1854 C   0  0  0  0  0  0  0  0  0  0  0  0
  146.5202  138.6829  152.8848 C   0  0  0  0  0  0  0  0  0  0  0  0
  148.0730  139.8758  155.6570 C   0  0  0  0  0  0  0  0  0  0  0  0
  147.5303  141.3046  155.5032 C   0  0  0  0  0  0  0  0  0  0  0  0
  147.4374  141.5819  154.0072 C   0  0  0  0  0  0  0  0  0  0  0  0
  148.5017  140.6856  153.3680 C   0  0  0  0  0  0  0  0  0  0  0  0
  149.6830  136.9852  155.3781 H   0  0  0  0  0  0  0  0  0  0  0  0
  150.0570  138.2769  156.5133 H   0  0  0  0  0  0  0  0  0  0  0  0
  151.3396  137.5161  155.5821 H   0  0  0  0  0  0  0  0  0  0  0  0
  150.3911  138.4013  153.4771 H   0  0  0  0  0  0  0  0  0  0  0  0
  150.7328  142.0470  155.7348 H   0  0  0  0  0  0  0  0  0  0  0  0
  151.1505  144.0702  156.8470 H   0  0  0  0  0  0  0  0  0  0  0  0
  151.8648  145.2065  159.0211 H   0  0  0  0  0  0  0  0  0  0  0  0
  153.0502  141.6160  160.6915 H   0  0  0  0  0  0  0  0  0  0  0  0
  152.3854  140.3103  158.6175 H   0  0  0  0  0  0  0  0  0  0  0  0
  148.0818  136.8666  155.2906 H   0  0  0  0  0  0  0  0  0  0  0  0
  146.5226  137.6460  155.3121 H   0  0  0  0  0  0  0  0  0  0  0  0
  147.4354  135.5784  153.2439 H   0  0  0  0  0  0  0  0  0  0  0  0
  146.3702  135.2753  154.6046 H   0  0  0  0  0  0  0  0  0  0  0  0
  146.6248  137.0331  151.4638 H   0  0  0  0  0  0  0  0  0  0  0  0
  145.0264  137.7328  151.6292 H   0  0  0  0  0  0  0  0  0  0  0  0
  145.7672  139.1379  153.5282 H   0  0  0  0  0  0  0  0  0  0  0  0
  146.7251  139.4030  152.0960 H   0  0  0  0  0  0  0  0  0  0  0  0
  147.3189  139.2029  156.0614 H   0  0  0  0  0  0  0  0  0  0  0  0
  148.8051  139.9109  156.4676 H   0  0  0  0  0  0  0  0  0  0  0  0
  146.5726  141.4403  156.0061 H   0  0  0  0  0  0  0  0  0  0  0  0
  148.2351  142.0053  155.9531 H   0  0  0  0  0  0  0  0  0  0  0  0
  146.4435  141.3286  153.6433 H   0  0  0  0  0  0  0  0  0  0  0  0
  147.5973  142.6356  153.7768 H   0  0  0  0  0  0  0  0  0  0  0  0
  149.4184  141.2782  153.3409 H   0  0  0  0  0  0  0  0  0  0  0  0
  148.2684  140.4785  152.3246 H   0  0  0  0  0  0  0  0  0  0  0  0
  148.3365  137.8192  153.0339 H   0  0  0  0  0  0  0  0  0  0  0  0
  152.7449  143.9107  160.7259 H   0  0  0  0  0  0  0  0  0  0  0  0
  1  2  1  0  0  0  0
  1 24  1  0  0  0  0
  1 25  1  0  0  0  0
  1 26  1  0  0  0  0
  2  3  1  0  0  0  0
  2 13  1  0  0  0  0
  2 27  1  0  0  0  0
  3  4  1  0  0  0  0
  4  5  2  0  0  0  0
  4  6  1  0  0  0  0
  6  7  1  0  0  0  0
  6 28  1  0  0  0  0
  7 12  1  0  0  0  0
  7  8  2  0  0  0  0
  8  9  1  0  0  0  0
  8 29  1  0  0  0  0
  9 10  2  0  0  0  0
  9 30  1  0  0  0  0
 10 11  1  0  0  0  0
 10 50  1  0  0  0  0
 11 12  2  0  0  0  0
 11 31  1  0  0  0  0
 12 32  1  0  0  0  0
 13 23  1  0  0  0  0
 13 14  1  0  0  0  0
 13 20  1  0  0  0  0
 14 19  1  0  0  0  0
 14 15  1  0  0  0  0
 14 49  1  0  0  0  0
 15 16  1  0  0  0  0
 15 33  1  0  0  0  0
 15 34  1  0  0  0  0
 16 17  1  0  0  0  0
 16 35  1  0  0  0  0
 16 36  1  0  0  0  0
 17 18  1  0  0  0  0
 18 19  1  0  0  0  0
 18 37  1  0  0  0  0
 18 38  1  0  0  0  0
 19 39  1  0  0  0  0
 19 40  1  0  0  0  0
 20 21  1  0  0  0  0
 20 41  1  0  0  0  0
 20 42  1  0  0  0  0
 21 22  1  0  0  0  0
 21 43  1  0  0  0  0
 21 44  1  0  0  0  0
 22 23  1  0  0  0  0
 22 45  1  0  0  0  0
 22 46  1  0  0  0  0
 23 47  1  0  0  0  0
 23 48  1  0  0  0  0
M  CHG  1   3  -1
M  CHG  1  10   1
M  CHG  1  14   1
M  END
> <s_m_source_file>
AV-unprocessed.smi

> <i_m_source_file_index>
702

> <i_lp_mmshare_version>
43012

> <i_f3d_flags>
0

> <s_epik_input>
W0NIMl0xW0NIMl1PW0NIMl1bQ0gyXU4xQzIoW0NIMl1bQ0gyXVtDSDJdW0NIMl0yKVtDQEhdKFtDSDNdKVtOSF1DKD1PKVtOSF1jM1tjSF1bY0hdbltjSF1bY0hdMw==

> <s_epik_cmdline>
J2VwaWtfcHl0aG9uJywgJy1waCcsICc3LjAnLCAnLXRuJywgJzgnLCAnLW1hJywgJzIwMCcsICctbWV0YWxfYmluZGluZycsICctaW1hZScsICc8aW5maWxlLm1hZT4nLCAnLW9tYWUnLCAnPG91dGZpbGUubWFlPic=

> <r_epik_Ionization_Penalty>
8.33674

> <r_epik_Ionization_Penalty_Charging>
8.33674

> <r_epik_Ionization_Penalty_Neutral>
3.60854e-06

> <r_epik_State_Penalty>
8.24268

> <r_epik_Charging_Adjusted_Penalty>
16.5794

> <i_epik_Tot_Q>
1

> <i_epik_Tot_abs_Q>
3

> <r_epik_Metal_State_Penalty>
4.24853

> <b_epik_Metal_Only>
1

> <s_lp_Force_Field>
OPLS_2005

> <r_lp_Energy>
64.6776

> <b_lp_Chiralities_Consistent>
1

> <s_lp_Variant>
AV-unprocessed.smi:702-9

> <Gold.Version>
5.8.1

> <Gold.Id.Protein>
6NUR|6NUR_protein|mol2

> <Gold.PLP.Fitness>
43.2448

> <Gold.PLP.PLP>
-34.7125

> <Gold.PLP.part.hbond>
-3.0000

> <Gold.PLP.part.metal>
0.0000

> <Gold.PLP.part.buried>
-1.5013

> <Gold.PLP.part.nonpolar>
-30.5232

> <Gold.PLP.part.repulsive>
0.3544

> <Gold.PLP.ligand.clash>
0.0000

> <Gold.PLP.ligand.torsion>
1.8943

> <Gold.PLP.Chemscore.Hbond>
4.0000

> <Gold.PLP.Chemscore.CHOScore>
0.0000

> <Gold.PLP.Chemscore.Metal>
0.0000

> <Gold.Chemscore.Hbonds>
donor molecule, donor type, donor heavy atom, donor atom, acceptor molecule, acceptor atom, score
      L1  H    14    49       P1  7948  1.89
      P1  H  7989  7998       L1     3  1.00
      P1  H  7997  8010       L1     5  1.00

> <Gold.PLP.Chemscore.Internal.Correction>
0.3209

> <Gold.Rescore>
     Score         DG    S(hbond)    S(metal)    S(lipo)     H(rot)  DE(clash)    DE(int)     intcor
     16.79     -22.48       2.80        0.00      97.18       1.45       1.58       4.11       ----

> <Gold.Chemscore.Fitness>
16.7882

> <Gold.Chemscore.DG>
-22.4814

> <Gold.Chemscore.ZeroCoef>
-5.4800

> <Gold.Chemscore.Hbond>
2.7978

> <Gold.Chemscore.Metal>
0.0000

> <Gold.Chemscore.Lipo>
97.1778

> <Gold.Chemscore.Internal_Hbond>
0.0000

> <Gold.Chemscore.DEClash>
1.5844

> <Gold.Chemscore.DEInternal>
4.1088

> <Gold.Chemscore.Rot>
1.4504

> <Gold.Chemscore.Internal.Correction>
   9.000000E+99

> <Gold.Chemscore.Hbonds>
donor molecule, donor type, donor heavy atom, donor atom, acceptor molecule, acceptor atom, score
      L1  H    14    49       P1  7948  0.89
      P1  H  7989  7998       L1     3  0.74
      P1  H  7997  8010       L1     5  0.92

> <Gold.Chemscore.Hbond.Weighted>
-9.3445

> <Gold.Chemscore.Metal.Weighted>
-0.0000

> <Gold.Chemscore.Lipo.Weighted>
-11.3698

> <Gold.Chemscore.Internal_Hbond.Weighted>
0.0000

> <Gold.Chemscore.DEClash.Weighted>
1.5844

> <Gold.Chemscore.DEInternal.Weighted>
4.1088

> <Gold.Chemscore.Rot.Weighted>
3.7129

> <Gold.Chemscore.Internal.Correction.Weighted>
   9.000000E+99

> <Gold.Protein.RotatedTorsions>
[ 6907 6896 6895 6894 ] final  -52.55 input  -60.11 | X-H torsion
[ 7974 7965 7964 7962 ] final  -23.43 input  175.53 | X-H torsion
[ 8008 7997 7996 7995 ] final   77.89 input   59.86 | X-H torsion
[ 10167 10162 10161 10158 ] final  -93.80 input  -65.29 | X-H torsion
[ 10718 10713 10712 10709 ] final  142.97 input   66.30 | X-H torsion
[ 10763 10752 10751 10750 ] final  -32.65 input  -60.55 | X-H torsion
[ 11005 11000 10999 10996 ] final   69.47 input  -57.11 | X-H torsion

> <Gold.Protein.ActiveResidues>
 VAL166  LYS551  ARG553  GLY616  TRP617  ASP618  TYR619  PRO620  LYS621  CYS622 
 ASP623  PHE694  ASN695  SER759  ASP760  ASP761  ALA762  ILE779  LEU786  VAL792 
 PHE793  MET794  SER795  GLU796  ALA797  LYS798  CYS799  TRP800  GLU811  SER814 

> <Gold.Protein.RotatedAtoms>
  150.8507  134.7831  159.7006 H   0  0  0  0  0  0  0  0  0  0  0  0  # atno 6907 bound_to 6896
  152.4573  134.5260  159.9807 H   0  0  0  0  0  0  0  0  0  0  0  0  # atno 6908 bound_to 6896
  151.5382  133.3399  159.2966 H   0  0  0  0  0  0  0  0  0  0  0  0  # atno 6909 bound_to 6896
  146.1616  140.4615  142.8569 H   0  0  0  0  0  0  0  0  0  0  0  0  # atno 7974 bound_to 7965
  155.8479  140.3459  155.5674 H   0  0  0  0  0  0  0  0  0  0  0  0  # atno 8008 bound_to 7997
  155.8069  140.0893  157.1945 H   0  0  0  0  0  0  0  0  0  0  0  0  # atno 8009 bound_to 7997
  154.4007  140.1455  156.3328 H   0  0  0  0  0  0  0  0  0  0  0  0  # atno 8010 bound_to 7997
  140.3209  143.3049  152.0047 H   0  0  0  0  0  0  0  0  0  0  0  0  # atno 10167 bound_to 10162
  157.3744  131.0983  151.0798 H   0  0  0  0  0  0  0  0  0  0  0  0  # atno 10718 bound_to 10713
  153.8173  135.6877  153.4832 H   0  0  0  0  0  0  0  0  0  0  0  0  # atno 10763 bound_to 10752
  153.1591  135.4587  154.9745 H   0  0  0  0  0  0  0  0  0  0  0  0  # atno 10764 bound_to 10752
  154.7942  135.3313  154.7648 H   0  0  0  0  0  0  0  0  0  0  0  0  # atno 10765 bound_to 10752
  139.9652  134.6994  156.0562 H   0  0  0  0  0  0  0  0  0  0  0  0  # atno 11005 bound_to 11000
  144.8035  140.6257  143.6462 LP  0  0  0  0  0  0  0  0  0  0  0  0  # atno 17320 bound_to 7965
  145.4572  139.1517  143.3886 LP  0  0  0  0  0  0  0  0  0  0  0  0  # atno 17321 bound_to 7965
  139.4874  144.6311  151.7067 LP  0  0  0  0  0  0  0  0  0  0  0  0  # atno 17342 bound_to 10162
  140.5484  144.0465  150.6116 LP  0  0  0  0  0  0  0  0  0  0  0  0  # atno 17343 bound_to 10162
  157.1890  130.6343  149.5698 LP  0  0  0  0  0  0  0  0  0  0  0  0  # atno 17370 bound_to 10713
  155.9762  130.4728  150.6513 LP  0  0  0  0  0  0  0  0  0  0  0  0  # atno 17371 bound_to 10713
  141.1331  133.6581  156.3518 LP  0  0  0  0  0  0  0  0  0  0  0  0  # atno 17394 bound_to 11000
  140.5413  134.6117  157.5380 LP  0  0  0  0  0  0  0  0  0  0  0  0  # atno 17395 bound_to 11000

$$$$
