#       Name:                AV-unprocessed.smi:703
#       Creating user name   scv26
#       Creation time:       Fri Mar 27 00:42:28 2020


#       File generated by GOLD software.
#

@<TRIPOS>MOLECULE
AV-unprocessed.smi:703
    41    42     1
SMALL
NO_CHARGES


@<TRIPOS>ATOM
      1 ****        -4.2687  -1.4827  -1.0231 C.3            1 S1                 0.0000
      2 ****        -3.2778  -0.3128  -1.0916 C.3            1 S1                 0.0000
      3 ****        -2.0166  -0.6039  -0.3687 N.4            1 S1                 1.0000
      4 ****        -2.1529  -0.7663   1.0953 C.3            1 S1                 0.0000
      5 ****        -0.7738  -0.4244   1.6657 C.3            1 S1                 0.0000
      6 ****        -0.8011  -0.0978   3.1717 C.3            1 S1                 0.0000
      7 ****        -0.3071   0.7169   0.7478 C.3            1 S1                 0.0000
      8 ****         1.1442   0.7890   0.6852 N.pl3          1 S1                -1.0000
      9 ****         1.8525   2.0688  -0.0178 S.o2           1 S1                 0.0000
     10 ****         1.5370   2.1728  -1.4523 O.2            1 S1                 0.0000
     11 ****         1.7078   3.2894   0.7912 O.2            1 S1                 0.0000
     12 ****         3.6324   1.5904   0.0990 C.3            1 S1                 0.0000
     13 ****         3.9788   0.5841  -0.9645 C.2            1 S1                 0.0000
     14 ****         3.6945  -0.8099  -0.9888 C.2            1 S1                 0.0000
     15 ****         4.2291  -1.2247  -2.1741 C.2            1 S1                 0.0000
     16 ****         4.8033  -0.1831  -2.8266 O.3            1 S1                 0.0000
     17 ****         4.6422   0.9665  -2.0450 N.2            1 S1                 0.0000
     18 ****        -0.9276   0.3708  -0.6185 C.3            1 S1                 0.0000
     19 ****        -5.1617  -1.2655  -1.6094 H              1 S1                 0.0000
     20 ****        -4.5897  -1.6786   0.0002 H              1 S1                 0.0000
     21 ****        -3.8271  -2.3979  -1.4190 H              1 S1                 0.0000
     22 ****        -3.0409  -0.1156  -2.1379 H              1 S1                 0.0000
     23 ****        -3.7327   0.5964  -0.6953 H              1 S1                 0.0000
     24 ****        -2.9185  -0.0882   1.4826 H              1 S1                 0.0000
     25 ****        -2.4581  -1.7818   1.3503 H              1 S1                 0.0000
     26 ****        -0.1283  -1.2917   1.5104 H              1 S1                 0.0000
     27 ****        -1.4515   0.7485   3.4013 H              1 S1                 0.0000
     28 ****         0.1949   0.1334   3.5539 H              1 S1                 0.0000
     29 ****        -1.1712  -0.9519   3.7394 H              1 S1                 0.0000
     30 ****        -0.7539   1.6460   1.1049 H              1 S1                 0.0000
     31 ****         4.2247   2.4978  -0.0214 H              1 S1                 0.0000
     32 ****         3.8283   1.2049   1.0992 H              1 S1                 0.0000
     33 ****         3.1743  -1.4065  -0.2544 H              1 S1                 0.0000
     34 ****         4.2812  -2.1824  -2.6701 H              1 S1                 0.0000
     35 ****        -0.2085  -0.0998  -1.2914 H              1 S1                 0.0000
     36 ****        -1.2891   1.2752  -1.1107 H              1 S1                 0.0000
     37 ****        -1.6692  -1.4850  -0.7191 H              1 S1                 0.0000
     38 ****         1.7019   0.0549   1.0728 LP             1 S1                 0.0000
     39 ****         4.3602  -0.0539  -3.7136 LP             1 S1                 0.0000
     40 ****         5.7770  -0.3652  -2.9638 LP             1 S1                 0.0000
     41 ****         4.9629   1.8892  -2.2589 LP             1 S1                 0.0000
@<TRIPOS>BOND
    1    1    2 1     
    2    1   19 1     
    3    1   20 1     
    4    1   21 1     
    5    2    3 1     
    6    2   22 1     
    7    2   23 1     
    8    3   18 1     
    9    3    4 1     
   10    3   37 1     
   11    4    5 1     
   12    4   24 1     
   13    4   25 1     
   14    5    6 1     
   15    5    7 1     
   16    5   26 1     
   17    6   27 1     
   18    6   28 1     
   19    6   29 1     
   20    7    8 1     
   21    7   18 1     
   22    7   30 1     
   23    8    9 1     
   24    9   10 2     
   25    9   11 2     
   26    9   12 1     
   27   12   13 1     
   28   12   31 1     
   29   12   32 1     
   30   13   17 2     
   31   13   14 1     
   32   14   15 2     
   33   14   33 1     
   34   15   16 1     
   35   15   34 1     
   36   16   17 1     
   37   18   35 1     
   38   18   36 1     
   39    8   38 1     
   40   16   39 1     
   41   16   40 1     
   42   17   41 1     
@<TRIPOS>SUBSTRUCTURE
      1 S1             1
@<TRIPOS>SET
LONE_PAIRS      STATIC     ATOMS    <user>   **** ""
6 38 10 11 39 40 41
DONOR_HYDROGENS      STATIC     ATOMS    <user>   **** ""
1 37
ATOM$BLUE        STATIC     ATOMS    COLORGROUP SYSTEM
6 38 10 11 39 40 41
ATOM$RED        STATIC     ATOMS    COLORGROUP SYSTEM
1 37
