AV-unprocessed.smi:227|AV-procd|sdf|1729|dock9
  -GOLD-   2262020223D 1   1.00000     0.00000
 Structure written by MMmdl.
 54 58  0  0  0  0  0  0  0  0  1 V2000
  149.0213  134.8524  158.4728 O   0  0  0  0  0  0  0  0  0  0  0  0
  147.9216  133.9711  158.5664 C   0  0  0  0  0  0  0  0  0  0  0  0
  146.6421  134.6970  159.0564 C   0  0  2  0  0  0  0  0  0  0  0  0
  146.2226  135.8225  158.0763 C   0  0  0  0  0  0  0  0  0  0  0  0
  145.8155  135.3356  156.7696 N   0  0  0  0  0  0  0  0  0  0  0  0
  144.5445  135.3470  156.2438 C   0  0  0  0  0  0  0  0  0  0  0  0
  144.4377  134.8468  155.0440 N   0  0  0  0  0  0  0  0  0  0  0  0
  145.7304  134.4535  154.7141 C   0  0  0  0  0  0  0  0  0  0  0  0
  146.3333  133.8434  153.5739 C   0  0  0  0  0  0  0  0  0  0  0  0
  145.6638  133.4926  152.4403 N   0  0  0  0  0  0  0  0  0  0  0  0
  144.2305  133.7055  152.3173 C   0  0  1  0  0  0  0  0  0  0  0  0
  144.0935  135.2289  152.1259 C   0  0  0  0  0  0  0  0  0  0  0  0
  145.3586  135.5433  151.3115 C   0  0  0  0  0  0  0  0  0  0  0  0
  145.9854  134.1387  151.1734 C   0  0  2  0  0  0  0  0  0  0  0  0
  145.1638  133.3270  150.1501 C   0  0  1  0  0  0  0  0  0  0  0  0
  145.9114  132.0823  149.6391 C   0  0  0  0  0  0  0  0  0  0  0  0
  146.5347  131.4123  150.7143 O   0  0  0  0  0  0  0  0  0  0  0  0
  143.9125  132.9972  150.9900 C   0  0  0  0  0  0  0  0  0  0  0  0
  147.6647  133.5759  153.6467 N   0  0  0  0  0  0  0  0  0  0  0  0
  148.3667  133.9005  154.7353 C   0  0  0  0  0  0  0  0  0  0  0  0
  147.9431  134.4855  155.8559 N   0  0  0  0  0  0  0  0  0  0  0  0
  146.6059  134.7437  155.8009 C   0  0  0  0  0  0  0  0  0  0  0  0
  146.8022  135.2742  160.4898 C   0  0  2  0  0  0  0  0  0  0  0  0
  145.5301  135.7779  161.1502 C   0  0  0  0  0  0  0  0  0  0  0  0
  146.0701  136.6601  162.2699 C   0  0  0  0  0  0  0  0  0  0  0  0
  147.2849  137.2084  161.7734 O   0  0  0  0  0  0  0  0  0  0  0  0
  147.6663  136.5384  160.5764 C   0  0  0  0  0  0  0  0  0  0  0  0
  148.6986  135.7158  158.2643 H   0  0  0  0  0  0  0  0  0  0  0  0
  147.7505  133.4942  157.6010 H   0  0  0  0  0  0  0  0  0  0  0  0
  148.2270  133.1843  159.2544 H   0  0  0  0  0  0  0  0  0  0  0  0
  145.8314  133.9667  159.0726 H   0  0  0  0  0  0  0  0  0  0  0  0
  145.3863  136.3946  158.4780 H   0  0  0  0  0  0  0  0  0  0  0  0
  147.0436  136.5283  157.9428 H   0  0  0  0  0  0  0  0  0  0  0  0
  143.6950  135.7463  156.7785 H   0  0  0  0  0  0  0  0  0  0  0  0
  143.6206  133.3165  153.1303 H   0  0  0  0  0  0  0  0  0  0  0  0
  143.1746  135.5066  151.6085 H   0  0  0  0  0  0  0  0  0  0  0  0
  144.1139  135.7484  153.0848 H   0  0  0  0  0  0  0  0  0  0  0  0
  145.1410  136.0084  150.3496 H   0  0  0  0  0  0  0  0  0  0  0  0
  146.0149  136.2142  151.8671 H   0  0  0  0  0  0  0  0  0  0  0  0
  147.0473  134.1682  150.9258 H   0  0  0  0  0  0  0  0  0  0  0  0
  144.9048  133.9540  149.2953 H   0  0  0  0  0  0  0  0  0  0  0  0
  145.2145  131.3927  149.1620 H   0  0  0  0  0  0  0  0  0  0  0  0
  146.6609  132.3492  148.8933 H   0  0  0  0  0  0  0  0  0  0  0  0
  147.3995  131.1467  150.4408 H   0  0  0  0  0  0  0  0  0  0  0  0
  143.8104  131.9228  151.1498 H   0  0  0  0  0  0  0  0  0  0  0  0
  142.9900  133.3556  150.5322 H   0  0  0  0  0  0  0  0  0  0  0  0
  149.4184  133.6565  154.7036 H   0  0  0  0  0  0  0  0  0  0  0  0
  147.2421  134.5122  161.1356 H   0  0  0  0  0  0  0  0  0  0  0  0
  144.9478  136.3775  160.4489 H   0  0  0  0  0  0  0  0  0  0  0  0
  144.8944  134.9777  161.5293 H   0  0  0  0  0  0  0  0  0  0  0  0
  145.3679  137.4409  162.5624 H   0  0  0  0  0  0  0  0  0  0  0  0
  146.2963  136.0592  163.1515 H   0  0  0  0  0  0  0  0  0  0  0  0
  148.7337  136.3168  160.5823 H   0  0  0  0  0  0  0  0  0  0  0  0
  147.4638  137.2029  159.7352 H   0  0  0  0  0  0  0  0  0  0  0  0
  1  2  1  0  0  0  0
  1 28  1  0  0  0  0
  2  3  1  0  0  0  0
  2 29  1  0  0  0  0
  2 30  1  0  0  0  0
  3  4  1  0  0  0  0
  3 23  1  0  0  0  0
  3 31  1  0  0  0  0
  4  5  1  0  0  0  0
  4 32  1  0  0  0  0
  4 33  1  0  0  0  0
  5 22  1  0  0  0  0
  5  6  1  0  0  0  0
  6  7  2  0  0  0  0
  6 34  1  0  0  0  0
  7  8  1  0  0  0  0
  8 22  2  0  0  0  0
  8  9  1  0  0  0  0
  9 10  1  0  0  0  0
  9 19  2  0  0  0  0
 10 14  1  0  0  0  0
 10 11  1  0  0  0  0
 11 18  1  0  0  0  0
 11 12  1  0  0  0  0
 11 35  1  0  0  0  0
 12 13  1  0  0  0  0
 12 36  1  0  0  0  0
 12 37  1  0  0  0  0
 13 14  1  0  0  0  0
 13 38  1  0  0  0  0
 13 39  1  0  0  0  0
 14 15  1  0  0  0  0
 14 40  1  0  0  0  0
 15 16  1  0  0  0  0
 15 18  1  0  0  0  0
 15 41  1  0  0  0  0
 16 17  1  0  0  0  0
 16 42  1  0  0  0  0
 16 43  1  0  0  0  0
 17 44  1  0  0  0  0
 18 45  1  0  0  0  0
 18 46  1  0  0  0  0
 19 20  1  0  0  0  0
 20 21  2  0  0  0  0
 20 47  1  0  0  0  0
 21 22  1  0  0  0  0
 23 27  1  0  0  0  0
 23 24  1  0  0  0  0
 23 48  1  0  0  0  0
 24 25  1  0  0  0  0
 24 49  1  0  0  0  0
 24 50  1  0  0  0  0
 25 26  1  0  0  0  0
 25 51  1  0  0  0  0
 25 52  1  0  0  0  0
 26 27  1  0  0  0  0
 27 53  1  0  0  0  0
 27 54  1  0  0  0  0
M  END
> <s_m_source_file>
AV-unprocessed.smi

> <i_m_source_file_index>
227

> <i_lp_mmshare_version>
43012

> <i_f3d_flags>
0

> <s_epik_input>
W0NIMl0xT1tDSDJdW0NIMl1bQ0BIXTFbQ0BIXShbQ0gyXVtPSF0pW0NIMl1uKFtjSF1uMiljKGMyMyluW2NIXW5jM04oW0NASF00NSlbQ0BASF0oW0NIMl1bQ0gyXTQpW0NASF0oW0NIMl01KVtDSDJdW09IXQ==

> <s_epik_cmdline>
J2VwaWtfcHl0aG9uJywgJy1waCcsICc3LjAnLCAnLXRuJywgJzgnLCAnLW1hJywgJzIwMCcsICctbWV0YWxfYmluZGluZycsICctaW1hZScsICc8aW5maWxlLm1hZT4nLCAnLW9tYWUnLCAnPG91dGZpbGUubWFlPic=

> <r_lp_tautomer_probability>
1

> <r_epik_Ionization_Penalty>
0.0055791

> <r_epik_Ionization_Penalty_Charging>
0

> <r_epik_Ionization_Penalty_Neutral>
0.0055791

> <r_epik_State_Penalty>
0.00401299

> <r_epik_Charging_Adjusted_Penalty>
0.00401299

> <i_epik_Tot_Q>
0

> <i_epik_Tot_abs_Q>
0

> <r_epik_Metal_State_Penalty>
-0

> <b_epik_Metal_Only>
0

> <s_lp_Force_Field>
OPLS_2005

> <r_lp_Energy>
88.7609

> <b_lp_Chiralities_Consistent>
1

> <s_lp_Variant>
AV-unprocessed.smi:227-3

> <Gold.Version>
5.8.1

> <Gold.Id.Protein>
6NUR|6NUR_protein|mol2

> <Gold.PLP.Fitness>
43.3337

> <Gold.PLP.PLP>
-32.7133

> <Gold.PLP.part.hbond>
-4.0000

> <Gold.PLP.part.metal>
0.0000

> <Gold.PLP.part.buried>
-5.3892

> <Gold.PLP.part.nonpolar>
-23.3834

> <Gold.PLP.part.repulsive>
0.2927

> <Gold.PLP.ligand.clash>
0.0000

> <Gold.PLP.ligand.torsion>
0.3413

> <Gold.PLP.Chemscore.Hbond>
3.7360

> <Gold.PLP.Chemscore.CHOScore>
0.0000

> <Gold.PLP.Chemscore.Metal>
0.0000

> <Gold.Chemscore.Hbonds>
donor molecule, donor type, donor heavy atom, donor atom, acceptor molecule, acceptor atom, score
      L1  H    17    44       P1 10747  1.00
      P1  H  6896  6909       L1     1  1.00
      P1  H  6931  6943       L1    26  0.61
      P1  H  6934  6947       L1    26  0.67

> <Gold.PLP.Chemscore.Internal.Correction>
0.0949

> <Gold.Rescore>
     Score         DG    S(hbond)    S(metal)    S(lipo)     H(rot)  DE(clash)    DE(int)     intcor
     10.31     -14.76       2.91        0.00      75.26       3.61       0.00       4.45       ----

> <Gold.Chemscore.Fitness>
10.3140

> <Gold.Chemscore.DG>
-14.7609

> <Gold.Chemscore.ZeroCoef>
-5.4800

> <Gold.Chemscore.Hbond>
2.9071

> <Gold.Chemscore.Metal>
0.0000

> <Gold.Chemscore.Lipo>
75.2589

> <Gold.Chemscore.Internal_Hbond>
0.0000

> <Gold.Chemscore.DEClash>
0.0000

> <Gold.Chemscore.DEInternal>
4.4469

> <Gold.Chemscore.Rot>
3.6071

> <Gold.Chemscore.Internal.Correction>
   9.000000E+99

> <Gold.Chemscore.Hbonds>
donor molecule, donor type, donor heavy atom, donor atom, acceptor molecule, acceptor atom, score
      L1  H    17    44       P1 10747  0.99
      P1  H  6896  6909       L1     1  0.77
      P1  H  6931  6943       L1    26  0.06
      P1  H  6934  6947       L1    26  0.09

> <Gold.Chemscore.Hbond.Weighted>
-9.7098

> <Gold.Chemscore.Metal.Weighted>
-0.0000

> <Gold.Chemscore.Lipo.Weighted>
-8.8053

> <Gold.Chemscore.Internal_Hbond.Weighted>
0.0000

> <Gold.Chemscore.DEClash.Weighted>
0.0000

> <Gold.Chemscore.DEInternal.Weighted>
4.4469

> <Gold.Chemscore.Rot.Weighted>
9.2342

> <Gold.Chemscore.Internal.Correction.Weighted>
   9.000000E+99

> <Gold.Protein.RotatedTorsions>
[ 6907 6896 6895 6894 ] final   18.12 input  -60.11 | X-H torsion
[ 7974 7965 7964 7962 ] final   18.04 input  175.53 | X-H torsion
[ 8008 7997 7996 7995 ] final  -47.21 input   59.86 | X-H torsion
[ 10167 10162 10161 10158 ] final   35.74 input  -65.29 | X-H torsion
[ 10718 10713 10712 10709 ] final -179.19 input   66.30 | X-H torsion
[ 10763 10752 10751 10750 ] final    5.37 input  -60.55 | X-H torsion
[ 11005 11000 10999 10996 ] final   97.57 input  -57.11 | X-H torsion

> <Gold.Protein.ActiveResidues>
 VAL166  LYS551  ARG553  GLY616  TRP617  ASP618  TYR619  PRO620  LYS621  CYS622 
 ASP623  PHE694  ASN695  SER759  ASP760  ASP761  ALA762  ILE779  LEU786  VAL792 
 PHE793  MET794  SER795  GLU796  ALA797  LYS798  CYS799  TRP800  GLU811  SER814 

> <Gold.Protein.RotatedAtoms>
  151.8603  135.0526  160.0468 H   0  0  0  0  0  0  0  0  0  0  0  0  # atno 6907 bound_to 6896
  152.2668  133.5342  159.5423 H   0  0  0  0  0  0  0  0  0  0  0  0  # atno 6908 bound_to 6896
  150.7136  134.0670  159.3893 H   0  0  0  0  0  0  0  0  0  0  0  0  # atno 6909 bound_to 6896
  146.2198  139.8515  142.8622 H   0  0  0  0  0  0  0  0  0  0  0  0  # atno 7974 bound_to 7965
  154.4014  140.1352  156.4137 H   0  0  0  0  0  0  0  0  0  0  0  0  # atno 8008 bound_to 7997
  155.7709  140.3484  155.5226 H   0  0  0  0  0  0  0  0  0  0  0  0  # atno 8009 bound_to 7997
  155.8768  140.0981  157.1503 H   0  0  0  0  0  0  0  0  0  0  0  0  # atno 8010 bound_to 7997
  140.4193  144.1482  150.6146 H   0  0  0  0  0  0  0  0  0  0  0  0  # atno 10167 bound_to 10162
  156.8554  130.9733  151.3088 H   0  0  0  0  0  0  0  0  0  0  0  0  # atno 10718 bound_to 10713
  153.2603  135.6922  153.7586 H   0  0  0  0  0  0  0  0  0  0  0  0  # atno 10763 bound_to 10752
  153.6648  135.3354  155.3138 H   0  0  0  0  0  0  0  0  0  0  0  0  # atno 10764 bound_to 10752
  154.8427  135.4485  154.1590 H   0  0  0  0  0  0  0  0  0  0  0  0  # atno 10765 bound_to 10752
  139.8775  134.9007  156.4327 H   0  0  0  0  0  0  0  0  0  0  0  0  # atno 11005 bound_to 11000
  145.2797  141.0135  143.3724 LP  0  0  0  0  0  0  0  0  0  0  0  0  # atno 17320 bound_to 7965
  144.9160  139.4470  143.6564 LP  0  0  0  0  0  0  0  0  0  0  0  0  # atno 17321 bound_to 7965
  140.4551  143.2471  151.9296 LP  0  0  0  0  0  0  0  0  0  0  0  0  # atno 17342 bound_to 10162
  139.4782  144.5524  151.8366 LP  0  0  0  0  0  0  0  0  0  0  0  0  # atno 17343 bound_to 10162
  157.6280  130.8707  149.9223 LP  0  0  0  0  0  0  0  0  0  0  0  0  # atno 17370 bound_to 10713
  156.0805  130.3673  150.0589 LP  0  0  0  0  0  0  0  0  0  0  0  0  # atno 17371 bound_to 10713
  140.9055  133.7749  155.9730 LP  0  0  0  0  0  0  0  0  0  0  0  0  # atno 17394 bound_to 11000
  140.8604  134.2848  157.5237 LP  0  0  0  0  0  0  0  0  0  0  0  0  # atno 17395 bound_to 11000

$$$$
