AV-unprocessed.smi:1194|AV-procd|sdf|4992|dock7
  -GOLD-   22720 3593D 1   1.00000     0.00000
 Structure written by MMmdl.
 48 49  0  0  0  0  0  0  0  0  2 V2000
  151.4011  140.1682  155.8201 C   0  0  0  0  0  0  0  0  0  0  0  0
  151.9966  139.5014  154.5752 C   0  0  0  0  0  0  0  0  0  0  0  0
  151.0125  138.5227  153.9060 C   0  0  0  0  0  0  0  0  0  0  0  0
  150.8657  137.1784  154.6437 C   0  0  0  0  0  0  0  0  0  0  0  0
  151.8829  136.5143  154.8530 O   0  0  0  0  0  0  0  0  0  0  0  0
  149.6304  136.7511  155.0248 N   0  0  0  0  0  0  0  0  0  0  0  0
  148.3853  137.4934  154.7133 C   0  0  0  0  0  0  0  0  0  0  0  0
  147.4247  137.5479  155.9108 C   0  0  0  0  0  0  0  0  0  0  0  0
  147.1487  136.1495  156.4640 C   0  0  0  0  0  0  0  0  0  0  0  0
  148.4778  135.4828  156.8287 C   0  0  0  0  0  0  0  0  0  0  0  0
  149.4630  135.4030  155.6365 C   0  0  1  0  0  0  0  0  0  0  0  0
  149.0385  134.3092  154.6275 C   0  0  0  0  0  0  0  0  0  0  0  0
  149.7952  133.3658  154.3985 O   0  0  0  0  0  0  0  0  0  0  0  0
  147.8692  134.4615  153.9844 N   0  0  0  0  0  0  0  0  0  0  0  0
  147.3809  133.6216  152.8971 C   0  0  0  0  0  0  0  0  0  0  0  0
  145.8402  133.5760  152.8458 C   0  0  0  0  0  0  0  0  0  0  0  0
  145.2908  133.2982  151.4553 C   0  0  0  0  0  0  0  0  0  0  0  0
  145.9911  132.4621  150.5581 C   0  0  0  0  0  0  0  0  0  0  0  0
  145.4401  132.1965  149.2870 C   0  0  0  0  0  0  0  0  0  0  0  0
  144.2018  132.7750  148.9407 C   0  0  0  0  0  0  0  0  0  0  0  0
  143.5622  133.5724  149.8238 N   0  3  0  0  0  0  0  0  0  0  0  0
  144.0561  133.8510  151.0496 C   0  0  0  0  0  0  0  0  0  0  0  0
  152.1165  140.8551  156.2728 H   0  0  0  0  0  0  0  0  0  0  0  0
  151.1302  139.4270  156.5724 H   0  0  0  0  0  0  0  0  0  0  0  0
  150.5050  140.7374  155.5715 H   0  0  0  0  0  0  0  0  0  0  0  0
  152.2890  140.2768  153.8662 H   0  0  0  0  0  0  0  0  0  0  0  0
  152.9102  138.9766  154.8577 H   0  0  0  0  0  0  0  0  0  0  0  0
  150.0311  138.9937  153.8371 H   0  0  0  0  0  0  0  0  0  0  0  0
  151.3566  138.3300  152.8891 H   0  0  0  0  0  0  0  0  0  0  0  0
  148.5561  138.5227  154.4053 H   0  0  0  0  0  0  0  0  0  0  0  0
  147.8872  137.0162  153.8697 H   0  0  0  0  0  0  0  0  0  0  0  0
  147.8550  138.1733  156.6944 H   0  0  0  0  0  0  0  0  0  0  0  0
  146.4884  138.0227  155.6161 H   0  0  0  0  0  0  0  0  0  0  0  0
  146.5071  136.2138  157.3431 H   0  0  0  0  0  0  0  0  0  0  0  0
  146.6113  135.5515  155.7269 H   0  0  0  0  0  0  0  0  0  0  0  0
  148.9469  136.0505  157.6335 H   0  0  0  0  0  0  0  0  0  0  0  0
  148.2905  134.4924  157.2456 H   0  0  0  0  0  0  0  0  0  0  0  0
  150.4026  135.0492  156.0634 H   0  0  0  0  0  0  0  0  0  0  0  0
  147.3006  135.2588  154.2308 H   0  0  0  0  0  0  0  0  0  0  0  0
  147.7913  133.9458  151.9395 H   0  0  0  0  0  0  0  0  0  0  0  0
  147.7658  132.6168  153.0733 H   0  0  0  0  0  0  0  0  0  0  0  0
  145.4778  132.8044  153.5267 H   0  0  0  0  0  0  0  0  0  0  0  0
  145.4293  134.5175  153.2119 H   0  0  0  0  0  0  0  0  0  0  0  0
  146.9357  132.0218  150.8429 H   0  0  0  0  0  0  0  0  0  0  0  0
  145.9587  131.5561  148.5884 H   0  0  0  0  0  0  0  0  0  0  0  0
  143.7060  132.6227  147.9932 H   0  0  0  0  0  0  0  0  0  0  0  0
  143.4450  134.4908  151.6699 H   0  0  0  0  0  0  0  0  0  0  0  0
  142.6641  133.9763  149.5563 H   0  0  0  0  0  0  0  0  0  0  0  0
  1  2  1  0  0  0  0
  1 23  1  0  0  0  0
  1 24  1  0  0  0  0
  1 25  1  0  0  0  0
  2  3  1  0  0  0  0
  2 26  1  0  0  0  0
  2 27  1  0  0  0  0
  3  4  1  0  0  0  0
  3 28  1  0  0  0  0
  3 29  1  0  0  0  0
  4  5  2  0  0  0  0
  4  6  1  0  0  0  0
  6 11  1  0  0  0  0
  6  7  1  0  0  0  0
  7  8  1  0  0  0  0
  7 30  1  0  0  0  0
  7 31  1  0  0  0  0
  8  9  1  0  0  0  0
  8 32  1  0  0  0  0
  8 33  1  0  0  0  0
  9 10  1  0  0  0  0
  9 34  1  0  0  0  0
  9 35  1  0  0  0  0
 10 11  1  0  0  0  0
 10 36  1  0  0  0  0
 10 37  1  0  0  0  0
 11 12  1  0  0  0  0
 11 38  1  0  0  0  0
 12 13  2  0  0  0  0
 12 14  1  0  0  0  0
 14 15  1  0  0  0  0
 14 39  1  0  0  0  0
 15 16  1  0  0  0  0
 15 40  1  0  0  0  0
 15 41  1  0  0  0  0
 16 17  1  0  0  0  0
 16 42  1  0  0  0  0
 16 43  1  0  0  0  0
 17 22  1  0  0  0  0
 17 18  2  0  0  0  0
 18 19  1  0  0  0  0
 18 44  1  0  0  0  0
 19 20  2  0  0  0  0
 19 45  1  0  0  0  0
 20 21  1  0  0  0  0
 20 46  1  0  0  0  0
 21 22  2  0  0  0  0
 21 48  1  0  0  0  0
 22 47  1  0  0  0  0
M  CHG  1  21   1
M  END
> <s_m_source_file>
AV-unprocessed.smi

> <i_m_source_file_index>
1194

> <i_lp_mmshare_version>
43012

> <i_f3d_flags>
0

> <s_epik_input>
W0NIM11bQ0gyXVtDSDJdQyg9TylOMVtDSDJdW0NIMl1bQ0gyXVtDSDJdW0NASF0xQyg9TylbTkhdW0NIMl1bQ0gyXWMyW2NIXVtjSF1bY0hdbltjSF0y

> <s_epik_cmdline>
J2VwaWtfcHl0aG9uJywgJy1waCcsICc3LjAnLCAnLXRuJywgJzgnLCAnLW1hJywgJzIwMCcsICctbWV0YWxfYmluZGluZycsICctaW1hZScsICc8aW5maWxlLm1hZT4nLCAnLW9tYWUnLCAnPG91dGZpbGUubWFlPic=

> <r_epik_Ionization_Penalty>
2.26523

> <r_epik_Ionization_Penalty_Charging>
2.26523

> <r_epik_Ionization_Penalty_Neutral>
5.33649e-08

> <r_epik_State_Penalty>
2.41338

> <r_epik_Charging_Adjusted_Penalty>
4.67861

> <i_epik_Tot_Q>
1

> <i_epik_Tot_abs_Q>
1

> <r_epik_Metal_State_Penalty>
2.42628

> <b_epik_Metal_Only>
0

> <s_lp_Force_Field>
OPLS_2005

> <r_lp_Energy>
32.0414

> <b_lp_Chiralities_Consistent>
1

> <s_lp_Variant>
AV-unprocessed.smi:1194-3

> <Gold.Version>
5.8.1

> <Gold.Id.Protein>
6NUR|6NUR_protein|mol2

> <Gold.PLP.Fitness>
42.3286

> <Gold.PLP.PLP>
-34.8785

> <Gold.PLP.part.hbond>
-2.3284

> <Gold.PLP.part.metal>
0.0000

> <Gold.PLP.part.buried>
-4.9269

> <Gold.PLP.part.nonpolar>
-28.5761

> <Gold.PLP.part.repulsive>
0.2523

> <Gold.PLP.ligand.clash>
0.0000

> <Gold.PLP.ligand.torsion>
0.8189

> <Gold.PLP.Chemscore.Hbond>
3.0000

> <Gold.PLP.Chemscore.CHOScore>
0.0000

> <Gold.PLP.Chemscore.Metal>
0.0000

> <Gold.Chemscore.Hbonds>
donor molecule, donor type, donor heavy atom, donor atom, acceptor molecule, acceptor atom, score
      L1  H    21    48       P1 10186  2.00
      P1  H 10752 10764       L1     5  0.73

> <Gold.PLP.Chemscore.Internal.Correction>
0.0880

> <Gold.Rescore>
     Score         DG    S(hbond)    S(metal)    S(lipo)     H(rot)  DE(clash)    DE(int)     intcor
     16.68     -17.45       1.98        0.00      85.04       1.80       0.01       0.75       ----

> <Gold.Chemscore.Fitness>
16.6844

> <Gold.Chemscore.DG>
-17.4469

> <Gold.Chemscore.ZeroCoef>
-5.4800

> <Gold.Chemscore.Hbond>
1.9823

> <Gold.Chemscore.Metal>
0.0000

> <Gold.Chemscore.Lipo>
85.0432

> <Gold.Chemscore.Internal_Hbond>
0.0000

> <Gold.Chemscore.DEClash>
0.0133

> <Gold.Chemscore.DEInternal>
0.7492

> <Gold.Chemscore.Rot>
1.7985

> <Gold.Chemscore.Internal.Correction>
   9.000000E+99

> <Gold.Chemscore.Hbonds>
donor molecule, donor type, donor heavy atom, donor atom, acceptor molecule, acceptor atom, score
      L1  H    21    48       P1 10186  1.00
      P1  H 10752 10764       L1     5  0.73

> <Gold.Chemscore.Hbond.Weighted>
-6.6210

> <Gold.Chemscore.Metal.Weighted>
-0.0000

> <Gold.Chemscore.Lipo.Weighted>
-9.9501

> <Gold.Chemscore.Internal_Hbond.Weighted>
0.0000

> <Gold.Chemscore.DEClash.Weighted>
0.0133

> <Gold.Chemscore.DEInternal.Weighted>
0.7492

> <Gold.Chemscore.Rot.Weighted>
4.6041

> <Gold.Chemscore.Internal.Correction.Weighted>
   9.000000E+99

> <Gold.Protein.RotatedTorsions>
[ 6907 6896 6895 6894 ] final    8.07 input  -60.11 | X-H torsion
[ 7974 7965 7964 7962 ] final -135.69 input  175.53 | X-H torsion
[ 8008 7997 7996 7995 ] final -130.75 input   59.86 | X-H torsion
[ 10167 10162 10161 10158 ] final -104.32 input  -65.29 | X-H torsion
[ 10718 10713 10712 10709 ] final  -80.19 input   66.30 | X-H torsion
[ 10763 10752 10751 10750 ] final  -65.34 input  -60.55 | X-H torsion
[ 11005 11000 10999 10996 ] final  156.45 input  -57.11 | X-H torsion

> <Gold.Protein.ActiveResidues>
 VAL166  LYS551  ARG553  GLY616  TRP617  ASP618  TYR619  PRO620  LYS621  CYS622 
 ASP623  PHE694  ASN695  SER759  ASP760  ASP761  ALA762  ILE779  LEU786  VAL792 
 PHE793  MET794  SER795  GLU796  ALA797  LYS798  CYS799  TRP800  GLU811  SER814 

> <Gold.Protein.RotatedAtoms>
  151.7001  135.0931  160.0249 H   0  0  0  0  0  0  0  0  0  0  0  0  # atno 6907 bound_to 6896
  152.3726  133.6434  159.6107 H   0  0  0  0  0  0  0  0  0  0  0  0  # atno 6908 bound_to 6896
  150.7684  133.9162  159.3426 H   0  0  0  0  0  0  0  0  0  0  0  0  # atno 6909 bound_to 6896
  144.8992  140.6748  143.5096 H   0  0  0  0  0  0  0  0  0  0  0  0  # atno 7974 bound_to 7965
  155.3010  140.0453  157.3029 H   0  0  0  0  0  0  0  0  0  0  0  0  # atno 8008 bound_to 7997
  154.5487  140.2310  155.8488 H   0  0  0  0  0  0  0  0  0  0  0  0  # atno 8009 bound_to 7997
  156.1947  140.3041  155.9410 H   0  0  0  0  0  0  0  0  0  0  0  0  # atno 8010 bound_to 7997
  140.2106  143.3749  152.1054 H   0  0  0  0  0  0  0  0  0  0  0  0  # atno 10167 bound_to 10162
  156.0075  130.4567  150.3762 H   0  0  0  0  0  0  0  0  0  0  0  0  # atno 10718 bound_to 10713
  154.3435  135.6151  153.5608 H   0  0  0  0  0  0  0  0  0  0  0  0  # atno 10763 bound_to 10752
  152.9802  135.5775  154.4826 H   0  0  0  0  0  0  0  0  0  0  0  0  # atno 10764 bound_to 10752
  154.4534  135.2853  155.1742 H   0  0  0  0  0  0  0  0  0  0  0  0  # atno 10765 bound_to 10752
  140.1676  134.8566  157.2651 H   0  0  0  0  0  0  0  0  0  0  0  0  # atno 11005 bound_to 11000
  145.3647  139.1673  143.4364 LP  0  0  0  0  0  0  0  0  0  0  0  0  # atno 17320 bound_to 7965
  146.3098  140.3713  142.8674 LP  0  0  0  0  0  0  0  0  0  0  0  0  # atno 17321 bound_to 7965
  139.5181  144.7002  151.5516 LP  0  0  0  0  0  0  0  0  0  0  0  0  # atno 17342 bound_to 10162
  140.6326  143.9046  150.6619 LP  0  0  0  0  0  0  0  0  0  0  0  0  # atno 17343 bound_to 10162
  157.1844  131.0400  151.2732 LP  0  0  0  0  0  0  0  0  0  0  0  0  # atno 17370 bound_to 10713
  157.4117  130.7388  149.6844 LP  0  0  0  0  0  0  0  0  0  0  0  0  # atno 17371 bound_to 10713
  140.2416  134.3789  155.7478 LP  0  0  0  0  0  0  0  0  0  0  0  0  # atno 17394 bound_to 11000
  141.2215  133.7268  156.8797 LP  0  0  0  0  0  0  0  0  0  0  0  0  # atno 17395 bound_to 11000

$$$$
