#       Name:                AV-unprocessed.smi:1941
#       Creating user name   scv26
#       Creation time:       Fri Mar 27 09:59:18 2020


#       File generated by GOLD software.
#

@<TRIPOS>MOLECULE
AV-unprocessed.smi:1941
    45    46     1
SMALL
NO_CHARGES


@<TRIPOS>ATOM
      1 ****        -6.8716   1.5456   2.9026 C.3            1 S1                 0.0000
      2 ****        -5.9191   1.5894   1.7574 C.2            1 S1                 0.0000
      3 ****        -4.5918   1.5426   1.8974 N.2            1 S1                 0.0000
      4 ****        -3.9192   1.6012   0.6726 C.2            1 S1                 0.0000
      5 ****        -2.4220   1.5637   0.6396 C.3            1 S1                 0.0000
      6 ****        -1.8668   0.1423   0.8282 C.3            1 S1                 0.0000
      7 ****        -0.4088   0.1387   0.8329 N.am           1 S1                 0.0000
      8 ****         0.3612   0.1657  -0.2632 C.2            1 S1                 0.0000
      9 ****        -0.0786   0.1692  -1.4132 O.2            1 S1                 0.0000
     10 ****         1.6645   0.1925   0.0493 N.am           1 S1                 0.0000
     11 ****         2.7724   0.2283  -0.9034 C.3            1 S1                 0.0000
     12 ****         3.6266   1.4748  -0.6304 C.3            1 S1                 0.0000
     13 ****         3.5969  -1.0699  -0.8032 C.3            1 S1                 0.0000
     14 ****         2.8089  -2.3551  -1.0694 C.3            1 S1                 0.0000
     15 ****         3.8600  -3.3285  -1.5821 C.3            1 S1                 0.0000
     16 ****         5.0787  -2.4476  -1.8686 C.3            1 S1                 0.0000
     17 ****         4.5901  -1.1154  -1.8154 O.3            1 S1                 0.0000
     18 ****        -4.7641   1.6915  -0.4054 C.2            1 S1                 0.0000
     19 ****        -6.4370   1.7081   0.0801 S.3            1 S1                 0.0000
     20 ****        -6.3337   1.5426   3.8513 H              1 S1                 0.0000
     21 ****        -7.4821   0.6445   2.8435 H              1 S1                 0.0000
     22 ****        -7.5268   2.4163   2.8758 H              1 S1                 0.0000
     23 ****        -2.0658   1.9733  -0.3066 H              1 S1                 0.0000
     24 ****        -2.0196   2.2161   1.4156 H              1 S1                 0.0000
     25 ****        -2.2069  -0.2690   1.7790 H              1 S1                 0.0000
     26 ****        -2.2429  -0.5235   0.0492 H              1 S1                 0.0000
     27 ****         0.0445   0.1335   1.7350 H              1 S1                 0.0000
     28 ****         1.9138   0.1882   1.0275 H              1 S1                 0.0000
     29 ****         2.3885   0.3088  -1.9219 H              1 S1                 0.0000
     30 ****         4.4499   1.5510  -1.3412 H              1 S1                 0.0000
     31 ****         4.0544   1.4532   0.3725 H              1 S1                 0.0000
     32 ****         3.0323   2.3847  -0.7203 H              1 S1                 0.0000
     33 ****         4.0857  -1.1346   0.1713 H              1 S1                 0.0000
     34 ****         2.2919  -2.7198  -0.1814 H              1 S1                 0.0000
     35 ****         2.0607  -2.1850  -1.8452 H              1 S1                 0.0000
     36 ****         4.0995  -4.0930  -0.8422 H              1 S1                 0.0000
     37 ****         3.5093  -3.8324  -2.4835 H              1 S1                 0.0000
     38 ****         5.8387  -2.5812  -1.0973 H              1 S1                 0.0000
     39 ****         5.5334  -2.6621  -2.8358 H              1 S1                 0.0000
     40 ****        -4.5043   1.7495  -1.4521 H              1 S1                 0.0000
     41 ****        -4.1294   1.4733   2.7814 LP             1 S1                 0.0000
     42 ****        -1.0659   0.1513  -1.5710 LP             1 S1                 0.0000
     43 ****         0.5515   0.1901  -2.1894 LP             1 S1                 0.0000
     44 ****         5.3349  -0.4864  -1.5924 LP             1 S1                 0.0000
     45 ****         4.1921  -0.8615  -2.6969 LP             1 S1                 0.0000
@<TRIPOS>BOND
    1    1    2 1     
    2    1   20 1     
    3    1   21 1     
    4    1   22 1     
    5    2   19 1     
    6    2    3 2     
    7    3    4 1     
    8    4    5 1     
    9    4   18 2     
   10    5    6 1     
   11    5   23 1     
   12    5   24 1     
   13    6    7 1     
   14    6   25 1     
   15    6   26 1     
   16    7    8 am    
   17    7   27 1     
   18    8    9 2     
   19    8   10 am    
   20   10   11 1     
   21   10   28 1     
   22   11   12 1     
   23   11   13 1     
   24   11   29 1     
   25   12   30 1     
   26   12   31 1     
   27   12   32 1     
   28   13   17 1     
   29   13   14 1     
   30   13   33 1     
   31   14   15 1     
   32   14   34 1     
   33   14   35 1     
   34   15   16 1     
   35   15   36 1     
   36   15   37 1     
   37   16   17 1     
   38   16   38 1     
   39   16   39 1     
   40   18   19 1     
   41   18   40 1     
   42    3   41 1     
   43    9   42 1     
   44    9   43 1     
   45   17   44 1     
   46   17   45 1     
@<TRIPOS>SUBSTRUCTURE
      1 S1             1
@<TRIPOS>SET
LONE_PAIRS      STATIC     ATOMS    <user>   **** ""
5 41 42 43 44 45
DONOR_HYDROGENS      STATIC     ATOMS    <user>   **** ""
2 27 28
ATOM$BLUE        STATIC     ATOMS    COLORGROUP SYSTEM
5 41 42 43 44 45
ATOM$RED        STATIC     ATOMS    COLORGROUP SYSTEM
2 27 28
