AV-unprocessed.smi:3139|AV-procd|sdf|11957|dock2
  -GOLD-   2272017353D 1   1.00000     0.00000
 Structure written by MMmdl.
 33 33  0  0  0  0  0  0  0  0  2 V2000
  153.0562  141.1605  160.1497 C   0  0  0  0  0  0  0  0  0  0  0  0
  152.5604  141.7282  158.8029 C   0  0  1  0  0  0  0  0  0  0  0  0
  151.4730  140.8586  158.1562 C   0  0  0  0  0  0  0  0  0  0  0  0
  150.5995  140.3250  158.8415 O   0  0  0  0  0  0  0  0  0  0  0  0
  151.5253  140.7627  156.8191 N   0  0  0  0  0  0  0  0  0  0  0  0
  150.5005  140.1740  155.9588 C   0  0  0  0  0  0  0  0  0  0  0  0
  150.5831  138.6213  155.8831 C   0  0  0  0  0  0  0  0  0  0  0  0
  150.5046  138.0388  157.3093 C   0  0  0  0  0  0  0  0  0  0  0  0
  149.3988  138.0678  155.0526 C   0  0  0  0  0  0  0  0  0  0  0  0
  151.9340  138.1847  155.2558 C   0  0  0  0  0  0  0  0  0  0  0  0
  152.9975  138.6298  155.7429 O   0  0  0  0  0  0  0  0  0  0  0  0
  151.8806  137.3933  154.2877 O   0  5  0  0  0  0  0  0  0  0  0  0
  152.0834  143.1046  158.9035 N   0  0  0  0  0  0  0  0  0  0  0  0
  152.8015  144.2207  159.2854 C   0  0  0  0  0  0  0  0  0  0  0  0
  151.9776  145.3026  159.1668 C   0  0  0  0  0  0  0  0  0  0  0  0
  150.7615  144.7480  158.6817 C   0  0  0  0  0  0  0  0  0  0  0  0
  150.8294  143.4373  158.5167 N   0  0  0  0  0  0  0  0  0  0  0  0
  153.4651  140.1574  160.0244 H   0  0  0  0  0  0  0  0  0  0  0  0
  152.2579  141.0996  160.8908 H   0  0  0  0  0  0  0  0  0  0  0  0
  153.8469  141.7852  160.5661 H   0  0  0  0  0  0  0  0  0  0  0  0
  153.4167  141.7389  158.1265 H   0  0  0  0  0  0  0  0  0  0  0  0
  152.2846  141.2311  156.3457 H   0  0  0  0  0  0  0  0  0  0  0  0
  149.5338  140.4761  156.3644 H   0  0  0  0  0  0  0  0  0  0  0  0
  150.5400  140.6030  154.9563 H   0  0  0  0  0  0  0  0  0  0  0  0
  149.5573  138.2936  157.7855 H   0  0  0  0  0  0  0  0  0  0  0  0
  151.3012  138.4216  157.9488 H   0  0  0  0  0  0  0  0  0  0  0  0
  150.5833  136.9507  157.3017 H   0  0  0  0  0  0  0  0  0  0  0  0
  148.4444  138.4021  155.4602 H   0  0  0  0  0  0  0  0  0  0  0  0
  149.3834  136.9771  155.0509 H   0  0  0  0  0  0  0  0  0  0  0  0
  149.4371  138.3963  154.0129 H   0  0  0  0  0  0  0  0  0  0  0  0
  153.8334  144.1545  159.5977 H   0  0  0  0  0  0  0  0  0  0  0  0
  152.2139  146.3342  159.3811 H   0  0  0  0  0  0  0  0  0  0  0  0
  149.8400  145.2561  158.4394 H   0  0  0  0  0  0  0  0  0  0  0  0
  1  2  1  0  0  0  0
  1 18  1  0  0  0  0
  1 19  1  0  0  0  0
  1 20  1  0  0  0  0
  2  3  1  0  0  0  0
  2 13  1  0  0  0  0
  2 21  1  0  0  0  0
  3  4  2  0  0  0  0
  3  5  1  0  0  0  0
  5  6  1  0  0  0  0
  5 22  1  0  0  0  0
  6  7  1  0  0  0  0
  6 23  1  0  0  0  0
  6 24  1  0  0  0  0
  7  8  1  0  0  0  0
  7  9  1  0  0  0  0
  7 10  1  0  0  0  0
  8 25  1  0  0  0  0
  8 26  1  0  0  0  0
  8 27  1  0  0  0  0
  9 28  1  0  0  0  0
  9 29  1  0  0  0  0
  9 30  1  0  0  0  0
 10 11  2  0  0  0  0
 10 12  1  0  0  0  0
 13 17  1  0  0  0  0
 13 14  1  0  0  0  0
 14 15  2  0  0  0  0
 14 31  1  0  0  0  0
 15 16  1  0  0  0  0
 15 32  1  0  0  0  0
 16 17  2  0  0  0  0
 16 33  1  0  0  0  0
M  CHG  1  12  -1
M  END
> <s_m_source_file>
AV-unprocessed.smi

> <i_m_source_file_index>
3139

> <i_lp_mmshare_version>
43012

> <i_f3d_flags>
0

> <s_epik_input>
bjFbY0hdW2NIXVtjSF1uMVtDQEhdKFtDSDNdKUMoPU8pW05IXVtDSDJdQyhbQ0gzXSkoW0NIM10pQyg9TylbT0hd

> <s_epik_cmdline>
J2VwaWtfcHl0aG9uJywgJy1waCcsICc3LjAnLCAnLXRuJywgJzgnLCAnLW1hJywgJzIwMCcsICctbWV0YWxfYmluZGluZycsICctaW1hZScsICc8aW5maWxlLm1hZT4nLCAnLW9tYWUnLCAnPG91dGZpbGUubWFlPic=

> <r_lp_tautomer_probability>
1

> <r_epik_Ionization_Penalty>
0.00184643

> <r_epik_Ionization_Penalty_Charging>
0.00181045

> <r_epik_Ionization_Penalty_Neutral>
3.59763e-05

> <r_epik_State_Penalty>
0.00122842

> <r_epik_Charging_Adjusted_Penalty>
0.00303887

> <i_epik_Tot_Q>
-1

> <i_epik_Tot_abs_Q>
1

> <r_epik_Metal_State_Penalty>
-0

> <b_epik_Metal_Only>
0

> <s_lp_Force_Field>
OPLS_2005

> <r_lp_Energy>
4.69511

> <b_lp_Chiralities_Consistent>
1

> <s_lp_Variant>
AV-unprocessed.smi:3139-2

> <Gold.Version>
5.8.1

> <Gold.Id.Protein>
6NUR|6NUR_protein|mol2

> <Gold.PLP.Fitness>
45.1553

> <Gold.PLP.PLP>
-32.8778

> <Gold.PLP.part.hbond>
-2.0000

> <Gold.PLP.part.metal>
0.0000

> <Gold.PLP.part.buried>
-5.4604

> <Gold.PLP.part.nonpolar>
-26.8096

> <Gold.PLP.part.repulsive>
0.4217

> <Gold.PLP.ligand.clash>
0.0000

> <Gold.PLP.ligand.torsion>
1.0177

> <Gold.PLP.Chemscore.Hbond>
3.6960

> <Gold.PLP.Chemscore.CHOScore>
1.0000

> <Gold.PLP.Chemscore.Metal>
0.0000

> <Gold.Chemscore.Hbonds>
donor molecule, donor type, donor heavy atom, donor atom, acceptor molecule, acceptor atom, score
      P1  H  7997  8009       L1    11  1.76
      P1  H 10752 10765       L1    12  1.75
      L1  C    16    33       P1  8029  1.00

> <Gold.PLP.Chemscore.Internal.Correction>
0.2249

> <Gold.Rescore>
     Score         DG    S(hbond)    S(metal)    S(lipo)     H(rot)  DE(clash)    DE(int)     intcor
     10.58     -14.63       1.77        0.00      78.43       2.32       0.08       3.96       ----

> <Gold.Chemscore.Fitness>
10.5831

> <Gold.Chemscore.DG>
-14.6282

> <Gold.Chemscore.ZeroCoef>
-5.4800

> <Gold.Chemscore.Hbond>
1.7731

> <Gold.Chemscore.Metal>
0.0000

> <Gold.Chemscore.Lipo>
78.4267

> <Gold.Chemscore.Internal_Hbond>
0.0000

> <Gold.Chemscore.DEClash>
0.0811

> <Gold.Chemscore.DEInternal>
3.9640

> <Gold.Chemscore.Rot>
2.3241

> <Gold.Chemscore.Internal.Correction>
   9.000000E+99

> <Gold.Chemscore.Hbonds>
donor molecule, donor type, donor heavy atom, donor atom, acceptor molecule, acceptor atom, score
      P1  H  7997  8009       L1    11  0.83
      P1  H 10752 10765       L1    12  0.82

> <Gold.Chemscore.Hbond.Weighted>
-5.9220

> <Gold.Chemscore.Metal.Weighted>
-0.0000

> <Gold.Chemscore.Lipo.Weighted>
-9.1759

> <Gold.Chemscore.Internal_Hbond.Weighted>
0.0000

> <Gold.Chemscore.DEClash.Weighted>
0.0811

> <Gold.Chemscore.DEInternal.Weighted>
3.9640

> <Gold.Chemscore.Rot.Weighted>
5.9498

> <Gold.Chemscore.Internal.Correction.Weighted>
   9.000000E+99

> <Gold.Protein.RotatedTorsions>
[ 6907 6896 6895 6894 ] final  118.33 input  -60.11 | X-H torsion
[ 7974 7965 7964 7962 ] final   46.10 input  175.53 | X-H torsion
[ 8008 7997 7996 7995 ] final -147.24 input   59.86 | X-H torsion
[ 10167 10162 10161 10158 ] final    0.47 input  -65.29 | X-H torsion
[ 10718 10713 10712 10709 ] final  113.33 input   66.30 | X-H torsion
[ 10763 10752 10751 10750 ] final  145.33 input  -60.55 | X-H torsion
[ 11005 11000 10999 10996 ] final -154.12 input  -57.11 | X-H torsion

> <Gold.Protein.ActiveResidues>
 VAL166  LYS551  ARG553  GLY616  TRP617  ASP618  TYR619  PRO620  LYS621  CYS622 
 ASP623  PHE694  ASN695  SER759  ASP760  ASP761  ALA762  ILE779  LEU786  VAL792 
 PHE793  MET794  SER795  GLU796  ALA797  LYS798  CYS799  TRP800  GLU811  SER814 

> <Gold.Protein.RotatedAtoms>
  152.4551  133.7706  159.6796 H   0  0  0  0  0  0  0  0  0  0  0  0  # atno 6907 bound_to 6896
  150.8474  133.7829  159.3044 H   0  0  0  0  0  0  0  0  0  0  0  0  # atno 6908 bound_to 6896
  151.5435  135.1071  159.9984 H   0  0  0  0  0  0  0  0  0  0  0  0  # atno 6909 bound_to 6896
  146.0420  139.4893  142.9772 H   0  0  0  0  0  0  0  0  0  0  0  0  # atno 7974 bound_to 7965
  155.5723  140.0635  157.2803 H   0  0  0  0  0  0  0  0  0  0  0  0  # atno 8008 bound_to 7997
  154.4357  140.1867  156.0938 H   0  0  0  0  0  0  0  0  0  0  0  0  # atno 8009 bound_to 7997
  156.0367  140.3300  155.7202 H   0  0  0  0  0  0  0  0  0  0  0  0  # atno 8010 bound_to 7997
  140.6727  143.7003  150.7957 H   0  0  0  0  0  0  0  0  0  0  0  0  # atno 10167 bound_to 10162
  157.6344  131.0982  150.7025 H   0  0  0  0  0  0  0  0  0  0  0  0  # atno 10718 bound_to 10713
  154.0036  135.2921  155.3400 H   0  0  0  0  0  0  0  0  0  0  0  0  # atno 10763 bound_to 10752
  154.7145  135.5135  153.8719 H   0  0  0  0  0  0  0  0  0  0  0  0  # atno 10764 bound_to 10752
  153.0755  135.6662  154.0275 H   0  0  0  0  0  0  0  0  0  0  0  0  # atno 10765 bound_to 10752
  140.7008  134.3939  157.5210 H   0  0  0  0  0  0  0  0  0  0  0  0  # atno 11005 bound_to 11000
  145.6868  141.0176  143.1577 LP  0  0  0  0  0  0  0  0  0  0  0  0  # atno 17320 bound_to 7965
  144.7079  139.8485  143.7424 LP  0  0  0  0  0  0  0  0  0  0  0  0  # atno 17321 bound_to 7965
  140.0691  143.5079  152.2589 LP  0  0  0  0  0  0  0  0  0  0  0  0  # atno 17342 bound_to 10162
  139.6003  144.7580  151.3187 LP  0  0  0  0  0  0  0  0  0  0  0  0  # atno 17343 bound_to 10162
  156.7359  130.4724  149.5488 LP  0  0  0  0  0  0  0  0  0  0  0  0  # atno 17370 bound_to 10713
  156.1571  130.6349  151.0671 LP  0  0  0  0  0  0  0  0  0  0  0  0  # atno 17371 bound_to 10713
  139.8897  134.8823  156.2406 LP  0  0  0  0  0  0  0  0  0  0  0  0  # atno 17394 bound_to 11000
  141.0165  133.7065  156.1197 LP  0  0  0  0  0  0  0  0  0  0  0  0  # atno 17395 bound_to 11000

$$$$
