AV-unprocessed.smi:741|AV-procd|sdf|3557|dock6
  -GOLD-   22720 0553D 1   1.00000     0.00000
 Structure written by MMmdl.
 43 44  0  0  0  0  0  0  0  0  3 V2000
  143.2060  134.7052  153.1232 C   0  0  0  0  0  0  0  0  0  0  0  0
  144.4985  135.4205  153.5434 C   0  0  0  0  0  0  0  0  0  0  0  0
  145.6415  135.2936  152.5178 C   0  0  1  0  0  0  0  0  0  0  0  0
  145.1251  135.5055  151.0777 C   0  0  0  0  0  0  0  0  0  0  0  0
  145.1537  134.2655  150.2637 N   0  3  0  0  0  0  0  0  0  0  0  0
  146.3360  133.4040  150.4743 C   0  0  0  0  0  0  0  0  0  0  0  0
  145.9012  132.0258  149.9895 C   0  0  0  0  0  0  0  0  0  0  0  0
  144.4442  131.9534  150.4359 C   0  0  0  0  0  0  0  0  0  0  0  0
  143.9535  133.4077  150.4047 C   0  0  0  0  0  0  0  0  0  0  0  0
  146.7004  136.2554  152.8352 N   0  0  0  0  0  0  0  0  0  0  0  0
  146.5223  137.5180  153.2512 C   0  0  0  0  0  0  0  0  0  0  0  0
  145.4167  138.0115  153.4700 O   0  0  0  0  0  0  0  0  0  0  0  0
  147.6977  138.1480  153.4202 N   0  0  0  0  0  0  0  0  0  0  0  0
  147.9247  139.4903  153.8290 C   0  0  0  0  0  0  0  0  0  0  0  0
  149.1688  139.7943  154.4249 C   0  0  0  0  0  0  0  0  0  0  0  0
  149.4410  141.1172  154.8297 C   0  0  0  0  0  0  0  0  0  0  0  0
  148.5182  142.0835  154.6350 N   0  3  0  0  0  0  0  0  0  0  0  0
  147.3223  141.8449  154.0552 C   0  0  0  0  0  0  0  0  0  0  0  0
  146.9929  140.5410  153.6313 C   0  0  0  0  0  0  0  0  0  0  0  0
  142.4190  134.8664  153.8601 H   0  0  0  0  0  0  0  0  0  0  0  0
  143.3525  133.6289  153.0305 H   0  0  0  0  0  0  0  0  0  0  0  0
  142.8434  135.0785  152.1650 H   0  0  0  0  0  0  0  0  0  0  0  0
  144.2726  136.4760  153.6990 H   0  0  0  0  0  0  0  0  0  0  0  0
  144.8239  135.0361  154.5111 H   0  0  0  0  0  0  0  0  0  0  0  0
  146.0307  134.2771  152.5994 H   0  0  0  0  0  0  0  0  0  0  0  0
  144.1122  135.9112  151.0860 H   0  0  0  0  0  0  0  0  0  0  0  0
  145.7513  136.2561  150.5922 H   0  0  0  0  0  0  0  0  0  0  0  0
  147.2149  133.7715  149.9452 H   0  0  0  0  0  0  0  0  0  0  0  0
  146.5782  133.3572  151.5372 H   0  0  0  0  0  0  0  0  0  0  0  0
  145.9601  131.9797  148.9012 H   0  0  0  0  0  0  0  0  0  0  0  0
  146.5119  131.2191  150.3957 H   0  0  0  0  0  0  0  0  0  0  0  0
  143.8460  131.2941  149.8065 H   0  0  0  0  0  0  0  0  0  0  0  0
  144.3941  131.5721  151.4568 H   0  0  0  0  0  0  0  0  0  0  0  0
  143.3941  133.6363  151.3130 H   0  0  0  0  0  0  0  0  0  0  0  0
  143.2927  133.5848  149.5557 H   0  0  0  0  0  0  0  0  0  0  0  0
  147.6482  135.9388  152.6888 H   0  0  0  0  0  0  0  0  0  0  0  0
  148.5273  137.5871  153.2911 H   0  0  0  0  0  0  0  0  0  0  0  0
  149.9094  139.0226  154.5783 H   0  0  0  0  0  0  0  0  0  0  0  0
  150.3635  141.4293  155.2974 H   0  0  0  0  0  0  0  0  0  0  0  0
  146.6710  142.6994  153.9424 H   0  0  0  0  0  0  0  0  0  0  0  0
  146.0404  140.3756  153.1512 H   0  0  0  0  0  0  0  0  0  0  0  0
  145.1758  134.5457  149.2939 H   0  0  0  0  0  0  0  0  0  0  0  0
  148.7360  143.0350  154.9331 H   0  0  0  0  0  0  0  0  0  0  0  0
  1  2  1  0  0  0  0
  1 20  1  0  0  0  0
  1 21  1  0  0  0  0
  1 22  1  0  0  0  0
  2  3  1  0  0  0  0
  2 23  1  0  0  0  0
  2 24  1  0  0  0  0
  3  4  1  0  0  0  0
  3 10  1  0  0  0  0
  3 25  1  0  0  0  0
  4  5  1  0  0  0  0
  4 26  1  0  0  0  0
  4 27  1  0  0  0  0
  5  9  1  0  0  0  0
  5  6  1  0  0  0  0
  5 42  1  0  0  0  0
  6  7  1  0  0  0  0
  6 28  1  0  0  0  0
  6 29  1  0  0  0  0
  7  8  1  0  0  0  0
  7 30  1  0  0  0  0
  7 31  1  0  0  0  0
  8  9  1  0  0  0  0
  8 32  1  0  0  0  0
  8 33  1  0  0  0  0
  9 34  1  0  0  0  0
  9 35  1  0  0  0  0
 10 11  1  0  0  0  0
 10 36  1  0  0  0  0
 11 12  2  0  0  0  0
 11 13  1  0  0  0  0
 13 14  1  0  0  0  0
 13 37  1  0  0  0  0
 14 19  1  0  0  0  0
 14 15  2  0  0  0  0
 15 16  1  0  0  0  0
 15 38  1  0  0  0  0
 16 17  2  0  0  0  0
 16 39  1  0  0  0  0
 17 18  1  0  0  0  0
 17 43  1  0  0  0  0
 18 19  2  0  0  0  0
 18 40  1  0  0  0  0
 19 41  1  0  0  0  0
M  CHG  1   5   1
M  CHG  1  17   1
M  END
> <s_m_source_file>
AV-unprocessed.smi

> <i_m_source_file_index>
741

> <i_lp_mmshare_version>
43012

> <i_f3d_flags>
0

> <s_epik_input>
W0NIMl0xW0NIMl1bQ0gyXVtDSDJdTjFbQ0gyXVtDQEBIXShbQ0gyXVtDSDNdKVtOSF1DKD1PKVtOSF1jMltjSF1bY0hdbltjSF1bY0hdMg==

> <s_epik_cmdline>
J2VwaWtfcHl0aG9uJywgJy1waCcsICc3LjAnLCAnLXRuJywgJzgnLCAnLW1hJywgJzIwMCcsICctbWV0YWxfYmluZGluZycsICctaW1hZScsICc8aW5maWxlLm1hZT4nLCAnLW9tYWUnLCAnPG91dGZpbGUubWFlPic=

> <r_epik_Ionization_Penalty>
1.10771

> <r_epik_Ionization_Penalty_Charging>
1.10769

> <r_epik_Ionization_Penalty_Neutral>
1.91663e-05

> <r_epik_State_Penalty>
1.16347

> <r_epik_Charging_Adjusted_Penalty>
2.27116

> <i_epik_Tot_Q>
2

> <i_epik_Tot_abs_Q>
2

> <r_epik_Metal_State_Penalty>
1.24871

> <b_epik_Metal_Only>
0

> <s_lp_Force_Field>
OPLS_2005

> <r_lp_Energy>
49.4137

> <b_lp_Chiralities_Consistent>
1

> <s_lp_Variant>
AV-unprocessed.smi:741-4

> <Gold.Version>
5.8.1

> <Gold.Id.Protein>
6NUR|6NUR_protein|mol2

> <Gold.PLP.Fitness>
46.1630

> <Gold.PLP.PLP>
-35.8457

> <Gold.PLP.part.hbond>
-3.7574

> <Gold.PLP.part.metal>
0.0000

> <Gold.PLP.part.buried>
-3.4937

> <Gold.PLP.part.nonpolar>
-28.9354

> <Gold.PLP.part.repulsive>
1.1623

> <Gold.PLP.ligand.clash>
0.0048

> <Gold.PLP.ligand.torsion>
1.5131

> <Gold.PLP.Chemscore.Hbond>
4.4240

> <Gold.PLP.Chemscore.CHOScore>
0.0000

> <Gold.PLP.Chemscore.Metal>
0.0000

> <Gold.Chemscore.Hbonds>
donor molecule, donor type, donor heavy atom, donor atom, acceptor molecule, acceptor atom, score
      L1  H     5    42       P1  7921  1.00
      L1  H    10    36       P1  7948  0.86
      L1  H    13    37       P1  7948  0.61
      L1  H    17    43       P1  8028  2.00

> <Gold.PLP.Chemscore.Internal.Correction>
0.0764

> <Gold.Rescore>
     Score         DG    S(hbond)    S(metal)    S(lipo)     H(rot)  DE(clash)    DE(int)     intcor
     19.53     -23.73       3.65        0.00      87.41       1.63       0.03       4.17       ----

> <Gold.Chemscore.Fitness>
19.5265

> <Gold.Chemscore.DG>
-23.7314

> <Gold.Chemscore.ZeroCoef>
-5.4800

> <Gold.Chemscore.Hbond>
3.6488

> <Gold.Chemscore.Metal>
0.0000

> <Gold.Chemscore.Lipo>
87.4103

> <Gold.Chemscore.Internal_Hbond>
0.0000

> <Gold.Chemscore.DEClash>
0.0301

> <Gold.Chemscore.DEInternal>
4.1747

> <Gold.Chemscore.Rot>
1.6260

> <Gold.Chemscore.Internal.Correction>
   9.000000E+99

> <Gold.Chemscore.Hbonds>
donor molecule, donor type, donor heavy atom, donor atom, acceptor molecule, acceptor atom, score
      L1  H     5    42       P1  7921  0.95
      L1  H    10    36       P1  7948  0.82
      L1  H    13    37       P1  7948  0.58
      L1  H    17    43       P1  8028  1.00

> <Gold.Chemscore.Hbond.Weighted>
-12.1870

> <Gold.Chemscore.Metal.Weighted>
-0.0000

> <Gold.Chemscore.Lipo.Weighted>
-10.2270

> <Gold.Chemscore.Internal_Hbond.Weighted>
0.0000

> <Gold.Chemscore.DEClash.Weighted>
0.0301

> <Gold.Chemscore.DEInternal.Weighted>
4.1747

> <Gold.Chemscore.Rot.Weighted>
4.1626

> <Gold.Chemscore.Internal.Correction.Weighted>
   9.000000E+99

> <Gold.Protein.RotatedTorsions>
[ 6907 6896 6895 6894 ] final  -83.53 input  -60.11 | X-H torsion
[ 7974 7965 7964 7962 ] final  -68.86 input  175.53 | X-H torsion
[ 8008 7997 7996 7995 ] final  -42.71 input   59.86 | X-H torsion
[ 10167 10162 10161 10158 ] final  -76.08 input  -65.29 | X-H torsion
[ 10718 10713 10712 10709 ] final  -91.83 input   66.30 | X-H torsion
[ 10763 10752 10751 10750 ] final  -62.03 input  -60.55 | X-H torsion
[ 11005 11000 10999 10996 ] final  -16.22 input  -57.11 | X-H torsion

> <Gold.Protein.ActiveResidues>
 VAL166  LYS551  ARG553  GLY616  TRP617  ASP618  TYR619  PRO620  LYS621  CYS622 
 ASP623  PHE694  ASN695  SER759  ASP760  ASP761  ALA762  ILE779  LEU786  VAL792 
 PHE793  MET794  SER795  GLU796  ALA797  LYS798  CYS799  TRP800  GLU811  SER814 

> <Gold.Protein.RotatedAtoms>
  150.6884  134.3497  159.4903 H   0  0  0  0  0  0  0  0  0  0  0  0  # atno 6907 bound_to 6896
  152.1340  134.9111  160.0566 H   0  0  0  0  0  0  0  0  0  0  0  0  # atno 6908 bound_to 6896
  152.0270  133.3887  159.4318 H   0  0  0  0  0  0  0  0  0  0  0  0  # atno 6909 bound_to 6896
  145.7112  140.9078  143.0680 H   0  0  0  0  0  0  0  0  0  0  0  0  # atno 7974 bound_to 7965
  154.3998  140.1466  156.3399 H   0  0  0  0  0  0  0  0  0  0  0  0  # atno 8008 bound_to 7997
  155.8366  140.3463  155.5584 H   0  0  0  0  0  0  0  0  0  0  0  0  # atno 8009 bound_to 7997
  155.8132  140.0887  157.1882 H   0  0  0  0  0  0  0  0  0  0  0  0  # atno 8010 bound_to 7997
  140.4887  143.2385  151.7941 H   0  0  0  0  0  0  0  0  0  0  0  0  # atno 10167 bound_to 10162
  155.9997  130.4963  150.5533 H   0  0  0  0  0  0  0  0  0  0  0  0  # atno 10718 bound_to 10713
  154.2937  135.6248  153.5396 H   0  0  0  0  0  0  0  0  0  0  0  0  # atno 10763 bound_to 10752
  152.9849  135.5662  154.5362 H   0  0  0  0  0  0  0  0  0  0  0  0  # atno 10764 bound_to 10752
  154.4978  135.2870  155.1421 H   0  0  0  0  0  0  0  0  0  0  0  0  # atno 10765 bound_to 10752
  140.8046  133.8187  155.9503 H   0  0  0  0  0  0  0  0  0  0  0  0  # atno 11005 bound_to 11000
  144.6941  139.9076  143.7462 LP  0  0  0  0  0  0  0  0  0  0  0  0  # atno 17320 bound_to 7965
  146.0711  139.3700  143.0522 LP  0  0  0  0  0  0  0  0  0  0  0  0  # atno 17321 bound_to 7965
  139.4847  144.4677  151.9463 LP  0  0  0  0  0  0  0  0  0  0  0  0  # atno 17342 bound_to 10162
  140.3764  144.2791  150.5913 LP  0  0  0  0  0  0  0  0  0  0  0  0  # atno 17343 bound_to 10162
  157.3453  131.0724  151.1756 LP  0  0  0  0  0  0  0  0  0  0  0  0  # atno 17370 bound_to 10713
  157.2590  130.6650  149.5966 LP  0  0  0  0  0  0  0  0  0  0  0  0  # atno 17371 bound_to 10713
  140.9260  134.2082  157.4895 LP  0  0  0  0  0  0  0  0  0  0  0  0  # atno 17394 bound_to 11000
  139.8719  134.9812  156.5109 LP  0  0  0  0  0  0  0  0  0  0  0  0  # atno 17395 bound_to 11000

$$$$
