AV-unprocessed.smi:1720|AV-procd|sdf|6932|dock4
  -GOLD-   22720 8143D 1   1.00000     0.00000
 Structure written by MMmdl.
 32 33  0  0  0  0  0  0  0  0  1 V2000
  151.8635  141.7385  157.9918 C   0  0  0  0  0  0  0  0  0  0  0  0
  151.5006  142.9554  157.1282 C   0  0  1  0  0  0  0  0  0  0  0  0
  150.3036  142.6393  156.3502 N   0  0  0  0  0  0  0  0  0  0  0  0
  150.1419  141.5711  155.5556 C   0  0  0  0  0  0  0  0  0  0  0  0
  151.0069  140.7136  155.3766 O   0  0  0  0  0  0  0  0  0  0  0  0
  148.9258  141.5698  154.9860 N   0  0  0  0  0  0  0  0  0  0  0  0
  148.3967  140.6081  154.0883 C   0  0  0  0  0  0  0  0  0  0  0  0
  147.2147  140.7835  153.3188 C   0  0  0  0  0  0  0  0  0  0  0  0
  146.9632  139.7200  152.5691 N   0  0  0  0  0  0  0  0  0  0  0  0
  147.9727  138.8664  152.8541 N   0  0  0  0  0  0  0  0  0  0  0  0
  148.8683  139.3643  153.7745 C   0  0  0  0  0  0  0  0  0  0  0  0
  151.2719  144.2194  157.9828 C   0  0  2  0  0  0  0  0  0  0  0  0
  152.4782  144.6676  158.8123 C   0  0  0  0  0  0  0  0  0  0  0  0
  151.8141  145.4481  159.9224 C   0  0  0  0  0  0  0  0  0  0  0  0
  150.5697  144.6068  160.1857 C   0  0  0  0  0  0  0  0  0  0  0  0
  150.2399  143.9944  158.9417 O   0  0  0  0  0  0  0  0  0  0  0  0
  148.0363  137.9581  152.4167 H   0  0  0  0  0  0  0  0  0  0  0  0
  152.7814  141.9141  158.5536 H   0  0  0  0  0  0  0  0  0  0  0  0
  152.0231  140.8532  157.3754 H   0  0  0  0  0  0  0  0  0  0  0  0
  151.0741  141.5084  158.7084 H   0  0  0  0  0  0  0  0  0  0  0  0
  152.3414  143.1419  156.4576 H   0  0  0  0  0  0  0  0  0  0  0  0
  149.5340  143.2879  156.4288 H   0  0  0  0  0  0  0  0  0  0  0  0
  148.3148  142.3398  155.2154 H   0  0  0  0  0  0  0  0  0  0  0  0
  146.5448  141.6301  153.2793 H   0  0  0  0  0  0  0  0  0  0  0  0
  149.7282  138.8019  154.1071 H   0  0  0  0  0  0  0  0  0  0  0  0
  150.9546  145.0486  157.3479 H   0  0  0  0  0  0  0  0  0  0  0  0
  153.0031  143.8058  159.2273 H   0  0  0  0  0  0  0  0  0  0  0  0
  153.1926  145.2609  158.2409 H   0  0  0  0  0  0  0  0  0  0  0  0
  152.4445  145.5662  160.8043 H   0  0  0  0  0  0  0  0  0  0  0  0
  151.5314  146.4397  159.5659 H   0  0  0  0  0  0  0  0  0  0  0  0
  150.7880  143.8205  160.9093 H   0  0  0  0  0  0  0  0  0  0  0  0
  149.7403  145.1999  160.5712 H   0  0  0  0  0  0  0  0  0  0  0  0
  1  2  1  0  0  0  0
  1 18  1  0  0  0  0
  1 19  1  0  0  0  0
  1 20  1  0  0  0  0
  2  3  1  0  0  0  0
  2 12  1  0  0  0  0
  2 21  1  0  0  0  0
  3  4  1  0  0  0  0
  3 22  1  0  0  0  0
  4  5  2  0  0  0  0
  4  6  1  0  0  0  0
  6  7  1  0  0  0  0
  6 23  1  0  0  0  0
  7 11  2  0  0  0  0
  7  8  1  0  0  0  0
  8  9  2  0  0  0  0
  8 24  1  0  0  0  0
  9 10  1  0  0  0  0
 10 17  1  0  0  0  0
 10 11  1  0  0  0  0
 11 25  1  0  0  0  0
 12 16  1  0  0  0  0
 12 13  1  0  0  0  0
 12 26  1  0  0  0  0
 13 14  1  0  0  0  0
 13 27  1  0  0  0  0
 13 28  1  0  0  0  0
 14 15  1  0  0  0  0
 14 29  1  0  0  0  0
 14 30  1  0  0  0  0
 15 16  1  0  0  0  0
 15 31  1  0  0  0  0
 15 32  1  0  0  0  0
M  END
> <s_m_source_file>
AV-unprocessed.smi

> <i_m_source_file_index>
1720

> <i_lp_mmshare_version>
43012

> <i_f3d_flags>
0

> <s_epik_input>
TzFbQ0gyXVtDSDJdW0NIMl1bQ0BIXTFbQ0BIXShbQ0gzXSlbTkhdQyg9TylbTkhdYzJbY0hdbltuSF1bY0hdMg==

> <s_epik_cmdline>
J2VwaWtfcHl0aG9uJywgJy1waCcsICc3LjAnLCAnLXRuJywgJzgnLCAnLW1hJywgJzIwMCcsICctbWV0YWxfYmluZGluZycsICctaW1hZScsICc8aW5maWxlLm1hZT4nLCAnLW9tYWUnLCAnPG91dGZpbGUubWFlPic=

> <r_lp_tautomer_probability>
1

> <r_epik_Ionization_Penalty>
4.95841e-05

> <r_epik_Ionization_Penalty_Charging>
0

> <r_epik_Ionization_Penalty_Neutral>
4.95841e-05

> <r_epik_State_Penalty>
-0

> <r_epik_Charging_Adjusted_Penalty>
0

> <i_epik_Tot_Q>
0

> <i_epik_Tot_abs_Q>
0

> <r_epik_Metal_State_Penalty>
-0

> <b_epik_Metal_Only>
0

> <s_lp_Force_Field>
OPLS_2005

> <r_lp_Energy>
20.0519

> <b_lp_Chiralities_Consistent>
1

> <s_lp_Variant>
AV-unprocessed.smi:1720-2

> <Gold.Version>
5.8.1

> <Gold.Id.Protein>
6NUR|6NUR_protein|mol2

> <Gold.PLP.Fitness>
42.6471

> <Gold.PLP.PLP>
-34.6148

> <Gold.PLP.part.hbond>
-4.3605

> <Gold.PLP.part.metal>
0.0000

> <Gold.PLP.part.buried>
-5.0077

> <Gold.PLP.part.nonpolar>
-26.7170

> <Gold.PLP.part.repulsive>
1.1048

> <Gold.PLP.ligand.clash>
0.0000

> <Gold.PLP.ligand.torsion>
0.0690

> <Gold.PLP.Chemscore.Hbond>
2.7204

> <Gold.PLP.Chemscore.CHOScore>
0.0000

> <Gold.PLP.Chemscore.Metal>
0.0000

> <Gold.Chemscore.Hbonds>
donor molecule, donor type, donor heavy atom, donor atom, acceptor molecule, acceptor atom, score
      L1  H     3    22       P1  8028  0.82
      L1  H    10    17       P1  7948  1.00
      P1  H  7989  7998       L1     5  0.85

> <Gold.PLP.Chemscore.Internal.Correction>
0.0089

> <Gold.Rescore>
     Score         DG    S(hbond)    S(metal)    S(lipo)     H(rot)  DE(clash)    DE(int)     intcor
     16.89     -19.87       2.27        0.00      86.76       1.31       0.59       2.39       ----

> <Gold.Chemscore.Fitness>
16.8946

> <Gold.Chemscore.DG>
-19.8688

> <Gold.Chemscore.ZeroCoef>
-5.4800

> <Gold.Chemscore.Hbond>
2.2712

> <Gold.Chemscore.Metal>
0.0000

> <Gold.Chemscore.Lipo>
86.7625

> <Gold.Chemscore.Internal_Hbond>
0.0000

> <Gold.Chemscore.DEClash>
0.5880

> <Gold.Chemscore.DEInternal>
2.3862

> <Gold.Chemscore.Rot>
1.3079

> <Gold.Chemscore.Internal.Correction>
   9.000000E+99

> <Gold.Chemscore.Hbonds>
donor molecule, donor type, donor heavy atom, donor atom, acceptor molecule, acceptor atom, score
      L1  H     3    22       P1  8028  0.81
      L1  H     6    23       P1  8028  0.02
      L1  H    10    17       P1  7948  0.93
      P1  H  7989  7998       L1     5  0.49

> <Gold.Chemscore.Hbond.Weighted>
-7.5859

> <Gold.Chemscore.Metal.Weighted>
-0.0000

> <Gold.Chemscore.Lipo.Weighted>
-10.1512

> <Gold.Chemscore.Internal_Hbond.Weighted>
0.0000

> <Gold.Chemscore.DEClash.Weighted>
0.5880

> <Gold.Chemscore.DEInternal.Weighted>
2.3862

> <Gold.Chemscore.Rot.Weighted>
3.3483

> <Gold.Chemscore.Internal.Correction.Weighted>
   9.000000E+99

> <Gold.Protein.RotatedTorsions>
[ 6907 6896 6895 6894 ] final   98.41 input  -60.11 | X-H torsion
[ 7974 7965 7964 7962 ] final  123.69 input  175.53 | X-H torsion
[ 8008 7997 7996 7995 ] final  -57.08 input   59.86 | X-H torsion
[ 10167 10162 10161 10158 ] final  179.96 input  -65.29 | X-H torsion
[ 10718 10713 10712 10709 ] final  141.81 input   66.30 | X-H torsion
[ 10763 10752 10751 10750 ] final   22.56 input  -60.55 | X-H torsion
[ 11005 11000 10999 10996 ] final   72.71 input  -57.11 | X-H torsion

> <Gold.Protein.ActiveResidues>
 VAL166  LYS551  ARG553  GLY616  TRP617  ASP618  TYR619  PRO620  LYS621  CYS622 
 ASP623  PHE694  ASN695  SER759  ASP760  ASP761  ALA762  ILE779  LEU786  VAL792 
 PHE793  MET794  SER795  GLU796  ALA797  LYS798  CYS799  TRP800  GLU811  SER814 

> <Gold.Protein.RotatedAtoms>
  152.5409  134.0585  159.8141 H   0  0  0  0  0  0  0  0  0  0  0  0  # atno 6907 bound_to 6896
  151.0717  133.5454  159.2634 H   0  0  0  0  0  0  0  0  0  0  0  0  # atno 6908 bound_to 6896
  151.2314  135.0564  159.9043 H   0  0  0  0  0  0  0  0  0  0  0  0  # atno 6909 bound_to 6896
  145.0930  139.3573  143.4851 H   0  0  0  0  0  0  0  0  0  0  0  0  # atno 7974 bound_to 7965
  154.4254  140.1115  156.5740 H   0  0  0  0  0  0  0  0  0  0  0  0  # atno 8008 bound_to 7997
  155.6182  140.3495  155.4624 H   0  0  0  0  0  0  0  0  0  0  0  0  # atno 8009 bound_to 7997
  156.0045  140.1206  157.0504 H   0  0  0  0  0  0  0  0  0  0  0  0  # atno 8010 bound_to 7997
  139.5359  144.2499  152.0793 H   0  0  0  0  0  0  0  0  0  0  0  0  # atno 10167 bound_to 10162
  157.3877  131.1000  151.0677 H   0  0  0  0  0  0  0  0  0  0  0  0  # atno 10718 bound_to 10713
  153.0906  135.6645  153.9862 H   0  0  0  0  0  0  0  0  0  0  0  0  # atno 10763 bound_to 10752
  153.9460  135.2989  155.3442 H   0  0  0  0  0  0  0  0  0  0  0  0  # atno 10764 bound_to 10752
  154.7320  135.5118  153.9052 H   0  0  0  0  0  0  0  0  0  0  0  0  # atno 10765 bound_to 10752
  139.9477  134.7283  156.0939 H   0  0  0  0  0  0  0  0  0  0  0  0  # atno 11005 bound_to 11000
  146.3531  140.0772  142.8620 LP  0  0  0  0  0  0  0  0  0  0  0  0  # atno 17320 bound_to 7965
  145.1044  140.9366  143.4693 LP  0  0  0  0  0  0  0  0  0  0  0  0  # atno 17321 bound_to 7965
  140.1969  144.4696  150.6450 LP  0  0  0  0  0  0  0  0  0  0  0  0  # atno 17342 bound_to 10162
  140.6565  143.2239  151.5956 LP  0  0  0  0  0  0  0  0  0  0  0  0  # atno 17343 bound_to 10162
  157.1722  130.6272  149.5644 LP  0  0  0  0  0  0  0  0  0  0  0  0  # atno 17370 bound_to 10713
  155.9791  130.4781  150.6693 LP  0  0  0  0  0  0  0  0  0  0  0  0  # atno 17371 bound_to 10713
  141.1132  133.6636  156.3029 LP  0  0  0  0  0  0  0  0  0  0  0  0  # atno 17394 bound_to 11000
  140.5795  134.5760  157.5476 LP  0  0  0  0  0  0  0  0  0  0  0  0  # atno 17395 bound_to 11000

$$$$
