AV-unprocessed.smi:1200|AV-procd|sdf|5026|dock5
  -GOLD-   22720 4 43D 1   1.00000     0.00000
 Structure written by MMmdl.
 42 43  0  0  0  0  0  0  0  0  3 V2000
  143.8395  146.4919  155.4507 C   0  0  0  0  0  0  0  0  0  0  0  0
  143.7311  145.0979  155.0365 N   0  5  0  0  0  0  0  0  0  0  0  0
  144.2908  144.0659  155.7229 C   0  0  0  0  0  0  0  0  0  0  0  0
  145.0203  144.0626  156.7202 O   0  0  0  0  0  0  0  0  0  0  0  0
  143.8899  142.7161  155.1164 C   0  0  0  0  0  0  0  0  0  0  0  0
  145.0921  142.0054  154.6144 N   0  3  2  0  0  0  0  0  0  0  0  0
  145.8053  141.2735  155.6912 C   0  0  0  0  0  0  0  0  0  0  0  0
  146.9557  140.4237  155.1213 C   0  0  0  0  0  0  0  0  0  0  0  0
  147.9394  141.2631  154.2879 C   0  0  2  0  0  0  0  0  0  0  0  0
  148.7381  142.1291  155.1549 N   0  0  0  0  0  0  0  0  0  0  0  0
  149.6256  141.7066  156.0670 C   0  0  0  0  0  0  0  0  0  0  0  0
  149.8805  140.5191  156.2648 O   0  0  0  0  0  0  0  0  0  0  0  0
  150.1967  142.7431  156.7044 N   0  0  0  0  0  0  0  0  0  0  0  0
  151.1718  142.7213  157.7383 C   0  0  0  0  0  0  0  0  0  0  0  0
  151.8575  143.8647  158.2156 C   0  0  0  0  0  0  0  0  0  0  0  0
  152.8149  143.7066  159.2361 C   0  0  0  0  0  0  0  0  0  0  0  0
  153.0580  142.4129  159.7368 C   0  0  0  0  0  0  0  0  0  0  0  0
  152.4224  141.3128  159.2822 N   0  0  0  0  0  0  0  0  0  0  0  0
  151.5059  141.4721  158.3037 C   0  0  0  0  0  0  0  0  0  0  0  0
  147.1664  142.0713  153.2272 C   0  0  0  0  0  0  0  0  0  0  0  0
  146.0144  142.8832  153.8450 C   0  0  0  0  0  0  0  0  0  0  0  0
  143.3447  147.1629  154.7489 H   0  0  0  0  0  0  0  0  0  0  0  0
  144.8748  146.8270  155.5215 H   0  0  0  0  0  0  0  0  0  0  0  0
  143.3819  146.6716  156.4240 H   0  0  0  0  0  0  0  0  0  0  0  0
  143.3336  142.0833  155.8118 H   0  0  0  0  0  0  0  0  0  0  0  0
  143.2121  142.9332  154.2897 H   0  0  0  0  0  0  0  0  0  0  0  0
  146.1834  141.9846  156.4272 H   0  0  0  0  0  0  0  0  0  0  0  0
  145.1073  140.6189  156.2143 H   0  0  0  0  0  0  0  0  0  0  0  0
  147.4818  139.9141  155.9296 H   0  0  0  0  0  0  0  0  0  0  0  0
  146.5360  139.6380  154.4916 H   0  0  0  0  0  0  0  0  0  0  0  0
  148.6188  140.5765  153.7793 H   0  0  0  0  0  0  0  0  0  0  0  0
  148.5964  143.1240  155.0600 H   0  0  0  0  0  0  0  0  0  0  0  0
  149.9393  143.6620  156.3754 H   0  0  0  0  0  0  0  0  0  0  0  0
  151.6821  144.8509  157.8158 H   0  0  0  0  0  0  0  0  0  0  0  0
  153.3541  144.5583  159.6232 H   0  0  0  0  0  0  0  0  0  0  0  0
  153.7861  142.2572  160.5189 H   0  0  0  0  0  0  0  0  0  0  0  0
  151.0186  140.5696  157.9641 H   0  0  0  0  0  0  0  0  0  0  0  0
  147.8400  142.7329  152.6814 H   0  0  0  0  0  0  0  0  0  0  0  0
  146.7559  141.3845  152.4859 H   0  0  0  0  0  0  0  0  0  0  0  0
  145.4733  143.3905  153.0459 H   0  0  0  0  0  0  0  0  0  0  0  0
  146.4082  143.6632  154.4986 H   0  0  0  0  0  0  0  0  0  0  0  0
  144.7469  141.3056  153.9728 H   0  0  0  0  0  0  0  0  0  0  0  0
  1  2  1  0  0  0  0
  1 22  1  0  0  0  0
  1 23  1  0  0  0  0
  1 24  1  0  0  0  0
  2  3  1  0  0  0  0
  3  4  2  0  0  0  0
  3  5  1  0  0  0  0
  5  6  1  0  0  0  0
  5 25  1  0  0  0  0
  5 26  1  0  0  0  0
  6 21  1  0  0  0  0
  6  7  1  0  0  0  0
  6 42  1  0  0  0  0
  7  8  1  0  0  0  0
  7 27  1  0  0  0  0
  7 28  1  0  0  0  0
  8  9  1  0  0  0  0
  8 29  1  0  0  0  0
  8 30  1  0  0  0  0
  9 10  1  0  0  0  0
  9 20  1  0  0  0  0
  9 31  1  0  0  0  0
 10 11  1  0  0  0  0
 10 32  1  0  0  0  0
 11 12  2  0  0  0  0
 11 13  1  0  0  0  0
 13 14  1  0  0  0  0
 13 33  1  0  0  0  0
 14 19  1  0  0  0  0
 14 15  2  0  0  0  0
 15 16  1  0  0  0  0
 15 34  1  0  0  0  0
 16 17  2  0  0  0  0
 16 35  1  0  0  0  0
 17 18  1  0  0  0  0
 17 36  1  0  0  0  0
 18 19  2  0  0  0  0
 19 37  1  0  0  0  0
 20 21  1  0  0  0  0
 20 38  1  0  0  0  0
 20 39  1  0  0  0  0
 21 40  1  0  0  0  0
 21 41  1  0  0  0  0
M  CHG  1   2  -1
M  CHG  1   6   1
M  END
> <s_m_source_file>
AV-unprocessed.smi

> <i_m_source_file_index>
1200

> <i_lp_mmshare_version>
43012

> <i_f3d_flags>
0

> <s_epik_input>
W0NIM11bTkhdQyg9TylbQ0gyXU4xW0NIMl1bQ0gyXVtDSF0oW0NIMl1bQ0gyXTEpW05IXUMoPU8pW05IXWMyW2NIXVtjSF1bY0hdbltjSF0y

> <s_epik_cmdline>
J2VwaWtfcHl0aG9uJywgJy1waCcsICc3LjAnLCAnLXRuJywgJzgnLCAnLW1hJywgJzIwMCcsICctbWV0YWxfYmluZGluZycsICctaW1hZScsICc8aW5maWxlLm1hZT4nLCAnLW9tYWUnLCAnPG91dGZpbGUubWFlPic=

> <r_epik_Ionization_Penalty>
6.14345

> <r_epik_Ionization_Penalty_Charging>
6.13946

> <r_epik_Ionization_Penalty_Neutral>
0.00398477

> <r_epik_State_Penalty>
6.94483

> <r_epik_Charging_Adjusted_Penalty>
13.0843

> <i_epik_Tot_Q>
0

> <i_epik_Tot_abs_Q>
2

> <r_epik_Metal_State_Penalty>
2.87819

> <b_epik_Metal_Only>
1

> <s_lp_Force_Field>
OPLS_2005

> <r_lp_Energy>
15.1129

> <b_lp_Chiralities_Consistent>
1

> <s_lp_Variant>
AV-unprocessed.smi:1200-5

> <Gold.Version>
5.8.1

> <Gold.Id.Protein>
6NUR|6NUR_protein|mol2

> <Gold.PLP.Fitness>
47.6376

> <Gold.PLP.PLP>
-36.1038

> <Gold.PLP.part.hbond>
-3.0000

> <Gold.PLP.part.metal>
0.0000

> <Gold.PLP.part.buried>
-6.6062

> <Gold.PLP.part.nonpolar>
-27.9970

> <Gold.PLP.part.repulsive>
0.4577

> <Gold.PLP.ligand.clash>
0.0000

> <Gold.PLP.ligand.torsion>
0.2513

> <Gold.PLP.Chemscore.Hbond>
4.0000

> <Gold.PLP.Chemscore.CHOScore>
0.0000

> <Gold.PLP.Chemscore.Metal>
0.0000

> <Gold.Chemscore.Hbonds>
donor molecule, donor type, donor heavy atom, donor atom, acceptor molecule, acceptor atom, score
      L1  H     6    42       P1 10175  2.00
      L1  H    10    32       P1  8028  1.00
      L1  H    13    33       P1  8028  1.00

> <Gold.PLP.Chemscore.Internal.Correction>
0.0363

> <Gold.Rescore>
     Score         DG    S(hbond)    S(metal)    S(lipo)     H(rot)  DE(clash)    DE(int)     intcor
     16.65     -20.51       2.67        0.00      87.82       1.63       0.99       2.86       ----

> <Gold.Chemscore.Fitness>
16.6541

> <Gold.Chemscore.DG>
-20.5059

> <Gold.Chemscore.ZeroCoef>
-5.4800

> <Gold.Chemscore.Hbond>
2.6735

> <Gold.Chemscore.Metal>
0.0000

> <Gold.Chemscore.Lipo>
87.8213

> <Gold.Chemscore.Internal_Hbond>
0.0000

> <Gold.Chemscore.DEClash>
0.9892

> <Gold.Chemscore.DEInternal>
2.8626

> <Gold.Chemscore.Rot>
1.6323

> <Gold.Chemscore.Internal.Correction>
   9.000000E+99

> <Gold.Chemscore.Hbonds>
donor molecule, donor type, donor heavy atom, donor atom, acceptor molecule, acceptor atom, score
      L1  H     6    42       P1 10175  0.48
      L1  H    10    32       P1  8028  0.94
      L1  H    13    33       P1  8028  0.97

> <Gold.Chemscore.Hbond.Weighted>
-8.9293

> <Gold.Chemscore.Metal.Weighted>
-0.0000

> <Gold.Chemscore.Lipo.Weighted>
-10.2751

> <Gold.Chemscore.Internal_Hbond.Weighted>
0.0000

> <Gold.Chemscore.DEClash.Weighted>
0.9892

> <Gold.Chemscore.DEInternal.Weighted>
2.8626

> <Gold.Chemscore.Rot.Weighted>
4.1786

> <Gold.Chemscore.Internal.Correction.Weighted>
   9.000000E+99

> <Gold.Protein.RotatedTorsions>
[ 6907 6896 6895 6894 ] final   92.65 input  -60.11 | X-H torsion
[ 7974 7965 7964 7962 ] final   65.83 input  175.53 | X-H torsion
[ 8008 7997 7996 7995 ] final   45.16 input   59.86 | X-H torsion
[ 10167 10162 10161 10158 ] final -104.87 input  -65.29 | X-H torsion
[ 10718 10713 10712 10709 ] final  -52.46 input   66.30 | X-H torsion
[ 10763 10752 10751 10750 ] final -101.97 input  -60.55 | X-H torsion
[ 11005 11000 10999 10996 ] final  -64.85 input  -57.11 | X-H torsion

> <Gold.Protein.ActiveResidues>
 VAL166  LYS551  ARG553  GLY616  TRP617  ASP618  TYR619  PRO620  LYS621  CYS622 
 ASP623  PHE694  ASN695  SER759  ASP760  ASP761  ALA762  ILE779  LEU786  VAL792 
 PHE793  MET794  SER795  GLU796  ALA797  LYS798  CYS799  TRP800  GLU811  SER814 

> <Gold.Protein.RotatedAtoms>
  152.5453  134.1469  159.8501 H   0  0  0  0  0  0  0  0  0  0  0  0  # atno 6907 bound_to 6896
  151.1499  133.4907  159.2603 H   0  0  0  0  0  0  0  0  0  0  0  0  # atno 6908 bound_to 6896
  151.1483  135.0225  159.8711 H   0  0  0  0  0  0  0  0  0  0  0  0  # atno 6909 bound_to 6896
  145.8338  139.3155  143.0971 H   0  0  0  0  0  0  0  0  0  0  0  0  # atno 7974 bound_to 7965
  155.3312  140.3402  155.4239 H   0  0  0  0  0  0  0  0  0  0  0  0  # atno 8008 bound_to 7997
  156.1860  140.1681  156.8220 H   0  0  0  0  0  0  0  0  0  0  0  0  # atno 8009 bound_to 7997
  154.5387  140.0729  156.8456 H   0  0  0  0  0  0  0  0  0  0  0  0  # atno 8010 bound_to 7997
  140.2046  143.3793  152.1101 H   0  0  0  0  0  0  0  0  0  0  0  0  # atno 10167 bound_to 10162
  156.1619  130.4149  149.9779 H   0  0  0  0  0  0  0  0  0  0  0  0  # atno 10718 bound_to 10713
  154.7699  135.4878  153.9627 H   0  0  0  0  0  0  0  0  0  0  0  0  # atno 10763 bound_to 10752
  153.1354  135.6761  153.9119 H   0  0  0  0  0  0  0  0  0  0  0  0  # atno 10764 bound_to 10752
  153.8809  135.3132  155.3424 H   0  0  0  0  0  0  0  0  0  0  0  0  # atno 10765 bound_to 10752
  141.1437  133.6672  156.5897 H   0  0  0  0  0  0  0  0  0  0  0  0  # atno 11005 bound_to 11000
  145.9541  140.8886  143.0244 LP  0  0  0  0  0  0  0  0  0  0  0  0  # atno 17320 bound_to 7965
  144.6738  140.1721  143.7413 LP  0  0  0  0  0  0  0  0  0  0  0  0  # atno 17321 bound_to 7965
  139.5204  144.7032  151.5432 LP  0  0  0  0  0  0  0  0  0  0  0  0  # atno 17342 bound_to 10162
  140.6366  143.8971  150.6653 LP  0  0  0  0  0  0  0  0  0  0  0  0  # atno 17343 bound_to 10162
  156.7606  130.9149  151.3641 LP  0  0  0  0  0  0  0  0  0  0  0  0  # atno 17370 bound_to 10713
  157.6739  130.9076  150.0104 LP  0  0  0  0  0  0  0  0  0  0  0  0  # atno 17371 bound_to 10713
  140.3773  134.7554  157.4638 LP  0  0  0  0  0  0  0  0  0  0  0  0  # atno 17394 bound_to 11000
  140.0665  134.5923  155.8690 LP  0  0  0  0  0  0  0  0  0  0  0  0  # atno 17395 bound_to 11000

$$$$
