AV-unprocessed.smi:2049|AV-procd|sdf|8322|dock8
  -GOLD-   2272010583D 1   1.00000     0.00000
 Structure written by MMmdl.
 51 53  0  0  0  0  0  0  0  0  2 V2000
  149.4367  135.4114  158.6232 O   0  0  0  0  0  0  0  0  0  0  0  0
  148.2727  135.3125  158.2365 C   0  0  0  0  0  0  0  0  0  0  0  0
  147.1231  135.8226  159.1112 C   0  0  0  0  0  0  0  0  0  0  0  0
  147.6030  136.2229  160.4428 N   0  0  0  0  0  0  0  0  0  0  0  0
  147.2734  135.3980  161.5314 C   0  0  0  0  0  0  0  0  0  0  0  0
  147.6620  135.7130  162.7754 C   0  0  0  0  0  0  0  0  0  0  0  0
  148.4387  136.9510  162.9236 C   0  0  0  0  0  0  0  0  0  0  0  0
  148.7400  137.7057  161.9334 N   0  0  0  0  0  0  0  0  0  0  0  0
  148.3304  137.3735  160.6288 C   0  0  0  0  0  0  0  0  0  0  0  0
  148.6118  138.0980  159.6731 O   0  0  0  0  0  0  0  0  0  0  0  0
  147.9224  134.7528  157.0699 N   0  0  0  0  0  0  0  0  0  0  0  0
  148.8249  134.0704  156.1449 C   0  0  0  0  0  0  0  0  0  0  0  0
  148.5930  134.4684  154.6467 C   0  0  0  0  0  0  0  0  0  0  0  0
  149.2839  135.7922  154.3900 N   0  3  0  0  0  0  0  0  0  0  0  0
  148.6351  136.9754  155.0254 C   0  0  0  0  0  0  0  0  0  0  0  0
  149.2759  138.2802  154.5318 C   0  0  0  0  0  0  0  0  0  0  0  0
  150.6574  138.2673  154.8553 O   0  0  0  0  0  0  0  0  0  0  0  0
  151.3347  137.2121  154.1903 C   0  0  0  0  0  0  0  0  0  0  0  0
  150.7576  135.8492  154.6160 C   0  0  0  0  0  0  0  0  0  0  0  0
  149.1539  133.3474  153.7215 C   0  0  0  0  0  0  0  0  0  0  0  0
  148.4009  132.0079  153.8472 C   0  0  0  0  0  0  0  0  0  0  0  0
  146.8963  132.1708  153.5930 C   0  0  0  0  0  0  0  0  0  0  0  0
  146.2899  133.2486  154.5011 C   0  0  0  0  0  0  0  0  0  0  0  0
  147.0585  134.5751  154.3572 C   0  0  0  0  0  0  0  0  0  0  0  0
  146.6461  136.6590  158.5982 H   0  0  0  0  0  0  0  0  0  0  0  0
  146.3469  135.0605  159.2071 H   0  0  0  0  0  0  0  0  0  0  0  0
  146.6925  134.5187  161.2937 H   0  0  0  0  0  0  0  0  0  0  0  0
  147.4404  135.1269  163.6551 H   0  0  0  0  0  0  0  0  0  0  0  0
  148.7463  137.1902  163.9448 H   0  0  0  0  0  0  0  0  0  0  0  0
  146.9417  134.7509  156.8296 H   0  0  0  0  0  0  0  0  0  0  0  0
  149.8380  134.3293  156.4496 H   0  0  0  0  0  0  0  0  0  0  0  0
  148.7751  132.9947  156.3048 H   0  0  0  0  0  0  0  0  0  0  0  0
  147.5703  137.0143  154.8038 H   0  0  0  0  0  0  0  0  0  0  0  0
  148.7359  136.9242  156.1100 H   0  0  0  0  0  0  0  0  0  0  0  0
  149.1332  138.4071  153.4572 H   0  0  0  0  0  0  0  0  0  0  0  0
  148.8085  139.1359  155.0197 H   0  0  0  0  0  0  0  0  0  0  0  0
  151.2602  137.3453  153.1101 H   0  0  0  0  0  0  0  0  0  0  0  0
  152.3948  137.2631  154.4396 H   0  0  0  0  0  0  0  0  0  0  0  0
  150.9840  135.6586  155.6655 H   0  0  0  0  0  0  0  0  0  0  0  0
  151.2836  135.1047  154.0222 H   0  0  0  0  0  0  0  0  0  0  0  0
  149.1086  133.6693  152.6809 H   0  0  0  0  0  0  0  0  0  0  0  0
  150.2064  133.1593  153.9333 H   0  0  0  0  0  0  0  0  0  0  0  0
  148.8132  131.2897  153.1376 H   0  0  0  0  0  0  0  0  0  0  0  0
  148.5623  131.5771  154.8353 H   0  0  0  0  0  0  0  0  0  0  0  0
  146.7332  132.4424  152.5492 H   0  0  0  0  0  0  0  0  0  0  0  0
  146.3853  131.2201  153.7477 H   0  0  0  0  0  0  0  0  0  0  0  0
  145.2455  133.4037  154.2287 H   0  0  0  0  0  0  0  0  0  0  0  0
  146.2740  132.9087  155.5355 H   0  0  0  0  0  0  0  0  0  0  0  0
  146.5959  135.3467  154.9721 H   0  0  0  0  0  0  0  0  0  0  0  0
  146.8877  134.8732  153.3241 H   0  0  0  0  0  0  0  0  0  0  0  0
  149.1799  135.9342  153.3952 H   0  0  0  0  0  0  0  0  0  0  0  0
  1  2  2  0  0  0  0
  2  3  1  0  0  0  0
  2 11  1  0  0  0  0
  3  4  1  0  0  0  0
  3 25  1  0  0  0  0
  3 26  1  0  0  0  0
  4  9  1  0  0  0  0
  4  5  1  0  0  0  0
  5  6  2  0  0  0  0
  5 27  1  0  0  0  0
  6  7  1  0  0  0  0
  6 28  1  0  0  0  0
  7  8  2  0  0  0  0
  7 29  1  0  0  0  0
  8  9  1  0  0  0  0
  9 10  2  0  0  0  0
 11 12  1  0  0  0  0
 11 30  1  0  0  0  0
 12 13  1  0  0  0  0
 12 31  1  0  0  0  0
 12 32  1  0  0  0  0
 13 24  1  0  0  0  0
 13 14  1  0  0  0  0
 13 20  1  0  0  0  0
 14 19  1  0  0  0  0
 14 15  1  0  0  0  0
 14 51  1  0  0  0  0
 15 16  1  0  0  0  0
 15 33  1  0  0  0  0
 15 34  1  0  0  0  0
 16 17  1  0  0  0  0
 16 35  1  0  0  0  0
 16 36  1  0  0  0  0
 17 18  1  0  0  0  0
 18 19  1  0  0  0  0
 18 37  1  0  0  0  0
 18 38  1  0  0  0  0
 19 39  1  0  0  0  0
 19 40  1  0  0  0  0
 20 21  1  0  0  0  0
 20 41  1  0  0  0  0
 20 42  1  0  0  0  0
 21 22  1  0  0  0  0
 21 43  1  0  0  0  0
 21 44  1  0  0  0  0
 22 23  1  0  0  0  0
 22 45  1  0  0  0  0
 22 46  1  0  0  0  0
 23 24  1  0  0  0  0
 23 47  1  0  0  0  0
 23 48  1  0  0  0  0
 24 49  1  0  0  0  0
 24 50  1  0  0  0  0
M  CHG  1  14   1
M  END
> <s_m_source_file>
AV-unprocessed.smi

> <i_m_source_file_index>
2049

> <i_lp_mmshare_version>
43012

> <i_f3d_flags>
0

> <s_epik_input>
Tz1jMW5bY0hdW2NIXVtjSF1uMVtDSDJdQyg9TylbTkhdW0NIMl1DMihbQ0gyXVtDSDJdW0NIMl1bQ0gyXVtDSDJdMilOM1tDSDJdW0NIMl1PW0NIMl1bQ0gyXTM=

> <s_epik_cmdline>
J2VwaWtfcHl0aG9uJywgJy1waCcsICc3LjAnLCAnLXRuJywgJzgnLCAnLW1hJywgJzIwMCcsICctbWV0YWxfYmluZGluZycsICctaW1hZScsICc8aW5maWxlLm1hZT4nLCAnLW9tYWUnLCAnPG91dGZpbGUubWFlPic=

> <r_lp_tautomer_probability>
1

> <r_epik_Ionization_Penalty>
0.40042

> <r_epik_Ionization_Penalty_Charging>
0.400415

> <r_epik_Ionization_Penalty_Neutral>
5.09538e-06

> <r_epik_State_Penalty>
0.399732

> <r_epik_Charging_Adjusted_Penalty>
0.800147

> <i_epik_Tot_Q>
1

> <i_epik_Tot_abs_Q>
1

> <r_epik_Metal_State_Penalty>
0.399734

> <b_epik_Metal_Only>
0

> <s_lp_Force_Field>
OPLS_2005

> <r_lp_Energy>
43.1449

> <b_lp_Chiralities_Consistent>
1

> <s_lp_Variant>
AV-unprocessed.smi:2049-1

> <Gold.Version>
5.8.1

> <Gold.Id.Protein>
6NUR|6NUR_protein|mol2

> <Gold.PLP.Fitness>
50.4665

> <Gold.PLP.PLP>
-37.7857

> <Gold.PLP.part.hbond>
-4.9450

> <Gold.PLP.part.metal>
0.0000

> <Gold.PLP.part.buried>
-5.8452

> <Gold.PLP.part.nonpolar>
-29.1552

> <Gold.PLP.part.repulsive>
0.1230

> <Gold.PLP.ligand.clash>
0.0000

> <Gold.PLP.ligand.torsion>
0.6983

> <Gold.PLP.Chemscore.Hbond>
4.6480

> <Gold.PLP.Chemscore.CHOScore>
0.0000

> <Gold.PLP.Chemscore.Metal>
0.0000

> <Gold.Chemscore.Hbonds>
donor molecule, donor type, donor heavy atom, donor atom, acceptor molecule, acceptor atom, score
      L1  H    14    51       P1  7948  2.00
      P1  H  6896  6908       L1     1  1.00

> <Gold.PLP.Chemscore.Internal.Correction>
0.1335

> <Gold.Rescore>
     Score         DG    S(hbond)    S(metal)    S(lipo)     H(rot)  DE(clash)    DE(int)     intcor
     17.68     -19.20       2.91        0.00      78.36       2.02       0.05       1.47       ----

> <Gold.Chemscore.Fitness>
17.6780

> <Gold.Chemscore.DG>
-19.2027

> <Gold.Chemscore.ZeroCoef>
-5.4800

> <Gold.Chemscore.Hbond>
2.9090

> <Gold.Chemscore.Metal>
0.0000

> <Gold.Chemscore.Lipo>
78.3599

> <Gold.Chemscore.Internal_Hbond>
0.0000

> <Gold.Chemscore.DEClash>
0.0499

> <Gold.Chemscore.DEInternal>
1.4748

> <Gold.Chemscore.Rot>
2.0162

> <Gold.Chemscore.Internal.Correction>
   9.000000E+99

> <Gold.Chemscore.Hbonds>
donor molecule, donor type, donor heavy atom, donor atom, acceptor molecule, acceptor atom, score
      L1  H    14    51       P1  7948  0.75
      P1  H  6896  6908       L1     1  0.98

> <Gold.Chemscore.Hbond.Weighted>
-9.7160

> <Gold.Chemscore.Metal.Weighted>
-0.0000

> <Gold.Chemscore.Lipo.Weighted>
-9.1681

> <Gold.Chemscore.Internal_Hbond.Weighted>
0.0000

> <Gold.Chemscore.DEClash.Weighted>
0.0499

> <Gold.Chemscore.DEInternal.Weighted>
1.4748

> <Gold.Chemscore.Rot.Weighted>
5.1614

> <Gold.Chemscore.Internal.Correction.Weighted>
   9.000000E+99

> <Gold.Protein.RotatedTorsions>
[ 6907 6896 6895 6894 ] final  153.25 input  -60.11 | X-H torsion
[ 7974 7965 7964 7962 ] final  158.32 input  175.53 | X-H torsion
[ 8008 7997 7996 7995 ] final  123.85 input   59.86 | X-H torsion
[ 10167 10162 10161 10158 ] final   39.41 input  -65.29 | X-H torsion
[ 10718 10713 10712 10709 ] final   69.65 input   66.30 | X-H torsion
[ 10763 10752 10751 10750 ] final  -16.69 input  -60.55 | X-H torsion
[ 11005 11000 10999 10996 ] final   22.84 input  -57.11 | X-H torsion

> <Gold.Protein.ActiveResidues>
 VAL166  LYS551  ARG553  GLY616  TRP617  ASP618  TYR619  PRO620  LYS621  CYS622 
 ASP623  PHE694  ASN695  SER759  ASP760  ASP761  ALA762  ILE779  LEU786  VAL792 
 PHE793  MET794  SER795  GLU796  ALA797  LYS798  CYS799  TRP800  GLU811  SER814 

> <Gold.Protein.RotatedAtoms>
  152.0752  133.4126  159.4476 H   0  0  0  0  0  0  0  0  0  0  0  0  # atno 6907 bound_to 6896
  150.6863  134.3045  159.4729 H   0  0  0  0  0  0  0  0  0  0  0  0  # atno 6908 bound_to 6896
  152.0881  134.9425  160.0623 H   0  0  0  0  0  0  0  0  0  0  0  0  # atno 6909 bound_to 6896
  144.7852  139.7462  143.6243 H   0  0  0  0  0  0  0  0  0  0  0  0  # atno 7974 bound_to 7965
  156.2781  140.2753  156.1693 H   0  0  0  0  0  0  0  0  0  0  0  0  # atno 8008 bound_to 7997
  155.0671  140.0387  157.2614 H   0  0  0  0  0  0  0  0  0  0  0  0  # atno 8009 bound_to 7997
  154.7070  140.2661  155.6671 H   0  0  0  0  0  0  0  0  0  0  0  0  # atno 8010 bound_to 7997
  140.3842  144.1939  150.6130 H   0  0  0  0  0  0  0  0  0  0  0  0  # atno 10167 bound_to 10162
  157.6357  130.9437  150.0543 H   0  0  0  0  0  0  0  0  0  0  0  0  # atno 10718 bound_to 10713
  153.5624  135.7009  153.5541 H   0  0  0  0  0  0  0  0  0  0  0  0  # atno 10763 bound_to 10752
  153.3417  135.4019  155.1577 H   0  0  0  0  0  0  0  0  0  0  0  0  # atno 10764 bound_to 10752
  154.8646  135.3744  154.5142 H   0  0  0  0  0  0  0  0  0  0  0  0  # atno 10765 bound_to 10752
  140.3761  134.1970  155.7665 H   0  0  0  0  0  0  0  0  0  0  0  0  # atno 11005 bound_to 11000
  146.2081  139.5418  142.9699 LP  0  0  0  0  0  0  0  0  0  0  0  0  # atno 17320 bound_to 7965
  145.5941  141.0365  143.2054 LP  0  0  0  0  0  0  0  0  0  0  0  0  # atno 17321 bound_to 7965
  140.4906  143.2348  151.8823 LP  0  0  0  0  0  0  0  0  0  0  0  0  # atno 17342 bound_to 10162
  139.4793  144.5170  151.8855 LP  0  0  0  0  0  0  0  0  0  0  0  0  # atno 17343 bound_to 10162
  156.1595  130.3643  149.9320 LP  0  0  0  0  0  0  0  0  0  0  0  0  # atno 17370 bound_to 10713
  156.7321  130.9047  151.3626 LP  0  0  0  0  0  0  0  0  0  0  0  0  # atno 17371 bound_to 10713
  141.1939  133.8141  157.0781 LP  0  0  0  0  0  0  0  0  0  0  0  0  # atno 17394 bound_to 11000
  140.0514  134.9803  157.1143 LP  0  0  0  0  0  0  0  0  0  0  0  0  # atno 17395 bound_to 11000

$$$$
