#       Name:                AV-unprocessed.smi:1196
#       Creating user name   scv26
#       Creation time:       Fri Mar 27 04:02:07 2020


#       File generated by GOLD software.
#

@<TRIPOS>MOLECULE
AV-unprocessed.smi:1196
    44    45     1
SMALL
NO_CHARGES


@<TRIPOS>ATOM
      1 ****        -2.9942  -0.5915  -1.3327 C.3            1 S1                 0.0000
      2 ****        -2.4194   0.1771  -0.1322 C.3            1 S1                 0.0000
      3 ****        -3.0854  -0.2613   1.1868 C.3            1 S1                 0.0000
      4 ****        -2.6942   0.5729   2.3097 N.pl3          1 S1                 0.0000
      5 ****        -3.2622   1.7551   2.7351 C.2            1 S1                 0.0000
      6 ****        -2.5530   2.1787   3.8223 C.2            1 S1                 0.0000
      7 ****        -1.5566   1.1764   3.9871 C.2            1 S1                 0.0000
      8 ****        -1.6445   0.2156   3.0816 N.2            1 S1                 0.0000
      9 ****        -0.9742  -0.0252  -0.0578 N.am           1 S1                 0.0000
     10 ****        -0.0515   0.6801  -0.7295 C.2            1 S1                 0.0000
     11 ****        -0.3313   1.5912  -1.5088 O.2            1 S1                 0.0000
     12 ****         1.4095   0.3031  -0.4753 C.3            1 S1                 0.0000
     13 ****         2.1838   0.0490  -1.7820 C.3            1 S1                 0.0000
     14 ****         3.6591  -0.3290  -1.5443 C.3            1 S1                 0.0000
     15 ****         3.7738  -1.6390  -0.9401 N.am           1 S1                 0.0000
     16 ****         4.5023  -2.4599  -1.6939 C.2            1 S1                 0.0000
     17 ****         4.7364  -3.6164  -1.3503 O.2            1 S1                 0.0000
     18 ****         4.8973  -1.8304  -2.8173 N.pl3          1 S1                -1.0000
     19 ****         4.4447  -0.5580  -2.8354 C.2            1 S1                 0.0000
     20 ****         4.5908   0.3259  -3.6779 O.2            1 S1                 0.0000
     21 ****        -4.0705  -0.4393  -1.4162 H              1 S1                 0.0000
     22 ****        -2.8151  -1.6632  -1.2400 H              1 S1                 0.0000
     23 ****        -2.5440  -0.2585  -2.2684 H              1 S1                 0.0000
     24 ****        -2.6267   1.2390  -0.2784 H              1 S1                 0.0000
     25 ****        -4.1707  -0.2040   1.0931 H              1 S1                 0.0000
     26 ****        -2.8492  -1.3024   1.4140 H              1 S1                 0.0000
     27 ****        -4.1132   2.1917   2.2335 H              1 S1                 0.0000
     28 ****        -2.7197   3.0694   4.4096 H              1 S1                 0.0000
     29 ****        -0.7779   1.1182   4.7332 H              1 S1                 0.0000
     30 ****        -0.6497  -0.7489   0.5676 H              1 S1                 0.0000
     31 ****         1.8799   1.1126   0.0836 H              1 S1                 0.0000
     32 ****         1.4531  -0.5811   0.1625 H              1 S1                 0.0000
     33 ****         1.6881  -0.7329  -2.3605 H              1 S1                 0.0000
     34 ****         2.1482   0.9493  -2.3976 H              1 S1                 0.0000
     35 ****         4.1679   0.4157  -0.9311 H              1 S1                 0.0000
     36 ****         3.3680  -1.8803  -0.0484 H              1 S1                 0.0000
     37 ****        -1.0641  -0.5935   2.9892 LP             1 S1                 0.0000
     38 ****        -1.2874   1.8379  -1.6670 LP             1 S1                 0.0000
     39 ****         0.3975   2.0845  -1.9837 LP             1 S1                 0.0000
     40 ****         4.3765  -3.9632  -0.4842 LP             1 S1                 0.0000
     41 ****         5.2868  -4.2106  -1.9369 LP             1 S1                 0.0000
     42 ****         5.4498  -2.2478  -3.5388 LP             1 S1                 0.0000
     43 ****         4.1892   1.2296  -3.5294 LP             1 S1                 0.0000
     44 ****         5.1112   0.1410  -4.5116 LP             1 S1                 0.0000
@<TRIPOS>BOND
    1    1    2 1     
    2    1   21 1     
    3    1   22 1     
    4    1   23 1     
    5    2    3 1     
    6    2    9 1     
    7    2   24 1     
    8    3    4 1     
    9    3   25 1     
   10    3   26 1     
   11    4    8 1     
   12    4    5 1     
   13    5    6 2     
   14    5   27 1     
   15    6    7 1     
   16    6   28 1     
   17    7    8 2     
   18    7   29 1     
   19    9   10 am    
   20    9   30 1     
   21   10   11 2     
   22   10   12 1     
   23   12   13 1     
   24   12   31 1     
   25   12   32 1     
   26   13   14 1     
   27   13   33 1     
   28   13   34 1     
   29   14   19 1     
   30   14   15 1     
   31   14   35 1     
   32   15   16 am    
   33   15   36 1     
   34   16   17 2     
   35   16   18 1     
   36   18   19 1     
   37   19   20 2     
   38    8   37 1     
   39   11   38 1     
   40   11   39 1     
   41   17   40 1     
   42   17   41 1     
   43   18   42 1     
   44   20   43 1     
   45   20   44 1     
@<TRIPOS>SUBSTRUCTURE
      1 S1             1
@<TRIPOS>SET
LONE_PAIRS      STATIC     ATOMS    <user>   **** ""
8 37 38 39 40 41 42 43 44
DONOR_HYDROGENS      STATIC     ATOMS    <user>   **** ""
2 30 36
ATOM$BLUE        STATIC     ATOMS    COLORGROUP SYSTEM
8 37 38 39 40 41 42 43 44
ATOM$RED        STATIC     ATOMS    COLORGROUP SYSTEM
2 30 36
