AV-unprocessed.smi:57|AV-procd|sdf|582|dock1
  -GOLD-   2262016483D 1   1.00000     0.00000
 Structure written by MMmdl.
 26 27  0  0  0  0  0  0  0  0  2 V2000
  151.5182  137.0904  153.5374 N   0  0  0  0  0  0  0  0  0  0  0  0
  151.3132  138.1816  154.3531 C   0  0  0  0  0  0  0  0  0  0  0  0
  152.2393  138.2575  155.4035 N   0  5  0  0  0  0  0  0  0  0  0  0
  152.1814  139.2844  156.3055 C   0  0  0  0  0  0  0  0  0  0  0  0
  152.9459  139.4422  157.2555 O   0  0  0  0  0  0  0  0  0  0  0  0
  151.0927  140.2666  156.0846 C   0  0  0  0  0  0  0  0  0  0  0  0
  150.7270  141.4162  156.7766 N   0  0  0  0  0  0  0  0  0  0  0  0
  149.6804  141.8448  156.0716 C   0  0  0  0  0  0  0  0  0  0  0  0
  149.3499  141.0836  155.0105 N   0  0  0  0  0  0  0  0  0  0  0  0
  148.2715  141.3054  154.0694 C   0  0  0  0  0  0  0  0  0  0  0  0
  147.9855  140.0878  153.4672 O   0  0  0  0  0  0  0  0  0  0  0  0
  146.9415  140.1689  152.5126 C   0  0  0  0  0  0  0  0  0  0  0  0
  146.4424  138.7508  152.2188 C   0  0  0  0  0  0  0  0  0  0  0  0
  147.3364  138.0945  151.3464 O   0  0  0  0  0  0  0  0  0  0  0  0
  150.2721  140.0451  155.0121 C   0  0  0  0  0  0  0  0  0  0  0  0
  150.3305  139.0101  154.0976 N   0  0  0  0  0  0  0  0  0  0  0  0
  152.2546  136.4160  153.6838 H   0  0  0  0  0  0  0  0  0  0  0  0
  150.9414  136.8868  152.7346 H   0  0  0  0  0  0  0  0  0  0  0  0
  149.1387  142.7413  156.3343 H   0  0  0  0  0  0  0  0  0  0  0  0
  148.5808  142.0384  153.3230 H   0  0  0  0  0  0  0  0  0  0  0  0
  147.4123  141.6884  154.6232 H   0  0  0  0  0  0  0  0  0  0  0  0
  146.1243  140.7799  152.8997 H   0  0  0  0  0  0  0  0  0  0  0  0
  147.3068  140.6411  151.5989 H   0  0  0  0  0  0  0  0  0  0  0  0
  146.3555  138.1761  153.1414 H   0  0  0  0  0  0  0  0  0  0  0  0
  145.4542  138.7824  151.7590 H   0  0  0  0  0  0  0  0  0  0  0  0
  147.6484  137.3110  151.7728 H   0  0  0  0  0  0  0  0  0  0  0  0
  1  2  1  0  0  0  0
  1 18  1  0  0  0  0
  1 17  1  0  0  0  0
  2 16  2  0  0  0  0
  2  3  1  0  0  0  0
  3  4  1  0  0  0  0
  4  5  2  0  0  0  0
  4  6  1  0  0  0  0
  6 15  2  0  0  0  0
  6  7  1  0  0  0  0
  7  8  2  0  0  0  0
  8 19  1  0  0  0  0
  8  9  1  0  0  0  0
  9 10  1  0  0  0  0
  9 15  1  0  0  0  0
 10 11  1  0  0  0  0
 10 20  1  0  0  0  0
 10 21  1  0  0  0  0
 11 12  1  0  0  0  0
 12 13  1  0  0  0  0
 12 22  1  0  0  0  0
 12 23  1  0  0  0  0
 13 14  1  0  0  0  0
 13 24  1  0  0  0  0
 13 25  1  0  0  0  0
 14 26  1  0  0  0  0
 15 16  1  0  0  0  0
M  CHG  1   3  -1
M  END
> <s_m_source_file>
AV-unprocessed.smi

> <i_m_source_file_index>
57

> <i_lp_mmshare_version>
43012

> <i_f3d_flags>
0

> <s_epik_input>
Tz1jMW5jKFtOSDJdKVtuSF1jKGMxMiluKFtjSF1uMilbQ0gyXU9bQ0gyXVtDSDJdW09IXQ==

> <s_epik_cmdline>
J2VwaWtfcHl0aG9uJywgJy1waCcsICc3LjAnLCAnLXRuJywgJzgnLCAnLW1hJywgJzIwMCcsICctbWV0YWxfYmluZGluZycsICctaW1hZScsICc8aW5maWxlLm1hZT4nLCAnLW9tYWUnLCAnPG91dGZpbGUubWFlPic=

> <r_lp_tautomer_probability>
1

> <r_epik_Ionization_Penalty>
3.57731

> <r_epik_Ionization_Penalty_Charging>
1.28925e-10

> <r_epik_Ionization_Penalty_Neutral>
3.57731

> <r_epik_State_Penalty>
3.56652

> <r_epik_Charging_Adjusted_Penalty>
3.56652

> <i_epik_Tot_Q>
-1

> <i_epik_Tot_abs_Q>
1

> <r_epik_Metal_State_Penalty>
0.520711

> <b_epik_Metal_Only>
1

> <s_epik_Chemistry_Notes>
This compound contains an acetal/aminal-like group ( X-CH(R)-Y where X, Y are N, S, or O) that may be acid/base labile, releasing an aldehyde.

> <s_lp_Force_Field>
OPLS_2005

> <r_lp_Energy>
17.0797

> <b_lp_Chiralities_Consistent>
1

> <s_lp_Variant>
AV-unprocessed.smi:57-2

> <Gold.Version>
5.8.1

> <Gold.Id.Protein>
6NUR|6NUR_protein|mol2

> <Gold.PLP.Fitness>
39.7488

> <Gold.PLP.PLP>
-27.1866

> <Gold.PLP.part.hbond>
-5.1361

> <Gold.PLP.part.metal>
0.0000

> <Gold.PLP.part.buried>
0.1835

> <Gold.PLP.part.nonpolar>
-24.7447

> <Gold.PLP.part.repulsive>
2.8770

> <Gold.PLP.ligand.clash>
0.0000

> <Gold.PLP.ligand.torsion>
0.4455

> <Gold.PLP.Chemscore.Hbond>
3.4840

> <Gold.PLP.Chemscore.CHOScore>
1.0000

> <Gold.PLP.Chemscore.Metal>
0.0000

> <Gold.Chemscore.Hbonds>
donor molecule, donor type, donor heavy atom, donor atom, acceptor molecule, acceptor atom, score
      L1  H     1    18       P1  7949  0.56
      L1  H    14    26       P1  7948  0.85
      P1  H  7954  7966       L1    14  0.85
      P1  H  7997  8009       L1     5  1.00
      L1  C     8    19       P1  8028  1.00

> <Gold.PLP.Chemscore.Internal.Correction>
0.0011

> <Gold.Rescore>
     Score         DG    S(hbond)    S(metal)    S(lipo)     H(rot)  DE(clash)    DE(int)     intcor
      1.71      -4.25       1.72        0.00      22.03       3.73       0.52       2.02       ----

> <Gold.Chemscore.Fitness>
1.7079

> <Gold.Chemscore.DG>
-4.2486

> <Gold.Chemscore.ZeroCoef>
-5.4800

> <Gold.Chemscore.Hbond>
1.7155

> <Gold.Chemscore.Metal>
0.0000

> <Gold.Chemscore.Lipo>
22.0317

> <Gold.Chemscore.Internal_Hbond>
0.0000

> <Gold.Chemscore.DEClash>
0.5226

> <Gold.Chemscore.DEInternal>
2.0181

> <Gold.Chemscore.Rot>
3.7262

> <Gold.Chemscore.Internal.Correction>
   9.000000E+99

> <Gold.Chemscore.Hbonds>
donor molecule, donor type, donor heavy atom, donor atom, acceptor molecule, acceptor atom, score
      L1  H     1    18       P1  7949  0.09
      L1  H    14    26       P1  7948  0.83
      P1  H  7954  7966       L1    14  0.15
      P1  H  7997  8009       L1     5  0.65

> <Gold.Chemscore.Hbond.Weighted>
-5.7298

> <Gold.Chemscore.Metal.Weighted>
-0.0000

> <Gold.Chemscore.Lipo.Weighted>
-2.5777

> <Gold.Chemscore.Internal_Hbond.Weighted>
0.0000

> <Gold.Chemscore.DEClash.Weighted>
0.5226

> <Gold.Chemscore.DEInternal.Weighted>
2.0181

> <Gold.Chemscore.Rot.Weighted>
9.5390

> <Gold.Chemscore.Internal.Correction.Weighted>
   9.000000E+99

> <Gold.Protein.RotatedTorsions>
[ 6907 6896 6895 6894 ] final  -92.74 input  -60.11 | X-H torsion
[ 7974 7965 7964 7962 ] final  -78.92 input  175.53 | X-H torsion
[ 8008 7997 7996 7995 ] final  178.90 input   59.86 | X-H torsion
[ 10167 10162 10161 10158 ] final   62.85 input  -65.29 | X-H torsion
[ 10718 10713 10712 10709 ] final   81.26 input   66.30 | X-H torsion
[ 10763 10752 10751 10750 ] final  155.99 input  -60.55 | X-H torsion
[ 11005 11000 10999 10996 ] final -102.10 input  -57.11 | X-H torsion

> <Gold.Protein.ActiveResidues>
 VAL166  LYS551  ARG553  GLY616  TRP617  ASP618  TYR619  PRO620  LYS621  CYS622 
 ASP623  PHE694  ASN695  SER759  ASP760  ASP761  ALA762  ILE779  LEU786  VAL792 
 PHE793  MET794  SER795  GLU796  ALA797  LYS798  CYS799  TRP800  GLU811  SER814 

> <Gold.Protein.RotatedAtoms>
  150.6911  134.2076  159.4346 H   0  0  0  0  0  0  0  0  0  0  0  0  # atno 6907 bound_to 6896
  152.0039  134.9911  160.0575 H   0  0  0  0  0  0  0  0  0  0  0  0  # atno 6908 bound_to 6896
  152.1553  133.4512  159.4870 H   0  0  0  0  0  0  0  0  0  0  0  0  # atno 6909 bound_to 6896
  145.5801  140.9450  143.1349 H   0  0  0  0  0  0  0  0  0  0  0  0  # atno 7974 bound_to 7965
  156.0494  140.1322  157.0067 H   0  0  0  0  0  0  0  0  0  0  0  0  # atno 8008 bound_to 7997
  154.4428  140.1014  156.6425 H   0  0  0  0  0  0  0  0  0  0  0  0  # atno 8009 bound_to 7997
  155.5546  140.3463  155.4479 H   0  0  0  0  0  0  0  0  0  0  0  0  # atno 8010 bound_to 7997
  140.1394  144.4568  150.6819 H   0  0  0  0  0  0  0  0  0  0  0  0  # atno 10167 bound_to 10162
  157.6828  130.9996  150.2201 H   0  0  0  0  0  0  0  0  0  0  0  0  # atno 10718 bound_to 10713
  154.1772  135.2801  155.3063 H   0  0  0  0  0  0  0  0  0  0  0  0  # atno 10763 bound_to 10752
  154.6030  135.5523  153.7397 H   0  0  0  0  0  0  0  0  0  0  0  0  # atno 10764 bound_to 10752
  153.0148  135.6396  154.1911 H   0  0  0  0  0  0  0  0  0  0  0  0  # atno 10765 bound_to 10752
  141.1203  133.8531  157.1316 H   0  0  0  0  0  0  0  0  0  0  0  0  # atno 11005 bound_to 11000
  144.7398  139.7481  143.7315 LP  0  0  0  0  0  0  0  0  0  0  0  0  # atno 17320 bound_to 7965
  146.1723  139.4878  142.9920 LP  0  0  0  0  0  0  0  0  0  0  0  0  # atno 17321 bound_to 7965
  140.6769  143.2309  151.5483 LP  0  0  0  0  0  0  0  0  0  0  0  0  # atno 17342 bound_to 10162
  139.5479  144.2471  152.1477 LP  0  0  0  0  0  0  0  0  0  0  0  0  # atno 17343 bound_to 10162
  156.2854  130.3739  149.7894 LP  0  0  0  0  0  0  0  0  0  0  0  0  # atno 17370 bound_to 10713
  156.5569  130.8366  151.3317 LP  0  0  0  0  0  0  0  0  0  0  0  0  # atno 17371 bound_to 10713
  140.0156  134.9969  157.0486 LP  0  0  0  0  0  0  0  0  0  0  0  0  # atno 17394 bound_to 11000
  140.4526  134.1567  155.7183 LP  0  0  0  0  0  0  0  0  0  0  0  0  # atno 17395 bound_to 11000

$$$$
