AV-unprocessed.smi:2026|AV-procd|sdf|8204|dock2
  -GOLD-   2272010463D 1   1.00000     0.00000
 Structure written by MMmdl.
 47 49  0  0  0  0  0  0  0  0  2 V2000
  152.5579  144.6167  160.1492 C   0  0  0  0  0  0  0  0  0  0  0  0
  152.2068  143.4819  159.2023 C   0  0  0  0  0  0  0  0  0  0  0  0
  151.3244  143.7467  158.1309 C   0  0  0  0  0  0  0  0  0  0  0  0
  151.0205  142.6883  157.2830 C   0  0  0  0  0  0  0  0  0  0  0  0
  150.1998  142.6291  156.1548 N   0  3  0  0  0  0  0  0  0  0  0  0
  150.2150  141.3654  155.6481 C   0  0  0  0  0  0  0  0  0  0  0  0
  151.0318  140.6159  156.4368 N   0  0  0  0  0  0  0  0  0  0  0  0
  151.3944  139.1957  156.3232 C   0  0  0  0  0  0  0  0  0  0  0  0
  151.2138  138.4296  157.6481 C   0  0  1  0  0  0  0  0  0  0  0  0
  149.8568  138.5080  158.0398 O   0  0  0  0  0  0  0  0  0  0  0  0
  151.6018  136.9437  157.5051 C   0  0  0  0  0  0  0  0  0  0  0  0
  150.6842  136.2231  156.6167 N   0  0  0  0  0  0  0  0  0  0  0  0
  150.6696  136.3479  155.2779 C   0  0  0  0  0  0  0  0  0  0  0  0
  151.4167  137.0518  154.6000 O   0  0  0  0  0  0  0  0  0  0  0  0
  149.6907  135.5719  154.7941 N   0  0  0  0  0  0  0  0  0  0  0  0
  148.9663  134.8627  155.8319 C   0  0  0  0  0  0  0  0  0  0  0  0
  147.4900  135.2971  155.8653 C   0  0  0  0  0  0  0  0  0  0  0  0
  149.1233  133.3401  155.6705 C   0  0  0  0  0  0  0  0  0  0  0  0
  149.7301  135.3831  157.0399 C   0  0  0  0  0  0  0  0  0  0  0  0
  149.4775  135.0707  158.2038 O   0  0  0  0  0  0  0  0  0  0  0  0
  151.5593  141.4002  157.4700 C   0  0  0  0  0  0  0  0  0  0  0  0
  152.4330  141.1239  158.5197 C   0  0  0  0  0  0  0  0  0  0  0  0
  152.7561  142.1875  159.3925 C   0  0  0  0  0  0  0  0  0  0  0  0
  153.7093  141.9151  160.5438 C   0  0  0  0  0  0  0  0  0  0  0  0
  152.0166  145.5289  159.8965 H   0  0  0  0  0  0  0  0  0  0  0  0
  153.6245  144.8376  160.1021 H   0  0  0  0  0  0  0  0  0  0  0  0
  152.3029  144.3531  161.1759 H   0  0  0  0  0  0  0  0  0  0  0  0
  150.9046  144.7303  157.9778 H   0  0  0  0  0  0  0  0  0  0  0  0
  149.6784  141.0205  154.7759 H   0  0  0  0  0  0  0  0  0  0  0  0
  150.8263  138.7352  155.5147 H   0  0  0  0  0  0  0  0  0  0  0  0
  152.4407  139.1610  156.0171 H   0  0  0  0  0  0  0  0  0  0  0  0
  151.8253  138.9092  158.4139 H   0  0  0  0  0  0  0  0  0  0  0  0
  149.4723  137.6479  157.9673 H   0  0  0  0  0  0  0  0  0  0  0  0
  152.6371  136.8417  157.1742 H   0  0  0  0  0  0  0  0  0  0  0  0
  151.5685  136.4622  158.4841 H   0  0  0  0  0  0  0  0  0  0  0  0
  149.4638  135.4884  153.8138 H   0  0  0  0  0  0  0  0  0  0  0  0
  146.9436  134.7787  156.6539 H   0  0  0  0  0  0  0  0  0  0  0  0
  146.9944  135.0729  154.9202 H   0  0  0  0  0  0  0  0  0  0  0  0
  147.3879  136.3688  156.0431 H   0  0  0  0  0  0  0  0  0  0  0  0
  148.5968  132.8024  156.4601 H   0  0  0  0  0  0  0  0  0  0  0  0
  150.1703  133.0350  155.7055 H   0  0  0  0  0  0  0  0  0  0  0  0
  148.7158  133.0037  154.7166 H   0  0  0  0  0  0  0  0  0  0  0  0
  152.8551  140.1411  158.6654 H   0  0  0  0  0  0  0  0  0  0  0  0
  154.0818  140.8904  160.5203 H   0  0  0  0  0  0  0  0  0  0  0  0
  153.2070  142.0656  161.4998 H   0  0  0  0  0  0  0  0  0  0  0  0
  154.5706  142.5819  160.4953 H   0  0  0  0  0  0  0  0  0  0  0  0
  149.6698  143.3936  155.7566 H   0  0  0  0  0  0  0  0  0  0  0  0
  1  2  1  0  0  0  0
  1 25  1  0  0  0  0
  1 26  1  0  0  0  0
  1 27  1  0  0  0  0
  2 23  1  0  0  0  0
  2  3  2  0  0  0  0
  3  4  1  0  0  0  0
  3 28  1  0  0  0  0
  4 21  2  0  0  0  0
  4  5  1  0  0  0  0
  5  6  2  0  0  0  0
  5 47  1  0  0  0  0
  6  7  1  0  0  0  0
  6 29  1  0  0  0  0
  7  8  1  0  0  0  0
  7 21  1  0  0  0  0
  8  9  1  0  0  0  0
  8 30  1  0  0  0  0
  8 31  1  0  0  0  0
  9 10  1  0  0  0  0
  9 11  1  0  0  0  0
  9 32  1  0  0  0  0
 10 33  1  0  0  0  0
 11 12  1  0  0  0  0
 11 34  1  0  0  0  0
 11 35  1  0  0  0  0
 12 19  1  0  0  0  0
 12 13  1  0  0  0  0
 13 14  2  0  0  0  0
 13 15  1  0  0  0  0
 15 16  1  0  0  0  0
 15 36  1  0  0  0  0
 16 17  1  0  0  0  0
 16 18  1  0  0  0  0
 16 19  1  0  0  0  0
 17 37  1  0  0  0  0
 17 38  1  0  0  0  0
 17 39  1  0  0  0  0
 18 40  1  0  0  0  0
 18 41  1  0  0  0  0
 18 42  1  0  0  0  0
 19 20  2  0  0  0  0
 21 22  1  0  0  0  0
 22 23  2  0  0  0  0
 22 43  1  0  0  0  0
 23 24  1  0  0  0  0
 24 44  1  0  0  0  0
 24 45  1  0  0  0  0
 24 46  1  0  0  0  0
M  CHG  1   5   1
M  END
> <s_m_source_file>
AV-unprocessed.smi

> <i_m_source_file_index>
2026

> <i_lp_mmshare_version>
43012

> <i_f3d_flags>
0

> <s_epik_input>
W0NIM11jKFtjSF0xKWMoW0NIM10pW2NIXWMoYzEyKW4oW2NIXW4yKVtDSDJdW0NASF0oW09IXSlbQ0gyXU4oQzM9TylDKD1PKVtOSF1DMyhbQ0gzXSlbQ0gzXQ==

> <s_epik_cmdline>
J2VwaWtfcHl0aG9uJywgJy1waCcsICc3LjAnLCAnLXRuJywgJzgnLCAnLW1hJywgJzIwMCcsICctbWV0YWxfYmluZGluZycsICctaW1hZScsICc8aW5maWxlLm1hZT4nLCAnLW9tYWUnLCAnPG91dGZpbGUubWFlPic=

> <r_lp_tautomer_probability>
1

> <r_epik_Ionization_Penalty>
1.08255

> <r_epik_Ionization_Penalty_Charging>
1.08249

> <r_epik_Ionization_Penalty_Neutral>
6.65731e-05

> <r_epik_State_Penalty>
1.13805

> <r_epik_Charging_Adjusted_Penalty>
2.22054

> <i_epik_Tot_Q>
1

> <i_epik_Tot_abs_Q>
1

> <r_epik_Metal_State_Penalty>
1.29676

> <b_epik_Metal_Only>
0

> <s_lp_Force_Field>
OPLS_2005

> <r_lp_Energy>
29.7067

> <b_lp_Chiralities_Consistent>
1

> <s_lp_Variant>
AV-unprocessed.smi:2026-4

> <Gold.Version>
5.8.1

> <Gold.Id.Protein>
6NUR|6NUR_protein|mol2

> <Gold.PLP.Fitness>
54.8929

> <Gold.PLP.PLP>
-41.3584

> <Gold.PLP.part.hbond>
-3.9204

> <Gold.PLP.part.metal>
0.0000

> <Gold.PLP.part.buried>
-6.9638

> <Gold.PLP.part.nonpolar>
-32.9440

> <Gold.PLP.part.repulsive>
0.3281

> <Gold.PLP.ligand.clash>
0.0000

> <Gold.PLP.ligand.torsion>
0.2982

> <Gold.PLP.Chemscore.Hbond>
4.7000

> <Gold.PLP.Chemscore.CHOScore>
0.0000

> <Gold.PLP.Chemscore.Metal>
0.0000

> <Gold.Chemscore.Hbonds>
donor molecule, donor type, donor heavy atom, donor atom, acceptor molecule, acceptor atom, score
      L1  H     5    47       P1  8028  2.00
      L1  H    15    36       P1  7948  0.80
      P1  H  6896  6909       L1    20  1.00
      P1  H 10752 10763       L1    14  0.78

> <Gold.PLP.Chemscore.Internal.Correction>
0.0309

> <Gold.Rescore>
     Score         DG    S(hbond)    S(metal)    S(lipo)     H(rot)  DE(clash)    DE(int)     intcor
     18.82     -20.50       2.95        0.00      98.85       2.49       0.08       1.61       ----

> <Gold.Chemscore.Fitness>
18.8164

> <Gold.Chemscore.DG>
-20.5011

> <Gold.Chemscore.ZeroCoef>
-5.4800

> <Gold.Chemscore.Hbond>
2.9453

> <Gold.Chemscore.Metal>
0.0000

> <Gold.Chemscore.Lipo>
98.8510

> <Gold.Chemscore.Internal_Hbond>
0.0000

> <Gold.Chemscore.DEClash>
0.0754

> <Gold.Chemscore.DEInternal>
1.6093

> <Gold.Chemscore.Rot>
2.4929

> <Gold.Chemscore.Internal.Correction>
   9.000000E+99

> <Gold.Chemscore.Hbonds>
donor molecule, donor type, donor heavy atom, donor atom, acceptor molecule, acceptor atom, score
      L1  H     5    47       P1  8028  0.94
      L1  H    15    36       P1  7948  0.23
      P1  H  6896  6909       L1    20  0.95
      P1  H 10752 10763       L1    14  0.23

> <Gold.Chemscore.Hbond.Weighted>
-9.8374

> <Gold.Chemscore.Metal.Weighted>
-0.0000

> <Gold.Chemscore.Lipo.Weighted>
-11.5656

> <Gold.Chemscore.Internal_Hbond.Weighted>
0.0000

> <Gold.Chemscore.DEClash.Weighted>
0.0754

> <Gold.Chemscore.DEInternal.Weighted>
1.6093

> <Gold.Chemscore.Rot.Weighted>
6.3819

> <Gold.Chemscore.Internal.Correction.Weighted>
   9.000000E+99

> <Gold.Protein.RotatedTorsions>
[ 6907 6896 6895 6894 ] final   22.54 input  -60.11 | X-H torsion
[ 7974 7965 7964 7962 ] final  -42.75 input  175.53 | X-H torsion
[ 8008 7997 7996 7995 ] final  -93.48 input   59.86 | X-H torsion
[ 10167 10162 10161 10158 ] final -101.93 input  -65.29 | X-H torsion
[ 10718 10713 10712 10709 ] final   57.60 input   66.30 | X-H torsion
[ 10763 10752 10751 10750 ] final   33.24 input  -60.55 | X-H torsion
[ 11005 11000 10999 10996 ] final -102.38 input  -57.11 | X-H torsion

> <Gold.Protein.ActiveResidues>
 VAL166  LYS551  ARG553  GLY616  TRP617  ASP618  TYR619  PRO620  LYS621  CYS622 
 ASP623  PHE694  ASN695  SER759  ASP760  ASP761  ALA762  ILE779  LEU786  VAL792 
 PHE793  MET794  SER795  GLU796  ALA797  LYS798  CYS799  TRP800  GLU811  SER814 

> <Gold.Protein.RotatedAtoms>
  151.9287  135.0266  160.0527 H   0  0  0  0  0  0  0  0  0  0  0  0  # atno 6907 bound_to 6896
  152.2137  133.4926  159.5132 H   0  0  0  0  0  0  0  0  0  0  0  0  # atno 6908 bound_to 6896
  150.6982  134.1350  159.4126 H   0  0  0  0  0  0  0  0  0  0  0  0  # atno 6909 bound_to 6896
  146.0086  140.6991  142.9235 H   0  0  0  0  0  0  0  0  0  0  0  0  # atno 7974 bound_to 7965
  154.7363  140.0498  157.0771 H   0  0  0  0  0  0  0  0  0  0  0  0  # atno 8008 bound_to 7997
  155.0237  140.3150  155.4765 H   0  0  0  0  0  0  0  0  0  0  0  0  # atno 8009 bound_to 7997
  156.2853  140.2162  156.5356 H   0  0  0  0  0  0  0  0  0  0  0  0  # atno 8010 bound_to 7997
  140.2361  143.3572  152.0843 H   0  0  0  0  0  0  0  0  0  0  0  0  # atno 10167 bound_to 10162
  157.5528  130.8778  149.8990 H   0  0  0  0  0  0  0  0  0  0  0  0  # atno 10718 bound_to 10713
  153.0221  135.6392  154.1481 H   0  0  0  0  0  0  0  0  0  0  0  0  # atno 10763 bound_to 10752
  154.1214  135.2846  155.3209 H   0  0  0  0  0  0  0  0  0  0  0  0  # atno 10764 bound_to 10752
  154.6260  135.5508  153.7690 H   0  0  0  0  0  0  0  0  0  0  0  0  # atno 10765 bound_to 10752
  141.1192  133.8553  157.1352 H   0  0  0  0  0  0  0  0  0  0  0  0  # atno 11005 bound_to 11000
  144.6944  140.3358  143.7208 LP  0  0  0  0  0  0  0  0  0  0  0  0  # atno 17320 bound_to 7965
  145.7377  139.1755  143.2394 LP  0  0  0  0  0  0  0  0  0  0  0  0  # atno 17321 bound_to 7965
  139.5093  144.6865  151.5874 LP  0  0  0  0  0  0  0  0  0  0  0  0  # atno 17342 bound_to 10162
  140.6149  143.9368  150.6481 LP  0  0  0  0  0  0  0  0  0  0  0  0  # atno 17343 bound_to 10162
  156.0592  130.3703  150.1021 LP  0  0  0  0  0  0  0  0  0  0  0  0  # atno 17370 bound_to 10713
  156.9192  130.9677  151.3551 LP  0  0  0  0  0  0  0  0  0  0  0  0  # atno 17371 bound_to 10713
  140.0136  134.9977  157.0446 LP  0  0  0  0  0  0  0  0  0  0  0  0  # atno 17394 bound_to 11000
  140.4558  134.1535  155.7186 LP  0  0  0  0  0  0  0  0  0  0  0  0  # atno 17395 bound_to 11000

$$$$
