AV-unprocessed.smi:2168|AV-procd|sdf|8819|dock9
  -GOLD-   2272012 13D 1   1.00000     0.00000
 Structure written by MMmdl.
 47 48  0  0  0  0  0  0  0  0  2 V2000
  150.6855  140.3733  157.4282 C   0  0  0  0  0  0  0  0  0  0  0  0
  151.8269  139.4336  157.8436 C   0  0  0  0  0  0  0  0  0  0  0  0
  151.9399  138.2481  156.9724 N   0  0  0  0  0  0  0  0  0  0  0  0
  152.2773  138.4911  155.5558 C   0  0  0  0  0  0  0  0  0  0  0  0
  151.1537  138.0781  154.5914 C   0  0  0  0  0  0  0  0  0  0  0  0
  152.1354  136.6665  157.6653 S   0  0  0  0  0  0  0  0  0  0  0  0
  153.5033  136.1901  157.4104 O   0  0  0  0  0  0  0  0  0  0  0  0
  151.5766  136.6697  159.0263 O   0  0  0  0  0  0  0  0  0  0  0  0
  151.0690  135.7758  156.6453 N   0  0  0  0  0  0  0  0  0  0  0  0
  151.0379  134.3182  156.7339 C   0  0  0  0  0  0  0  0  0  0  0  0
  150.1251  133.6973  155.6941 C   0  0  0  0  0  0  0  0  0  0  0  0
  149.8082  132.3239  155.7402 C   0  0  0  0  0  0  0  0  0  0  0  0
  148.9364  131.7804  154.7741 C   0  0  0  0  0  0  0  0  0  0  0  0
  148.3869  132.6142  153.7697 C   0  0  0  0  0  0  0  0  0  0  0  0
  147.5011  132.1272  152.7842 N   0  0  0  0  0  0  0  0  0  0  0  0
  146.6941  133.1304  152.0942 C   0  0  0  0  0  0  0  0  0  0  0  0
  146.0273  132.5183  150.8506 C   0  0  0  0  0  0  0  0  0  0  0  0
  145.2822  131.3642  151.2233 O   0  0  0  0  0  0  0  0  0  0  0  0
  146.1146  130.3542  151.7821 C   0  0  0  0  0  0  0  0  0  0  0  0
  146.7830  130.8848  153.0615 C   0  0  0  0  0  0  0  0  0  0  0  0
  148.7241  133.9284  153.7718 N   0  3  0  0  0  0  0  0  0  0  0  0
  149.5577  134.4881  154.6745 C   0  0  0  0  0  0  0  0  0  0  0  0
  150.6699  141.2571  158.0661 H   0  0  0  0  0  0  0  0  0  0  0  0
  149.7130  139.8911  157.5231 H   0  0  0  0  0  0  0  0  0  0  0  0
  150.7970  140.7161  156.4000 H   0  0  0  0  0  0  0  0  0  0  0  0
  152.7703  139.9790  157.8390 H   0  0  0  0  0  0  0  0  0  0  0  0
  151.6757  139.1043  158.8721 H   0  0  0  0  0  0  0  0  0  0  0  0
  152.4936  139.5519  155.4271 H   0  0  0  0  0  0  0  0  0  0  0  0
  153.1961  137.9621  155.3004 H   0  0  0  0  0  0  0  0  0  0  0  0
  151.4765  138.1983  153.5572 H   0  0  0  0  0  0  0  0  0  0  0  0
  150.2658  138.6957  154.7232 H   0  0  0  0  0  0  0  0  0  0  0  0
  150.8605  137.0376  154.7249 H   0  0  0  0  0  0  0  0  0  0  0  0
  151.0192  136.1381  155.6932 H   0  0  0  0  0  0  0  0  0  0  0  0
  152.0477  133.9379  156.5782 H   0  0  0  0  0  0  0  0  0  0  0  0
  150.7404  134.0226  157.7409 H   0  0  0  0  0  0  0  0  0  0  0  0
  150.2178  131.6917  156.5146 H   0  0  0  0  0  0  0  0  0  0  0  0
  148.6835  130.7324  154.8312 H   0  0  0  0  0  0  0  0  0  0  0  0
  145.9321  133.5011  152.7808 H   0  0  0  0  0  0  0  0  0  0  0  0
  147.2899  133.9884  151.7870 H   0  0  0  0  0  0  0  0  0  0  0  0
  145.3538  133.2423  150.3920 H   0  0  0  0  0  0  0  0  0  0  0  0
  146.7730  132.2567  150.0982 H   0  0  0  0  0  0  0  0  0  0  0  0
  145.5067  129.4790  152.0114 H   0  0  0  0  0  0  0  0  0  0  0  0
  146.8632  130.0396  151.0531 H   0  0  0  0  0  0  0  0  0  0  0  0
  147.4678  130.1285  153.4470 H   0  0  0  0  0  0  0  0  0  0  0  0
  146.0295  131.0667  153.8289 H   0  0  0  0  0  0  0  0  0  0  0  0
  149.7341  135.5480  154.5618 H   0  0  0  0  0  0  0  0  0  0  0  0
  148.3254  134.5297  153.0507 H   0  0  0  0  0  0  0  0  0  0  0  0
  1  2  1  0  0  0  0
  1 23  1  0  0  0  0
  1 24  1  0  0  0  0
  1 25  1  0  0  0  0
  2  3  1  0  0  0  0
  2 26  1  0  0  0  0
  2 27  1  0  0  0  0
  3  4  1  0  0  0  0
  3  6  1  0  0  0  0
  4  5  1  0  0  0  0
  4 28  1  0  0  0  0
  4 29  1  0  0  0  0
  5 30  1  0  0  0  0
  5 31  1  0  0  0  0
  5 32  1  0  0  0  0
  6  7  2  0  0  0  0
  6  8  2  0  0  0  0
  6  9  1  0  0  0  0
  9 10  1  0  0  0  0
  9 33  1  0  0  0  0
 10 11  1  0  0  0  0
 10 34  1  0  0  0  0
 10 35  1  0  0  0  0
 11 22  1  0  0  0  0
 11 12  2  0  0  0  0
 12 13  1  0  0  0  0
 12 36  1  0  0  0  0
 13 14  2  0  0  0  0
 13 37  1  0  0  0  0
 14 15  1  0  0  0  0
 14 21  1  0  0  0  0
 15 20  1  0  0  0  0
 15 16  1  0  0  0  0
 16 17  1  0  0  0  0
 16 38  1  0  0  0  0
 16 39  1  0  0  0  0
 17 18  1  0  0  0  0
 17 40  1  0  0  0  0
 17 41  1  0  0  0  0
 18 19  1  0  0  0  0
 19 20  1  0  0  0  0
 19 42  1  0  0  0  0
 19 43  1  0  0  0  0
 20 44  1  0  0  0  0
 20 45  1  0  0  0  0
 21 22  2  0  0  0  0
 21 47  1  0  0  0  0
 22 46  1  0  0  0  0
M  CHG  1  21   1
M  END
> <s_m_source_file>
AV-unprocessed.smi

> <i_m_source_file_index>
2168

> <i_lp_mmshare_version>
43012

> <i_f3d_flags>
0

> <s_epik_input>
W0NIM11bQ0gyXU4oW0NIMl1bQ0gzXSlTKD1PKSg9TylbTkhdW0NIMl1jMVtjSF1bY0hdYyhuW2NIXTEpTjJbQ0gyXVtDSDJdT1tDSDJdW0NIMl0y

> <s_epik_cmdline>
J2VwaWtfcHl0aG9uJywgJy1waCcsICc3LjAnLCAnLXRuJywgJzgnLCAnLW1hJywgJzIwMCcsICctbWV0YWxfYmluZGluZycsICctaW1hZScsICc8aW5maWxlLm1hZT4nLCAnLW9tYWUnLCAnPG91dGZpbGUubWFlPic=

> <r_lp_tautomer_probability>
0.999994

> <r_epik_Ionization_Penalty>
2.66893

> <r_epik_Ionization_Penalty_Charging>
2.61323

> <r_epik_Ionization_Penalty_Neutral>
0.0557011

> <r_epik_State_Penalty>
2.68492

> <r_epik_Charging_Adjusted_Penalty>
5.29815

> <i_epik_Tot_Q>
1

> <i_epik_Tot_abs_Q>
1

> <r_epik_Metal_State_Penalty>
5.63236

> <b_epik_Metal_Only>
0

> <s_lp_Force_Field>
OPLS_2005

> <r_lp_Energy>
21.5493

> <b_lp_Chiralities_Consistent>
1

> <s_lp_Variant>
AV-unprocessed.smi:2168-2

> <Gold.Version>
5.8.1

> <Gold.Id.Protein>
6NUR|6NUR_protein|mol2

> <Gold.PLP.Fitness>
45.0253

> <Gold.PLP.PLP>
-36.4585

> <Gold.PLP.part.hbond>
-3.4342

> <Gold.PLP.part.metal>
0.0000

> <Gold.PLP.part.buried>
-4.6165

> <Gold.PLP.part.nonpolar>
-28.8549

> <Gold.PLP.part.repulsive>
0.6647

> <Gold.PLP.ligand.clash>
0.0000

> <Gold.PLP.ligand.torsion>
2.1169

> <Gold.PLP.Chemscore.Hbond>
3.3200

> <Gold.PLP.Chemscore.CHOScore>
0.0000

> <Gold.PLP.Chemscore.Metal>
0.0000

> <Gold.Chemscore.Hbonds>
donor molecule, donor type, donor heavy atom, donor atom, acceptor molecule, acceptor atom, score
      L1  H    21    47       P1  7948  1.10
      P1  H  6896  6908       L1     8  0.90
      P1  H 10752 10764       L1     7  0.42

> <Gold.PLP.Chemscore.Internal.Correction>
2.8406

> <Gold.Rescore>
     Score         DG    S(hbond)    S(metal)    S(lipo)     H(rot)  DE(clash)    DE(int)     intcor
     13.99     -16.48       2.01        0.00      80.14       1.99       0.06       2.43       ----

> <Gold.Chemscore.Fitness>
13.9868

> <Gold.Chemscore.DG>
-16.4772

> <Gold.Chemscore.ZeroCoef>
-5.4800

> <Gold.Chemscore.Hbond>
2.0129

> <Gold.Chemscore.Metal>
0.0000

> <Gold.Chemscore.Lipo>
80.1411

> <Gold.Chemscore.Internal_Hbond>
0.0000

> <Gold.Chemscore.DEClash>
0.0564

> <Gold.Chemscore.DEInternal>
2.4340

> <Gold.Chemscore.Rot>
1.9932

> <Gold.Chemscore.Internal.Correction>
   9.000000E+99

> <Gold.Chemscore.Hbonds>
donor molecule, donor type, donor heavy atom, donor atom, acceptor molecule, acceptor atom, score
      L1  H    21    47       P1  7948  0.25
      P1  H  6896  6908       L1     8  0.85
      P1  H 10752 10764       L1     7  0.41

> <Gold.Chemscore.Hbond.Weighted>
-6.7232

> <Gold.Chemscore.Metal.Weighted>
-0.0000

> <Gold.Chemscore.Lipo.Weighted>
-9.3765

> <Gold.Chemscore.Internal_Hbond.Weighted>
0.0000

> <Gold.Chemscore.DEClash.Weighted>
0.0564

> <Gold.Chemscore.DEInternal.Weighted>
2.4340

> <Gold.Chemscore.Rot.Weighted>
5.1025

> <Gold.Chemscore.Internal.Correction.Weighted>
   9.000000E+99

> <Gold.Protein.RotatedTorsions>
[ 6907 6896 6895 6894 ] final -116.92 input  -60.11 | X-H torsion
[ 7974 7965 7964 7962 ] final -155.27 input  175.53 | X-H torsion
[ 8008 7997 7996 7995 ] final   38.98 input   59.86 | X-H torsion
[ 10167 10162 10161 10158 ] final   53.36 input  -65.29 | X-H torsion
[ 10718 10713 10712 10709 ] final   85.60 input   66.30 | X-H torsion
[ 10763 10752 10751 10750 ] final   29.08 input  -60.55 | X-H torsion
[ 11005 11000 10999 10996 ] final  -92.57 input  -57.11 | X-H torsion

> <Gold.Protein.ActiveResidues>
 VAL166  LYS551  ARG553  GLY616  TRP617  ASP618  TYR619  PRO620  LYS621  CYS622 
 ASP623  PHE694  ASN695  SER759  ASP760  ASP761  ALA762  ILE779  LEU786  VAL792 
 PHE793  MET794  SER795  GLU796  ALA797  LYS798  CYS799  TRP800  GLU811  SER814 

> <Gold.Protein.RotatedAtoms>
  150.8094  133.8449  159.3189 H   0  0  0  0  0  0  0  0  0  0  0  0  # atno 6907 bound_to 6896
  151.6239  135.1028  160.0117 H   0  0  0  0  0  0  0  0  0  0  0  0  # atno 6908 bound_to 6896
  152.4186  133.7038  159.6496 H   0  0  0  0  0  0  0  0  0  0  0  0  # atno 6909 bound_to 6896
  144.7648  140.4273  143.5950 H   0  0  0  0  0  0  0  0  0  0  0  0  # atno 7974 bound_to 7965
  155.2290  140.3337  155.4306 H   0  0  0  0  0  0  0  0  0  0  0  0  # atno 8008 bound_to 7997
  156.2302  140.1847  156.7307 H   0  0  0  0  0  0  0  0  0  0  0  0  # atno 8009 bound_to 7997
  154.5966  140.0629  156.9297 H   0  0  0  0  0  0  0  0  0  0  0  0  # atno 8010 bound_to 7997
  140.2416  144.3577  150.6378 H   0  0  0  0  0  0  0  0  0  0  0  0  # atno 10167 bound_to 10162
  157.6917  131.0181  150.2847 H   0  0  0  0  0  0  0  0  0  0  0  0  # atno 10718 bound_to 10713
  153.0452  135.6497  154.0836 H   0  0  0  0  0  0  0  0  0  0  0  0  # atno 10763 bound_to 10752
  154.0535  135.2893  155.3338 H   0  0  0  0  0  0  0  0  0  0  0  0  # atno 10764 bound_to 10752
  154.6704  135.5358  153.8197 H   0  0  0  0  0  0  0  0  0  0  0  0  # atno 10765 bound_to 10752
  141.1519  133.7829  157.0038 H   0  0  0  0  0  0  0  0  0  0  0  0  # atno 11005 bound_to 11000
  145.6503  139.1564  143.2865 LP  0  0  0  0  0  0  0  0  0  0  0  0  # atno 17320 bound_to 7965
  146.1746  140.6593  142.9217 LP  0  0  0  0  0  0  0  0  0  0  0  0  # atno 17321 bound_to 7965
  140.6109  143.2169  151.6888 LP  0  0  0  0  0  0  0  0  0  0  0  0  # atno 17342 bound_to 10162
  139.5075  144.3643  152.0532 LP  0  0  0  0  0  0  0  0  0  0  0  0  # atno 17343 bound_to 10162
  156.3388  130.3812  149.7427 LP  0  0  0  0  0  0  0  0  0  0  0  0  # atno 17370 bound_to 10713
  156.4943  130.8099  151.3107 LP  0  0  0  0  0  0  0  0  0  0  0  0  # atno 17371 bound_to 10713
  140.0922  134.9585  157.1794 LP  0  0  0  0  0  0  0  0  0  0  0  0  # atno 17394 bound_to 11000
  140.3430  134.2683  155.7209 LP  0  0  0  0  0  0  0  0  0  0  0  0  # atno 17395 bound_to 11000

$$$$
