AV-unprocessed.smi:216|AV-procd|sdf|1659|dock3
  -GOLD-   2262020 53D 1   1.00000     0.00000
 Structure written by MMmdl.
 65 69  0  0  0  0  0  0  0  0  1 V2000
  149.1498  130.9408  160.8083 C   0  0  0  0  0  0  0  0  0  0  0  0
  148.4931  131.9093  159.8008 C   0  0  1  0  0  0  0  0  0  0  0  0
  148.2709  131.1810  158.4599 C   0  0  0  0  0  0  0  0  0  0  0  0
  147.7248  132.1288  157.3890 C   0  0  0  0  0  0  0  0  0  0  0  0
  146.5192  132.8005  157.8648 N   0  0  0  0  0  0  0  0  0  0  0  0
  145.7619  133.4402  156.9362 C   0  0  0  0  0  0  0  0  0  0  0  0
  144.4633  133.7411  157.2083 N   0  0  0  0  0  0  0  0  0  0  0  0
  143.7084  134.3658  156.3002 C   0  0  0  0  0  0  0  0  0  0  0  0
  144.0459  134.7797  155.0780 N   0  0  0  0  0  0  0  0  0  0  0  0
  145.3487  134.4887  154.7994 C   0  0  0  0  0  0  0  0  0  0  0  0
  146.2660  133.8224  155.6607 C   0  0  0  0  0  0  0  0  0  0  0  0
  147.4992  133.7044  155.0325 N   0  0  0  0  0  0  0  0  0  0  0  0
  147.3188  134.2565  153.8643 C   0  0  0  0  0  0  0  0  0  0  0  0
  146.0618  134.7745  153.6475 N   0  0  0  0  0  0  0  0  0  0  0  0
  145.5911  135.4522  152.4477 C   0  0  0  0  0  0  0  0  0  0  0  0
  145.0621  134.5054  151.3286 C   0  0  0  0  0  0  0  0  0  0  0  0
  144.3956  135.3202  150.1829 C   0  0  0  0  0  0  0  0  0  0  0  0
  145.2505  136.3227  149.6699 O   0  0  0  0  0  0  0  0  0  0  0  0
  146.2489  133.6603  150.8012 C   0  0  0  0  0  0  0  0  0  0  0  0
  145.8033  132.4927  149.9020 C   0  0  0  0  0  0  0  0  0  0  0  0
  144.8843  131.6644  150.6021 O   0  0  0  0  0  0  0  0  0  0  0  0
  143.6955  132.3497  150.9725 C   0  0  0  0  0  0  0  0  0  0  0  0
  144.0307  133.5133  151.9234 C   0  0  0  0  0  0  0  0  0  0  0  0
  146.6859  133.5338  159.1200 C   0  0  0  0  0  0  0  0  0  0  0  0
  147.1879  132.6327  160.2885 C   0  0  0  0  0  0  0  0  0  0  0  0
  146.0830  131.6195  160.7158 C   0  0  0  0  0  0  0  0  0  0  0  0
  144.8500  132.2759  161.3658 C   0  0  0  0  0  0  0  0  0  0  0  0
  145.2430  133.1618  162.5544 C   0  0  0  0  0  0  0  0  0  0  0  0
  146.2800  134.2117  162.1360 C   0  0  0  0  0  0  0  0  0  0  0  0
  147.5161  133.5451  161.5056 C   0  0  0  0  0  0  0  0  0  0  0  0
  148.5128  130.0858  161.0321 H   0  0  0  0  0  0  0  0  0  0  0  0
  149.4124  131.4241  161.7474 H   0  0  0  0  0  0  0  0  0  0  0  0
  150.0784  130.5413  160.3994 H   0  0  0  0  0  0  0  0  0  0  0  0
  149.2320  132.6891  159.6088 H   0  0  0  0  0  0  0  0  0  0  0  0
  149.2089  130.7503  158.1074 H   0  0  0  0  0  0  0  0  0  0  0  0
  147.5856  130.3436  158.5933 H   0  0  0  0  0  0  0  0  0  0  0  0
  148.4792  132.8748  157.1347 H   0  0  0  0  0  0  0  0  0  0  0  0
  147.5080  131.5638  156.4812 H   0  0  0  0  0  0  0  0  0  0  0  0
  142.6884  134.5624  156.5952 H   0  0  0  0  0  0  0  0  0  0  0  0
  148.1076  134.3125  153.1284 H   0  0  0  0  0  0  0  0  0  0  0  0
  144.8176  136.1617  152.7444 H   0  0  0  0  0  0  0  0  0  0  0  0
  146.4124  136.0611  152.0671 H   0  0  0  0  0  0  0  0  0  0  0  0
  144.1057  134.6823  149.3499 H   0  0  0  0  0  0  0  0  0  0  0  0
  143.4757  135.7936  150.5262 H   0  0  0  0  0  0  0  0  0  0  0  0
  144.8426  137.1641  149.8075 H   0  0  0  0  0  0  0  0  0  0  0  0
  146.9634  134.2875  150.2675 H   0  0  0  0  0  0  0  0  0  0  0  0
  146.7970  133.2404  151.6458 H   0  0  0  0  0  0  0  0  0  0  0  0
  145.3609  132.8471  148.9706 H   0  0  0  0  0  0  0  0  0  0  0  0
  146.6682  131.8903  149.6241 H   0  0  0  0  0  0  0  0  0  0  0  0
  143.1664  132.6952  150.0837 H   0  0  0  0  0  0  0  0  0  0  0  0
  143.0314  131.6446  151.4727 H   0  0  0  0  0  0  0  0  0  0  0  0
  144.4279  133.0882  152.8460 H   0  0  0  0  0  0  0  0  0  0  0  0
  143.1115  134.0313  152.1989 H   0  0  0  0  0  0  0  0  0  0  0  0
  147.4088  134.3309  158.9397 H   0  0  0  0  0  0  0  0  0  0  0  0
  145.7594  134.0363  159.3904 H   0  0  0  0  0  0  0  0  0  0  0  0
  145.7568  131.0214  159.8651 H   0  0  0  0  0  0  0  0  0  0  0  0
  146.4869  130.9130  161.4393 H   0  0  0  0  0  0  0  0  0  0  0  0
  144.3052  132.8699  160.6346 H   0  0  0  0  0  0  0  0  0  0  0  0
  144.1570  131.5029  161.6986 H   0  0  0  0  0  0  0  0  0  0  0  0
  144.3590  133.6516  162.9639 H   0  0  0  0  0  0  0  0  0  0  0  0
  145.6514  132.5409  163.3528 H   0  0  0  0  0  0  0  0  0  0  0  0
  145.8321  134.9227  161.4417 H   0  0  0  0  0  0  0  0  0  0  0  0
  146.5827  134.7930  163.0074 H   0  0  0  0  0  0  0  0  0  0  0  0
  147.9980  132.9676  162.2925 H   0  0  0  0  0  0  0  0  0  0  0  0
  148.2354  134.3125  161.2173 H   0  0  0  0  0  0  0  0  0  0  0  0
  1  2  1  0  0  0  0
  1 31  1  0  0  0  0
  1 32  1  0  0  0  0
  1 33  1  0  0  0  0
  2 25  1  0  0  0  0
  2  3  1  0  0  0  0
  2 34  1  0  0  0  0
  3  4  1  0  0  0  0
  3 35  1  0  0  0  0
  3 36  1  0  0  0  0
  4  5  1  0  0  0  0
  4 37  1  0  0  0  0
  4 38  1  0  0  0  0
  5  6  1  0  0  0  0
  5 24  1  0  0  0  0
  6 11  1  0  0  0  0
  6  7  2  0  0  0  0
  7  8  1  0  0  0  0
  8  9  2  0  0  0  0
  8 39  1  0  0  0  0
  9 10  1  0  0  0  0
 10 14  1  0  0  0  0
 10 11  2  0  0  0  0
 11 12  1  0  0  0  0
 12 13  2  0  0  0  0
 13 14  1  0  0  0  0
 13 40  1  0  0  0  0
 14 15  1  0  0  0  0
 15 16  1  0  0  0  0
 15 41  1  0  0  0  0
 15 42  1  0  0  0  0
 16 23  1  0  0  0  0
 16 17  1  0  0  0  0
 16 19  1  0  0  0  0
 17 18  1  0  0  0  0
 17 43  1  0  0  0  0
 17 44  1  0  0  0  0
 18 45  1  0  0  0  0
 19 20  1  0  0  0  0
 19 46  1  0  0  0  0
 19 47  1  0  0  0  0
 20 21  1  0  0  0  0
 20 48  1  0  0  0  0
 20 49  1  0  0  0  0
 21 22  1  0  0  0  0
 22 23  1  0  0  0  0
 22 50  1  0  0  0  0
 22 51  1  0  0  0  0
 23 52  1  0  0  0  0
 23 53  1  0  0  0  0
 24 25  1  0  0  0  0
 24 54  1  0  0  0  0
 24 55  1  0  0  0  0
 25 30  1  0  0  0  0
 25 26  1  0  0  0  0
 26 27  1  0  0  0  0
 26 56  1  0  0  0  0
 26 57  1  0  0  0  0
 27 28  1  0  0  0  0
 27 58  1  0  0  0  0
 27 59  1  0  0  0  0
 28 29  1  0  0  0  0
 28 60  1  0  0  0  0
 28 61  1  0  0  0  0
 29 30  1  0  0  0  0
 29 62  1  0  0  0  0
 29 63  1  0  0  0  0
 30 64  1  0  0  0  0
 30 65  1  0  0  0  0
M  END
> <s_m_source_file>
AV-unprocessed.smi

> <i_m_source_file_index>
216

> <i_lp_mmshare_version>
43012

> <i_f3d_flags>
0

> <s_epik_input>
W0NIMl0xW0NIMl1bQ0gyXVtDSDJdW0NIMl1DMTJbQ0BIXShbQ0gzXSlbQ0gyXVtDSDJdTihbQ0gyXTIpYyhuW2NIXW4zKWMoYzM0KW5bY0hdbjRbQ0gyXUM1KFtDSDJdW09IXSlbQ0gyXVtDSDJdT1tDSDJdW0NIMl01

> <s_epik_cmdline>
J2VwaWtfcHl0aG9uJywgJy1waCcsICc3LjAnLCAnLXRuJywgJzgnLCAnLW1hJywgJzIwMCcsICctbWV0YWxfYmluZGluZycsICctaW1hZScsICc8aW5maWxlLm1hZT4nLCAnLW9tYWUnLCAnPG91dGZpbGUubWFlPic=

> <r_lp_tautomer_probability>
1

> <r_epik_Ionization_Penalty>
0.00291566

> <r_epik_Ionization_Penalty_Charging>
0

> <r_epik_Ionization_Penalty_Neutral>
0.00291566

> <r_epik_State_Penalty>
0.00199166

> <r_epik_Charging_Adjusted_Penalty>
0.00199166

> <i_epik_Tot_Q>
0

> <i_epik_Tot_abs_Q>
0

> <r_epik_Metal_State_Penalty>
-0

> <b_epik_Metal_Only>
0

> <s_lp_Force_Field>
OPLS_2005

> <r_lp_Energy>
50.0726

> <b_lp_Chiralities_Consistent>
1

> <s_lp_Variant>
AV-unprocessed.smi:216-2

> <Gold.Version>
5.8.1

> <Gold.Id.Protein>
6NUR|6NUR_protein|mol2

> <Gold.PLP.Fitness>
46.5401

> <Gold.PLP.PLP>
-38.8486

> <Gold.PLP.part.hbond>
-2.0000

> <Gold.PLP.part.metal>
0.0000

> <Gold.PLP.part.buried>
-5.2717

> <Gold.PLP.part.nonpolar>
-31.5698

> <Gold.PLP.part.repulsive>
0.3122

> <Gold.PLP.ligand.clash>
0.0000

> <Gold.PLP.ligand.torsion>
0.7046

> <Gold.PLP.Chemscore.Hbond>
1.0000

> <Gold.PLP.Chemscore.CHOScore>
1.9230

> <Gold.PLP.Chemscore.Metal>
0.0000

> <Gold.Chemscore.Hbonds>
donor molecule, donor type, donor heavy atom, donor atom, acceptor molecule, acceptor atom, score
      L1  H    18    45       P1 10171  1.00
      L1  C     8    39       P1 11000  1.00
      L1  C    13    40       P1  7948  1.00

> <Gold.PLP.Chemscore.Internal.Correction>
0.3316

> <Gold.Rescore>
     Score         DG    S(hbond)    S(metal)    S(lipo)     H(rot)  DE(clash)    DE(int)     intcor
     12.78     -14.81       1.00        0.00      99.39       2.20       0.03       2.00       ----

> <Gold.Chemscore.Fitness>
12.7754

> <Gold.Chemscore.DG>
-14.8057

> <Gold.Chemscore.ZeroCoef>
-5.4800

> <Gold.Chemscore.Hbond>
0.9983

> <Gold.Chemscore.Metal>
0.0000

> <Gold.Chemscore.Lipo>
99.3882

> <Gold.Chemscore.Internal_Hbond>
0.0000

> <Gold.Chemscore.DEClash>
0.0263

> <Gold.Chemscore.DEInternal>
2.0039

> <Gold.Chemscore.Rot>
2.2019

> <Gold.Chemscore.Internal.Correction>
   9.000000E+99

> <Gold.Chemscore.Hbonds>
donor molecule, donor type, donor heavy atom, donor atom, acceptor molecule, acceptor atom, score
      L1  H    18    45       P1 10171  1.00

> <Gold.Chemscore.Hbond.Weighted>
-3.3342

> <Gold.Chemscore.Metal.Weighted>
-0.0000

> <Gold.Chemscore.Lipo.Weighted>
-11.6284

> <Gold.Chemscore.Internal_Hbond.Weighted>
0.0000

> <Gold.Chemscore.DEClash.Weighted>
0.0263

> <Gold.Chemscore.DEInternal.Weighted>
2.0039

> <Gold.Chemscore.Rot.Weighted>
5.6370

> <Gold.Chemscore.Internal.Correction.Weighted>
   9.000000E+99

> <Gold.Protein.RotatedTorsions>
[ 6907 6896 6895 6894 ] final   46.17 input  -60.11 | X-H torsion
[ 7974 7965 7964 7962 ] final -135.60 input  175.53 | X-H torsion
[ 8008 7997 7996 7995 ] final  -47.50 input   59.86 | X-H torsion
[ 10167 10162 10161 10158 ] final -100.32 input  -65.29 | X-H torsion
[ 10718 10713 10712 10709 ] final   42.26 input   66.30 | X-H torsion
[ 10763 10752 10751 10750 ] final  -65.06 input  -60.55 | X-H torsion
[ 11005 11000 10999 10996 ] final   99.99 input  -57.11 | X-H torsion

> <Gold.Protein.ActiveResidues>
 VAL166  LYS551  ARG553  GLY616  TRP617  ASP618  TYR619  PRO620  LYS621  CYS622 
 ASP623  PHE694  ASN695  SER759  ASP760  ASP761  ALA762  ILE779  LEU786  VAL792 
 PHE793  MET794  SER795  GLU796  ALA797  LYS798  CYS799  TRP800  GLU811  SER814 

> <Gold.Protein.RotatedAtoms>
  152.2532  134.8111  160.0442 H   0  0  0  0  0  0  0  0  0  0  0  0  # atno 6907 bound_to 6896
  151.8784  133.3485  159.3766 H   0  0  0  0  0  0  0  0  0  0  0  0  # atno 6908 bound_to 6896
  150.7091  134.4970  159.5587 H   0  0  0  0  0  0  0  0  0  0  0  0  # atno 6909 bound_to 6896
  144.8999  140.6757  143.5091 H   0  0  0  0  0  0  0  0  0  0  0  0  # atno 7974 bound_to 7965
  154.4017  140.1345  156.4185 H   0  0  0  0  0  0  0  0  0  0  0  0  # atno 8008 bound_to 7997
  155.7665  140.3485  155.5204 H   0  0  0  0  0  0  0  0  0  0  0  0  # atno 8009 bound_to 7997
  155.8808  140.0987  157.1476 H   0  0  0  0  0  0  0  0  0  0  0  0  # atno 8010 bound_to 7997
  140.2531  143.3459  152.0696 H   0  0  0  0  0  0  0  0  0  0  0  0  # atno 10167 bound_to 10162
  157.4028  130.7869  149.7363 H   0  0  0  0  0  0  0  0  0  0  0  0  # atno 10718 bound_to 10713
  154.3394  135.6160  153.5589 H   0  0  0  0  0  0  0  0  0  0  0  0  # atno 10763 bound_to 10752
  152.9805  135.5766  154.4870 H   0  0  0  0  0  0  0  0  0  0  0  0  # atno 10764 bound_to 10752
  154.4571  135.2854  155.1716 H   0  0  0  0  0  0  0  0  0  0  0  0  # atno 10765 bound_to 10752
  139.8771  134.9120  156.4689 H   0  0  0  0  0  0  0  0  0  0  0  0  # atno 11005 bound_to 11000
  145.3634  139.1676  143.4371 LP  0  0  0  0  0  0  0  0  0  0  0  0  # atno 17320 bound_to 7965
  146.3102  140.3699  142.8673 LP  0  0  0  0  0  0  0  0  0  0  0  0  # atno 17321 bound_to 7965
  139.5040  144.6766  151.6112 LP  0  0  0  0  0  0  0  0  0  0  0  0  # atno 17342 bound_to 10162
  140.6025  143.9584  150.6396 LP  0  0  0  0  0  0  0  0  0  0  0  0  # atno 17343 bound_to 10162
  155.9828  130.4006  150.3398 LP  0  0  0  0  0  0  0  0  0  0  0  0  # atno 17370 bound_to 10713
  157.1527  131.0325  151.2877 LP  0  0  0  0  0  0  0  0  0  0  0  0  # atno 17371 bound_to 10713
  140.8810  133.7918  155.9467 LP  0  0  0  0  0  0  0  0  0  0  0  0  # atno 17394 bound_to 11000
  140.8854  134.2560  157.5122 LP  0  0  0  0  0  0  0  0  0  0  0  0  # atno 17395 bound_to 11000

$$$$
