AV-unprocessed.smi:1314|AV-procd|sdf|5453|dock8
  -GOLD-   22720 5 23D 1   1.00000     0.00000
 Structure written by MMmdl.
 41 42  0  0  0  0  0  0  0  0  1 V2000
  145.6379  143.5878  153.7822 C   0  0  0  0  0  0  0  0  0  0  0  0
  146.0715  142.8927  155.0409 C   0  0  0  0  0  0  0  0  0  0  0  0
  145.4529  143.1554  156.1800 N   0  0  0  0  0  0  0  0  0  0  0  0
  146.0761  142.3597  157.1463 O   0  0  0  0  0  0  0  0  0  0  0  0
  147.0577  141.6416  156.5434 C   0  0  0  0  0  0  0  0  0  0  0  0
  147.8444  140.7194  157.4121 C   0  0  0  0  0  0  0  0  0  0  0  0
  147.1119  141.9345  155.2084 C   0  0  0  0  0  0  0  0  0  0  0  0
  148.0399  141.3811  154.1576 C   0  0  0  0  0  0  0  0  0  0  0  0
  149.3945  141.0432  154.7836 C   0  0  0  0  0  0  0  0  0  0  0  0
  149.9439  139.9728  154.5226 O   0  0  0  0  0  0  0  0  0  0  0  0
  149.9170  141.9628  155.6098 N   0  0  0  0  0  0  0  0  0  0  0  0
  151.1809  141.8399  156.3297 C   0  0  0  0  0  0  0  0  0  0  0  0
  150.9693  141.5015  157.8143 C   0  0  0  0  0  0  0  0  0  0  0  0
  152.5309  141.2000  158.6919 S   0  0  0  0  0  0  0  0  0  0  0  0
  152.2225  142.1027  160.2371 C   0  0  0  0  0  0  0  0  0  0  0  0
  152.1638  143.6152  160.0273 C   0  0  0  0  0  0  0  0  0  0  0  0
  152.4082  144.2037  161.4187 C   0  0  0  0  0  0  0  0  0  0  0  0
  153.2530  143.1677  162.1760 C   0  0  0  0  0  0  0  0  0  0  0  0
  153.3366  141.9295  161.2731 C   0  0  0  0  0  0  0  0  0  0  0  0
  145.5516  142.8810  152.9568 H   0  0  0  0  0  0  0  0  0  0  0  0
  146.3595  144.3512  153.4915 H   0  0  0  0  0  0  0  0  0  0  0  0
  144.6690  144.0739  153.9019 H   0  0  0  0  0  0  0  0  0  0  0  0
  147.9988  139.7604  156.9174 H   0  0  0  0  0  0  0  0  0  0  0  0
  147.3285  140.5320  158.3542 H   0  0  0  0  0  0  0  0  0  0  0  0
  148.8217  141.1447  157.6395 H   0  0  0  0  0  0  0  0  0  0  0  0
  147.6347  140.4742  153.7075 H   0  0  0  0  0  0  0  0  0  0  0  0
  148.1729  142.0900  153.3389 H   0  0  0  0  0  0  0  0  0  0  0  0
  149.3924  142.8127  155.7585 H   0  0  0  0  0  0  0  0  0  0  0  0
  151.7415  141.0327  155.8577 H   0  0  0  0  0  0  0  0  0  0  0  0
  151.7948  142.7358  156.2227 H   0  0  0  0  0  0  0  0  0  0  0  0
  150.4198  142.2997  158.3146 H   0  0  0  0  0  0  0  0  0  0  0  0
  150.3593  140.6017  157.8912 H   0  0  0  0  0  0  0  0  0  0  0  0
  151.2750  141.7672  160.6613 H   0  0  0  0  0  0  0  0  0  0  0  0
  152.9634  143.9299  159.3549 H   0  0  0  0  0  0  0  0  0  0  0  0
  151.2182  143.9431  159.5945 H   0  0  0  0  0  0  0  0  0  0  0  0
  152.8961  145.1778  161.3682 H   0  0  0  0  0  0  0  0  0  0  0  0
  151.4555  144.3422  161.9315 H   0  0  0  0  0  0  0  0  0  0  0  0
  154.2492  143.5503  162.4008 H   0  0  0  0  0  0  0  0  0  0  0  0
  152.7777  142.9209  163.1261 H   0  0  0  0  0  0  0  0  0  0  0  0
  153.2405  141.0014  161.8371 H   0  0  0  0  0  0  0  0  0  0  0  0
  154.3068  141.9124  160.7748 H   0  0  0  0  0  0  0  0  0  0  0  0
  1  2  1  0  0  0  0
  1 20  1  0  0  0  0
  1 21  1  0  0  0  0
  1 22  1  0  0  0  0
  2  7  1  0  0  0  0
  2  3  2  0  0  0  0
  3  4  1  0  0  0  0
  4  5  1  0  0  0  0
  5  6  1  0  0  0  0
  5  7  2  0  0  0  0
  6 23  1  0  0  0  0
  6 24  1  0  0  0  0
  6 25  1  0  0  0  0
  7  8  1  0  0  0  0
  8  9  1  0  0  0  0
  8 26  1  0  0  0  0
  8 27  1  0  0  0  0
  9 10  2  0  0  0  0
  9 11  1  0  0  0  0
 11 12  1  0  0  0  0
 11 28  1  0  0  0  0
 12 13  1  0  0  0  0
 12 29  1  0  0  0  0
 12 30  1  0  0  0  0
 13 14  1  0  0  0  0
 13 31  1  0  0  0  0
 13 32  1  0  0  0  0
 14 15  1  0  0  0  0
 15 19  1  0  0  0  0
 15 16  1  0  0  0  0
 15 33  1  0  0  0  0
 16 17  1  0  0  0  0
 16 34  1  0  0  0  0
 16 35  1  0  0  0  0
 17 18  1  0  0  0  0
 17 36  1  0  0  0  0
 17 37  1  0  0  0  0
 18 19  1  0  0  0  0
 18 38  1  0  0  0  0
 18 39  1  0  0  0  0
 19 40  1  0  0  0  0
 19 41  1  0  0  0  0
M  END
> <s_m_source_file>
AV-unprocessed.smi

> <i_m_source_file_index>
1314

> <i_lp_mmshare_version>
43012

> <i_f3d_flags>
0

> <s_epik_input>
W0NIM11jMW5vYyhbQ0gzXSljMVtDSDJdQyg9TylbTkhdW0NIMl1bQ0gyXVNbQ0hdMltDSDJdW0NIMl1bQ0gyXVtDSDJdMg==

> <s_epik_cmdline>
J2VwaWtfcHl0aG9uJywgJy1waCcsICc3LjAnLCAnLXRuJywgJzgnLCAnLW1hJywgJzIwMCcsICctbWV0YWxfYmluZGluZycsICctaW1hZScsICc8aW5maWxlLm1hZT4nLCAnLW9tYWUnLCAnPG91dGZpbGUubWFlPic=

> <r_lp_tautomer_probability>
1

> <r_epik_Ionization_Penalty>
2.75407e-08

> <r_epik_Ionization_Penalty_Charging>
0

> <r_epik_Ionization_Penalty_Neutral>
2.75407e-08

> <r_epik_State_Penalty>
-0

> <r_epik_Charging_Adjusted_Penalty>
0

> <i_epik_Tot_Q>
0

> <i_epik_Tot_abs_Q>
0

> <r_epik_Metal_State_Penalty>
-0

> <b_epik_Metal_Only>
0

> <s_lp_Force_Field>
OPLS_2005

> <r_lp_Energy>
14.7141

> <b_lp_Chiralities_Consistent>
1

> <s_lp_Variant>
AV-unprocessed.smi:1314-1

> <Gold.Version>
5.8.1

> <Gold.Id.Protein>
6NUR|6NUR_protein|mol2

> <Gold.PLP.Fitness>
47.1798

> <Gold.PLP.PLP>
-43.1059

> <Gold.PLP.part.hbond>
-2.0000

> <Gold.PLP.part.metal>
0.0000

> <Gold.PLP.part.buried>
-6.5077

> <Gold.PLP.part.nonpolar>
-34.5596

> <Gold.PLP.part.repulsive>
0.4813

> <Gold.PLP.ligand.clash>
0.0000

> <Gold.PLP.ligand.torsion>
1.0033

> <Gold.PLP.Chemscore.Hbond>
2.0000

> <Gold.PLP.Chemscore.CHOScore>
0.0000

> <Gold.PLP.Chemscore.Metal>
0.0000

> <Gold.Chemscore.Hbonds>
donor molecule, donor type, donor heavy atom, donor atom, acceptor molecule, acceptor atom, score
      L1  H    11    28       P1  8028  1.00
      P1  H  7989  7998       L1    10  0.50

> <Gold.PLP.Chemscore.Internal.Correction>
0.0805

> <Gold.Rescore>
     Score         DG    S(hbond)    S(metal)    S(lipo)     H(rot)  DE(clash)    DE(int)     intcor
     17.82     -19.52       1.73        0.00     106.97       1.66       0.71       0.99       ----

> <Gold.Chemscore.Fitness>
17.8196

> <Gold.Chemscore.DG>
-19.5200

> <Gold.Chemscore.ZeroCoef>
-5.4800

> <Gold.Chemscore.Hbond>
1.7326

> <Gold.Chemscore.Metal>
0.0000

> <Gold.Chemscore.Lipo>
106.9670

> <Gold.Chemscore.Internal_Hbond>
0.0000

> <Gold.Chemscore.DEClash>
0.7144

> <Gold.Chemscore.DEInternal>
0.9860

> <Gold.Chemscore.Rot>
1.6648

> <Gold.Chemscore.Internal.Correction>
   9.000000E+99

> <Gold.Chemscore.Hbonds>
donor molecule, donor type, donor heavy atom, donor atom, acceptor molecule, acceptor atom, score
      L1  H    11    28       P1  8028  0.97
      P1  H  7989  7998       L1    10  0.06

> <Gold.Chemscore.Hbond.Weighted>
-5.7869

> <Gold.Chemscore.Metal.Weighted>
-0.0000

> <Gold.Chemscore.Lipo.Weighted>
-12.5151

> <Gold.Chemscore.Internal_Hbond.Weighted>
0.0000

> <Gold.Chemscore.DEClash.Weighted>
0.7144

> <Gold.Chemscore.DEInternal.Weighted>
0.9860

> <Gold.Chemscore.Rot.Weighted>
4.2619

> <Gold.Chemscore.Internal.Correction.Weighted>
   9.000000E+99

> <Gold.Protein.RotatedTorsions>
[ 6907 6896 6895 6894 ] final  -84.95 input  -60.11 | X-H torsion
[ 7974 7965 7964 7962 ] final  158.28 input  175.53 | X-H torsion
[ 8008 7997 7996 7995 ] final -117.50 input   59.86 | X-H torsion
[ 10167 10162 10161 10158 ] final -120.28 input  -65.29 | X-H torsion
[ 10718 10713 10712 10709 ] final  -98.30 input   66.30 | X-H torsion
[ 10763 10752 10751 10750 ] final   -2.32 input  -60.55 | X-H torsion
[ 11005 11000 10999 10996 ] final  -69.44 input  -57.11 | X-H torsion

> <Gold.Protein.ActiveResidues>
 VAL166  LYS551  ARG553  GLY616  TRP617  ASP618  TYR619  PRO620  LYS621  CYS622 
 ASP623  PHE694  ASN695  SER759  ASP760  ASP761  ALA762  ILE779  LEU786  VAL792 
 PHE793  MET794  SER795  GLU796  ALA797  LYS798  CYS799  TRP800  GLU811  SER814 

> <Gold.Protein.RotatedAtoms>
  150.6873  134.3280  159.4814 H   0  0  0  0  0  0  0  0  0  0  0  0  # atno 6907 bound_to 6896
  152.1148  134.9246  160.0574 H   0  0  0  0  0  0  0  0  0  0  0  0  # atno 6908 bound_to 6896
  152.0474  133.3969  159.4399 H   0  0  0  0  0  0  0  0  0  0  0  0  # atno 6909 bound_to 6896
  144.7855  139.7456  143.6243 H   0  0  0  0  0  0  0  0  0  0  0  0  # atno 7974 bound_to 7965
  155.0847  140.0394  157.2650 H   0  0  0  0  0  0  0  0  0  0  0  0  # atno 8008 bound_to 7997
  154.6879  140.2647  155.6817 H   0  0  0  0  0  0  0  0  0  0  0  0  # atno 8009 bound_to 7997
  156.2718  140.2765  156.1446 H   0  0  0  0  0  0  0  0  0  0  0  0  # atno 8010 bound_to 7997
  140.0375  143.5186  152.2146 H   0  0  0  0  0  0  0  0  0  0  0  0  # atno 10167 bound_to 10162
  156.0104  130.5232  150.6502 H   0  0  0  0  0  0  0  0  0  0  0  0  # atno 10718 bound_to 10713
  153.3564  135.6988  153.6747 H   0  0  0  0  0  0  0  0  0  0  0  0  # atno 10763 bound_to 10752
  153.5453  135.3564  155.2736 H   0  0  0  0  0  0  0  0  0  0  0  0  # atno 10764 bound_to 10752
  154.8661  135.4213  154.2812 H   0  0  0  0  0  0  0  0  0  0  0  0  # atno 10765 bound_to 10752
  141.1554  133.6764  156.6599 H   0  0  0  0  0  0  0  0  0  0  0  0  # atno 11005 bound_to 11000
  146.2084  139.5424  142.9697 LP  0  0  0  0  0  0  0  0  0  0  0  0  # atno 17320 bound_to 7965
  145.5934  141.0366  143.2057 LP  0  0  0  0  0  0  0  0  0  0  0  0  # atno 17321 bound_to 7965
  139.6035  144.7589  151.3116 LP  0  0  0  0  0  0  0  0  0  0  0  0  # atno 17342 bound_to 10162
  140.7275  143.6962  150.7882 LP  0  0  0  0  0  0  0  0  0  0  0  0  # atno 17343 bound_to 10162
  157.4265  131.0844  151.1080 LP  0  0  0  0  0  0  0  0  0  0  0  0  # atno 17370 bound_to 10713
  157.1666  130.6249  149.5627 LP  0  0  0  0  0  0  0  0  0  0  0  0  # atno 17371 bound_to 10713
  140.3255  134.7972  157.4286 LP  0  0  0  0  0  0  0  0  0  0  0  0  # atno 17394 bound_to 11000
  140.1061  134.5408  155.8308 LP  0  0  0  0  0  0  0  0  0  0  0  0  # atno 17395 bound_to 11000

$$$$
