AV-unprocessed.smi:1185|AV-procd|sdf|4974|dock3
  -GOLD-   22720 3563D 1   1.00000     0.00000
 Structure written by MMmdl.
 38 40  0  0  0  0  0  0  0  0  1 V2000
  153.3691  138.4517  158.9972 O   0  0  0  0  0  0  0  0  0  0  0  0
  153.1693  139.6619  159.1069 C   0  0  0  0  0  0  0  0  0  0  0  0
  153.8722  140.5178  160.0747 C   0  0  0  0  0  0  0  0  0  0  0  0
  154.9058  139.8648  160.9885 C   0  0  0  0  0  0  0  0  0  0  0  0
  154.6945  138.5539  161.1150 F   0  0  0  0  0  0  0  0  0  0  0  0
  156.1349  140.0352  160.5003 F   0  0  0  0  0  0  0  0  0  0  0  0
  154.8629  140.4037  162.2076 F   0  0  0  0  0  0  0  0  0  0  0  0
  153.6047  141.8455  160.1275 C   0  0  0  0  0  0  0  0  0  0  0  0
  152.6202  142.4292  159.2390 C   0  0  0  0  0  0  0  0  0  0  0  0
  152.2874  143.8930  159.2337 C   0  0  0  0  0  0  0  0  0  0  0  0
  151.2058  144.4577  158.3416 C   0  0  0  0  0  0  0  0  0  0  0  0
  152.6548  144.7900  158.0734 C   0  0  0  0  0  0  0  0  0  0  0  0
  151.9953  141.6744  158.4001 N   0  0  0  0  0  0  0  0  0  0  0  0
  152.2734  140.3239  158.3174 N   0  0  0  0  0  0  0  0  0  0  0  0
  151.5468  139.6263  157.2479 C   0  0  0  0  0  0  0  0  0  0  0  0
  151.5799  140.3985  155.9083 C   0  0  1  0  0  0  0  0  0  0  0  0
  152.6341  139.8796  155.1227 O   0  0  0  0  0  0  0  0  0  0  0  0
  150.2413  140.3666  155.1760 C   0  0  0  0  0  0  0  0  0  0  0  0
  149.4959  141.5555  155.0117 C   0  0  0  0  0  0  0  0  0  0  0  0
  148.2745  141.5406  154.3115 C   0  0  0  0  0  0  0  0  0  0  0  0
  147.7898  140.3364  153.7674 C   0  0  0  0  0  0  0  0  0  0  0  0
  148.5293  139.1486  153.9222 C   0  0  0  0  0  0  0  0  0  0  0  0
  149.7511  139.1610  154.6228 C   0  0  0  0  0  0  0  0  0  0  0  0
  150.4541  138.0099  154.7488 F   0  0  0  0  0  0  0  0  0  0  0  0
  154.1133  142.4915  160.8273 H   0  0  0  0  0  0  0  0  0  0  0  0
  152.3776  144.3143  160.2332 H   0  0  0  0  0  0  0  0  0  0  0  0
  150.7112  143.7805  157.6480 H   0  0  0  0  0  0  0  0  0  0  0  0
  150.5766  145.2445  158.7524 H   0  0  0  0  0  0  0  0  0  0  0  0
  152.9903  145.7986  158.3055 H   0  0  0  0  0  0  0  0  0  0  0  0
  153.1135  144.3366  157.1966 H   0  0  0  0  0  0  0  0  0  0  0  0
  151.9515  138.6214  157.1133 H   0  0  0  0  0  0  0  0  0  0  0  0
  150.5095  139.4769  157.5542 H   0  0  0  0  0  0  0  0  0  0  0  0
  151.8424  141.4371  156.1098 H   0  0  0  0  0  0  0  0  0  0  0  0
  152.4034  139.0031  154.8549 H   0  0  0  0  0  0  0  0  0  0  0  0
  149.8638  142.4871  155.4159 H   0  0  0  0  0  0  0  0  0  0  0  0
  147.7115  142.4541  154.1889 H   0  0  0  0  0  0  0  0  0  0  0  0
  146.8545  140.3248  153.2275 H   0  0  0  0  0  0  0  0  0  0  0  0
  148.1608  138.2258  153.4991 H   0  0  0  0  0  0  0  0  0  0  0  0
  1  2  2  0  0  0  0
  2 14  1  0  0  0  0
  2  3  1  0  0  0  0
  3  4  1  0  0  0  0
  3  8  2  0  0  0  0
  4  5  1  0  0  0  0
  4  6  1  0  0  0  0
  4  7  1  0  0  0  0
  8  9  1  0  0  0  0
  8 25  1  0  0  0  0
  9 10  1  0  0  0  0
  9 13  2  0  0  0  0
 10 12  1  0  0  0  0
 10 11  1  0  0  0  0
 10 26  1  0  0  0  0
 11 12  1  0  0  0  0
 11 27  1  0  0  0  0
 11 28  1  0  0  0  0
 12 29  1  0  0  0  0
 12 30  1  0  0  0  0
 13 14  1  0  0  0  0
 14 15  1  0  0  0  0
 15 16  1  0  0  0  0
 15 31  1  0  0  0  0
 15 32  1  0  0  0  0
 16 17  1  0  0  0  0
 16 18  1  0  0  0  0
 16 33  1  0  0  0  0
 17 34  1  0  0  0  0
 18 23  1  0  0  0  0
 18 19  2  0  0  0  0
 19 20  1  0  0  0  0
 19 35  1  0  0  0  0
 20 21  2  0  0  0  0
 20 36  1  0  0  0  0
 21 22  1  0  0  0  0
 21 37  1  0  0  0  0
 22 23  2  0  0  0  0
 22 38  1  0  0  0  0
 23 24  1  0  0  0  0
M  END
> <s_m_source_file>
AV-unprocessed.smi

> <i_m_source_file_index>
1185

> <i_lp_mmshare_version>
43012

> <i_f3d_flags>
0

> <s_epik_input>
Tz1jMWMoQyhGKShGKUYpW2NIXWMoW0NIXTJbQ0gyXVtDSDJdMilubjFbQ0gyXVtDQEhdKFtPSF0pYzNbY0hdW2NIXVtjSF1bY0hdYzNG

> <s_epik_cmdline>
J2VwaWtfcHl0aG9uJywgJy1waCcsICc3LjAnLCAnLXRuJywgJzgnLCAnLW1hJywgJzIwMCcsICctbWV0YWxfYmluZGluZycsICctaW1hZScsICc8aW5maWxlLm1hZT4nLCAnLW9tYWUnLCAnPG91dGZpbGUubWFlPic=

> <r_lp_tautomer_probability>
1

> <r_epik_Ionization_Penalty>
7.26807e-08

> <r_epik_Ionization_Penalty_Charging>
9.677e-10

> <r_epik_Ionization_Penalty_Neutral>
7.1713e-08

> <r_epik_State_Penalty>
-0

> <r_epik_Charging_Adjusted_Penalty>
9.677e-10

> <i_epik_Tot_Q>
0

> <i_epik_Tot_abs_Q>
0

> <r_epik_Metal_State_Penalty>
-0

> <b_epik_Metal_Only>
0

> <s_lp_Force_Field>
OPLS_2005

> <r_lp_Energy>
30.0942

> <b_lp_Chiralities_Consistent>
1

> <s_lp_Variant>
AV-unprocessed.smi:1185-2

> <Gold.Version>
5.8.1

> <Gold.Id.Protein>
6NUR|6NUR_protein|mol2

> <Gold.PLP.Fitness>
55.7333

> <Gold.PLP.PLP>
-55.4127

> <Gold.PLP.part.hbond>
-2.0000

> <Gold.PLP.part.metal>
0.0000

> <Gold.PLP.part.buried>
-2.4936

> <Gold.PLP.part.nonpolar>
-50.9822

> <Gold.PLP.part.repulsive>
0.0000

> <Gold.PLP.ligand.clash>
0.0000

> <Gold.PLP.ligand.torsion>
1.7968

> <Gold.PLP.Chemscore.Hbond>
1.0855

> <Gold.PLP.Chemscore.CHOScore>
0.0000

> <Gold.PLP.Chemscore.Metal>
0.0000

> <Gold.Chemscore.Hbonds>
donor molecule, donor type, donor heavy atom, donor atom, acceptor molecule, acceptor atom, score
      P1  H  7989  7998       L1    17  0.10
      P1  H  7997  8008       L1    17  1.00

> <Gold.PLP.Chemscore.Internal.Correction>
0.6577

> <Gold.Rescore>
     Score         DG    S(hbond)    S(metal)    S(lipo)     H(rot)  DE(clash)    DE(int)     intcor
     13.84     -17.92       0.89        0.00     129.20       2.20       0.10       3.98       ----

> <Gold.Chemscore.Fitness>
13.8370

> <Gold.Chemscore.DG>
-17.9237

> <Gold.Chemscore.ZeroCoef>
-5.4800

> <Gold.Chemscore.Hbond>
0.8864

> <Gold.Chemscore.Metal>
0.0000

> <Gold.Chemscore.Lipo>
129.1971

> <Gold.Chemscore.Internal_Hbond>
0.0000

> <Gold.Chemscore.DEClash>
0.1039

> <Gold.Chemscore.DEInternal>
3.9828

> <Gold.Chemscore.Rot>
2.2003

> <Gold.Chemscore.Internal.Correction>
   9.000000E+99

> <Gold.Chemscore.Hbonds>
donor molecule, donor type, donor heavy atom, donor atom, acceptor molecule, acceptor atom, score
      P1  H  7997  8008       L1    17  0.85

> <Gold.Chemscore.Hbond.Weighted>
-2.9605

> <Gold.Chemscore.Metal.Weighted>
-0.0000

> <Gold.Chemscore.Lipo.Weighted>
-15.1161

> <Gold.Chemscore.Internal_Hbond.Weighted>
0.0000

> <Gold.Chemscore.DEClash.Weighted>
0.1039

> <Gold.Chemscore.DEInternal.Weighted>
3.9828

> <Gold.Chemscore.Rot.Weighted>
5.6328

> <Gold.Chemscore.Internal.Correction.Weighted>
   9.000000E+99

> <Gold.Protein.RotatedTorsions>
[ 6907 6896 6895 6894 ] final -106.11 input  -60.11 | X-H torsion
[ 7974 7965 7964 7962 ] final  101.45 input  175.53 | X-H torsion
[ 8008 7997 7996 7995 ] final   -8.03 input   59.86 | X-H torsion
[ 10167 10162 10161 10158 ] final   -2.63 input  -65.29 | X-H torsion
[ 10718 10713 10712 10709 ] final -168.47 input   66.30 | X-H torsion
[ 10763 10752 10751 10750 ] final  -72.85 input  -60.55 | X-H torsion
[ 11005 11000 10999 10996 ] final  -96.90 input  -57.11 | X-H torsion

> <Gold.Protein.ActiveResidues>
 VAL166  LYS551  ARG553  GLY616  TRP617  ASP618  TYR619  PRO620  LYS621  CYS622 
 ASP623  PHE694  ASN695  SER759  ASP760  ASP761  ALA762  ILE779  LEU786  VAL792 
 PHE793  MET794  SER795  GLU796  ALA797  LYS798  CYS799  TRP800  GLU811  SER814 

> <Gold.Protein.RotatedAtoms>
  150.7372  134.0025  159.3642 H   0  0  0  0  0  0  0  0  0  0  0  0  # atno 6907 bound_to 6896
  151.7980  135.0715  160.0406 H   0  0  0  0  0  0  0  0  0  0  0  0  # atno 6908 bound_to 6896
  152.3161  133.5767  159.5749 H   0  0  0  0  0  0  0  0  0  0  0  0  # atno 6909 bound_to 6896
  145.3722  139.2396  143.3449 H   0  0  0  0  0  0  0  0  0  0  0  0  # atno 7974 bound_to 7965
  154.5780  140.2391  155.8094 H   0  0  0  0  0  0  0  0  0  0  0  0  # atno 8008 bound_to 7997
  156.2158  140.3012  155.9793 H   0  0  0  0  0  0  0  0  0  0  0  0  # atno 8009 bound_to 7997
  155.2592  140.0413  157.2986 H   0  0  0  0  0  0  0  0  0  0  0  0  # atno 8010 bound_to 7997
  140.6859  143.6634  150.8247 H   0  0  0  0  0  0  0  0  0  0  0  0  # atno 10167 bound_to 10162
  156.6974  130.9183  151.3076 H   0  0  0  0  0  0  0  0  0  0  0  0  # atno 10718 bound_to 10713
  154.4514  135.5916  153.6194 H   0  0  0  0  0  0  0  0  0  0  0  0  # atno 10763 bound_to 10752
  152.9814  135.6022  154.3600 H   0  0  0  0  0  0  0  0  0  0  0  0  # atno 10764 bound_to 10752
  154.3462  135.2841  155.2375 H   0  0  0  0  0  0  0  0  0  0  0  0  # atno 10765 bound_to 10752
  141.1396  133.8131  157.0634 H   0  0  0  0  0  0  0  0  0  0  0  0  # atno 11005 bound_to 11000
  146.2880  140.4375  142.8750 LP  0  0  0  0  0  0  0  0  0  0  0  0  # atno 17320 bound_to 7965
  144.8568  140.7082  143.6133 LP  0  0  0  0  0  0  0  0  0  0  0  0  # atno 17321 bound_to 7965
  140.0341  143.5413  152.2747 LP  0  0  0  0  0  0  0  0  0  0  0  0  # atno 17342 bound_to 10162
  139.6217  144.7630  151.2727 LP  0  0  0  0  0  0  0  0  0  0  0  0  # atno 17343 bound_to 10162
  157.6986  130.9308  150.0718 LP  0  0  0  0  0  0  0  0  0  0  0  0  # atno 17370 bound_to 10713
  156.1753  130.3648  149.9108 LP  0  0  0  0  0  0  0  0  0  0  0  0  # atno 17371 bound_to 10713
  140.0557  134.9782  157.1216 LP  0  0  0  0  0  0  0  0  0  0  0  0  # atno 17394 bound_to 11000
  140.3923  134.2171  155.7166 LP  0  0  0  0  0  0  0  0  0  0  0  0  # atno 17395 bound_to 11000

$$$$
