#       Name:                AV-unprocessed.smi:3316
#       Creating user name   scv26
#       Creation time:       Fri Mar 27 19:09:36 2020


#       File generated by GOLD software.
#

@<TRIPOS>MOLECULE
AV-unprocessed.smi:3316
    42    44     1
SMALL
NO_CHARGES


@<TRIPOS>ATOM
      1 ****        -2.8093  -1.7755   2.7135 C.3            1 S1                 0.0000
      2 ****        -2.2276  -0.9997   1.5212 C.3            1 S1                 0.0000
      3 ****        -0.6881  -1.0638   1.5033 C.3            1 S1                 0.0000
      4 ****        -0.1296  -0.4177   0.2979 N.4            1 S1                 1.0000
      5 ****         1.3422  -0.4781   0.2119 C.3            1 S1                 0.0000
      6 ****         1.8544   0.2119  -1.0655 C.3            1 S1                 0.0000
      7 ****         1.4934  -0.5465  -2.3826 C.3            1 S1                 0.0000
      8 ****         2.8682  -0.7508  -3.0599 C.3            1 S1                 0.0000
      9 ****         3.4216   0.6107  -3.4235 C.2            1 S1                 0.0000
     10 ****         3.7476   1.2233  -2.2838 C.2            1 S1                 0.0000
     11 ****         3.4018   0.2796  -1.1503 C.3            1 S1                 0.0000
     12 ****         3.7173  -1.0622  -1.8245 C.3            1 S1                 0.0000
     13 ****        -2.7439   0.4338   1.4903 C.ar           1 S1                 0.0000
     14 ****        -3.5303   0.8886   0.4107 C.ar           1 S1                 0.0000
     15 ****        -3.9835   2.2230   0.4204 C.ar           1 S1                 0.0000
     16 ****        -3.7007   3.0944   1.4118 N.ar           1 S1                 0.0000
     17 ****        -2.9492   2.6552   2.4437 C.ar           1 S1                 0.0000
     18 ****        -2.4462   1.3415   2.5301 C.ar           1 S1                 0.0000
     19 ****        -3.8995  -1.7727   2.6869 H              1 S1                 0.0000
     20 ****        -2.4992  -1.3445   3.6659 H              1 S1                 0.0000
     21 ****        -2.4839  -2.8160   2.7007 H              1 S1                 0.0000
     22 ****        -2.5841  -1.4973   0.6177 H              1 S1                 0.0000
     23 ****        -0.2742  -0.5871   2.3929 H              1 S1                 0.0000
     24 ****        -0.3639  -2.1050   1.5223 H              1 S1                 0.0000
     25 ****        -0.5162  -0.8698  -0.5184 H              1 S1                 0.0000
     26 ****         1.7620   0.0175   1.0882 H              1 S1                 0.0000
     27 ****         1.6647  -1.5189   0.2496 H              1 S1                 0.0000
     28 ****         1.4511   1.2262  -1.0923 H              1 S1                 0.0000
     29 ****         1.0251  -1.5100  -2.1762 H              1 S1                 0.0000
     30 ****         0.8098   0.0248  -3.0119 H              1 S1                 0.0000
     31 ****         2.9109  -1.4929  -3.8575 H              1 S1                 0.0000
     32 ****         3.4971   0.9985  -4.4287 H              1 S1                 0.0000
     33 ****         4.1439   2.2201  -2.1585 H              1 S1                 0.0000
     34 ****         3.9347   0.4763  -0.2195 H              1 S1                 0.0000
     35 ****         3.3820  -1.9378  -1.2666 H              1 S1                 0.0000
     36 ****         4.7777  -1.1831  -2.0560 H              1 S1                 0.0000
     37 ****        -3.7875   0.2342  -0.4093 H              1 S1                 0.0000
     38 ****        -4.5880   2.6006  -0.3910 H              1 S1                 0.0000
     39 ****        -2.7407   3.3723   3.2237 H              1 S1                 0.0000
     40 ****        -1.8492   1.0434   3.3795 H              1 S1                 0.0000
     41 ****        -0.4127   0.5521   0.2937 H              1 S1                 0.0000
     42 ****        -4.0372   4.0356   1.3828 LP             1 S1                 0.0000
@<TRIPOS>BOND
    1    1    2 1     
    2    1   19 1     
    3    1   20 1     
    4    1   21 1     
    5    2    3 1     
    6    2   13 1     
    7    2   22 1     
    8    3    4 1     
    9    3   23 1     
   10    3   24 1     
   11    4    5 1     
   12    4   25 1     
   13    4   41 1     
   14    5    6 1     
   15    5   26 1     
   16    5   27 1     
   17    6   11 1     
   18    6    7 1     
   19    6   28 1     
   20    7    8 1     
   21    7   29 1     
   22    7   30 1     
   23    8   12 1     
   24    8    9 1     
   25    8   31 1     
   26    9   10 2     
   27    9   32 1     
   28   10   11 1     
   29   10   33 1     
   30   11   12 1     
   31   11   34 1     
   32   12   35 1     
   33   12   36 1     
   34   13   18 ar    
   35   13   14 ar    
   36   14   15 ar    
   37   14   37 1     
   38   15   16 ar    
   39   15   38 1     
   40   16   17 ar    
   41   17   18 ar    
   42   17   39 1     
   43   18   40 1     
   44   16   42 1     
@<TRIPOS>SUBSTRUCTURE
      1 S1             1
@<TRIPOS>SET
LONE_PAIRS      STATIC     ATOMS    <user>   **** ""
1 42
DONOR_HYDROGENS      STATIC     ATOMS    <user>   **** ""
2 25 41
ATOM$BLUE        STATIC     ATOMS    COLORGROUP SYSTEM
1 42
ATOM$RED        STATIC     ATOMS    COLORGROUP SYSTEM
2 25 41
