AV-unprocessed.smi:2370|AV-procd|sdf|9435|dock3
  -GOLD-   2272013 63D 1   1.00000     0.00000
 Structure written by MMmdl.
 37 38  0  0  0  0  0  0  0  0  1 V2000
  146.8929  139.0737  152.7352 C   0  0  0  0  0  0  0  0  0  0  0  0
  146.8688  140.4937  152.6697 O   0  0  0  0  0  0  0  0  0  0  0  0
  147.2722  141.1833  153.8535 C   0  0  0  0  0  0  0  0  0  0  0  0
  148.7729  141.0043  154.1376 C   0  0  0  0  0  0  0  0  0  0  0  0
  149.2594  141.9962  155.0919 N   0  0  0  0  0  0  0  0  0  0  0  0
  150.2161  141.7932  156.0088 C   0  0  0  0  0  0  0  0  0  0  0  0
  150.8214  140.7286  156.1372 O   0  0  0  0  0  0  0  0  0  0  0  0
  150.4044  142.8882  156.7659 N   0  0  0  0  0  0  0  0  0  0  0  0
  151.2772  143.0487  157.8747 C   0  0  0  0  0  0  0  0  0  0  0  0
  152.0143  141.9455  158.3772 C   0  0  0  0  0  0  0  0  0  0  0  0
  152.8918  142.1355  159.4636 C   0  0  0  0  0  0  0  0  0  0  0  0
  153.6809  140.9705  160.0238 C   0  0  0  0  0  0  0  0  0  0  0  0
  153.0189  143.4254  160.0125 C   0  0  0  0  0  0  0  0  0  0  0  0
  152.2657  144.4667  159.4405 C   0  0  0  0  0  0  0  0  0  0  0  0
  151.4263  144.2872  158.3988 N   0  0  0  0  0  0  0  0  0  0  0  0
  146.7088  142.6164  153.7824 C   0  0  0  0  0  0  0  0  0  0  0  0
  146.2479  142.4659  155.2326 C   0  0  0  0  0  0  0  0  0  0  0  0
  146.2723  140.9539  155.0054 C   0  0  0  0  0  0  0  0  0  0  0  0
  146.4710  138.6670  151.8162 H   0  0  0  0  0  0  0  0  0  0  0  0
  146.3006  138.6927  153.5673 H   0  0  0  0  0  0  0  0  0  0  0  0
  147.9087  138.6892  152.8220 H   0  0  0  0  0  0  0  0  0  0  0  0
  148.9746  139.9945  154.4983 H   0  0  0  0  0  0  0  0  0  0  0  0
  149.3568  141.0972  153.2225 H   0  0  0  0  0  0  0  0  0  0  0  0
  148.8107  142.9001  155.0678 H   0  0  0  0  0  0  0  0  0  0  0  0
  149.7648  143.6527  156.6064 H   0  0  0  0  0  0  0  0  0  0  0  0
  151.9269  140.9626  157.9389 H   0  0  0  0  0  0  0  0  0  0  0  0
  154.4220  141.3064  160.7496 H   0  0  0  0  0  0  0  0  0  0  0  0
  154.2030  140.4448  159.2238 H   0  0  0  0  0  0  0  0  0  0  0  0
  153.0117  140.2664  160.5186 H   0  0  0  0  0  0  0  0  0  0  0  0
  153.6788  143.6177  160.8458 H   0  0  0  0  0  0  0  0  0  0  0  0
  152.3400  145.4719  159.8285 H   0  0  0  0  0  0  0  0  0  0  0  0
  147.4472  143.4023  153.6264 H   0  0  0  0  0  0  0  0  0  0  0  0
  145.8721  142.7163  153.0882 H   0  0  0  0  0  0  0  0  0  0  0  0
  146.9963  142.8005  155.9527 H   0  0  0  0  0  0  0  0  0  0  0  0
  145.2628  142.8815  155.4454 H   0  0  0  0  0  0  0  0  0  0  0  0
  145.3063  140.5702  154.6721 H   0  0  0  0  0  0  0  0  0  0  0  0
  146.6640  140.3777  155.8440 H   0  0  0  0  0  0  0  0  0  0  0  0
  1  2  1  0  0  0  0
  1 19  1  0  0  0  0
  1 20  1  0  0  0  0
  1 21  1  0  0  0  0
  2  3  1  0  0  0  0
  3 18  1  0  0  0  0
  3  4  1  0  0  0  0
  3 16  1  0  0  0  0
  4  5  1  0  0  0  0
  4 22  1  0  0  0  0
  4 23  1  0  0  0  0
  5  6  1  0  0  0  0
  5 24  1  0  0  0  0
  6  7  2  0  0  0  0
  6  8  1  0  0  0  0
  8  9  1  0  0  0  0
  8 25  1  0  0  0  0
  9 15  1  0  0  0  0
  9 10  2  0  0  0  0
 10 11  1  0  0  0  0
 10 26  1  0  0  0  0
 11 12  1  0  0  0  0
 11 13  2  0  0  0  0
 12 27  1  0  0  0  0
 12 28  1  0  0  0  0
 12 29  1  0  0  0  0
 13 14  1  0  0  0  0
 13 30  1  0  0  0  0
 14 15  2  0  0  0  0
 14 31  1  0  0  0  0
 16 17  1  0  0  0  0
 16 32  1  0  0  0  0
 16 33  1  0  0  0  0
 17 18  1  0  0  0  0
 17 34  1  0  0  0  0
 17 35  1  0  0  0  0
 18 36  1  0  0  0  0
 18 37  1  0  0  0  0
M  END
> <s_m_source_file>
AV-unprocessed.smi

> <i_m_source_file_index>
2370

> <i_lp_mmshare_version>
43012

> <i_f3d_flags>
0

> <s_epik_input>
W0NIMl0xW0NIMl1bQ0gyXUMxKE9bQ0gzXSlbQ0gyXVtOSF1DKD1PKVtOSF1jMltjSF1jKFtDSDNdKVtjSF1bY0hdbjI=

> <s_epik_cmdline>
J2VwaWtfcHl0aG9uJywgJy1waCcsICc3LjAnLCAnLXRuJywgJzgnLCAnLW1hJywgJzIwMCcsICctbWV0YWxfYmluZGluZycsICctaW1hZScsICc8aW5maWxlLm1hZT4nLCAnLW9tYWUnLCAnPG91dGZpbGUubWFlPic=

> <r_lp_tautomer_probability>
1

> <r_epik_Ionization_Penalty>
9.08611e-05

> <r_epik_Ionization_Penalty_Charging>
0

> <r_epik_Ionization_Penalty_Neutral>
9.08611e-05

> <r_epik_State_Penalty>
-0

> <r_epik_Charging_Adjusted_Penalty>
0

> <i_epik_Tot_Q>
0

> <i_epik_Tot_abs_Q>
0

> <r_epik_Metal_State_Penalty>
-0

> <b_epik_Metal_Only>
0

> <s_lp_Force_Field>
OPLS_2005

> <r_lp_Energy>
22.0857

> <b_lp_Chiralities_Consistent>
1

> <s_lp_Variant>
AV-unprocessed.smi:2370-1

> <Gold.Version>
5.8.1

> <Gold.Id.Protein>
6NUR|6NUR_protein|mol2

> <Gold.PLP.Fitness>
45.4999

> <Gold.PLP.PLP>
-40.4062

> <Gold.PLP.part.hbond>
-2.0000

> <Gold.PLP.part.metal>
0.0000

> <Gold.PLP.part.buried>
-6.8750

> <Gold.PLP.part.nonpolar>
-33.0150

> <Gold.PLP.part.repulsive>
0.6301

> <Gold.PLP.ligand.clash>
0.0000

> <Gold.PLP.ligand.torsion>
0.5054

> <Gold.PLP.Chemscore.Hbond>
1.9440

> <Gold.PLP.Chemscore.CHOScore>
0.0000

> <Gold.PLP.Chemscore.Metal>
0.0000

> <Gold.Chemscore.Hbonds>
donor molecule, donor type, donor heavy atom, donor atom, acceptor molecule, acceptor atom, score
      L1  H     5    24       P1  8028  0.94
      L1  H     8    25       P1  8028  1.00

> <Gold.PLP.Chemscore.Internal.Correction>
0.2725

> <Gold.Rescore>
     Score         DG    S(hbond)    S(metal)    S(lipo)     H(rot)  DE(clash)    DE(int)     intcor
     15.94     -18.67       1.95        0.00      88.89       1.45       0.08       2.65       ----

> <Gold.Chemscore.Fitness>
15.9386

> <Gold.Chemscore.DG>
-18.6703

> <Gold.Chemscore.ZeroCoef>
-5.4800

> <Gold.Chemscore.Hbond>
1.9484

> <Gold.Chemscore.Metal>
0.0000

> <Gold.Chemscore.Lipo>
88.8923

> <Gold.Chemscore.Internal_Hbond>
0.0000

> <Gold.Chemscore.DEClash>
0.0840

> <Gold.Chemscore.DEInternal>
2.6477

> <Gold.Chemscore.Rot>
1.4523

> <Gold.Chemscore.Internal.Correction>
   9.000000E+99

> <Gold.Chemscore.Hbonds>
donor molecule, donor type, donor heavy atom, donor atom, acceptor molecule, acceptor atom, score
      L1  H     5    24       P1  8028  0.91
      L1  H     8    25       P1  8028  0.98

> <Gold.Chemscore.Hbond.Weighted>
-6.5077

> <Gold.Chemscore.Metal.Weighted>
-0.0000

> <Gold.Chemscore.Lipo.Weighted>
-10.4004

> <Gold.Chemscore.Internal_Hbond.Weighted>
0.0000

> <Gold.Chemscore.DEClash.Weighted>
0.0840

> <Gold.Chemscore.DEInternal.Weighted>
2.6477

> <Gold.Chemscore.Rot.Weighted>
3.7179

> <Gold.Chemscore.Internal.Correction.Weighted>
   9.000000E+99

> <Gold.Protein.RotatedTorsions>
[ 6907 6896 6895 6894 ] final  -33.77 input  -60.11 | X-H torsion
[ 7974 7965 7964 7962 ] final   93.15 input  175.53 | X-H torsion
[ 8008 7997 7996 7995 ] final  113.21 input   59.86 | X-H torsion
[ 10167 10162 10161 10158 ] final  145.82 input  -65.29 | X-H torsion
[ 10718 10713 10712 10709 ] final  173.14 input   66.30 | X-H torsion
[ 10763 10752 10751 10750 ] final  -78.25 input  -60.55 | X-H torsion
[ 11005 11000 10999 10996 ] final  -36.64 input  -57.11 | X-H torsion

> <Gold.Protein.ActiveResidues>
 VAL166  LYS551  ARG553  GLY616  TRP617  ASP618  TYR619  PRO620  LYS621  CYS622 
 ASP623  PHE694  ASN695  SER759  ASP760  ASP761  ALA762  ILE779  LEU786  VAL792 
 PHE793  MET794  SER795  GLU796  ALA797  LYS798  CYS799  TRP800  GLU811  SER814 

> <Gold.Protein.RotatedAtoms>
  151.0612  134.9738  159.8261 H   0  0  0  0  0  0  0  0  0  0  0  0  # atno 6907 bound_to 6896
  152.5395  134.2415  159.8874 H   0  0  0  0  0  0  0  0  0  0  0  0  # atno 6908 bound_to 6896
  151.2435  133.4344  159.2642 H   0  0  0  0  0  0  0  0  0  0  0  0  # atno 6909 bound_to 6896
  145.4827  139.2278  143.2873 H   0  0  0  0  0  0  0  0  0  0  0  0  # atno 7974 bound_to 7965
  156.2243  140.2984  156.0028 H   0  0  0  0  0  0  0  0  0  0  0  0  # atno 8008 bound_to 7997
  155.2398  140.0422  157.2990 H   0  0  0  0  0  0  0  0  0  0  0  0  # atno 8009 bound_to 7997
  154.5890  140.2396  155.7955 H   0  0  0  0  0  0  0  0  0  0  0  0  # atno 8010 bound_to 7997
  139.4918  144.5874  151.6751 H   0  0  0  0  0  0  0  0  0  0  0  0  # atno 10167 bound_to 10162
  156.9687  131.0083  151.2910 H   0  0  0  0  0  0  0  0  0  0  0  0  # atno 10718 bound_to 10713
  154.5235  135.5736  153.6700 H   0  0  0  0  0  0  0  0  0  0  0  0  # atno 10763 bound_to 10752
  152.9922  135.6187  154.2723 H   0  0  0  0  0  0  0  0  0  0  0  0  # atno 10764 bound_to 10752
  154.2645  135.2855  155.2744 H   0  0  0  0  0  0  0  0  0  0  0  0  # atno 10765 bound_to 10752
  140.9890  133.7015  156.1817 H   0  0  0  0  0  0  0  0  0  0  0  0  # atno 11005 bound_to 11000
  146.2331  140.5615  142.8966 LP  0  0  0  0  0  0  0  0  0  0  0  0  # atno 17320 bound_to 7965
  144.7879  140.5974  143.6561 LP  0  0  0  0  0  0  0  0  0  0  0  0  # atno 17321 bound_to 7965
  140.5493  144.0452  150.6120 LP  0  0  0  0  0  0  0  0  0  0  0  0  # atno 17342 bound_to 10162
  140.3500  143.2968  152.0497 LP  0  0  0  0  0  0  0  0  0  0  0  0  # atno 17343 bound_to 10162
  157.5607  130.8244  149.8263 LP  0  0  0  0  0  0  0  0  0  0  0  0  # atno 17370 bound_to 10713
  156.0292  130.3770  150.1737 LP  0  0  0  0  0  0  0  0  0  0  0  0  # atno 17371 bound_to 10713
  140.7069  134.4504  157.5583 LP  0  0  0  0  0  0  0  0  0  0  0  0  # atno 17394 bound_to 11000
  139.8984  134.8615  156.2005 LP  0  0  0  0  0  0  0  0  0  0  0  0  # atno 17395 bound_to 11000

$$$$
