AV-unprocessed.smi:2516|AV-procd|sdf|9899|dock9
  -GOLD-   2272013533D 1   1.00000     0.00000
 Structure written by MMmdl.
 47 48  0  0  0  0  0  0  0  0  1 V2000
  151.1341  141.4890  157.1876 C   0  0  0  0  0  0  0  0  0  0  0  0
  151.4623  140.9013  155.8103 C   0  0  0  0  0  0  0  0  0  0  0  0
  150.2722  140.4006  155.1448 N   0  0  0  0  0  0  0  0  0  0  0  0
  149.2165  141.2331  154.9795 N   0  0  0  0  0  0  0  0  0  0  0  0
  148.2940  140.5209  154.3493 C   0  0  0  0  0  0  0  0  0  0  0  0
  147.0098  141.1920  153.9476 C   0  0  0  0  0  0  0  0  0  0  0  0
  148.7542  139.1862  154.1414 C   0  0  0  0  0  0  0  0  0  0  0  0
  148.1075  138.1088  153.4853 N   0  0  0  0  0  0  0  0  0  0  0  0
  146.8518  137.6813  153.6880 C   0  0  0  0  0  0  0  0  0  0  0  0
  146.0607  138.1759  154.4902 O   0  0  0  0  0  0  0  0  0  0  0  0
  146.5675  136.6212  152.9178 N   0  0  0  0  0  0  0  0  0  0  0  0
  145.3018  135.8879  152.9121 C   0  0  1  0  0  0  0  0  0  0  0  0
  144.1428  136.9018  152.9462 C   0  0  0  0  0  0  0  0  0  0  0  0
  145.2448  134.9307  151.6924 C   0  0  0  0  0  0  0  0  0  0  0  0
  144.0457  133.9620  151.7510 C   0  0  0  0  0  0  0  0  0  0  0  0
  144.0646  132.9746  150.5727 C   0  0  0  0  0  0  0  0  0  0  0  0
  145.2911  132.2554  150.5564 O   0  0  0  0  0  0  0  0  0  0  0  0
  146.4188  133.1016  150.3702 C   0  0  0  0  0  0  0  0  0  0  0  0
  146.5315  134.0904  151.5415 C   0  0  0  0  0  0  0  0  0  0  0  0
  150.0289  139.1402  154.6271 C   0  0  0  0  0  0  0  0  0  0  0  0
  151.0345  138.0346  154.6638 C   0  0  0  0  0  0  0  0  0  0  0  0
  152.0356  141.8576  157.6770 H   0  0  0  0  0  0  0  0  0  0  0  0
  150.6839  140.7398  157.8394 H   0  0  0  0  0  0  0  0  0  0  0  0
  150.4363  142.3227  157.1037 H   0  0  0  0  0  0  0  0  0  0  0  0
  151.9273  141.6598  155.1791 H   0  0  0  0  0  0  0  0  0  0  0  0
  152.1851  140.0909  155.9057 H   0  0  0  0  0  0  0  0  0  0  0  0
  146.6298  140.7878  153.0097 H   0  0  0  0  0  0  0  0  0  0  0  0
  147.1475  142.2643  153.8054 H   0  0  0  0  0  0  0  0  0  0  0  0
  146.2420  141.0565  154.7090 H   0  0  0  0  0  0  0  0  0  0  0  0
  148.6893  137.5408  152.8877 H   0  0  0  0  0  0  0  0  0  0  0  0
  147.2851  136.2863  152.2919 H   0  0  0  0  0  0  0  0  0  0  0  0
  145.2443  135.2775  153.8154 H   0  0  0  0  0  0  0  0  0  0  0  0
  143.1785  136.4104  153.0696 H   0  0  0  0  0  0  0  0  0  0  0  0
  144.1047  137.4927  152.0304 H   0  0  0  0  0  0  0  0  0  0  0  0
  144.2506  137.5937  153.7823 H   0  0  0  0  0  0  0  0  0  0  0  0
  145.1389  135.5380  150.7918 H   0  0  0  0  0  0  0  0  0  0  0  0
  144.0650  133.4053  152.6889 H   0  0  0  0  0  0  0  0  0  0  0  0
  143.1040  134.5096  151.7318 H   0  0  0  0  0  0  0  0  0  0  0  0
  143.2433  132.2640  150.6676 H   0  0  0  0  0  0  0  0  0  0  0  0
  143.9239  133.4969  149.6252 H   0  0  0  0  0  0  0  0  0  0  0  0
  147.3154  132.4841  150.3142 H   0  0  0  0  0  0  0  0  0  0  0  0
  146.3379  133.6316  149.4198 H   0  0  0  0  0  0  0  0  0  0  0  0
  147.3990  134.7307  151.3801 H   0  0  0  0  0  0  0  0  0  0  0  0
  146.7212  133.5382  152.4630 H   0  0  0  0  0  0  0  0  0  0  0  0
  150.5970  137.0919  154.3357 H   0  0  0  0  0  0  0  0  0  0  0  0
  151.4170  137.8893  155.6741 H   0  0  0  0  0  0  0  0  0  0  0  0
  151.8776  138.2582  154.0102 H   0  0  0  0  0  0  0  0  0  0  0  0
  1  2  1  0  0  0  0
  1 22  1  0  0  0  0
  1 23  1  0  0  0  0
  1 24  1  0  0  0  0
  2  3  1  0  0  0  0
  2 25  1  0  0  0  0
  2 26  1  0  0  0  0
  3 20  1  0  0  0  0
  3  4  1  0  0  0  0
  4  5  2  0  0  0  0
  5  6  1  0  0  0  0
  5  7  1  0  0  0  0
  6 27  1  0  0  0  0
  6 28  1  0  0  0  0
  6 29  1  0  0  0  0
  7  8  1  0  0  0  0
  7 20  2  0  0  0  0
  8  9  1  0  0  0  0
  8 30  1  0  0  0  0
  9 10  2  0  0  0  0
  9 11  1  0  0  0  0
 11 12  1  0  0  0  0
 11 31  1  0  0  0  0
 12 13  1  0  0  0  0
 12 14  1  0  0  0  0
 12 32  1  0  0  0  0
 13 33  1  0  0  0  0
 13 34  1  0  0  0  0
 13 35  1  0  0  0  0
 14 19  1  0  0  0  0
 14 15  1  0  0  0  0
 14 36  1  0  0  0  0
 15 16  1  0  0  0  0
 15 37  1  0  0  0  0
 15 38  1  0  0  0  0
 16 17  1  0  0  0  0
 16 39  1  0  0  0  0
 16 40  1  0  0  0  0
 17 18  1  0  0  0  0
 18 19  1  0  0  0  0
 18 41  1  0  0  0  0
 18 42  1  0  0  0  0
 19 43  1  0  0  0  0
 19 44  1  0  0  0  0
 20 21  1  0  0  0  0
 21 45  1  0  0  0  0
 21 46  1  0  0  0  0
 21 47  1  0  0  0  0
M  END
> <s_m_source_file>
AV-unprocessed.smi

> <i_m_source_file_index>
2516

> <i_lp_mmshare_version>
43012

> <i_f3d_flags>
0

> <s_epik_input>
W0NIM11bQ0gyXW4xbmMoW0NIM10pYyhjMVtDSDNdKVtOSF1DKD1PKVtOSF1bQ0BIXShbQ0gzXSlbQ0hdMltDSDJdW0NIMl1PW0NIMl1bQ0gyXTI=

> <s_epik_cmdline>
J2VwaWtfcHl0aG9uJywgJy1waCcsICc3LjAnLCAnLXRuJywgJzgnLCAnLW1hJywgJzIwMCcsICctbWV0YWxfYmluZGluZycsICctaW1hZScsICc8aW5maWxlLm1hZT4nLCAnLW9tYWUnLCAnPG91dGZpbGUubWFlPic=

> <r_lp_tautomer_probability>
1

> <r_epik_Ionization_Penalty>
0.00383358

> <r_epik_Ionization_Penalty_Charging>
0

> <r_epik_Ionization_Penalty_Neutral>
0.00383358

> <r_epik_State_Penalty>
0.00270714

> <r_epik_Charging_Adjusted_Penalty>
0.00270714

> <i_epik_Tot_Q>
0

> <i_epik_Tot_abs_Q>
0

> <r_epik_Metal_State_Penalty>
-0

> <b_epik_Metal_Only>
0

> <s_lp_Force_Field>
OPLS_2005

> <r_lp_Energy>
15.2282

> <b_lp_Chiralities_Consistent>
1

> <s_lp_Variant>
AV-unprocessed.smi:2516-2

> <Gold.Version>
5.8.1

> <Gold.Id.Protein>
6NUR|6NUR_protein|mol2

> <Gold.PLP.Fitness>
42.3562

> <Gold.PLP.PLP>
-37.4349

> <Gold.PLP.part.hbond>
-2.0641

> <Gold.PLP.part.metal>
0.0000

> <Gold.PLP.part.buried>
-2.8513

> <Gold.PLP.part.nonpolar>
-31.2799

> <Gold.PLP.part.repulsive>
0.4062

> <Gold.PLP.ligand.clash>
0.0000

> <Gold.PLP.ligand.torsion>
0.6981

> <Gold.PLP.Chemscore.Hbond>
2.0000

> <Gold.PLP.Chemscore.CHOScore>
0.0000

> <Gold.PLP.Chemscore.Metal>
0.0000

> <Gold.Chemscore.Hbonds>
donor molecule, donor type, donor heavy atom, donor atom, acceptor molecule, acceptor atom, score
      L1  H     8    30       P1  7948  1.00
      L1  H    11    31       P1  7948  0.99

> <Gold.PLP.Chemscore.Internal.Correction>
0.3175

> <Gold.Rescore>
     Score         DG    S(hbond)    S(metal)    S(lipo)     H(rot)  DE(clash)    DE(int)     intcor
     16.59     -18.37       1.94        0.00      83.25       1.30       0.02       1.77       ----

> <Gold.Chemscore.Fitness>
16.5876

> <Gold.Chemscore.DG>
-18.3694

> <Gold.Chemscore.ZeroCoef>
-5.4800

> <Gold.Chemscore.Hbond>
1.9385

> <Gold.Chemscore.Metal>
0.0000

> <Gold.Chemscore.Lipo>
83.2507

> <Gold.Chemscore.Internal_Hbond>
0.0000

> <Gold.Chemscore.DEClash>
0.0158

> <Gold.Chemscore.DEInternal>
1.7660

> <Gold.Chemscore.Rot>
1.2990

> <Gold.Chemscore.Internal.Correction>
   9.000000E+99

> <Gold.Chemscore.Hbonds>
donor molecule, donor type, donor heavy atom, donor atom, acceptor molecule, acceptor atom, score
      L1  H     8    30       P1  7948  0.97
      L1  H    11    31       P1  7948  0.94

> <Gold.Chemscore.Hbond.Weighted>
-6.4745

> <Gold.Chemscore.Metal.Weighted>
-0.0000

> <Gold.Chemscore.Lipo.Weighted>
-9.7403

> <Gold.Chemscore.Internal_Hbond.Weighted>
0.0000

> <Gold.Chemscore.DEClash.Weighted>
0.0158

> <Gold.Chemscore.DEInternal.Weighted>
1.7660

> <Gold.Chemscore.Rot.Weighted>
3.3254

> <Gold.Chemscore.Internal.Correction.Weighted>
   9.000000E+99

> <Gold.Protein.RotatedTorsions>
[ 6907 6896 6895 6894 ] final  157.73 input  -60.11 | X-H torsion
[ 7974 7965 7964 7962 ] final   -0.68 input  175.53 | X-H torsion
[ 8008 7997 7996 7995 ] final   56.01 input   59.86 | X-H torsion
[ 10167 10162 10161 10158 ] final -149.66 input  -65.29 | X-H torsion
[ 10718 10713 10712 10709 ] final  -32.77 input   66.30 | X-H torsion
[ 10763 10752 10751 10750 ] final   61.70 input  -60.55 | X-H torsion
[ 11005 11000 10999 10996 ] final -172.15 input  -57.11 | X-H torsion

> <Gold.Protein.ActiveResidues>
 VAL166  LYS551  ARG553  GLY616  TRP617  ASP618  TYR619  PRO620  LYS621  CYS622 
 ASP623  PHE694  ASN695  SER759  ASP760  ASP761  ALA762  ILE779  LEU786  VAL792 
 PHE793  MET794  SER795  GLU796  ALA797  LYS798  CYS799  TRP800  GLU811  SER814 

> <Gold.Protein.RotatedAtoms>
  152.0108  133.3860  159.4218 H   0  0  0  0  0  0  0  0  0  0  0  0  # atno 6907 bound_to 6896
  150.6900  134.3733  159.5011 H   0  0  0  0  0  0  0  0  0  0  0  0  # atno 6908 bound_to 6896
  152.1493  134.9000  160.0599 H   0  0  0  0  0  0  0  0  0  0  0  0  # atno 6909 bound_to 6896
  146.2425  140.1306  142.8338 H   0  0  0  0  0  0  0  0  0  0  0  0  # atno 7974 bound_to 7965
  155.5105  140.3477  155.4387 H   0  0  0  0  0  0  0  0  0  0  0  0  # atno 8008 bound_to 7997
  156.0853  140.1397  156.9689 H   0  0  0  0  0  0  0  0  0  0  0  0  # atno 8009 bound_to 7997
  154.4603  140.0937  156.6850 H   0  0  0  0  0  0  0  0  0  0  0  0  # atno 8010 bound_to 7997
  139.7423  143.8644  152.2565 H   0  0  0  0  0  0  0  0  0  0  0  0  # atno 10167 bound_to 10162
  156.3708  130.4339  149.7547 H   0  0  0  0  0  0  0  0  0  0  0  0  # atno 10718 bound_to 10713
  152.9959  135.5491  154.6076 H   0  0  0  0  0  0  0  0  0  0  0  0  # atno 10763 bound_to 10752
  154.5404  135.2819  155.1103 H   0  0  0  0  0  0  0  0  0  0  0  0  # atno 10764 bound_to 10752
  154.2383  135.6421  153.5251 H   0  0  0  0  0  0  0  0  0  0  0  0  # atno 10765 bound_to 10752
  140.5002  134.5901  157.4985 H   0  0  0  0  0  0  0  0  0  0  0  0  # atno 11005 bound_to 11000
  145.0329  140.8885  143.5099 LP  0  0  0  0  0  0  0  0  0  0  0  0  # atno 17320 bound_to 7965
  145.1374  139.2594  143.5508 LP  0  0  0  0  0  0  0  0  0  0  0  0  # atno 17321 bound_to 7965
  139.8598  144.7123  150.9114 LP  0  0  0  0  0  0  0  0  0  0  0  0  # atno 17342 bound_to 10162
  140.7787  143.3827  151.1447 LP  0  0  0  0  0  0  0  0  0  0  0  0  # atno 17343 bound_to 10162
  156.4675  130.7981  151.3000 LP  0  0  0  0  0  0  0  0  0  0  0  0  # atno 17370 bound_to 10713
  157.7483  131.0046  150.3083 LP  0  0  0  0  0  0  0  0  0  0  0  0  # atno 17371 bound_to 10713
  139.9718  134.7281  156.0027 LP  0  0  0  0  0  0  0  0  0  0  0  0  # atno 17394 bound_to 11000
  141.1439  133.6559  156.3811 LP  0  0  0  0  0  0  0  0  0  0  0  0  # atno 17395 bound_to 11000

$$$$
