AV-unprocessed.smi:2051|AV-procd|sdf|8326|dock1
  -GOLD-   2272010593D 1   1.00000     0.00000
 Structure written by MMmdl.
 33 34  0  0  0  0  0  0  0  0  1 V2000
  149.6775  142.9247  159.1330 O   0  0  0  0  0  0  0  0  0  0  0  0
  150.1820  142.4908  158.0966 C   0  0  0  0  0  0  0  0  0  0  0  0
  149.6587  141.1986  157.4547 C   0  0  0  0  0  0  0  0  0  0  0  0
  148.8142  141.4454  156.2741 N   0  0  0  0  0  0  0  0  0  0  0  0
  147.5039  141.9090  156.5056 C   0  0  0  0  0  0  0  0  0  0  0  0
  146.6524  142.1628  155.4994 C   0  0  0  0  0  0  0  0  0  0  0  0
  147.1104  141.9486  154.1472 C   0  0  0  0  0  0  0  0  0  0  0  0
  148.3607  141.5024  153.9144 C   0  0  0  0  0  0  0  0  0  0  0  0
  149.2942  141.2219  155.0114 C   0  0  0  0  0  0  0  0  0  0  0  0
  150.4374  140.8111  154.8079 O   0  0  0  0  0  0  0  0  0  0  0  0
  151.1927  143.0994  157.4579 N   0  0  0  0  0  0  0  0  0  0  0  0
  151.8705  144.3111  157.9071 C   0  0  0  0  0  0  0  0  0  0  0  0
  152.7061  144.0574  159.1739 C   0  0  2  0  0  0  0  0  0  0  0  0
  152.9507  142.5855  159.5099 C   0  0  0  0  0  0  0  0  0  0  0  0
  153.2142  142.6551  160.9962 C   0  0  0  0  0  0  0  0  0  0  0  0
  152.2191  143.7243  161.4384 C   0  0  0  0  0  0  0  0  0  0  0  0
  152.0415  144.5878  160.3175 O   0  0  0  0  0  0  0  0  0  0  0  0
  150.5171  140.5783  157.1940 H   0  0  0  0  0  0  0  0  0  0  0  0
  149.1005  140.6197  158.1933 H   0  0  0  0  0  0  0  0  0  0  0  0
  147.2365  142.0365  157.5445 H   0  0  0  0  0  0  0  0  0  0  0  0
  145.6503  142.5140  155.6961 H   0  0  0  0  0  0  0  0  0  0  0  0
  146.4466  142.1458  153.3182 H   0  0  0  0  0  0  0  0  0  0  0  0
  148.6856  141.3469  152.8960 H   0  0  0  0  0  0  0  0  0  0  0  0
  151.5379  142.6762  156.6086 H   0  0  0  0  0  0  0  0  0  0  0  0
  152.5258  144.6423  157.1013 H   0  0  0  0  0  0  0  0  0  0  0  0
  151.1597  145.1222  158.0732 H   0  0  0  0  0  0  0  0  0  0  0  0
  153.6669  144.5683  159.0921 H   0  0  0  0  0  0  0  0  0  0  0  0
  152.0554  141.9923  159.3186 H   0  0  0  0  0  0  0  0  0  0  0  0
  153.7776  142.1500  158.9479 H   0  0  0  0  0  0  0  0  0  0  0  0
  153.0707  141.7013  161.5043 H   0  0  0  0  0  0  0  0  0  0  0  0
  154.2357  142.9912  161.1792 H   0  0  0  0  0  0  0  0  0  0  0  0
  151.2566  143.2722  161.6804 H   0  0  0  0  0  0  0  0  0  0  0  0
  152.5645  144.2742  162.3142 H   0  0  0  0  0  0  0  0  0  0  0  0
  1  2  2  0  0  0  0
  2  3  1  0  0  0  0
  2 11  1  0  0  0  0
  3  4  1  0  0  0  0
  3 18  1  0  0  0  0
  3 19  1  0  0  0  0
  4  9  1  0  0  0  0
  4  5  1  0  0  0  0
  5  6  2  0  0  0  0
  5 20  1  0  0  0  0
  6  7  1  0  0  0  0
  6 21  1  0  0  0  0
  7  8  2  0  0  0  0
  7 22  1  0  0  0  0
  8  9  1  0  0  0  0
  8 23  1  0  0  0  0
  9 10  2  0  0  0  0
 11 12  1  0  0  0  0
 11 24  1  0  0  0  0
 12 13  1  0  0  0  0
 12 25  1  0  0  0  0
 12 26  1  0  0  0  0
 13 17  1  0  0  0  0
 13 14  1  0  0  0  0
 13 27  1  0  0  0  0
 14 15  1  0  0  0  0
 14 28  1  0  0  0  0
 14 29  1  0  0  0  0
 15 16  1  0  0  0  0
 15 30  1  0  0  0  0
 15 31  1  0  0  0  0
 16 17  1  0  0  0  0
 16 32  1  0  0  0  0
 16 33  1  0  0  0  0
M  END
> <s_m_source_file>
AV-unprocessed.smi

> <i_m_source_file_index>
2051

> <i_lp_mmshare_version>
43012

> <i_f3d_flags>
0

> <s_epik_input>
TzFbQ0gyXVtDSDJdW0NIMl1bQ0BIXTFbQ0gyXVtOSF1DKD1PKVtDSDJdbjJbY0hdW2NIXVtjSF1bY0hdYzI9Tw==

> <s_epik_cmdline>
J2VwaWtfcHl0aG9uJywgJy1waCcsICc3LjAnLCAnLXRuJywgJzgnLCAnLW1hJywgJzIwMCcsICctbWV0YWxfYmluZGluZycsICctaW1hZScsICc8aW5maWxlLm1hZT4nLCAnLW9tYWUnLCAnPG91dGZpbGUubWFlPic=

> <r_lp_tautomer_probability>
1

> <r_epik_Ionization_Penalty>
3.94187e-07

> <r_epik_Ionization_Penalty_Charging>
3.67328e-07

> <r_epik_Ionization_Penalty_Neutral>
2.6859e-08

> <r_epik_State_Penalty>
-0

> <r_epik_Charging_Adjusted_Penalty>
3.67328e-07

> <i_epik_Tot_Q>
0

> <i_epik_Tot_abs_Q>
0

> <r_epik_Metal_State_Penalty>
-0

> <b_epik_Metal_Only>
0

> <s_lp_Force_Field>
OPLS_2005

> <r_lp_Energy>
26.4026

> <b_lp_Chiralities_Consistent>
1

> <s_lp_Variant>
AV-unprocessed.smi:2051-1

> <Gold.Version>
5.8.1

> <Gold.Id.Protein>
6NUR|6NUR_protein|mol2

> <Gold.PLP.Fitness>
40.8088

> <Gold.PLP.PLP>
-40.1860

> <Gold.PLP.part.hbond>
-2.0000

> <Gold.PLP.part.metal>
0.0000

> <Gold.PLP.part.buried>
-5.3019

> <Gold.PLP.part.nonpolar>
-33.6410

> <Gold.PLP.part.repulsive>
0.2919

> <Gold.PLP.ligand.clash>
0.0000

> <Gold.PLP.ligand.torsion>
1.0865

> <Gold.PLP.Chemscore.Hbond>
0.9280

> <Gold.PLP.Chemscore.CHOScore>
0.0000

> <Gold.PLP.Chemscore.Metal>
0.0000

> <Gold.Chemscore.Hbonds>
donor molecule, donor type, donor heavy atom, donor atom, acceptor molecule, acceptor atom, score
      P1  H  7989  7998       L1    10  0.82

> <Gold.PLP.Chemscore.Internal.Correction>
0.0118

> <Gold.Rescore>
     Score         DG    S(hbond)    S(metal)    S(lipo)     H(rot)  DE(clash)    DE(int)     intcor
     13.57     -14.63       0.96        0.00      87.75       1.69       0.03       1.03       ----

> <Gold.Chemscore.Fitness>
13.5658

> <Gold.Chemscore.DG>
-14.6262

> <Gold.Chemscore.ZeroCoef>
-5.4800

> <Gold.Chemscore.Hbond>
0.9625

> <Gold.Chemscore.Metal>
0.0000

> <Gold.Chemscore.Lipo>
87.7515

> <Gold.Chemscore.Internal_Hbond>
0.0000

> <Gold.Chemscore.DEClash>
0.0314

> <Gold.Chemscore.DEInternal>
1.0290

> <Gold.Chemscore.Rot>
1.6936

> <Gold.Chemscore.Internal.Correction>
   9.000000E+99

> <Gold.Chemscore.Hbonds>
donor molecule, donor type, donor heavy atom, donor atom, acceptor molecule, acceptor atom, score
      P1  H  7989  7998       L1    10  0.81

> <Gold.Chemscore.Hbond.Weighted>
-3.2149

> <Gold.Chemscore.Metal.Weighted>
-0.0000

> <Gold.Chemscore.Lipo.Weighted>
-10.2669

> <Gold.Chemscore.Internal_Hbond.Weighted>
0.0000

> <Gold.Chemscore.DEClash.Weighted>
0.0314

> <Gold.Chemscore.DEInternal.Weighted>
1.0290

> <Gold.Chemscore.Rot.Weighted>
4.3357

> <Gold.Chemscore.Internal.Correction.Weighted>
   9.000000E+99

> <Gold.Protein.RotatedTorsions>
[ 6907 6896 6895 6894 ] final -158.46 input  -60.11 | X-H torsion
[ 7974 7965 7964 7962 ] final  134.70 input  175.53 | X-H torsion
[ 8008 7997 7996 7995 ] final   98.81 input   59.86 | X-H torsion
[ 10167 10162 10161 10158 ] final  110.16 input  -65.29 | X-H torsion
[ 10718 10713 10712 10709 ] final -168.29 input   66.30 | X-H torsion
[ 10763 10752 10751 10750 ] final   85.52 input  -60.55 | X-H torsion
[ 11005 11000 10999 10996 ] final  -20.64 input  -57.11 | X-H torsion

> <Gold.Protein.ActiveResidues>
 VAL166  LYS551  ARG553  GLY616  TRP617  ASP618  TYR619  PRO620  LYS621  CYS622 
 ASP623  PHE694  ASN695  SER759  ASP760  ASP761  ALA762  ILE779  LEU786  VAL792 
 PHE793  MET794  SER795  GLU796  ALA797  LYS798  CYS799  TRP800  GLU811  SER814 

> <Gold.Protein.RotatedAtoms>
  151.3185  133.4050  159.2652 H   0  0  0  0  0  0  0  0  0  0  0  0  # atno 6907 bound_to 6896
  151.0054  134.9356  159.7988 H   0  0  0  0  0  0  0  0  0  0  0  0  # atno 6908 bound_to 6896
  152.5286  134.3150  159.9180 H   0  0  0  0  0  0  0  0  0  0  0  0  # atno 6909 bound_to 6896
  144.9737  139.4578  143.5420 H   0  0  0  0  0  0  0  0  0  0  0  0  # atno 7974 bound_to 7965
  156.1042  140.3238  155.7983 H   0  0  0  0  0  0  0  0  0  0  0  0  # atno 8008 bound_to 7997
  155.4785  140.0552  157.2987 H   0  0  0  0  0  0  0  0  0  0  0  0  # atno 8009 bound_to 7997
  154.4716  140.2014  155.9995 H   0  0  0  0  0  0  0  0  0  0  0  0  # atno 8010 bound_to 7997
  139.6710  144.7125  151.1688 H   0  0  0  0  0  0  0  0  0  0  0  0  # atno 10167 bound_to 10162
  156.6948  130.9173  151.3073 H   0  0  0  0  0  0  0  0  0  0  0  0  # atno 10718 bound_to 10713
  153.1482  135.4614  154.9598 H   0  0  0  0  0  0  0  0  0  0  0  0  # atno 10763 bound_to 10752
  154.7803  135.3186  154.8005 H   0  0  0  0  0  0  0  0  0  0  0  0  # atno 10764 bound_to 10752
  153.8515  135.6921  153.4846 H   0  0  0  0  0  0  0  0  0  0  0  0  # atno 10765 bound_to 10752
  140.8484  133.7875  155.9938 H   0  0  0  0  0  0  0  0  0  0  0  0  # atno 11005 bound_to 11000
  146.3389  139.8966  142.8801 LP  0  0  0  0  0  0  0  0  0  0  0  0  # atno 17320 bound_to 7965
  145.2521  141.0047  143.3875 LP  0  0  0  0  0  0  0  0  0  0  0  0  # atno 17321 bound_to 7965
  140.7618  143.5845  150.8860 LP  0  0  0  0  0  0  0  0  0  0  0  0  # atno 17342 bound_to 10162
  139.9510  143.6272  152.3029 LP  0  0  0  0  0  0  0  0  0  0  0  0  # atno 17343 bound_to 10162
  157.6995  130.9318  150.0743 LP  0  0  0  0  0  0  0  0  0  0  0  0  # atno 17370 bound_to 10713
  156.1771  130.3648  149.9085 LP  0  0  0  0  0  0  0  0  0  0  0  0  # atno 17371 bound_to 10713
  140.8818  134.2602  157.5140 LP  0  0  0  0  0  0  0  0  0  0  0  0  # atno 17394 bound_to 11000
  139.8704  134.9619  156.4410 LP  0  0  0  0  0  0  0  0  0  0  0  0  # atno 17395 bound_to 11000

$$$$
