#       Name:                AV-unprocessed.smi:1877
#       Creating user name   scv26
#       Creation time:       Fri Mar 27 09:35:04 2020


#       File generated by GOLD software.
#

@<TRIPOS>MOLECULE
AV-unprocessed.smi:1877
    35    37     1
SMALL
NO_CHARGES


@<TRIPOS>ATOM
      1 ****        -1.1085   3.0996   0.3160 O.3            1 S1                 0.0000
      2 ****        -0.7152   1.7471   0.2005 C.3            1 S1                 0.0000
      3 ****         0.8236   1.6993   0.1331 C.3            1 S1                 0.0000
      4 ****         1.3324   0.3407   0.1852 N.pl3          1 S1                 0.0000
      5 ****         1.7824  -0.4000  -0.8461 C.2            1 S1                 0.0000
      6 ****         2.1974  -1.6341  -0.5747 N.2            1 S1                 0.0000
      7 ****         1.9963  -1.7018   0.7934 C.ar           1 S1                 0.0000
      8 ****         2.2380  -2.7537   1.7058 C.ar           1 S1                 0.0000
      9 ****         1.9493  -2.5906   3.0769 C.ar           1 S1                 0.0000
     10 ****         1.4152  -1.3767   3.5561 C.ar           1 S1                 0.0000
     11 ****         1.1655  -0.3145   2.6661 C.ar           1 S1                 0.0000
     12 ****         1.4564  -0.4809   1.2996 C.ar           1 S1                 0.0000
     13 ****        -1.3651   1.0552  -0.9926 C.ar           1 S1                 0.0000
     14 ****        -1.4271   1.7058  -2.2452 C.ar           1 S1                 0.0000
     15 ****        -2.0078   1.0620  -3.3546 C.ar           1 S1                 0.0000
     16 ****        -2.0629   1.6933  -4.5510 F              1 S1                 0.0000
     17 ****        -2.5285  -0.2387  -3.2206 C.ar           1 S1                 0.0000
     18 ****        -2.4666  -0.8954  -1.9769 C.ar           1 S1                 0.0000
     19 ****        -1.8865  -0.2531  -0.8656 C.ar           1 S1                 0.0000
     20 ****        -1.8258  -0.9047   0.3207 F              1 S1                 0.0000
     21 ****        -2.0398   3.1282   0.4741 H              1 S1                 0.0000
     22 ****        -1.0447   1.2600   1.1188 H              1 S1                 0.0000
     23 ****         1.1871   2.1799  -0.7765 H              1 S1                 0.0000
     24 ****         1.2557   2.2489   0.9706 H              1 S1                 0.0000
     25 ****         1.7992  -0.0133  -1.8547 H              1 S1                 0.0000
     26 ****         2.6465  -3.6881   1.3504 H              1 S1                 0.0000
     27 ****         2.1387  -3.4014   3.7649 H              1 S1                 0.0000
     28 ****         1.1971  -1.2615   4.6078 H              1 S1                 0.0000
     29 ****         0.7553   0.6164   3.0283 H              1 S1                 0.0000
     30 ****        -1.0238   2.7011  -2.3613 H              1 S1                 0.0000
     31 ****        -2.9724  -0.7338  -4.0716 H              1 S1                 0.0000
     32 ****        -2.8625  -1.8951  -1.8756 H              1 S1                 0.0000
     33 ****        -0.8949   3.5866  -0.5309 LP             1 S1                 0.0000
     34 ****        -0.6235   3.5281   1.0783 LP             1 S1                 0.0000
     35 ****         2.5593  -2.3298  -1.1953 LP             1 S1                 0.0000
@<TRIPOS>BOND
    1    1    2 1     
    2    1   21 1     
    3    2    3 1     
    4    2   13 1     
    5    2   22 1     
    6    3    4 1     
    7    3   23 1     
    8    3   24 1     
    9    4   12 1     
   10    4    5 1     
   11    5    6 2     
   12    5   25 1     
   13    6    7 1     
   14    7   12 ar    
   15    7    8 ar    
   16    8    9 ar    
   17    8   26 1     
   18    9   10 ar    
   19    9   27 1     
   20   10   11 ar    
   21   10   28 1     
   22   11   12 ar    
   23   11   29 1     
   24   13   19 ar    
   25   13   14 ar    
   26   14   15 ar    
   27   14   30 1     
   28   15   16 1     
   29   15   17 ar    
   30   17   18 ar    
   31   17   31 1     
   32   18   19 ar    
   33   18   32 1     
   34   19   20 1     
   35    1   33 1     
   36    1   34 1     
   37    6   35 1     
@<TRIPOS>SUBSTRUCTURE
      1 S1             1
@<TRIPOS>SET
LONE_PAIRS      STATIC     ATOMS    <user>   **** ""
3 33 34 35
DONOR_HYDROGENS      STATIC     ATOMS    <user>   **** ""
1 21
ATOM$BLUE        STATIC     ATOMS    COLORGROUP SYSTEM
3 33 34 35
ATOM$RED        STATIC     ATOMS    COLORGROUP SYSTEM
1 21
