#       Name:                AV-unprocessed.smi:910
#       Creating user name   scv26
#       Creation time:       Fri Mar 27 02:04:12 2020


#       File generated by GOLD software.
#

@<TRIPOS>MOLECULE
AV-unprocessed.smi:910
    53    54     1
SMALL
NO_CHARGES


@<TRIPOS>ATOM
      1 ****        -4.5891   5.5640   1.1407 C.3            1 S1                 0.0000
      2 ****        -3.7587   4.3735   0.7764 C.2            1 S1                 0.0000
      3 ****        -2.4345   4.4863   0.3802 N.2            1 S1                 0.0000
      4 ****        -2.0170   3.2409   0.1459 C.2            1 S1                 0.0000
      5 ****        -0.7900   2.8774  -0.2612 N.pl3          1 S1                -1.0000
      6 ****         0.0914   2.3731   0.6317 C.2            1 S1                 0.0000
      7 ****        -0.1115   2.1895   1.8345 O.2            1 S1                 0.0000
      8 ****         1.2819   2.0604   0.0999 N.am           1 S1                 0.0000
      9 ****         2.4137   1.4851   0.8196 C.3            1 S1                 0.0000
     10 ****         2.2443  -0.0275   1.0164 C.3            1 S1                 0.0000
     11 ****         2.3120  -0.6679  -0.2493 O.3            1 S1                 0.0000
     12 ****         2.0048  -2.0552  -0.2170 C.3            1 S1                 0.0000
     13 ****         0.4780  -2.2339  -0.3546 C.3            1 S1                 0.0000
     14 ****         0.0903  -3.7159  -0.4613 C.3            1 S1                 0.0000
     15 ****         0.8269  -4.3948  -1.6245 C.3            1 S1                 0.0000
     16 ****         2.3478  -4.2252  -1.4892 C.3            1 S1                 0.0000
     17 ****         2.7518  -2.7409  -1.3831 C.3            1 S1                 0.0000
     18 ****         4.2763  -2.6028  -1.2415 C.3            1 S1                 0.0000
     19 ****        -3.0026   2.3222   0.3567 O.3            1 S1                 0.0000
     20 ****        -4.0920   3.0458   0.7572 C.2            1 S1                 0.0000
     21 ****        -5.3425   2.2993   1.0749 C.3            1 S1                 0.0000
     22 ****        -5.4508   5.6573   0.4800 H              1 S1                 0.0000
     23 ****        -4.0164   6.4892   1.0693 H              1 S1                 0.0000
     24 ****        -4.9609   5.4842   2.1623 H              1 S1                 0.0000
     25 ****         1.4060   2.2235  -0.8886 H              1 S1                 0.0000
     26 ****         3.3256   1.6896   0.2584 H              1 S1                 0.0000
     27 ****         2.5279   1.9796   1.7855 H              1 S1                 0.0000
     28 ****         3.0438  -0.4089   1.6527 H              1 S1                 0.0000
     29 ****         1.3023  -0.2404   1.5225 H              1 S1                 0.0000
     30 ****         2.3451  -2.4991   0.7209 H              1 S1                 0.0000
     31 ****        -0.0394  -1.7856   0.4933 H              1 S1                 0.0000
     32 ****         0.1276  -1.7031  -1.2409 H              1 S1                 0.0000
     33 ****         0.3302  -4.2251   0.4728 H              1 S1                 0.0000
     34 ****        -0.9873  -3.8096  -0.5980 H              1 S1                 0.0000
     35 ****         0.5722  -5.4543  -1.6584 H              1 S1                 0.0000
     36 ****         0.4931  -3.9656  -2.5702 H              1 S1                 0.0000
     37 ****         2.6945  -4.7651  -0.6067 H              1 S1                 0.0000
     38 ****         2.8419  -4.6857  -2.3453 H              1 S1                 0.0000
     39 ****         2.4584  -2.2474  -2.3111 H              1 S1                 0.0000
     40 ****         4.6316  -3.0610  -0.3180 H              1 S1                 0.0000
     41 ****         4.5810  -1.5561  -1.2315 H              1 S1                 0.0000
     42 ****         4.7924  -3.0843  -2.0722 H              1 S1                 0.0000
     43 ****        -6.1750   2.9832   1.2411 H              1 S1                 0.0000
     44 ****        -5.2138   1.6982   1.9749 H              1 S1                 0.0000
     45 ****        -5.6119   1.6313   0.2568 H              1 S1                 0.0000
     46 ****        -1.9021   5.3279   0.2889 LP             1 S1                 0.0000
     47 ****        -0.5291   2.9793  -1.2212 LP             1 S1                 0.0000
     48 ****        -0.9989   2.4212   2.2329 LP             1 S1                 0.0000
     49 ****         0.6115   1.8090   2.4111 LP             1 S1                 0.0000
     50 ****         3.2400  -0.5603  -0.6061 LP             1 S1                 0.0000
     51 ****         1.6644  -0.2174  -0.8639 LP             1 S1                 0.0000
     52 ****        -2.7312   1.6748   1.0688 LP             1 S1                 0.0000
     53 ****        -3.2037   1.8247  -0.4871 LP             1 S1                 0.0000
@<TRIPOS>BOND
    1    1   22 1     
    2    1   23 1     
    3    1   24 1     
    4    1    2 1     
    5    2    3 1     
    6    2   20 2     
    7    3    4 2     
    8    4   19 1     
    9    4    5 1     
   10    5    6 1     
   11    6    8 am    
   12    6    7 2     
   13    8    9 1     
   14    8   25 1     
   15    9   10 1     
   16    9   26 1     
   17    9   27 1     
   18   10   11 1     
   19   10   28 1     
   20   10   29 1     
   21   11   12 1     
   22   12   17 1     
   23   12   13 1     
   24   12   30 1     
   25   13   14 1     
   26   13   31 1     
   27   13   32 1     
   28   14   15 1     
   29   14   33 1     
   30   14   34 1     
   31   15   16 1     
   32   15   35 1     
   33   15   36 1     
   34   16   17 1     
   35   16   37 1     
   36   16   38 1     
   37   17   18 1     
   38   17   39 1     
   39   18   40 1     
   40   18   41 1     
   41   18   42 1     
   42   19   20 1     
   43   20   21 1     
   44   21   43 1     
   45   21   44 1     
   46   21   45 1     
   47    3   46 1     
   48    5   47 1     
   49    7   48 1     
   50    7   49 1     
   51   11   50 1     
   52   11   51 1     
   53   19   52 1     
   54   19   53 1     
@<TRIPOS>SUBSTRUCTURE
      1 S1             1
@<TRIPOS>SET
LONE_PAIRS      STATIC     ATOMS    <user>   **** ""
8 46 47 48 49 50 51 52 53
DONOR_HYDROGENS      STATIC     ATOMS    <user>   **** ""
1 25
ATOM$BLUE        STATIC     ATOMS    COLORGROUP SYSTEM
8 46 47 48 49 50 51 52 53
ATOM$RED        STATIC     ATOMS    COLORGROUP SYSTEM
1 25
