AV-unprocessed.smi:2895|AV-procd|sdf|11130|dock6
  -GOLD-   2272016 03D 1   1.00000     0.00000
 Structure written by MMmdl.
 53 56  0  0  0  0  0  0  0  0  2 V2000
  149.6473  141.4732  154.0787 O   0  0  0  0  0  0  0  0  0  0  0  0
  149.0614  140.7350  154.8714 C   0  0  0  0  0  0  0  0  0  0  0  0
  149.1472  140.9095  156.2015 N   0  0  0  0  0  0  0  0  0  0  0  0
  149.9128  141.9580  156.8662 C   0  0  0  0  0  0  0  0  0  0  0  0
  151.3403  141.4969  157.2066 C   0  0  0  0  0  0  0  0  0  0  0  0
  151.8585  142.1345  158.4812 C   0  0  0  0  0  0  0  0  0  0  0  0
  151.8398  143.5353  158.6422 C   0  0  0  0  0  0  0  0  0  0  0  0
  152.3279  144.0801  159.8468 C   0  0  0  0  0  0  0  0  0  0  0  0
  152.8157  143.3279  160.8570 N   0  0  0  0  0  0  0  0  0  0  0  0
  152.8316  141.9872  160.6950 C   0  0  0  0  0  0  0  0  0  0  0  0
  152.3657  141.3420  159.5317 C   0  0  0  0  0  0  0  0  0  0  0  0
  148.2762  139.6988  154.4790 N   0  0  0  0  0  0  0  0  0  0  0  0
  148.2111  139.1109  153.1311 C   0  0  0  0  0  0  0  0  0  0  0  0
  146.8145  139.3656  152.5260 C   0  0  0  0  0  0  0  0  0  0  0  0
  145.7158  138.8508  153.3975 N   0  3  0  0  0  0  0  0  0  0  0  0
  145.5274  137.3663  153.3134 C   0  0  2  0  0  0  0  0  0  0  0  0
  145.5808  136.8319  151.8556 C   0  0  0  0  0  0  0  0  0  0  0  0
  144.2937  136.0036  151.7209 C   0  0  1  0  0  0  0  0  0  0  0  0
  144.3828  134.7499  152.6078 C   0  0  0  0  0  0  0  0  0  0  0  0
  144.2291  135.3317  154.0238 C   0  0  0  0  0  0  0  0  0  0  0  0
  144.1305  136.8478  153.7647 C   0  0  2  0  0  0  0  0  0  0  0  0
  143.3066  136.8756  152.4821 C   0  0  0  0  0  0  0  0  0  0  0  0
  145.8618  139.3877  154.7825 C   0  0  0  0  0  0  0  0  0  0  0  0
  147.2626  139.1143  155.3646 C   0  0  0  0  0  0  0  0  0  0  0  0
  148.6353  140.2753  156.7970 H   0  0  0  0  0  0  0  0  0  0  0  0
  149.9358  142.8525  156.2413 H   0  0  0  0  0  0  0  0  0  0  0  0
  149.3852  142.2315  157.7805 H   0  0  0  0  0  0  0  0  0  0  0  0
  151.3675  140.4113  157.3090 H   0  0  0  0  0  0  0  0  0  0  0  0
  152.0247  141.7464  156.3951 H   0  0  0  0  0  0  0  0  0  0  0  0
  151.4580  144.1794  157.8633 H   0  0  0  0  0  0  0  0  0  0  0  0
  152.3262  145.1488  160.0030 H   0  0  0  0  0  0  0  0  0  0  0  0
  153.2264  141.4105  161.5182 H   0  0  0  0  0  0  0  0  0  0  0  0
  152.3987  140.2654  159.4525 H   0  0  0  0  0  0  0  0  0  0  0  0
  148.9675  139.4895  152.4441 H   0  0  0  0  0  0  0  0  0  0  0  0
  148.4058  138.0403  153.2042 H   0  0  0  0  0  0  0  0  0  0  0  0
  146.6717  140.4409  152.4102 H   0  0  0  0  0  0  0  0  0  0  0  0
  146.7693  138.9588  151.5177 H   0  0  0  0  0  0  0  0  0  0  0  0
  146.3029  136.8867  153.9113 H   0  0  0  0  0  0  0  0  0  0  0  0
  145.5454  137.6362  151.1201 H   0  0  0  0  0  0  0  0  0  0  0  0
  146.4785  136.2437  151.6617 H   0  0  0  0  0  0  0  0  0  0  0  0
  144.0182  135.7904  150.6877 H   0  0  0  0  0  0  0  0  0  0  0  0
  143.5704  134.0559  152.3876 H   0  0  0  0  0  0  0  0  0  0  0  0
  145.3253  134.2172  152.4754 H   0  0  0  0  0  0  0  0  0  0  0  0
  143.3149  134.9609  154.4893 H   0  0  0  0  0  0  0  0  0  0  0  0
  145.0620  135.0696  154.6771 H   0  0  0  0  0  0  0  0  0  0  0  0
  143.6656  137.3617  154.6020 H   0  0  0  0  0  0  0  0  0  0  0  0
  143.1932  137.8760  152.0607 H   0  0  0  0  0  0  0  0  0  0  0  0
  142.3212  136.4185  152.5897 H   0  0  0  0  0  0  0  0  0  0  0  0
  145.7087  140.4670  154.7347 H   0  0  0  0  0  0  0  0  0  0  0  0
  145.0923  139.0290  155.4599 H   0  0  0  0  0  0  0  0  0  0  0  0
  147.4397  138.0424  155.4580 H   0  0  0  0  0  0  0  0  0  0  0  0
  147.3116  139.5059  156.3816 H   0  0  0  0  0  0  0  0  0  0  0  0
  144.8592  139.2431  153.0333 H   0  0  0  0  0  0  0  0  0  0  0  0
  1  2  2  0  0  0  0
  2  3  1  0  0  0  0
  2 12  1  0  0  0  0
  3  4  1  0  0  0  0
  3 25  1  0  0  0  0
  4  5  1  0  0  0  0
  4 26  1  0  0  0  0
  4 27  1  0  0  0  0
  5  6  1  0  0  0  0
  5 28  1  0  0  0  0
  5 29  1  0  0  0  0
  6 11  1  0  0  0  0
  6  7  2  0  0  0  0
  7  8  1  0  0  0  0
  7 30  1  0  0  0  0
  8  9  2  0  0  0  0
  8 31  1  0  0  0  0
  9 10  1  0  0  0  0
 10 11  2  0  0  0  0
 10 32  1  0  0  0  0
 11 33  1  0  0  0  0
 12 24  1  0  0  0  0
 12 13  1  0  0  0  0
 13 14  1  0  0  0  0
 13 34  1  0  0  0  0
 13 35  1  0  0  0  0
 14 15  1  0  0  0  0
 14 36  1  0  0  0  0
 14 37  1  0  0  0  0
 15 16  1  0  0  0  0
 15 23  1  0  0  0  0
 15 53  1  0  0  0  0
 16 21  1  0  0  0  0
 16 17  1  0  0  0  0
 16 38  1  0  0  0  0
 17 18  1  0  0  0  0
 17 39  1  0  0  0  0
 17 40  1  0  0  0  0
 18 22  1  0  0  0  0
 18 19  1  0  0  0  0
 18 41  1  0  0  0  0
 19 20  1  0  0  0  0
 19 42  1  0  0  0  0
 19 43  1  0  0  0  0
 20 21  1  0  0  0  0
 20 44  1  0  0  0  0
 20 45  1  0  0  0  0
 21 22  1  0  0  0  0
 21 46  1  0  0  0  0
 22 47  1  0  0  0  0
 22 48  1  0  0  0  0
 23 24  1  0  0  0  0
 23 49  1  0  0  0  0
 23 50  1  0  0  0  0
 24 51  1  0  0  0  0
 24 52  1  0  0  0  0
M  CHG  1  15   1
M  END
> <s_m_source_file>
AV-unprocessed.smi

> <i_m_source_file_index>
2895

> <i_lp_mmshare_version>
43012

> <i_f3d_flags>
0

> <s_epik_input>
W0NIMl0xW0NIMl1bQ0BASF0oW0NIMl0yKVtDQEBIXShbQ0gyXVtDQEhdMTIpTihbQ0gyXVtDSDJdMylbQ0gyXVtDSDJdTjNDKD1PKVtOSF1bQ0gyXVtDSDJdYzRbY0hdW2NIXW5bY0hdW2NIXTQ=

> <s_epik_cmdline>
J2VwaWtfcHl0aG9uJywgJy1waCcsICc3LjAnLCAnLXRuJywgJzgnLCAnLW1hJywgJzIwMCcsICctbWV0YWxfYmluZGluZycsICctaW1hZScsICc8aW5maWxlLm1hZT4nLCAnLW9tYWUnLCAnPG91dGZpbGUubWFlPic=

> <r_epik_Ionization_Penalty>
0.0566172

> <r_epik_Ionization_Penalty_Charging>
0.00262064

> <r_epik_Ionization_Penalty_Neutral>
0.0539965

> <r_epik_State_Penalty>
0.0463959

> <r_epik_Charging_Adjusted_Penalty>
0.0490165

> <i_epik_Tot_Q>
1

> <i_epik_Tot_abs_Q>
1

> <r_epik_Metal_State_Penalty>
0.0424856

> <b_epik_Metal_Only>
0

> <s_lp_Force_Field>
OPLS_2005

> <r_lp_Energy>
100.404

> <b_lp_Chiralities_Consistent>
1

> <s_lp_Variant>
AV-unprocessed.smi:2895-3

> <Gold.Version>
5.8.1

> <Gold.Id.Protein>
6NUR|6NUR_protein|mol2

> <Gold.PLP.Fitness>
43.2786

> <Gold.PLP.PLP>
-36.4646

> <Gold.PLP.part.hbond>
-3.0000

> <Gold.PLP.part.metal>
0.0000

> <Gold.PLP.part.buried>
0.8017

> <Gold.PLP.part.nonpolar>
-34.1348

> <Gold.PLP.part.repulsive>
0.2769

> <Gold.PLP.ligand.clash>
0.5786

> <Gold.PLP.ligand.torsion>
0.7940

> <Gold.PLP.Chemscore.Hbond>
2.9693

> <Gold.PLP.Chemscore.CHOScore>
0.0000

> <Gold.PLP.Chemscore.Metal>
0.0000

> <Gold.Chemscore.Hbonds>
donor molecule, donor type, donor heavy atom, donor atom, acceptor molecule, acceptor atom, score
      L1  H    15    53       P1 10175  2.00
      P1  H  7989  7998       L1     1  0.20
      P1  H  8011  8017       L1     1  0.66

> <Gold.PLP.Chemscore.Internal.Correction>
0.0727

> <Gold.Rescore>
     Score         DG    S(hbond)    S(metal)    S(lipo)     H(rot)  DE(clash)    DE(int)     intcor
     18.71     -21.68       2.09        0.00     108.93       1.37       2.09       0.89       ----

> <Gold.Chemscore.Fitness>
18.7058

> <Gold.Chemscore.DG>
-21.6818

> <Gold.Chemscore.ZeroCoef>
-5.4800

> <Gold.Chemscore.Hbond>
2.0875

> <Gold.Chemscore.Metal>
0.0000

> <Gold.Chemscore.Lipo>
108.9286

> <Gold.Chemscore.Internal_Hbond>
0.0000

> <Gold.Chemscore.DEClash>
2.0895

> <Gold.Chemscore.DEInternal>
0.8865

> <Gold.Chemscore.Rot>
1.3731

> <Gold.Chemscore.Internal.Correction>
   9.000000E+99

> <Gold.Chemscore.Hbonds>
donor molecule, donor type, donor heavy atom, donor atom, acceptor molecule, acceptor atom, score
      L1  H    15    53       P1 10175  1.00
      P1  H  7989  7998       L1     1  0.19
      P1  H  8011  8017       L1     1  0.62

> <Gold.Chemscore.Hbond.Weighted>
-6.9723

> <Gold.Chemscore.Metal.Weighted>
-0.0000

> <Gold.Chemscore.Lipo.Weighted>
-12.7446

> <Gold.Chemscore.Internal_Hbond.Weighted>
0.0000

> <Gold.Chemscore.DEClash.Weighted>
2.0895

> <Gold.Chemscore.DEInternal.Weighted>
0.8865

> <Gold.Chemscore.Rot.Weighted>
3.5152

> <Gold.Chemscore.Internal.Correction.Weighted>
   9.000000E+99

> <Gold.Protein.RotatedTorsions>
[ 6907 6896 6895 6894 ] final -108.59 input  -60.11 | X-H torsion
[ 7974 7965 7964 7962 ] final   -0.42 input  175.53 | X-H torsion
[ 8008 7997 7996 7995 ] final  121.58 input   59.86 | X-H torsion
[ 10167 10162 10161 10158 ] final  163.70 input  -65.29 | X-H torsion
[ 10718 10713 10712 10709 ] final  112.05 input   66.30 | X-H torsion
[ 10763 10752 10751 10750 ] final -144.76 input  -60.55 | X-H torsion
[ 11005 11000 10999 10996 ] final   96.50 input  -57.11 | X-H torsion

> <Gold.Protein.ActiveResidues>
 VAL166  LYS551  ARG553  GLY616  TRP617  ASP618  TYR619  PRO620  LYS621  CYS622 
 ASP623  PHE694  ASN695  SER759  ASP760  ASP761  ALA762  ILE779  LEU786  VAL792 
 PHE793  MET794  SER795  GLU796  ALA797  LYS798  CYS799  TRP800  GLU811  SER814 

> <Gold.Protein.RotatedAtoms>
  150.7511  133.9655  159.3528 H   0  0  0  0  0  0  0  0  0  0  0  0  # atno 6907 bound_to 6896
  151.7584  135.0814  160.0351 H   0  0  0  0  0  0  0  0  0  0  0  0  # atno 6908 bound_to 6896
  152.3419  133.6040  159.5919 H   0  0  0  0  0  0  0  0  0  0  0  0  # atno 6909 bound_to 6896
  146.2427  140.1266  142.8339 H   0  0  0  0  0  0  0  0  0  0  0  0  # atno 7974 bound_to 7965
  156.2692  140.2805  156.1330 H   0  0  0  0  0  0  0  0  0  0  0  0  # atno 8008 bound_to 7997
  155.1034  140.0390  157.2721 H   0  0  0  0  0  0  0  0  0  0  0  0  # atno 8009 bound_to 7997
  154.6798  140.2606  155.6926 H   0  0  0  0  0  0  0  0  0  0  0  0  # atno 8010 bound_to 7997
  139.4878  144.4310  151.9071 H   0  0  0  0  0  0  0  0  0  0  0  0  # atno 10167 bound_to 10162
  157.6413  131.0961  150.6838 H   0  0  0  0  0  0  0  0  0  0  0  0  # atno 10718 bound_to 10713
  154.8414  135.3431  154.6397 H   0  0  0  0  0  0  0  0  0  0  0  0  # atno 10763 bound_to 10752
  153.7008  135.6969  153.5068 H   0  0  0  0  0  0  0  0  0  0  0  0  # atno 10764 bound_to 10752
  153.2524  135.4349  155.0766 H   0  0  0  0  0  0  0  0  0  0  0  0  # atno 10765 bound_to 10752
  139.8781  134.8954  156.4167 H   0  0  0  0  0  0  0  0  0  0  0  0  # atno 11005 bound_to 11000
  145.0361  140.8909  143.5080 LP  0  0  0  0  0  0  0  0  0  0  0  0  # atno 17320 bound_to 7965
  145.1339  139.2614  143.5525 LP  0  0  0  0  0  0  0  0  0  0  0  0  # atno 17321 bound_to 7965
  140.3758  144.2799  150.5914 LP  0  0  0  0  0  0  0  0  0  0  0  0  # atno 17342 bound_to 10162
  140.5278  143.2250  151.8286 LP  0  0  0  0  0  0  0  0  0  0  0  0  # atno 17343 bound_to 10162
  156.7161  130.4666  149.5534 LP  0  0  0  0  0  0  0  0  0  0  0  0  # atno 17370 bound_to 10713
  156.1697  130.6428  151.0822 LP  0  0  0  0  0  0  0  0  0  0  0  0  # atno 17371 bound_to 10713
  140.9162  133.7677  155.9851 LP  0  0  0  0  0  0  0  0  0  0  0  0  # atno 17394 bound_to 11000
  140.8491  134.2975  157.5283 LP  0  0  0  0  0  0  0  0  0  0  0  0  # atno 17395 bound_to 11000

$$$$
