AV-unprocessed.smi:1985|AV-procd|sdf|8044|dock9
  -GOLD-   2272010243D 1   1.00000     0.00000
 Structure written by MMmdl.
 51 52  0  0  0  0  0  0  0  0  2 V2000
  147.6193  142.2963  154.0662 C   0  0  0  0  0  0  0  0  0  0  0  0
  146.3067  141.6366  154.5255 C   0  0  0  0  0  0  0  0  0  0  0  0
  146.3630  140.0914  154.7356 C   0  0  1  0  0  0  0  0  0  0  0  0
  147.1807  139.4986  153.5574 C   0  0  0  0  0  0  0  0  0  0  0  0
  147.0990  139.7577  156.0721 C   0  0  0  0  0  0  0  0  0  0  0  0
  148.4678  140.2696  156.1261 N   0  0  0  0  0  0  0  0  0  0  0  0
  148.9693  141.0528  157.0933 C   0  0  0  0  0  0  0  0  0  0  0  0
  148.3302  141.3916  158.0898 O   0  0  0  0  0  0  0  0  0  0  0  0
  150.4143  141.5286  156.9016 C   0  0  0  0  0  0  0  0  0  0  0  0
  150.9001  142.2973  158.0546 N   0  0  0  0  0  0  0  0  0  0  0  0
  150.3298  143.5219  158.3523 C   0  0  0  0  0  0  0  0  0  0  0  0
  150.7304  144.2995  159.3814 C   0  0  0  0  0  0  0  0  0  0  0  0
  151.8164  143.8777  160.2568 C   0  0  0  0  0  0  0  0  0  0  0  0
  152.2223  144.5490  161.2067 O   0  0  0  0  0  0  0  0  0  0  0  0
  152.3816  142.6233  159.9329 N   0  0  0  0  0  0  0  0  0  0  0  0
  153.4687  142.1723  160.7765 C   0  0  0  0  0  0  0  0  0  0  0  0
  151.9579  141.8113  158.8551 C   0  0  0  0  0  0  0  0  0  0  0  0
  152.4778  140.7216  158.6025 O   0  0  0  0  0  0  0  0  0  0  0  0
  144.9647  139.5248  154.7422 N   0  3  0  0  0  0  0  0  0  0  0  0
  144.8537  138.0443  154.6114 C   0  0  0  0  0  0  0  0  0  0  0  0
  143.3831  137.6274  154.4349 C   0  0  0  0  0  0  0  0  0  0  0  0
  142.6108  138.1016  155.5288 O   0  0  0  0  0  0  0  0  0  0  0  0
  142.6347  139.5195  155.6131 C   0  0  0  0  0  0  0  0  0  0  0  0
  144.0780  139.9941  155.8449 C   0  0  0  0  0  0  0  0  0  0  0  0
  147.4843  143.3728  153.9582 H   0  0  0  0  0  0  0  0  0  0  0  0
  147.9520  141.9142  153.1011 H   0  0  0  0  0  0  0  0  0  0  0  0
  148.4234  142.1438  154.7856 H   0  0  0  0  0  0  0  0  0  0  0  0
  146.0145  142.1223  155.4565 H   0  0  0  0  0  0  0  0  0  0  0  0
  145.5146  141.8978  153.8243 H   0  0  0  0  0  0  0  0  0  0  0  0
  148.1067  140.0505  153.3910 H   0  0  0  0  0  0  0  0  0  0  0  0
  146.6212  139.5221  152.6220 H   0  0  0  0  0  0  0  0  0  0  0  0
  147.4719  138.4642  153.7404 H   0  0  0  0  0  0  0  0  0  0  0  0
  146.5417  140.1282  156.9324 H   0  0  0  0  0  0  0  0  0  0  0  0
  147.1679  138.6788  156.2077 H   0  0  0  0  0  0  0  0  0  0  0  0
  149.0706  140.0375  155.3497 H   0  0  0  0  0  0  0  0  0  0  0  0
  151.0432  140.6523  156.7398 H   0  0  0  0  0  0  0  0  0  0  0  0
  150.5008  142.1270  155.9928 H   0  0  0  0  0  0  0  0  0  0  0  0
  149.5241  143.8810  157.7286 H   0  0  0  0  0  0  0  0  0  0  0  0
  150.2429  145.2472  159.5575 H   0  0  0  0  0  0  0  0  0  0  0  0
  153.8375  141.1958  160.4649 H   0  0  0  0  0  0  0  0  0  0  0  0
  153.0836  142.1119  161.7961 H   0  0  0  0  0  0  0  0  0  0  0  0
  154.2673  142.9120  160.6959 H   0  0  0  0  0  0  0  0  0  0  0  0
  145.4043  137.6735  153.7489 H   0  0  0  0  0  0  0  0  0  0  0  0
  145.2680  137.5559  155.4936 H   0  0  0  0  0  0  0  0  0  0  0  0
  142.9801  138.0116  153.4964 H   0  0  0  0  0  0  0  0  0  0  0  0
  143.3032  136.5411  154.3931 H   0  0  0  0  0  0  0  0  0  0  0  0
  142.2184  139.9609  154.7060 H   0  0  0  0  0  0  0  0  0  0  0  0
  141.9990  139.8336  156.4411 H   0  0  0  0  0  0  0  0  0  0  0  0
  144.4261  139.6103  156.8041 H   0  0  0  0  0  0  0  0  0  0  0  0
  144.0686  141.0799  155.9177 H   0  0  0  0  0  0  0  0  0  0  0  0
  144.5472  139.8897  153.8978 H   0  0  0  0  0  0  0  0  0  0  0  0
  1  2  1  0  0  0  0
  1 25  1  0  0  0  0
  1 26  1  0  0  0  0
  1 27  1  0  0  0  0
  2  3  1  0  0  0  0
  2 28  1  0  0  0  0
  2 29  1  0  0  0  0
  3  4  1  0  0  0  0
  3  5  1  0  0  0  0
  3 19  1  0  0  0  0
  4 30  1  0  0  0  0
  4 31  1  0  0  0  0
  4 32  1  0  0  0  0
  5  6  1  0  0  0  0
  5 33  1  0  0  0  0
  5 34  1  0  0  0  0
  6  7  1  0  0  0  0
  6 35  1  0  0  0  0
  7  8  2  0  0  0  0
  7  9  1  0  0  0  0
  9 10  1  0  0  0  0
  9 36  1  0  0  0  0
  9 37  1  0  0  0  0
 10 17  1  0  0  0  0
 10 11  1  0  0  0  0
 11 12  2  0  0  0  0
 11 38  1  0  0  0  0
 12 13  1  0  0  0  0
 12 39  1  0  0  0  0
 13 14  2  0  0  0  0
 13 15  1  0  0  0  0
 15 16  1  0  0  0  0
 15 17  1  0  0  0  0
 16 40  1  0  0  0  0
 16 41  1  0  0  0  0
 16 42  1  0  0  0  0
 17 18  2  0  0  0  0
 19 24  1  0  0  0  0
 19 20  1  0  0  0  0
 19 51  1  0  0  0  0
 20 21  1  0  0  0  0
 20 43  1  0  0  0  0
 20 44  1  0  0  0  0
 21 22  1  0  0  0  0
 21 45  1  0  0  0  0
 21 46  1  0  0  0  0
 22 23  1  0  0  0  0
 23 24  1  0  0  0  0
 23 47  1  0  0  0  0
 23 48  1  0  0  0  0
 24 49  1  0  0  0  0
 24 50  1  0  0  0  0
M  CHG  1  19   1
M  END
> <s_m_source_file>
AV-unprocessed.smi

> <i_m_source_file_index>
1985

> <i_lp_mmshare_version>
43012

> <i_f3d_flags>
0

> <s_epik_input>
W0NIMl0xW0NIMl1PW0NIMl1bQ0gyXU4xW0NAQF0oW0NIM10pKFtDSDJdW0NIM10pW0NIMl1bTkhdQyg9TylbQ0gyXW4yW2NIXVtjSF1jKD1PKW4oW0NIM10pYzI9Tw==

> <s_epik_cmdline>
J2VwaWtfcHl0aG9uJywgJy1waCcsICc3LjAnLCAnLXRuJywgJzgnLCAnLW1hJywgJzIwMCcsICctbWV0YWxfYmluZGluZycsICctaW1hZScsICc8aW5maWxlLm1hZT4nLCAnLW9tYWUnLCAnPG91dGZpbGUubWFlPic=

> <r_lp_tautomer_probability>
1

> <r_epik_Ionization_Penalty>
0.519658

> <r_epik_Ionization_Penalty_Charging>
0.519658

> <r_epik_Ionization_Penalty_Neutral>
8.70177e-08

> <r_epik_State_Penalty>
0.527569

> <r_epik_Charging_Adjusted_Penalty>
1.04723

> <i_epik_Tot_Q>
1

> <i_epik_Tot_abs_Q>
1

> <r_epik_Metal_State_Penalty>
0.527613

> <b_epik_Metal_Only>
0

> <s_lp_Force_Field>
OPLS_2005

> <r_lp_Energy>
36.0852

> <b_lp_Chiralities_Consistent>
1

> <s_lp_Variant>
AV-unprocessed.smi:1985-3

> <Gold.Version>
5.8.1

> <Gold.Id.Protein>
6NUR|6NUR_protein|mol2

> <Gold.PLP.Fitness>
42.5679

> <Gold.PLP.PLP>
-33.7442

> <Gold.PLP.part.hbond>
-1.1824

> <Gold.PLP.part.metal>
0.0000

> <Gold.PLP.part.buried>
-5.0191

> <Gold.PLP.part.nonpolar>
-28.0546

> <Gold.PLP.part.repulsive>
0.2652

> <Gold.PLP.ligand.clash>
0.0000

> <Gold.PLP.ligand.torsion>
0.4098

> <Gold.PLP.Chemscore.Hbond>
2.0000

> <Gold.PLP.Chemscore.CHOScore>
1.1262

> <Gold.PLP.Chemscore.Metal>
0.0000

> <Gold.Chemscore.Hbonds>
donor molecule, donor type, donor heavy atom, donor atom, acceptor molecule, acceptor atom, score
      L1  H    19    51       P1 10175  2.00
      L1  C    11    38       P1  8028  1.00
      L1  C    11    38       P1  8029  0.12

> <Gold.PLP.Chemscore.Internal.Correction>
0.2645

> <Gold.Rescore>
     Score         DG    S(hbond)    S(metal)    S(lipo)     H(rot)  DE(clash)    DE(int)     intcor
      8.54     -10.27       1.00        0.00      62.12       2.27       0.03       1.71       ----

> <Gold.Chemscore.Fitness>
8.5365

> <Gold.Chemscore.DG>
-10.2699

> <Gold.Chemscore.ZeroCoef>
-5.4800

> <Gold.Chemscore.Hbond>
0.9999

> <Gold.Chemscore.Metal>
0.0000

> <Gold.Chemscore.Lipo>
62.1151

> <Gold.Chemscore.Internal_Hbond>
0.0000

> <Gold.Chemscore.DEClash>
0.0277

> <Gold.Chemscore.DEInternal>
1.7057

> <Gold.Chemscore.Rot>
2.2724

> <Gold.Chemscore.Internal.Correction>
   9.000000E+99

> <Gold.Chemscore.Hbonds>
donor molecule, donor type, donor heavy atom, donor atom, acceptor molecule, acceptor atom, score
      L1  H    19    51       P1 10175  1.00

> <Gold.Chemscore.Hbond.Weighted>
-3.3398

> <Gold.Chemscore.Metal.Weighted>
-0.0000

> <Gold.Chemscore.Lipo.Weighted>
-7.2675

> <Gold.Chemscore.Internal_Hbond.Weighted>
0.0000

> <Gold.Chemscore.DEClash.Weighted>
0.0277

> <Gold.Chemscore.DEInternal.Weighted>
1.7057

> <Gold.Chemscore.Rot.Weighted>
5.8174

> <Gold.Chemscore.Internal.Correction.Weighted>
   9.000000E+99

> <Gold.Protein.RotatedTorsions>
[ 6907 6896 6895 6894 ] final -165.90 input  -60.11 | X-H torsion
[ 7974 7965 7964 7962 ] final  -18.88 input  175.53 | X-H torsion
[ 8008 7997 7996 7995 ] final    7.11 input   59.86 | X-H torsion
[ 10167 10162 10161 10158 ] final  150.66 input  -65.29 | X-H torsion
[ 10718 10713 10712 10709 ] final -139.79 input   66.30 | X-H torsion
[ 10763 10752 10751 10750 ] final -107.07 input  -60.55 | X-H torsion
[ 11005 11000 10999 10996 ] final  -51.77 input  -57.11 | X-H torsion

> <Gold.Protein.ActiveResidues>
 VAL166  LYS551  ARG553  GLY616  TRP617  ASP618  TYR619  PRO620  LYS621  CYS622 
 ASP623  PHE694  ASN695  SER759  ASP760  ASP761  ALA762  ILE779  LEU786  VAL792 
 PHE793  MET794  SER795  GLU796  ALA797  LYS798  CYS799  TRP800  GLU811  SER814 

> <Gold.Protein.RotatedAtoms>
  151.4350  133.3659  159.2773 H   0  0  0  0  0  0  0  0  0  0  0  0  # atno 6907 bound_to 6896
  150.9198  134.8617  159.7492 H   0  0  0  0  0  0  0  0  0  0  0  0  # atno 6908 bound_to 6896
  152.4976  134.4286  159.9557 H   0  0  0  0  0  0  0  0  0  0  0  0  # atno 6909 bound_to 6896
  146.1870  140.3984  142.8472 H   0  0  0  0  0  0  0  0  0  0  0  0  # atno 7974 bound_to 7965
  154.7496  140.2764  155.6304 H   0  0  0  0  0  0  0  0  0  0  0  0  # atno 8008 bound_to 7997
  156.2892  140.2681  156.2172 H   0  0  0  0  0  0  0  0  0  0  0  0  # atno 8009 bound_to 7997
  155.0154  140.0372  157.2406 H   0  0  0  0  0  0  0  0  0  0  0  0  # atno 8010 bound_to 7997
  139.4848  144.5504  151.7411 H   0  0  0  0  0  0  0  0  0  0  0  0  # atno 10167 bound_to 10162
  156.3149  130.7502  151.1586 H   0  0  0  0  0  0  0  0  0  0  0  0  # atno 10718 bound_to 10713
  154.8052  135.4688  154.0375 H   0  0  0  0  0  0  0  0  0  0  0  0  # atno 10763 bound_to 10752
  153.1849  135.6846  153.8435 H   0  0  0  0  0  0  0  0  0  0  0  0  # atno 10764 bound_to 10752
  153.7973  135.3235  155.3363 H   0  0  0  0  0  0  0  0  0  0  0  0  # atno 10765 bound_to 10752
  141.0888  133.6637  156.3925 H   0  0  0  0  0  0  0  0  0  0  0  0  # atno 11005 bound_to 11000
  144.8415  140.6864  143.6226 LP  0  0  0  0  0  0  0  0  0  0  0  0  # atno 17320 bound_to 7965
  145.3910  139.1616  143.4229 LP  0  0  0  0  0  0  0  0  0  0  0  0  # atno 17321 bound_to 7965
  140.5057  144.1102  150.5982 LP  0  0  0  0  0  0  0  0  0  0  0  0  # atno 17342 bound_to 10162
  140.4010  143.2704  151.9947 LP  0  0  0  0  0  0  0  0  0  0  0  0  # atno 17343 bound_to 10162
  157.7399  131.0523  150.5200 LP  0  0  0  0  0  0  0  0  0  0  0  0  # atno 17370 bound_to 10713
  156.5345  130.4193  149.6185 LP  0  0  0  0  0  0  0  0  0  0  0  0  # atno 17371 bound_to 10713
  140.5299  134.6222  157.5346 LP  0  0  0  0  0  0  0  0  0  0  0  0  # atno 17394 bound_to 11000
  139.9711  134.7291  156.0040 LP  0  0  0  0  0  0  0  0  0  0  0  0  # atno 17395 bound_to 11000

$$$$
