#       Name:                AV-unprocessed.smi:2690
#       Creating user name   scv26
#       Creation time:       Fri Mar 27 14:42:13 2020


#       File generated by GOLD software.
#

@<TRIPOS>MOLECULE
AV-unprocessed.smi:2690
    52    54     1
SMALL
NO_CHARGES


@<TRIPOS>ATOM
      1 ****        -4.7665   3.6689   0.3897 C.3            1 S1                 0.0000
      2 ****        -4.1150   2.2810   0.3109 C.3            1 S1                 0.0000
      3 ****        -2.5802   2.3790   0.2736 C.3            1 S1                 0.0000
      4 ****        -1.9215   0.9896   0.2075 C.3            1 S1                 0.0000
      5 ****        -2.4376   0.1258  -0.9699 C.3            1 S1                 0.0000
      6 ****        -2.0018   0.7194  -2.1808 O.3            1 S1                 0.0000
      7 ****        -1.8813  -1.3199  -0.9266 C.3            1 S1                 0.0000
      8 ****        -0.4287  -1.4003  -0.9547 N.pl3          1 S1                 0.0000
      9 ****         0.3704  -1.4527  -2.0752 C.2            1 S1                 0.0000
     10 ****         1.6532  -1.5204  -1.8430 N.2            1 S1                 0.0000
     11 ****         1.7435  -1.5238  -0.4570 C.ar           1 S1                 0.0000
     12 ****         2.8268  -1.5754   0.4579 C.ar           1 S1                 0.0000
     13 ****         4.1041  -1.6418   0.0201 N.pl3          1 S1                 0.0000
     14 ****         5.2310  -1.5133   0.9397 C.3            1 S1                 0.0000
     15 ****         5.4596  -0.0456   1.3380 C.3            1 S1                 0.0000
     16 ****         6.4931  -2.1130   0.3063 C.3            1 S1                 0.0000
     17 ****         2.5341  -1.5599   1.7850 N.ar           1 S1                 0.0000
     18 ****         1.2616  -1.4978   2.1902 C.ar           1 S1                 0.0000
     19 ****         0.1514  -1.4442   1.4506 N.ar           1 S1                 0.0000
     20 ****         0.4440  -1.4568   0.1184 C.ar           1 S1                 0.0000
     21 ****        -3.9832   0.0908  -0.9787 C.3            1 S1                 0.0000
     22 ****        -4.6211   1.4896  -0.9074 C.3            1 S1                 0.0000
     23 ****        -4.5179   4.2738  -0.4829 H              1 S1                 0.0000
     24 ****        -4.4335   4.2099   1.2758 H              1 S1                 0.0000
     25 ****        -5.8528   3.5903   0.4415 H              1 S1                 0.0000
     26 ****        -4.3977   1.7335   1.2113 H              1 S1                 0.0000
     27 ****        -2.2690   2.9739  -0.5861 H              1 S1                 0.0000
     28 ****        -2.2199   2.9072   1.1569 H              1 S1                 0.0000
     29 ****        -0.8395   1.1125   0.1503 H              1 S1                 0.0000
     30 ****        -2.1173   0.4678   1.1452 H              1 S1                 0.0000
     31 ****        -1.0588   0.7774  -2.1623 H              1 S1                 0.0000
     32 ****        -2.2312  -1.8278  -0.0270 H              1 S1                 0.0000
     33 ****        -2.2670  -1.8976  -1.7680 H              1 S1                 0.0000
     34 ****        -0.0321  -1.4341  -3.0778 H              1 S1                 0.0000
     35 ****         4.3428  -1.6829  -0.9603 H              1 S1                 0.0000
     36 ****         5.0203  -2.0905   1.8407 H              1 S1                 0.0000
     37 ****         6.2976   0.0463   2.0292 H              1 S1                 0.0000
     38 ****         4.5844   0.3777   1.8311 H              1 S1                 0.0000
     39 ****         5.6793   0.5716   0.4663 H              1 S1                 0.0000
     40 ****         7.3410  -2.0525   0.9891 H              1 S1                 0.0000
     41 ****         6.7666  -1.5901  -0.6108 H              1 S1                 0.0000
     42 ****         6.3458  -3.1650   0.0594 H              1 S1                 0.0000
     43 ****         1.1115  -1.4900   3.2597 H              1 S1                 0.0000
     44 ****        -4.3433  -0.4298  -1.8672 H              1 S1                 0.0000
     45 ****        -4.3336  -0.4924  -0.1261 H              1 S1                 0.0000
     46 ****        -5.7061   1.3899  -0.8615 H              1 S1                 0.0000
     47 ****        -4.4036   2.0410  -1.8233 H              1 S1                 0.0000
     48 ****        -2.3948   1.6348  -2.2687 LP             1 S1                 0.0000
     49 ****        -2.2904   0.1569  -2.9556 LP             1 S1                 0.0000
     50 ****         2.3982  -1.5605  -2.5087 LP             1 S1                 0.0000
     51 ****         3.2716  -1.5950   2.4594 LP             1 S1                 0.0000
     52 ****        -0.7749  -1.4005   1.8249 LP             1 S1                 0.0000
@<TRIPOS>BOND
    1    1    2 1     
    2    1   23 1     
    3    1   24 1     
    4    1   25 1     
    5    2   22 1     
    6    2    3 1     
    7    2   26 1     
    8    3    4 1     
    9    3   27 1     
   10    3   28 1     
   11    4    5 1     
   12    4   29 1     
   13    4   30 1     
   14    5    6 1     
   15    5    7 1     
   16    5   21 1     
   17    6   31 1     
   18    7    8 1     
   19    7   32 1     
   20    7   33 1     
   21    8   20 1     
   22    8    9 1     
   23    9   10 2     
   24    9   34 1     
   25   10   11 1     
   26   11   20 ar    
   27   11   12 ar    
   28   12   13 1     
   29   12   17 ar    
   30   13   14 1     
   31   13   35 1     
   32   14   15 1     
   33   14   16 1     
   34   14   36 1     
   35   15   37 1     
   36   15   38 1     
   37   15   39 1     
   38   16   40 1     
   39   16   41 1     
   40   16   42 1     
   41   17   18 ar    
   42   18   19 ar    
   43   18   43 1     
   44   19   20 ar    
   45   21   22 1     
   46   21   44 1     
   47   21   45 1     
   48   22   46 1     
   49   22   47 1     
   50    6   48 1     
   51    6   49 1     
   52   10   50 1     
   53   17   51 1     
   54   19   52 1     
@<TRIPOS>SUBSTRUCTURE
      1 S1             1
@<TRIPOS>SET
LONE_PAIRS      STATIC     ATOMS    <user>   **** ""
5 48 49 50 51 52
DONOR_HYDROGENS      STATIC     ATOMS    <user>   **** ""
2 31 35
ATOM$BLUE        STATIC     ATOMS    COLORGROUP SYSTEM
5 48 49 50 51 52
ATOM$RED        STATIC     ATOMS    COLORGROUP SYSTEM
2 31 35
