AV-unprocessed.smi:2528|AV-procd|sdf|9959|dock3
  -GOLD-   2272014 03D 1   1.00000     0.00000
 Structure written by MMmdl.
 43 45  0  0  0  0  0  0  0  0  1 V2000
  146.7582  139.4211  154.1391 O   0  0  0  0  0  0  0  0  0  0  0  0
  147.5150  138.6991  153.4891 C   0  0  0  0  0  0  0  0  0  0  0  0
  147.0876  137.8028  152.5884 N   0  0  0  0  0  0  0  0  0  0  0  0
  145.6893  137.5480  152.2595 C   0  0  0  0  0  0  0  0  0  0  0  0
  145.3326  136.0600  152.4126 C   0  0  1  0  0  0  0  0  0  0  0  0
  144.9732  135.4122  151.0624 C   0  0  0  0  0  0  0  0  0  0  0  0
  144.7096  133.9850  151.1974 N   0  0  0  0  0  0  0  0  0  0  0  0
  144.3804  133.3806  149.9075 C   0  0  0  0  0  0  0  0  0  0  0  0
  144.0613  131.8821  150.0281 C   0  0  0  0  0  0  0  0  0  0  0  0
  145.2367  131.1380  150.6778 C   0  0  0  0  0  0  0  0  0  0  0  0
  145.6158  131.8096  152.0067 C   0  0  0  0  0  0  0  0  0  0  0  0
  145.8624  133.3202  151.8125 C   0  0  2  0  0  0  0  0  0  0  0  0
  146.2315  133.9877  153.1529 C   0  0  0  0  0  0  0  0  0  0  0  0
  146.4613  135.3785  152.9545 O   0  0  0  0  0  0  0  0  0  0  0  0
  148.8564  138.6930  153.5823 N   0  0  0  0  0  0  0  0  0  0  0  0
  149.6855  139.5199  154.3865 C   0  0  0  0  0  0  0  0  0  0  0  0
  150.9537  138.9768  154.6940 C   0  0  0  0  0  0  0  0  0  0  0  0
  151.8559  139.7224  155.4773 C   0  0  0  0  0  0  0  0  0  0  0  0
  151.4662  140.9938  155.9346 C   0  0  0  0  0  0  0  0  0  0  0  0
  150.1852  141.4597  155.5855 C   0  0  0  0  0  0  0  0  0  0  0  0
  149.3191  140.7470  154.8345 N   0  0  0  0  0  0  0  0  0  0  0  0
  147.7759  137.2459  152.1038 H   0  0  0  0  0  0  0  0  0  0  0  0
  145.0432  138.1601  152.8911 H   0  0  0  0  0  0  0  0  0  0  0  0
  145.5133  137.8708  151.2330 H   0  0  0  0  0  0  0  0  0  0  0  0
  144.4873  135.9565  153.0956 H   0  0  0  0  0  0  0  0  0  0  0  0
  144.0968  135.9084  150.6436 H   0  0  0  0  0  0  0  0  0  0  0  0
  145.7890  135.5715  150.3552 H   0  0  0  0  0  0  0  0  0  0  0  0
  143.5218  133.8926  149.4715 H   0  0  0  0  0  0  0  0  0  0  0  0
  145.2089  133.5200  149.2112 H   0  0  0  0  0  0  0  0  0  0  0  0
  143.1615  131.7459  150.6294 H   0  0  0  0  0  0  0  0  0  0  0  0
  143.8469  131.4621  149.0452 H   0  0  0  0  0  0  0  0  0  0  0  0
  144.9799  130.0911  150.8415 H   0  0  0  0  0  0  0  0  0  0  0  0
  146.0943  131.1490  150.0039 H   0  0  0  0  0  0  0  0  0  0  0  0
  144.8154  131.6565  152.7321 H   0  0  0  0  0  0  0  0  0  0  0  0
  146.5048  131.3323  152.4200 H   0  0  0  0  0  0  0  0  0  0  0  0
  146.7202  133.4324  151.1466 H   0  0  0  0  0  0  0  0  0  0  0  0
  145.4398  133.8483  153.8910 H   0  0  0  0  0  0  0  0  0  0  0  0
  147.1358  133.5402  153.5658 H   0  0  0  0  0  0  0  0  0  0  0  0
  149.3423  138.0300  152.9971 H   0  0  0  0  0  0  0  0  0  0  0  0
  151.2379  137.9987  154.3334 H   0  0  0  0  0  0  0  0  0  0  0  0
  152.8303  139.3256  155.7212 H   0  0  0  0  0  0  0  0  0  0  0  0
  152.1310  141.5960  156.5361 H   0  0  0  0  0  0  0  0  0  0  0  0
  149.8475  142.4306  155.9166 H   0  0  0  0  0  0  0  0  0  0  0  0
  1  2  2  0  0  0  0
  2  3  1  0  0  0  0
  2 15  1  0  0  0  0
  3  4  1  0  0  0  0
  3 22  1  0  0  0  0
  4  5  1  0  0  0  0
  4 23  1  0  0  0  0
  4 24  1  0  0  0  0
  5 14  1  0  0  0  0
  5  6  1  0  0  0  0
  5 25  1  0  0  0  0
  6  7  1  0  0  0  0
  6 26  1  0  0  0  0
  6 27  1  0  0  0  0
  7 12  1  0  0  0  0
  7  8  1  0  0  0  0
  8  9  1  0  0  0  0
  8 28  1  0  0  0  0
  8 29  1  0  0  0  0
  9 10  1  0  0  0  0
  9 30  1  0  0  0  0
  9 31  1  0  0  0  0
 10 11  1  0  0  0  0
 10 32  1  0  0  0  0
 10 33  1  0  0  0  0
 11 12  1  0  0  0  0
 11 34  1  0  0  0  0
 11 35  1  0  0  0  0
 12 13  1  0  0  0  0
 12 36  1  0  0  0  0
 13 14  1  0  0  0  0
 13 37  1  0  0  0  0
 13 38  1  0  0  0  0
 15 16  1  0  0  0  0
 15 39  1  0  0  0  0
 16 21  1  0  0  0  0
 16 17  2  0  0  0  0
 17 18  1  0  0  0  0
 17 40  1  0  0  0  0
 18 19  2  0  0  0  0
 18 41  1  0  0  0  0
 19 20  1  0  0  0  0
 19 42  1  0  0  0  0
 20 21  2  0  0  0  0
 20 43  1  0  0  0  0
M  END
> <s_m_source_file>
AV-unprocessed.smi

> <i_m_source_file_index>
2528

> <i_lp_mmshare_version>
43012

> <i_f3d_flags>
0

> <s_epik_input>
bjFbY0hdW2NIXVtjSF1bY0hdYzFbTkhdQyg9TylbTkhdW0NIMl1bQ0BIXShbQ0gyXTIpT1tDSDJdW0NAQEhdKE4yMylbQ0gyXVtDSDJdW0NIMl1bQ0gyXTM=

> <s_epik_cmdline>
J2VwaWtfcHl0aG9uJywgJy1waCcsICc3LjAnLCAnLXRuJywgJzgnLCAnLW1hJywgJzIwMCcsICctbWV0YWxfYmluZGluZycsICctaW1hZScsICc8aW5maWxlLm1hZT4nLCAnLW9tYWUnLCAnPG91dGZpbGUubWFlPic=

> <r_epik_Ionization_Penalty>
1.14192

> <r_epik_Ionization_Penalty_Charging>
0

> <r_epik_Ionization_Penalty_Neutral>
1.14192

> <r_epik_State_Penalty>
1.20248

> <r_epik_Charging_Adjusted_Penalty>
1.20248

> <i_epik_Tot_Q>
0

> <i_epik_Tot_abs_Q>
0

> <r_epik_Metal_State_Penalty>
1.20248

> <b_epik_Metal_Only>
0

> <s_lp_Force_Field>
OPLS_2005

> <r_lp_Energy>
35.0124

> <b_lp_Chiralities_Consistent>
1

> <s_lp_Variant>
AV-unprocessed.smi:2528-12

> <Gold.Version>
5.8.1

> <Gold.Id.Protein>
6NUR|6NUR_protein|mol2

> <Gold.PLP.Fitness>
42.6564

> <Gold.PLP.PLP>
-36.5431

> <Gold.PLP.part.hbond>
-3.0000

> <Gold.PLP.part.metal>
0.0000

> <Gold.PLP.part.buried>
-3.9373

> <Gold.PLP.part.nonpolar>
-31.3811

> <Gold.PLP.part.repulsive>
2.4067

> <Gold.PLP.ligand.clash>
0.0000

> <Gold.PLP.ligand.torsion>
0.8764

> <Gold.PLP.Chemscore.Hbond>
1.6219

> <Gold.PLP.Chemscore.CHOScore>
1.0000

> <Gold.PLP.Chemscore.Metal>
0.0000

> <Gold.Chemscore.Hbonds>
donor molecule, donor type, donor heavy atom, donor atom, acceptor molecule, acceptor atom, score
      L1  H     3    22       P1  7948  1.00
      L1  H    15    39       P1  7948  0.64
      L1  C    20    43       P1  8028  1.00

> <Gold.PLP.Chemscore.Internal.Correction>
0.0004

> <Gold.Rescore>
     Score         DG    S(hbond)    S(metal)    S(lipo)     H(rot)  DE(clash)    DE(int)     intcor
     16.97     -19.01       1.88        0.00      89.81       1.27       0.12       1.92       ----

> <Gold.Chemscore.Fitness>
16.9664

> <Gold.Chemscore.DG>
-19.0106

> <Gold.Chemscore.ZeroCoef>
-5.4800

> <Gold.Chemscore.Hbond>
1.8781

> <Gold.Chemscore.Metal>
0.0000

> <Gold.Chemscore.Lipo>
89.8125

> <Gold.Chemscore.Internal_Hbond>
0.0000

> <Gold.Chemscore.DEClash>
0.1221

> <Gold.Chemscore.DEInternal>
1.9221

> <Gold.Chemscore.Rot>
1.2696

> <Gold.Chemscore.Internal.Correction>
   9.000000E+99

> <Gold.Chemscore.Hbonds>
donor molecule, donor type, donor heavy atom, donor atom, acceptor molecule, acceptor atom, score
      L1  H     3    22       P1  7948  0.95
      L1  H    15    39       P1  7948  0.57

> <Gold.Chemscore.Hbond.Weighted>
-6.2727

> <Gold.Chemscore.Metal.Weighted>
-0.0000

> <Gold.Chemscore.Lipo.Weighted>
-10.5081

> <Gold.Chemscore.Internal_Hbond.Weighted>
0.0000

> <Gold.Chemscore.DEClash.Weighted>
0.1221

> <Gold.Chemscore.DEInternal.Weighted>
1.9221

> <Gold.Chemscore.Rot.Weighted>
3.2502

> <Gold.Chemscore.Internal.Correction.Weighted>
   9.000000E+99

> <Gold.Protein.RotatedTorsions>
[ 6907 6896 6895 6894 ] final  -39.97 input  -60.11 | X-H torsion
[ 7974 7965 7964 7962 ] final   86.41 input  175.53 | X-H torsion
[ 8008 7997 7996 7995 ] final -168.27 input   59.86 | X-H torsion
[ 10167 10162 10161 10158 ] final -161.79 input  -65.29 | X-H torsion
[ 10718 10713 10712 10709 ] final   13.60 input   66.30 | X-H torsion
[ 10763 10752 10751 10750 ] final  135.01 input  -60.55 | X-H torsion
[ 11005 11000 10999 10996 ] final  169.12 input  -57.11 | X-H torsion

> <Gold.Protein.ActiveResidues>
 VAL166  LYS551  ARG553  GLY616  TRP617  ASP618  TYR619  PRO620  LYS621  CYS622 
 ASP623  PHE694  ASN695  SER759  ASP760  ASP761  ALA762  ILE779  LEU786  VAL792 
 PHE793  MET794  SER795  GLU796  ALA797  LYS798  CYS799  TRP800  GLU811  SER814 

> <Gold.Protein.RotatedAtoms>
  150.9840  134.9189  159.7860 H   0  0  0  0  0  0  0  0  0  0  0  0  # atno 6907 bound_to 6896
  152.5231  134.3371  159.9214 H   0  0  0  0  0  0  0  0  0  0  0  0  # atno 6908 bound_to 6896
  151.3378  133.3933  159.2703 H   0  0  0  0  0  0  0  0  0  0  0  0  # atno 6909 bound_to 6896
  145.5727  139.2315  143.2397 H   0  0  0  0  0  0  0  0  0  0  0  0  # atno 7974 bound_to 7965
  155.8891  140.1022  157.1431 H   0  0  0  0  0  0  0  0  0  0  0  0  # atno 8008 bound_to 7997
  154.4013  140.1314  156.4357 H   0  0  0  0  0  0  0  0  0  0  0  0  # atno 8009 bound_to 7997
  155.7554  140.3464  155.5174 H   0  0  0  0  0  0  0  0  0  0  0  0  # atno 8010 bound_to 7997
  139.6439  144.0208  152.2112 H   0  0  0  0  0  0  0  0  0  0  0  0  # atno 10167 bound_to 10162
  157.0269  130.6177  149.5729 H   0  0  0  0  0  0  0  0  0  0  0  0  # atno 10718 bound_to 10713
  153.8330  135.3101  155.3420 H   0  0  0  0  0  0  0  0  0  0  0  0  # atno 10763 bound_to 10752
  154.7965  135.4752  154.0176 H   0  0  0  0  0  0  0  0  0  0  0  0  # atno 10764 bound_to 10752
  153.1622  135.6863  153.8817 H   0  0  0  0  0  0  0  0  0  0  0  0  # atno 10765 bound_to 10752
  140.2945  134.7646  157.3865 H   0  0  0  0  0  0  0  0  0  0  0  0  # atno 11005 bound_to 11000
  146.1773  140.6553  142.9205 LP  0  0  0  0  0  0  0  0  0  0  0  0  # atno 17320 bound_to 7965
  144.7430  140.4994  143.6855 LP  0  0  0  0  0  0  0  0  0  0  0  0  # atno 17321 bound_to 7965
  139.9905  144.6365  150.7819 LP  0  0  0  0  0  0  0  0  0  0  0  0  # atno 17342 bound_to 10162
  140.7505  143.2956  151.3214 LP  0  0  0  0  0  0  0  0  0  0  0  0  # atno 17343 bound_to 10162
  156.0083  130.5172  150.7903 LP  0  0  0  0  0  0  0  0  0  0  0  0  # atno 17370 bound_to 10713
  157.5207  131.0931  151.0082 LP  0  0  0  0  0  0  0  0  0  0  0  0  # atno 17371 bound_to 10713
  140.1165  134.5276  155.8220 LP  0  0  0  0  0  0  0  0  0  0  0  0  # atno 17394 bound_to 11000
  141.2140  133.6742  156.6787 LP  0  0  0  0  0  0  0  0  0  0  0  0  # atno 17395 bound_to 11000

$$$$
