AV-unprocessed.smi:1329|AV-procd|sdf|5483|dock2
  -GOLD-   22720 5 53D 1   1.00000     0.00000
 Structure written by MMmdl.
 42 43  0  0  0  0  0  0  0  0  1 V2000
  151.6224  144.6113  158.8225 C   0  0  0  0  0  0  0  0  0  0  0  0
  151.7403  143.1560  158.4574 C   0  0  0  0  0  0  0  0  0  0  0  0
  151.1819  142.7879  157.3513 N   0  0  0  0  0  0  0  0  0  0  0  0
  151.2313  141.4765  156.9233 N   0  0  0  0  0  0  0  0  0  0  0  0
  150.5446  141.2398  155.6484 C   0  0  0  0  0  0  0  0  0  0  0  0
  149.0088  141.3220  155.7956 C   0  0  2  0  0  0  0  0  0  0  0  0
  148.5946  140.3772  156.7620 O   0  0  0  0  0  0  0  0  0  0  0  0
  148.2823  140.9855  154.4851 C   0  0  0  0  0  0  0  0  0  0  0  0
  147.4236  142.0640  154.1538 O   0  0  0  0  0  0  0  0  0  0  0  0
  146.4050  142.2821  155.1160 C   0  0  0  0  0  0  0  0  0  0  0  0
  145.5028  143.4435  154.7405 C   0  0  0  0  0  0  0  0  0  0  0  0
  145.5708  144.0194  153.4532 C   0  0  0  0  0  0  0  0  0  0  0  0
  144.7415  145.1077  153.1190 C   0  0  0  0  0  0  0  0  0  0  0  0
  143.8454  145.6303  154.0714 C   0  0  0  0  0  0  0  0  0  0  0  0
  143.7809  145.0652  155.3597 C   0  0  0  0  0  0  0  0  0  0  0  0
  144.6097  143.9762  155.6941 C   0  0  0  0  0  0  0  0  0  0  0  0
  151.8589  140.4640  157.5880 C   0  0  0  0  0  0  0  0  0  0  0  0
  151.8909  139.3092  157.1600 O   0  0  0  0  0  0  0  0  0  0  0  0
  152.4865  140.8871  158.8420 C   0  0  0  0  0  0  0  0  0  0  0  0
  153.1524  139.8575  159.5727 C   0  0  0  0  0  0  0  0  0  0  0  0
  153.7097  139.0258  160.1538 N   0  0  0  0  0  0  0  0  0  0  0  0
  152.4389  142.1712  159.2774 C   0  0  0  0  0  0  0  0  0  0  0  0
  153.0755  142.6614  160.5708 C   0  0  0  0  0  0  0  0  0  0  0  0
  152.6063  145.0539  158.9795 H   0  0  0  0  0  0  0  0  0  0  0  0
  151.0460  144.7333  159.7397 H   0  0  0  0  0  0  0  0  0  0  0  0
  151.1245  145.1879  158.0414 H   0  0  0  0  0  0  0  0  0  0  0  0
  150.8912  141.9838  154.9288 H   0  0  0  0  0  0  0  0  0  0  0  0
  150.8388  140.2821  155.2137 H   0  0  0  0  0  0  0  0  0  0  0  0
  148.6952  142.3134  156.1246 H   0  0  0  0  0  0  0  0  0  0  0  0
  147.6767  140.1966  156.6286 H   0  0  0  0  0  0  0  0  0  0  0  0
  148.9997  140.8034  153.6828 H   0  0  0  0  0  0  0  0  0  0  0  0
  147.6874  140.0786  154.6078 H   0  0  0  0  0  0  0  0  0  0  0  0
  145.8024  141.3783  155.2198 H   0  0  0  0  0  0  0  0  0  0  0  0
  146.8500  142.4926  156.0894 H   0  0  0  0  0  0  0  0  0  0  0  0
  146.2582  143.6305  152.7161 H   0  0  0  0  0  0  0  0  0  0  0  0
  144.7944  145.5429  152.1320 H   0  0  0  0  0  0  0  0  0  0  0  0
  143.2102  146.4654  153.8149 H   0  0  0  0  0  0  0  0  0  0  0  0
  143.0969  145.4680  156.0921 H   0  0  0  0  0  0  0  0  0  0  0  0
  144.5567  143.5506  156.6856 H   0  0  0  0  0  0  0  0  0  0  0  0
  153.4908  141.8451  161.1610 H   0  0  0  0  0  0  0  0  0  0  0  0
  152.3398  143.1700  161.1948 H   0  0  0  0  0  0  0  0  0  0  0  0
  153.8853  143.3592  160.3551 H   0  0  0  0  0  0  0  0  0  0  0  0
  1  2  1  0  0  0  0
  1 24  1  0  0  0  0
  1 25  1  0  0  0  0
  1 26  1  0  0  0  0
  2 22  1  0  0  0  0
  2  3  2  0  0  0  0
  3  4  1  0  0  0  0
  4  5  1  0  0  0  0
  4 17  1  0  0  0  0
  5  6  1  0  0  0  0
  5 27  1  0  0  0  0
  5 28  1  0  0  0  0
  6  7  1  0  0  0  0
  6  8  1  0  0  0  0
  6 29  1  0  0  0  0
  7 30  1  0  0  0  0
  8  9  1  0  0  0  0
  8 31  1  0  0  0  0
  8 32  1  0  0  0  0
  9 10  1  0  0  0  0
 10 11  1  0  0  0  0
 10 33  1  0  0  0  0
 10 34  1  0  0  0  0
 11 16  1  0  0  0  0
 11 12  2  0  0  0  0
 12 13  1  0  0  0  0
 12 35  1  0  0  0  0
 13 14  2  0  0  0  0
 13 36  1  0  0  0  0
 14 15  1  0  0  0  0
 14 37  1  0  0  0  0
 15 16  2  0  0  0  0
 15 38  1  0  0  0  0
 16 39  1  0  0  0  0
 17 18  2  0  0  0  0
 17 19  1  0  0  0  0
 19 20  1  0  0  0  0
 19 22  2  0  0  0  0
 20 21  3  0  0  0  0
 22 23  1  0  0  0  0
 23 40  1  0  0  0  0
 23 41  1  0  0  0  0
 23 42  1  0  0  0  0
M  END
> <s_m_source_file>
AV-unprocessed.smi

> <i_m_source_file_index>
1329

> <i_lp_mmshare_version>
43012

> <i_f3d_flags>
0

> <s_epik_input>
TiNDYyhjMVtDSDNdKWMoPU8pbihuYzFbQ0gzXSlbQ0gyXVtDQEhdKFtPSF0pW0NIMl1PW0NIMl1jMltjSF1bY0hdW2NIXVtjSF1bY0hdMg==

> <s_epik_cmdline>
J2VwaWtfcHl0aG9uJywgJy1waCcsICc3LjAnLCAnLXRuJywgJzgnLCAnLW1hJywgJzIwMCcsICctbWV0YWxfYmluZGluZycsICctaW1hZScsICc8aW5maWxlLm1hZT4nLCAnLW9tYWUnLCAnPG91dGZpbGUubWFlPic=

> <r_lp_tautomer_probability>
1

> <r_epik_Ionization_Penalty>
6.13319e-08

> <r_epik_Ionization_Penalty_Charging>
2.19172e-10

> <r_epik_Ionization_Penalty_Neutral>
6.11128e-08

> <r_epik_State_Penalty>
-0

> <r_epik_Charging_Adjusted_Penalty>
2.19172e-10

> <i_epik_Tot_Q>
0

> <i_epik_Tot_abs_Q>
0

> <r_epik_Metal_State_Penalty>
-0

> <b_epik_Metal_Only>
0

> <s_lp_Force_Field>
OPLS_2005

> <r_lp_Energy>
29.8656

> <b_lp_Chiralities_Consistent>
1

> <s_lp_Variant>
AV-unprocessed.smi:1329-1

> <Gold.Version>
5.8.1

> <Gold.Id.Protein>
6NUR|6NUR_protein|mol2

> <Gold.PLP.Fitness>
47.3032

> <Gold.PLP.PLP>
-49.2024

> <Gold.PLP.part.hbond>
0.0000

> <Gold.PLP.part.metal>
0.0000

> <Gold.PLP.part.buried>
-6.7347

> <Gold.PLP.part.nonpolar>
-42.8935

> <Gold.PLP.part.repulsive>
0.2730

> <Gold.PLP.ligand.clash>
0.0000

> <Gold.PLP.ligand.torsion>
0.9902

> <Gold.PLP.Chemscore.Hbond>
0.0000

> <Gold.PLP.Chemscore.CHOScore>
0.0000

> <Gold.PLP.Chemscore.Metal>
0.0000

> <Gold.PLP.Chemscore.Internal.Correction>
0.0812

> <Gold.Rescore>
     Score         DG    S(hbond)    S(metal)    S(lipo)     H(rot)  DE(clash)    DE(int)     intcor
     12.66     -13.61       0.00        0.00     123.67       2.48       0.06       0.88       ----

> <Gold.Chemscore.Fitness>
12.6646

> <Gold.Chemscore.DG>
-13.6071

> <Gold.Chemscore.ZeroCoef>
-5.4800

> <Gold.Chemscore.Hbond>
0.0000

> <Gold.Chemscore.Metal>
0.0000

> <Gold.Chemscore.Lipo>
123.6748

> <Gold.Chemscore.Internal_Hbond>
0.0000

> <Gold.Chemscore.DEClash>
0.0583

> <Gold.Chemscore.DEInternal>
0.8842

> <Gold.Chemscore.Rot>
2.4777

> <Gold.Chemscore.Internal.Correction>
   9.000000E+99

> <Gold.Chemscore.Hbond.Weighted>
-0.0000

> <Gold.Chemscore.Metal.Weighted>
-0.0000

> <Gold.Chemscore.Lipo.Weighted>
-14.4700

> <Gold.Chemscore.Internal_Hbond.Weighted>
0.0000

> <Gold.Chemscore.DEClash.Weighted>
0.0583

> <Gold.Chemscore.DEInternal.Weighted>
0.8842

> <Gold.Chemscore.Rot.Weighted>
6.3428

> <Gold.Chemscore.Internal.Correction.Weighted>
   9.000000E+99

> <Gold.Protein.RotatedTorsions>
[ 6907 6896 6895 6894 ] final  170.10 input  -60.11 | X-H torsion
[ 7974 7965 7964 7962 ] final  -47.07 input  175.53 | X-H torsion
[ 8008 7997 7996 7995 ] final  -57.53 input   59.86 | X-H torsion
[ 10167 10162 10161 10158 ] final  -49.77 input  -65.29 | X-H torsion
[ 10718 10713 10712 10709 ] final   69.24 input   66.30 | X-H torsion
[ 10763 10752 10751 10750 ] final   87.69 input  -60.55 | X-H torsion
[ 11005 11000 10999 10996 ] final    6.02 input  -57.11 | X-H torsion

> <Gold.Protein.ActiveResidues>
 VAL166  LYS551  ARG553  GLY616  TRP617  ASP618  TYR619  PRO620  LYS621  CYS622 
 ASP623  PHE694  ASN695  SER759  ASP760  ASP761  ALA762  ILE779  LEU786  VAL792 
 PHE793  MET794  SER795  GLU796  ALA797  LYS798  CYS799  TRP800  GLU811  SER814 

> <Gold.Protein.RotatedAtoms>
  151.8215  133.3395  159.3585 H   0  0  0  0  0  0  0  0  0  0  0  0  # atno 6907 bound_to 6896
  150.7293  134.5569  159.5832 H   0  0  0  0  0  0  0  0  0  0  0  0  # atno 6908 bound_to 6896
  152.3002  134.7620  160.0410 H   0  0  0  0  0  0  0  0  0  0  0  0  # atno 6909 bound_to 6896
  145.9654  140.7437  142.9436 H   0  0  0  0  0  0  0  0  0  0  0  0  # atno 7974 bound_to 7965
  154.4272  140.1104  156.5813 H   0  0  0  0  0  0  0  0  0  0  0  0  # atno 8008 bound_to 7997
  155.6109  140.3494  155.4603 H   0  0  0  0  0  0  0  0  0  0  0  0  # atno 8009 bound_to 7997
  156.0100  140.1217  157.0453 H   0  0  0  0  0  0  0  0  0  0  0  0  # atno 8010 bound_to 7997
  140.6669  143.2684  151.4262 H   0  0  0  0  0  0  0  0  0  0  0  0  # atno 10167 bound_to 10162
  157.6335  130.9415  150.0487 H   0  0  0  0  0  0  0  0  0  0  0  0  # atno 10718 bound_to 10713
  153.1694  135.4534  154.9881 H   0  0  0  0  0  0  0  0  0  0  0  0  # atno 10763 bound_to 10752
  154.7955  135.3236  154.7680 H   0  0  0  0  0  0  0  0  0  0  0  0  # atno 10764 bound_to 10752
  153.8158  135.6951  153.4889 H   0  0  0  0  0  0  0  0  0  0  0  0  # atno 10765 bound_to 10752
  140.5642  134.0164  155.7983 H   0  0  0  0  0  0  0  0  0  0  0  0  # atno 11005 bound_to 11000
  144.6824  140.2660  143.7312 LP  0  0  0  0  0  0  0  0  0  0  0  0  # atno 17320 bound_to 7965
  145.7981  139.1953  143.2064 LP  0  0  0  0  0  0  0  0  0  0  0  0  # atno 17321 bound_to 7965
  139.5922  144.1474  152.2102 LP  0  0  0  0  0  0  0  0  0  0  0  0  # atno 17342 bound_to 10162
  140.0832  144.5683  150.7107 LP  0  0  0  0  0  0  0  0  0  0  0  0  # atno 17343 bound_to 10162
  156.1556  130.3643  149.9374 LP  0  0  0  0  0  0  0  0  0  0  0  0  # atno 17370 bound_to 10713
  156.7384  130.9070  151.3630 LP  0  0  0  0  0  0  0  0  0  0  0  0  # atno 17371 bound_to 10713
  141.1096  133.9638  157.2934 LP  0  0  0  0  0  0  0  0  0  0  0  0  # atno 17394 bound_to 11000
  139.9393  135.0193  156.8657 LP  0  0  0  0  0  0  0  0  0  0  0  0  # atno 17395 bound_to 11000

$$$$
