AV-unprocessed.smi:322|AV-procd|sdf|2337|dock10
  -GOLD-   2262022243D 1   1.00000     0.00000
 Structure written by MMmdl.
 44 46  0  0  0  0  0  0  0  0  2 V2000
  150.1517  139.9356  153.8853 O   0  0  0  0  0  0  0  0  0  0  0  0
  149.4217  140.7391  154.7855 C   0  0  0  0  0  0  0  0  0  0  0  0
  150.2767  141.2819  155.8824 C   0  0  0  0  0  0  0  0  0  0  0  0
  150.4294  142.5995  156.1962 N   0  3  0  0  0  0  0  0  0  0  0  0
  151.2984  142.7299  157.2802 C   0  0  0  0  0  0  0  0  0  0  0  0
  151.7569  143.8594  157.9513 C   0  0  0  0  0  0  0  0  0  0  0  0
  152.6434  143.6402  159.0261 C   0  0  0  0  0  0  0  0  0  0  0  0
  153.0412  142.3389  159.3969 C   0  0  0  0  0  0  0  0  0  0  0  0
  152.5694  141.2014  158.7091 C   0  0  0  0  0  0  0  0  0  0  0  0
  151.6942  141.4276  157.6475 C   0  0  0  0  0  0  0  0  0  0  0  0
  151.0419  140.5675  156.7579 N   0  0  0  0  0  0  0  0  0  0  0  0
  151.2491  139.1163  156.8844 C   0  0  0  0  0  0  0  0  0  0  0  0
  152.7355  138.7133  156.8161 C   0  0  2  0  0  0  0  0  0  0  0  0
  153.2903  139.2165  155.6165 O   0  0  0  0  0  0  0  0  0  0  0  0
  152.9176  137.1886  156.8393 C   0  0  0  0  0  0  0  0  0  0  0  0
  151.9042  136.5937  156.0411 O   0  0  0  0  0  0  0  0  0  0  0  0
  151.2393  135.5085  156.6721 C   0  0  0  0  0  0  0  0  0  0  0  0
  150.3372  134.7298  155.7295 C   0  0  0  0  0  0  0  0  0  0  0  0
  149.1918  135.3424  155.1787 C   0  0  0  0  0  0  0  0  0  0  0  0
  148.3580  134.6244  154.2997 C   0  0  0  0  0  0  0  0  0  0  0  0
  148.6701  133.2928  153.9626 C   0  0  0  0  0  0  0  0  0  0  0  0
  147.6493  132.4126  152.8855 Cl  0  0  0  0  0  0  0  0  0  0  0  0
  149.8174  132.6807  154.5040 C   0  0  0  0  0  0  0  0  0  0  0  0
  150.6509  133.3985  155.3839 C   0  0  0  0  0  0  0  0  0  0  0  0
  149.6724  139.8827  153.0724 H   0  0  0  0  0  0  0  0  0  0  0  0
  148.9600  141.5619  154.2395 H   0  0  0  0  0  0  0  0  0  0  0  0
  148.6135  140.1468  155.2152 H   0  0  0  0  0  0  0  0  0  0  0  0
  151.4539  144.8571  157.6691 H   0  0  0  0  0  0  0  0  0  0  0  0
  153.0262  144.4870  159.5774 H   0  0  0  0  0  0  0  0  0  0  0  0
  153.7223  142.2102  160.2256 H   0  0  0  0  0  0  0  0  0  0  0  0
  152.8802  140.2087  158.9996 H   0  0  0  0  0  0  0  0  0  0  0  0
  150.7988  138.7881  157.8222 H   0  0  0  0  0  0  0  0  0  0  0  0
  150.6859  138.6269  156.0888 H   0  0  0  0  0  0  0  0  0  0  0  0
  153.2672  139.1542  157.6599 H   0  0  0  0  0  0  0  0  0  0  0  0
  153.4590  138.4891  155.0379 H   0  0  0  0  0  0  0  0  0  0  0  0
  153.8852  136.9271  156.4079 H   0  0  0  0  0  0  0  0  0  0  0  0
  152.9098  136.8112  157.8633 H   0  0  0  0  0  0  0  0  0  0  0  0
  151.9990  134.8234  157.0486 H   0  0  0  0  0  0  0  0  0  0  0  0
  150.6825  135.8606  157.5420 H   0  0  0  0  0  0  0  0  0  0  0  0
  148.9481  136.3637  155.4326 H   0  0  0  0  0  0  0  0  0  0  0  0
  147.4802  135.0970  153.8839 H   0  0  0  0  0  0  0  0  0  0  0  0
  150.0602  131.6606  154.2450 H   0  0  0  0  0  0  0  0  0  0  0  0
  151.5295  132.9223  155.7938 H   0  0  0  0  0  0  0  0  0  0  0  0
  149.9667  143.3528  155.7040 H   0  0  0  0  0  0  0  0  0  0  0  0
  1  2  1  0  0  0  0
  1 25  1  0  0  0  0
  2  3  1  0  0  0  0
  2 26  1  0  0  0  0
  2 27  1  0  0  0  0
  3 11  1  0  0  0  0
  3  4  2  0  0  0  0
  4  5  1  0  0  0  0
  4 44  1  0  0  0  0
  5 10  2  0  0  0  0
  5  6  1  0  0  0  0
  6  7  2  0  0  0  0
  6 28  1  0  0  0  0
  7  8  1  0  0  0  0
  7 29  1  0  0  0  0
  8  9  2  0  0  0  0
  8 30  1  0  0  0  0
  9 10  1  0  0  0  0
  9 31  1  0  0  0  0
 10 11  1  0  0  0  0
 11 12  1  0  0  0  0
 12 13  1  0  0  0  0
 12 32  1  0  0  0  0
 12 33  1  0  0  0  0
 13 14  1  0  0  0  0
 13 15  1  0  0  0  0
 13 34  1  0  0  0  0
 14 35  1  0  0  0  0
 15 16  1  0  0  0  0
 15 36  1  0  0  0  0
 15 37  1  0  0  0  0
 16 17  1  0  0  0  0
 17 18  1  0  0  0  0
 17 38  1  0  0  0  0
 17 39  1  0  0  0  0
 18 24  1  0  0  0  0
 18 19  2  0  0  0  0
 19 20  1  0  0  0  0
 19 40  1  0  0  0  0
 20 21  2  0  0  0  0
 20 41  1  0  0  0  0
 21 22  1  0  0  0  0
 21 23  1  0  0  0  0
 23 24  2  0  0  0  0
 23 42  1  0  0  0  0
 24 43  1  0  0  0  0
M  CHG  1   4   1
M  END
> <s_m_source_file>
AV-unprocessed.smi

> <i_m_source_file_index>
322

> <i_lp_mmshare_version>
43012

> <i_f3d_flags>
0

> <s_epik_input>
W2NIXTFbY0hdW2NIXVtjSF1jKGMxMiluKGMobjIpW0NIMl1bT0hdKVtDSDJdW0NASF0oW09IXSlbQ0gyXU9bQ0gyXWMzW2NIXVtjSF1jKENsKVtjSF1bY0hdMw==

> <s_epik_cmdline>
J2VwaWtfcHl0aG9uJywgJy1waCcsICc3LjAnLCAnLXRuJywgJzgnLCAnLW1hJywgJzIwMCcsICctbWV0YWxfYmluZGluZycsICctaW1hZScsICc8aW5maWxlLm1hZT4nLCAnLW9tYWUnLCAnPG91dGZpbGUubWFlPic=

> <r_epik_Ionization_Penalty>
1.34314

> <r_epik_Ionization_Penalty_Charging>
1.34228

> <r_epik_Ionization_Penalty_Neutral>
0.000856898

> <r_epik_State_Penalty>
1.41963

> <r_epik_Charging_Adjusted_Penalty>
2.76191

> <i_epik_Tot_Q>
1

> <i_epik_Tot_abs_Q>
1

> <r_epik_Metal_State_Penalty>
5.45585

> <b_epik_Metal_Only>
0

> <s_lp_Force_Field>
OPLS_2005

> <r_lp_Energy>
17.7001

> <b_lp_Chiralities_Consistent>
1

> <s_lp_Variant>
AV-unprocessed.smi:322-3

> <Gold.Version>
5.8.1

> <Gold.Id.Protein>
6NUR|6NUR_protein|mol2

> <Gold.PLP.Fitness>
63.7088

> <Gold.PLP.PLP>
-46.9422

> <Gold.PLP.part.hbond>
-4.7846

> <Gold.PLP.part.metal>
0.0000

> <Gold.PLP.part.buried>
-4.4565

> <Gold.PLP.part.nonpolar>
-38.2985

> <Gold.PLP.part.repulsive>
0.1141

> <Gold.PLP.ligand.clash>
0.0000

> <Gold.PLP.ligand.torsion>
0.6440

> <Gold.PLP.Chemscore.Hbond>
5.9760

> <Gold.PLP.Chemscore.CHOScore>
0.0000

> <Gold.PLP.Chemscore.Metal>
0.0000

> <Gold.Chemscore.Hbonds>
donor molecule, donor type, donor heavy atom, donor atom, acceptor molecule, acceptor atom, score
      L1  H     1    25       P1  7957  0.99
      L1  H     4    44       P1  8028  2.00
      P1  H  7989  7998       L1     1  0.91
      P1  H  7997  8009       L1    14  0.99
      P1  H 10752 10764       L1    16  0.90

> <Gold.PLP.Chemscore.Internal.Correction>
0.1265

> <Gold.Rescore>
     Score         DG    S(hbond)    S(metal)    S(lipo)     H(rot)  DE(clash)    DE(int)     intcor
     21.40     -22.06       3.28        0.00     119.04       3.24       0.03       0.63       ----

> <Gold.Chemscore.Fitness>
21.4004

> <Gold.Chemscore.DG>
-22.0566

> <Gold.Chemscore.ZeroCoef>
-5.4800

> <Gold.Chemscore.Hbond>
3.2752

> <Gold.Chemscore.Metal>
0.0000

> <Gold.Chemscore.Lipo>
119.0375

> <Gold.Chemscore.Internal_Hbond>
0.0000

> <Gold.Chemscore.DEClash>
0.0251

> <Gold.Chemscore.DEInternal>
0.6311

> <Gold.Chemscore.Rot>
3.2383

> <Gold.Chemscore.Internal.Correction>
   9.000000E+99

> <Gold.Chemscore.Hbonds>
donor molecule, donor type, donor heavy atom, donor atom, acceptor molecule, acceptor atom, score
      L1  H     1    25       P1  7957  0.94
      L1  H     4    44       P1  8028  0.96
      P1  H  7989  7998       L1     1  0.22
      P1  H  7997  8009       L1    14  0.65
      P1  H 10752 10764       L1    16  0.04

> <Gold.Chemscore.Hbond.Weighted>
-10.9393

> <Gold.Chemscore.Metal.Weighted>
-0.0000

> <Gold.Chemscore.Lipo.Weighted>
-13.9274

> <Gold.Chemscore.Internal_Hbond.Weighted>
0.0000

> <Gold.Chemscore.DEClash.Weighted>
0.0251

> <Gold.Chemscore.DEInternal.Weighted>
0.6311

> <Gold.Chemscore.Rot.Weighted>
8.2901

> <Gold.Chemscore.Internal.Correction.Weighted>
   9.000000E+99

> <Gold.Protein.RotatedTorsions>
[ 6907 6896 6895 6894 ] final  -90.72 input  -60.11 | X-H torsion
[ 7974 7965 7964 7962 ] final -158.90 input  175.53 | X-H torsion
[ 8008 7997 7996 7995 ] final -137.06 input   59.86 | X-H torsion
[ 10167 10162 10161 10158 ] final   87.33 input  -65.29 | X-H torsion
[ 10718 10713 10712 10709 ] final  -28.40 input   66.30 | X-H torsion
[ 10763 10752 10751 10750 ] final  -46.29 input  -60.55 | X-H torsion
[ 11005 11000 10999 10996 ] final  -31.59 input  -57.11 | X-H torsion

> <Gold.Protein.ActiveResidues>
 VAL166  LYS551  ARG553  GLY616  TRP617  ASP618  TYR619  PRO620  LYS621  CYS622 
 ASP623  PHE694  ASN695  SER759  ASP760  ASP761  ALA762  ILE779  LEU786  VAL792 
 PHE793  MET794  SER795  GLU796  ALA797  LYS798  CYS799  TRP800  GLU811  SER814 

> <Gold.Protein.RotatedAtoms>
  150.6884  134.2388  159.4463 H   0  0  0  0  0  0  0  0  0  0  0  0  # atno 6907 bound_to 6896
  152.0334  134.9752  160.0582 H   0  0  0  0  0  0  0  0  0  0  0  0  # atno 6908 bound_to 6896
  152.1282  133.4357  159.4745 H   0  0  0  0  0  0  0  0  0  0  0  0  # atno 6909 bound_to 6896
  144.7487  140.3762  143.6065 H   0  0  0  0  0  0  0  0  0  0  0  0  # atno 7974 bound_to 7965
  155.4055  140.0508  157.3034 H   0  0  0  0  0  0  0  0  0  0  0  0  # atno 8008 bound_to 7997
  154.4971  140.2142  155.9385 H   0  0  0  0  0  0  0  0  0  0  0  0  # atno 8009 bound_to 7997
  156.1419  140.3152  155.8514 H   0  0  0  0  0  0  0  0  0  0  0  0  # atno 8010 bound_to 7997
  139.8784  144.6454  150.8870 H   0  0  0  0  0  0  0  0  0  0  0  0  # atno 10167 bound_to 10162
  156.4258  130.4435  149.7152 H   0  0  0  0  0  0  0  0  0  0  0  0  # atno 10718 bound_to 10713
  154.0426  135.6642  153.4791 H   0  0  0  0  0  0  0  0  0  0  0  0  # atno 10763 bound_to 10752
  153.0495  135.5093  154.7828 H   0  0  0  0  0  0  0  0  0  0  0  0  # atno 10764 bound_to 10752
  154.6809  135.3045  154.9581 H   0  0  0  0  0  0  0  0  0  0  0  0  # atno 10765 bound_to 10752
  140.9481  133.7238  156.1177 H   0  0  0  0  0  0  0  0  0  0  0  0  # atno 11005 bound_to 11000
  145.7025  139.1665  143.2584 LP  0  0  0  0  0  0  0  0  0  0  0  0  # atno 17320 bound_to 7965
  146.1405  140.7064  142.9369 LP  0  0  0  0  0  0  0  0  0  0  0  0  # atno 17321 bound_to 7965
  140.7749  143.3606  151.1836 LP  0  0  0  0  0  0  0  0  0  0  0  0  # atno 17342 bound_to 10162
  139.7218  143.9211  152.2988 LP  0  0  0  0  0  0  0  0  0  0  0  0  # atno 17343 bound_to 10162
  156.4075  130.7705  151.2716 LP  0  0  0  0  0  0  0  0  0  0  0  0  # atno 17370 bound_to 10713
  157.7508  131.0221  150.3780 LP  0  0  0  0  0  0  0  0  0  0  0  0  # atno 17371 bound_to 10713
  140.7641  134.3906  157.5520 LP  0  0  0  0  0  0  0  0  0  0  0  0  # atno 17394 bound_to 11000
  139.8839  134.8980  156.2736 LP  0  0  0  0  0  0  0  0  0  0  0  0  # atno 17395 bound_to 11000

$$$$
