#       Name:                AV-unprocessed.smi:2646
#       Creating user name   scv26
#       Creation time:       Fri Mar 27 14:29:30 2020


#       File generated by GOLD software.
#

@<TRIPOS>MOLECULE
AV-unprocessed.smi:2646
    48    49     1
SMALL
NO_CHARGES


@<TRIPOS>ATOM
      1 ****         1.0770  -0.5837  -2.6183 C.3            1 S1                 0.0000
      2 ****         1.4147   0.0142  -1.2218 C.3            1 S1                 0.0000
      3 ****         2.9597  -0.0498  -1.0417 C.3            1 S1                 0.0000
      4 ****         3.5030  -1.3211  -1.3425 O.3            1 S1                 0.0000
      5 ****         0.8505  -0.7691  -0.1083 N.am           1 S1                 0.0000
      6 ****        -0.3299  -1.4011   0.0042 C.2            1 S1                 0.0000
      7 ****        -1.2006  -1.4169  -0.8647 O.2            1 S1                 0.0000
      8 ****        -0.4407  -1.9875   1.2082 N.am           1 S1                 0.0000
      9 ****        -1.5169  -2.7708   1.7039 C.ar           1 S1                 0.0000
     10 ****        -1.6994  -2.8472   3.1000 C.ar           1 S1                 0.0000
     11 ****        -2.7481  -3.6350   3.6118 C.ar           1 S1                 0.0000
     12 ****        -3.5698  -4.3285   2.7022 C.ar           1 S1                 0.0000
     13 ****        -3.3981  -4.2810   1.3645 N.ar           1 S1                 0.0000
     14 ****        -2.3924  -3.5206   0.8801 C.ar           1 S1                 0.0000
     15 ****         0.9502   1.5156  -1.1252 C.3            1 S1                 0.0000
     16 ****         1.3120   2.1958   0.2249 C.3            1 S1                 0.0000
     17 ****         0.9411   3.6874   0.2487 C.3            1 S1                 0.0000
     18 ****        -0.5470   3.8991  -0.0514 C.3            1 S1                 0.0000
     19 ****        -0.9252   3.2507  -1.3880 C.3            1 S1                 0.0000
     20 ****        -0.5582   1.7581  -1.4071 C.3            1 S1                 0.0000
     21 ****         1.6154  -0.0558  -3.4060 H              1 S1                 0.0000
     22 ****         0.0215  -0.5344  -2.8740 H              1 S1                 0.0000
     23 ****         1.3504  -1.6369  -2.6869 H              1 S1                 0.0000
     24 ****         3.4478   0.6757  -1.6936 H              1 S1                 0.0000
     25 ****         3.2585   0.1902  -0.0217 H              1 S1                 0.0000
     26 ****         4.4411  -1.2801  -1.2372 H              1 S1                 0.0000
     27 ****         1.4603  -0.8454   0.6923 H              1 S1                 0.0000
     28 ****         0.3052  -1.8065   1.8637 H              1 S1                 0.0000
     29 ****        -1.0501  -2.3056   3.7723 H              1 S1                 0.0000
     30 ****        -2.9183  -3.7073   4.6758 H              1 S1                 0.0000
     31 ****        -4.3832  -4.9427   3.0594 H              1 S1                 0.0000
     32 ****        -2.2847  -3.5412  -0.1934 H              1 S1                 0.0000
     33 ****         1.4930   2.0550  -1.9032 H              1 S1                 0.0000
     34 ****         0.8054   1.6893   1.0474 H              1 S1                 0.0000
     35 ****         2.3784   2.1243   0.4293 H              1 S1                 0.0000
     36 ****         1.1866   4.1147   1.2213 H              1 S1                 0.0000
     37 ****         1.5430   4.2249  -0.4853 H              1 S1                 0.0000
     38 ****        -1.1488   3.4682   0.7498 H              1 S1                 0.0000
     39 ****        -0.7763   4.9649  -0.0743 H              1 S1                 0.0000
     40 ****        -1.9941   3.3709  -1.5667 H              1 S1                 0.0000
     41 ****        -0.4160   3.7647  -2.2043 H              1 S1                 0.0000
     42 ****        -0.8479   1.3627  -2.3785 H              1 S1                 0.0000
     43 ****        -1.1686   1.2436  -0.6661 H              1 S1                 0.0000
     44 ****         3.2802  -1.5683  -2.2855 LP             1 S1                 0.0000
     45 ****         3.1236  -2.0056  -0.7200 LP             1 S1                 0.0000
     46 ****        -1.0534  -0.9358  -1.7289 LP             1 S1                 0.0000
     47 ****        -2.0556  -1.9109  -0.7068 LP             1 S1                 0.0000
     48 ****        -3.9978  -4.7937   0.7500 LP             1 S1                 0.0000
@<TRIPOS>BOND
    1    1    2 1     
    2    1   21 1     
    3    1   22 1     
    4    1   23 1     
    5    2    3 1     
    6    2    5 1     
    7    2   15 1     
    8    3    4 1     
    9    3   24 1     
   10    3   25 1     
   11    4   26 1     
   12    5    6 am    
   13    5   27 1     
   14    6    7 2     
   15    6    8 am    
   16    8    9 1     
   17    8   28 1     
   18    9   14 ar    
   19    9   10 ar    
   20   10   11 ar    
   21   10   29 1     
   22   11   12 ar    
   23   11   30 1     
   24   12   13 ar    
   25   12   31 1     
   26   13   14 ar    
   27   14   32 1     
   28   15   20 1     
   29   15   16 1     
   30   15   33 1     
   31   16   17 1     
   32   16   34 1     
   33   16   35 1     
   34   17   18 1     
   35   17   36 1     
   36   17   37 1     
   37   18   19 1     
   38   18   38 1     
   39   18   39 1     
   40   19   20 1     
   41   19   40 1     
   42   19   41 1     
   43   20   42 1     
   44   20   43 1     
   45    4   44 1     
   46    4   45 1     
   47    7   46 1     
   48    7   47 1     
   49   13   48 1     
@<TRIPOS>SUBSTRUCTURE
      1 S1             1
@<TRIPOS>SET
LONE_PAIRS      STATIC     ATOMS    <user>   **** ""
5 44 45 46 47 48
DONOR_HYDROGENS      STATIC     ATOMS    <user>   **** ""
3 26 27 28
ATOM$BLUE        STATIC     ATOMS    COLORGROUP SYSTEM
5 44 45 46 47 48
ATOM$RED        STATIC     ATOMS    COLORGROUP SYSTEM
3 26 27 28
