#       Name:                AV-unprocessed.smi:2805
#       Creating user name   scv26
#       Creation time:       Fri Mar 27 15:25:06 2020


#       File generated by GOLD software.
#

@<TRIPOS>MOLECULE
AV-unprocessed.smi:2805
    48    49     1
SMALL
NO_CHARGES


@<TRIPOS>ATOM
      1 ****        -5.5637   3.6813  -0.6514 C.3            1 S1                 0.0000
      2 ****        -4.8850   2.3297  -0.5796 C.ar           1 S1                 0.0000
      3 ****        -5.6169   1.1432  -0.7768 C.ar           1 S1                 0.0000
      4 ****        -4.9285  -0.0833  -0.6984 C.ar           1 S1                 0.0000
      5 ****        -5.6527  -1.3976  -0.9021 C.3            1 S1                 0.0000
      6 ****        -3.6050  -0.1705  -0.4459 N.ar           1 S1                 0.0000
      7 ****        -2.8895   0.9658  -0.2560 C.ar           1 S1                 0.0000
      8 ****        -1.4955   0.9835   0.0151 N.am           1 S1                 0.0000
      9 ****        -0.6583  -0.0620   0.1349 C.2            1 S1                 0.0000
     10 ****        -0.9756  -1.2465   0.0207 O.2            1 S1                 0.0000
     11 ****         0.5919   0.3464   0.3970 N.am           1 S1                 0.0000
     12 ****         1.7445  -0.5300   0.5841 C.3            1 S1                 0.0000
     13 ****         2.3304  -0.9578  -0.7759 C.3            1 S1                 0.0000
     14 ****         3.5929  -1.8160  -0.5981 C.3            1 S1                 0.0000
     15 ****         4.6659  -1.0903   0.2375 C.3            1 S1                 0.0000
     16 ****         5.9225  -1.9662   0.3973 C.3            1 S1                 0.0000
     17 ****         6.9799  -1.2290   0.9743 O.3            1 S1                 0.0000
     18 ****         4.0729  -0.6683   1.5989 C.3            1 S1                 0.0000
     19 ****         2.8103   0.1918   1.4281 C.3            1 S1                 0.0000
     20 ****        -3.5033   2.2371  -0.3173 C.ar           1 S1                 0.0000
     21 ****         1.4276  -1.4216   1.1291 H              1 S1                 0.0000
     22 ****         4.9521  -0.1880  -0.3057 H              1 S1                 0.0000
     23 ****        -6.6466   3.5826  -0.5713 H              1 S1                 0.0000
     24 ****        -5.3322   4.1685  -1.5988 H              1 S1                 0.0000
     25 ****        -5.2214   4.3246   0.1597 H              1 S1                 0.0000
     26 ****        -6.6769   1.1722  -0.9835 H              1 S1                 0.0000
     27 ****        -6.7329  -1.2528  -0.9344 H              1 S1                 0.0000
     28 ****        -5.4277  -2.0877  -0.0882 H              1 S1                 0.0000
     29 ****        -5.3413  -1.8581  -1.8399 H              1 S1                 0.0000
     30 ****        -1.0885   1.8993   0.1334 H              1 S1                 0.0000
     31 ****         0.7610   1.3385   0.4743 H              1 S1                 0.0000
     32 ****         1.5886  -1.5174  -1.3471 H              1 S1                 0.0000
     33 ****         2.5738  -0.0747  -1.3686 H              1 S1                 0.0000
     34 ****         3.3252  -2.7580  -0.1174 H              1 S1                 0.0000
     35 ****         3.9956  -2.0747  -1.5779 H              1 S1                 0.0000
     36 ****         5.7120  -2.8407   1.0137 H              1 S1                 0.0000
     37 ****         6.2571  -2.3312  -0.5742 H              1 S1                 0.0000
     38 ****         7.7341  -1.7935   1.0493 H              1 S1                 0.0000
     39 ****         3.8309  -1.5548   2.1867 H              1 S1                 0.0000
     40 ****         4.8106  -0.1096   2.1753 H              1 S1                 0.0000
     41 ****         3.0806   1.1374   0.9555 H              1 S1                 0.0000
     42 ****         2.4030   0.4419   2.4086 H              1 S1                 0.0000
     43 ****        -2.9217   3.1351  -0.1653 H              1 S1                 0.0000
     44 ****        -3.1572  -1.0634  -0.3994 LP             1 S1                 0.0000
     45 ****        -1.9243  -1.4931  -0.1773 LP             1 S1                 0.0000
     46 ****        -0.2846  -1.9616   0.1260 LP             1 S1                 0.0000
     47 ****         6.7096  -0.9052   1.8810 LP             1 S1                 0.0000
     48 ****         7.2014  -0.4459   0.3931 LP             1 S1                 0.0000
@<TRIPOS>BOND
    1    1    2 1     
    2    1   23 1     
    3    1   24 1     
    4    1   25 1     
    5    2   20 ar    
    6    2    3 ar    
    7    3    4 ar    
    8    3   26 1     
    9    4    5 1     
   10    4    6 ar    
   11    5   27 1     
   12    5   28 1     
   13    5   29 1     
   14    6    7 ar    
   15    7    8 1     
   16    7   20 ar    
   17    8    9 am    
   18    8   30 1     
   19    9   10 2     
   20    9   11 am    
   21   11   12 1     
   22   11   31 1     
   23   12   21 1     
   24   12   19 1     
   25   12   13 1     
   26   13   14 1     
   27   13   32 1     
   28   13   33 1     
   29   14   15 1     
   30   14   34 1     
   31   14   35 1     
   32   15   22 1     
   33   15   16 1     
   34   15   18 1     
   35   16   17 1     
   36   16   36 1     
   37   16   37 1     
   38   17   38 1     
   39   18   19 1     
   40   18   39 1     
   41   18   40 1     
   42   19   41 1     
   43   19   42 1     
   44   20   43 1     
   45    6   44 1     
   46   10   45 1     
   47   10   46 1     
   48   17   47 1     
   49   17   48 1     
@<TRIPOS>SUBSTRUCTURE
      1 S1             1
@<TRIPOS>SET
LONE_PAIRS      STATIC     ATOMS    <user>   **** ""
5 44 45 46 47 48
DONOR_HYDROGENS      STATIC     ATOMS    <user>   **** ""
3 30 31 38
ATOM$BLUE        STATIC     ATOMS    COLORGROUP SYSTEM
5 44 45 46 47 48
ATOM$RED        STATIC     ATOMS    COLORGROUP SYSTEM
3 30 31 38
