AV-unprocessed.smi:1907|AV-procd|sdf|7731|dock1
  -GOLD-   22720 9473D 1   1.00000     0.00000
 Structure written by MMmdl.
 32 33  0  0  0  0  0  0  0  0  1 V2000
  147.6786  138.8367  152.2312 N   0  0  0  0  0  0  0  0  0  0  0  0
  147.0216  139.4996  153.1872 C   0  0  0  0  0  0  0  0  0  0  0  0
  146.0832  139.0024  153.8058 O   0  0  0  0  0  0  0  0  0  0  0  0
  147.4805  140.9271  153.4905 C   0  0  0  0  0  0  0  0  0  0  0  0
  148.0815  141.0010  154.8639 C   0  0  0  0  0  0  0  0  0  0  0  0
  147.6639  140.3290  155.9875 C   0  0  0  0  0  0  0  0  0  0  0  0
  148.6408  140.7115  157.3804 S   0  0  0  0  0  0  0  0  0  0  0  0
  149.6120  141.7622  156.3617 C   0  0  0  0  0  0  0  0  0  0  0  0
  150.6939  142.5238  156.8733 N   0  0  0  0  0  0  0  0  0  0  0  0
  151.2385  142.5283  158.1067 C   0  0  0  0  0  0  0  0  0  0  0  0
  150.7967  141.7699  158.9691 O   0  0  0  0  0  0  0  0  0  0  0  0
  152.4305  143.4537  158.4478 C   0  0  0  0  0  0  0  0  0  0  0  0
  152.9463  143.2614  159.8858 C   0  0  0  0  0  0  0  0  0  0  0  0
  152.1936  144.2680  160.7697 C   0  0  0  0  0  0  0  0  0  0  0  0
  151.4904  145.2457  159.8192 C   0  0  0  0  0  0  0  0  0  0  0  0
  152.0331  144.9370  158.4212 C   0  0  0  0  0  0  0  0  0  0  0  0
  149.1796  141.8342  155.0990 N   0  0  0  0  0  0  0  0  0  0  0  0
  147.4127  137.8895  152.0044 H   0  0  0  0  0  0  0  0  0  0  0  0
  148.4427  139.2818  151.7440 H   0  0  0  0  0  0  0  0  0  0  0  0
  148.1986  141.2475  152.7344 H   0  0  0  0  0  0  0  0  0  0  0  0
  146.6277  141.6020  153.4079 H   0  0  0  0  0  0  0  0  0  0  0  0
  146.8412  139.6354  156.0793 H   0  0  0  0  0  0  0  0  0  0  0  0
  151.1215  143.1541  156.2106 H   0  0  0  0  0  0  0  0  0  0  0  0
  153.2545  143.2502  157.7647 H   0  0  0  0  0  0  0  0  0  0  0  0
  152.8347  142.2384  160.2487 H   0  0  0  0  0  0  0  0  0  0  0  0
  154.0134  143.4853  159.9147 H   0  0  0  0  0  0  0  0  0  0  0  0
  151.4613  143.7617  161.3997 H   0  0  0  0  0  0  0  0  0  0  0  0
  152.8863  144.7890  161.4314 H   0  0  0  0  0  0  0  0  0  0  0  0
  150.4147  145.0669  159.8431 H   0  0  0  0  0  0  0  0  0  0  0  0
  151.6533  146.2866  160.1002 H   0  0  0  0  0  0  0  0  0  0  0  0
  152.9193  145.5427  158.2272 H   0  0  0  0  0  0  0  0  0  0  0  0
  151.3062  145.1745  157.6432 H   0  0  0  0  0  0  0  0  0  0  0  0
  1  2  1  0  0  0  0
  1 18  1  0  0  0  0
  1 19  1  0  0  0  0
  2  3  2  0  0  0  0
  2  4  1  0  0  0  0
  4  5  1  0  0  0  0
  4 20  1  0  0  0  0
  4 21  1  0  0  0  0
  5 17  1  0  0  0  0
  5  6  2  0  0  0  0
  6  7  1  0  0  0  0
  6 22  1  0  0  0  0
  7  8  1  0  0  0  0
  8  9  1  0  0  0  0
  8 17  2  0  0  0  0
  9 10  1  0  0  0  0
  9 23  1  0  0  0  0
 10 11  2  0  0  0  0
 10 12  1  0  0  0  0
 12 16  1  0  0  0  0
 12 13  1  0  0  0  0
 12 24  1  0  0  0  0
 13 14  1  0  0  0  0
 13 25  1  0  0  0  0
 13 26  1  0  0  0  0
 14 15  1  0  0  0  0
 14 27  1  0  0  0  0
 14 28  1  0  0  0  0
 15 16  1  0  0  0  0
 15 29  1  0  0  0  0
 15 30  1  0  0  0  0
 16 31  1  0  0  0  0
 16 32  1  0  0  0  0
M  END
> <s_m_source_file>
AV-unprocessed.smi

> <i_m_source_file_index>
1907

> <i_lp_mmshare_version>
43012

> <i_f3d_flags>
0

> <s_epik_input>
W05IMl1DKD1PKVtDSDJdYzFbY0hdc2MobjEpW05IXUMoPU8pW0NIXTJbQ0gyXVtDSDJdW0NIMl1bQ0gyXTI=

> <s_epik_cmdline>
J2VwaWtfcHl0aG9uJywgJy1waCcsICc3LjAnLCAnLXRuJywgJzgnLCAnLW1hJywgJzIwMCcsICctbWV0YWxfYmluZGluZycsICctaW1hZScsICc8aW5maWxlLm1hZT4nLCAnLW9tYWUnLCAnPG91dGZpbGUubWFlPic=

> <r_lp_tautomer_probability>
1

> <r_epik_Ionization_Penalty>
0.00017492

> <r_epik_Ionization_Penalty_Charging>
0

> <r_epik_Ionization_Penalty_Neutral>
0.00017492

> <r_epik_State_Penalty>
-0

> <r_epik_Charging_Adjusted_Penalty>
0

> <i_epik_Tot_Q>
0

> <i_epik_Tot_abs_Q>
0

> <r_epik_Metal_State_Penalty>
0.109333

> <b_epik_Metal_Only>
0

> <s_lp_Force_Field>
OPLS_2005

> <r_lp_Energy>
23.3326

> <b_lp_Chiralities_Consistent>
1

> <s_lp_Variant>
AV-unprocessed.smi:1907-1

> <Gold.Version>
5.8.1

> <Gold.Id.Protein>
6NUR|6NUR_protein|mol2

> <Gold.PLP.Fitness>
40.0632

> <Gold.PLP.PLP>
-36.6763

> <Gold.PLP.part.hbond>
-2.9682

> <Gold.PLP.part.metal>
0.0000

> <Gold.PLP.part.buried>
-4.9868

> <Gold.PLP.part.nonpolar>
-29.2465

> <Gold.PLP.part.repulsive>
0.8239

> <Gold.PLP.ligand.clash>
0.0000

> <Gold.PLP.ligand.torsion>
0.4292

> <Gold.PLP.Chemscore.Hbond>
1.3965

> <Gold.PLP.Chemscore.CHOScore>
0.0000

> <Gold.PLP.Chemscore.Metal>
0.0000

> <Gold.Chemscore.Hbonds>
donor molecule, donor type, donor heavy atom, donor atom, acceptor molecule, acceptor atom, score
      L1  H     1    18       P1  7948  0.20
      L1  H     1    19       P1  7957  0.86

> <Gold.PLP.Chemscore.Internal.Correction>
0.0559

> <Gold.Rescore>
     Score         DG    S(hbond)    S(metal)    S(lipo)     H(rot)  DE(clash)    DE(int)     intcor
     11.64     -14.71       1.51        0.00      77.53       1.90       0.02       3.05       ----

> <Gold.Chemscore.Fitness>
11.6373

> <Gold.Chemscore.DG>
-14.7076

> <Gold.Chemscore.ZeroCoef>
-5.4800

> <Gold.Chemscore.Hbond>
1.5054

> <Gold.Chemscore.Metal>
0.0000

> <Gold.Chemscore.Lipo>
77.5284

> <Gold.Chemscore.Internal_Hbond>
0.0000

> <Gold.Chemscore.DEClash>
0.0202

> <Gold.Chemscore.DEInternal>
3.0501

> <Gold.Chemscore.Rot>
1.9028

> <Gold.Chemscore.Internal.Correction>
   9.000000E+99

> <Gold.Chemscore.Hbonds>
donor molecule, donor type, donor heavy atom, donor atom, acceptor molecule, acceptor atom, score
      L1  H     1    18       P1  7948  0.20
      L1  H     1    19       P1  7957  0.83

> <Gold.Chemscore.Hbond.Weighted>
-5.0279

> <Gold.Chemscore.Metal.Weighted>
-0.0000

> <Gold.Chemscore.Lipo.Weighted>
-9.0708

> <Gold.Chemscore.Internal_Hbond.Weighted>
0.0000

> <Gold.Chemscore.DEClash.Weighted>
0.0202

> <Gold.Chemscore.DEInternal.Weighted>
3.0501

> <Gold.Chemscore.Rot.Weighted>
4.8711

> <Gold.Chemscore.Internal.Correction.Weighted>
   9.000000E+99

> <Gold.Protein.RotatedTorsions>
[ 6907 6896 6895 6894 ] final -101.92 input  -60.11 | X-H torsion
[ 7974 7965 7964 7962 ] final -128.30 input  175.53 | X-H torsion
[ 8008 7997 7996 7995 ] final -130.31 input   59.86 | X-H torsion
[ 10167 10162 10161 10158 ] final -121.81 input  -65.29 | X-H torsion
[ 10718 10713 10712 10709 ] final   34.83 input   66.30 | X-H torsion
[ 10763 10752 10751 10750 ] final -115.59 input  -60.55 | X-H torsion
[ 11005 11000 10999 10996 ] final   10.27 input  -57.11 | X-H torsion

> <Gold.Protein.ActiveResidues>
 VAL166  LYS551  ARG553  GLY616  TRP617  ASP618  TYR619  PRO620  LYS621  CYS622 
 ASP623  PHE694  ASN695  SER759  ASP760  ASP761  ALA762  ILE779  LEU786  VAL792 
 PHE793  MET794  SER795  GLU796  ALA797  LYS798  CYS799  TRP800  GLU811  SER814 

> <Gold.Protein.RotatedAtoms>
  150.7174  134.0660  159.3847 H   0  0  0  0  0  0  0  0  0  0  0  0  # atno 6907 bound_to 6896
  151.8641  135.0511  160.0482 H   0  0  0  0  0  0  0  0  0  0  0  0  # atno 6908 bound_to 6896
  152.2694  133.5333  159.5466 H   0  0  0  0  0  0  0  0  0  0  0  0  # atno 6909 bound_to 6896
  144.9684  140.7520  143.4685 H   0  0  0  0  0  0  0  0  0  0  0  0  # atno 7974 bound_to 7965
  155.2936  140.0449  157.3025 H   0  0  0  0  0  0  0  0  0  0  0  0  # atno 8008 bound_to 7997
  154.5527  140.2322  155.8427 H   0  0  0  0  0  0  0  0  0  0  0  0  # atno 8009 bound_to 7997
  156.1981  140.3033  155.9476 H   0  0  0  0  0  0  0  0  0  0  0  0  # atno 8010 bound_to 7997
  140.0211  143.5344  152.2220 H   0  0  0  0  0  0  0  0  0  0  0  0  # atno 10167 bound_to 10162
  157.3151  130.7419  149.6749 H   0  0  0  0  0  0  0  0  0  0  0  0  # atno 10718 bound_to 10713
  154.8487  135.4376  154.1686 H   0  0  0  0  0  0  0  0  0  0  0  0  # atno 10763 bound_to 10752
  153.2805  135.6953  153.7396 H   0  0  0  0  0  0  0  0  0  0  0  0  # atno 10764 bound_to 10752
  153.6602  135.3436  155.3100 H   0  0  0  0  0  0  0  0  0  0  0  0  # atno 10765 bound_to 10752
  140.5164  134.0602  155.7832 H   0  0  0  0  0  0  0  0  0  0  0  0  # atno 11005 bound_to 11000
  145.2595  139.1998  143.4899 LP  0  0  0  0  0  0  0  0  0  0  0  0  # atno 17320 bound_to 7965
  146.3375  140.2522  142.8599 LP  0  0  0  0  0  0  0  0  0  0  0  0  # atno 17321 bound_to 7965
  139.6139  144.7615  151.2889 LP  0  0  0  0  0  0  0  0  0  0  0  0  # atno 17342 bound_to 10162
  140.7342  143.6772  150.8031 LP  0  0  0  0  0  0  0  0  0  0  0  0  # atno 17343 bound_to 10162
  155.9681  130.4239  150.4586 LP  0  0  0  0  0  0  0  0  0  0  0  0  # atno 17370 bound_to 10713
  157.2592  131.0563  151.2331 LP  0  0  0  0  0  0  0  0  0  0  0  0  # atno 17371 bound_to 10713
  141.1358  133.9224  157.2437 LP  0  0  0  0  0  0  0  0  0  0  0  0  # atno 17394 bound_to 11000
  139.9630  135.0149  156.9312 LP  0  0  0  0  0  0  0  0  0  0  0  0  # atno 17395 bound_to 11000

$$$$
