AV-unprocessed.smi:35|AV-procd|sdf|253|dock9
  -GOLD-   2262016 13D 1   1.00000     0.00000
 Structure written by MMmdl.
 29 30  0  0  0  0  0  0  0  0  1 V2000
  152.2512  136.9875  159.3248 O   0  0  0  0  0  0  0  0  0  0  0  0
  151.7970  137.4979  158.3033 C   0  0  0  0  0  0  0  0  0  0  0  0
  152.6554  138.0120  157.3287 N   0  0  0  0  0  0  0  0  0  0  0  0
  152.2586  138.6035  156.1279 C   0  0  0  0  0  0  0  0  0  0  0  0
  153.1082  139.0646  155.3671 O   0  0  0  0  0  0  0  0  0  0  0  0
  150.8718  138.6486  155.8497 N   0  0  0  0  0  0  0  0  0  0  0  0
  150.3988  139.3210  154.5692 C   0  0  2  0  0  0  0  0  0  0  0  0
  150.5895  140.7051  154.6729 O   0  0  0  0  0  0  0  0  0  0  0  0
  149.3605  141.3928  154.9020 C   0  0  2  0  0  0  0  0  0  0  0  0
  149.0505  141.4861  156.4146 C   0  0  0  0  0  0  0  0  0  0  0  0
  149.8602  142.4765  157.0117 O   0  0  0  0  0  0  0  0  0  0  0  0
  148.3849  140.5358  154.0888 C   0  0  2  0  0  0  0  0  0  0  0  0
  147.0379  140.6864  154.4934 O   0  0  0  0  0  0  0  0  0  0  0  0
  148.8857  139.1143  154.3092 C   0  0  1  0  0  0  0  0  0  0  0  0
  148.6461  138.3476  153.1455 O   0  0  0  0  0  0  0  0  0  0  0  0
  149.9810  138.2068  156.8239 C   0  0  0  0  0  0  0  0  0  0  0  0
  150.3815  137.6451  157.9884 C   0  0  0  0  0  0  0  0  0  0  0  0
  148.9503  137.0643  159.2290 Br  0  0  0  0  0  0  0  0  0  0  0  0
  153.6466  137.9645  157.5158 H   0  0  0  0  0  0  0  0  0  0  0  0
  151.0510  138.9189  153.7915 H   0  0  0  0  0  0  0  0  0  0  0  0
  149.4116  142.3980  154.4813 H   0  0  0  0  0  0  0  0  0  0  0  0
  148.0192  141.7998  156.5742 H   0  0  0  0  0  0  0  0  0  0  0  0
  149.1684  140.5331  156.9279 H   0  0  0  0  0  0  0  0  0  0  0  0
  149.6149  143.3183  156.6588 H   0  0  0  0  0  0  0  0  0  0  0  0
  148.4764  140.8109  153.0363 H   0  0  0  0  0  0  0  0  0  0  0  0
  146.4813  140.4611  153.7632 H   0  0  0  0  0  0  0  0  0  0  0  0
  148.4063  138.6687  155.1824 H   0  0  0  0  0  0  0  0  0  0  0  0
  149.0988  138.7557  152.4228 H   0  0  0  0  0  0  0  0  0  0  0  0
  148.9168  138.3038  156.6724 H   0  0  0  0  0  0  0  0  0  0  0  0
  1  2  2  0  0  0  0
  2 17  1  0  0  0  0
  2  3  1  0  0  0  0
  3 19  1  0  0  0  0
  3  4  1  0  0  0  0
  4  5  2  0  0  0  0
  4  6  1  0  0  0  0
  6  7  1  0  0  0  0
  6 16  1  0  0  0  0
  7 14  1  0  0  0  0
  7  8  1  0  0  0  0
  7 20  1  0  0  0  0
  8  9  1  0  0  0  0
  9 10  1  0  0  0  0
  9 12  1  0  0  0  0
  9 21  1  0  0  0  0
 10 11  1  0  0  0  0
 10 22  1  0  0  0  0
 10 23  1  0  0  0  0
 11 24  1  0  0  0  0
 12 13  1  0  0  0  0
 12 14  1  0  0  0  0
 12 25  1  0  0  0  0
 13 26  1  0  0  0  0
 14 15  1  0  0  0  0
 14 27  1  0  0  0  0
 15 28  1  0  0  0  0
 16 17  2  0  0  0  0
 16 29  1  0  0  0  0
 17 18  1  0  0  0  0
M  END
> <s_m_source_file>
AV-unprocessed.smi

> <i_m_source_file_index>
35

> <i_lp_mmshare_version>
43012

> <i_f3d_flags>
0

> <s_epik_input>
Tz1jMVtuSF1jKD1PKW4oW2NIXWMxQnIpW0NAQEhdMk9bQ0BASF0oW0NIMl1bT0hdKVtDQEBIXShbT0hdKVtDQEhdMltPSF0=

> <s_epik_cmdline>
J2VwaWtfcHl0aG9uJywgJy1waCcsICc3LjAnLCAnLXRuJywgJzgnLCAnLW1hJywgJzIwMCcsICctbWV0YWxfYmluZGluZycsICctaW1hZScsICc8aW5maWxlLm1hZT4nLCAnLW9tYWUnLCAnPG91dGZpbGUubWFlPic=

> <r_lp_tautomer_probability>
0.999537

> <r_epik_Ionization_Penalty>
0.10812

> <r_epik_Ionization_Penalty_Charging>
0.108119

> <r_epik_Ionization_Penalty_Neutral>
4.93006e-07

> <r_epik_State_Penalty>
0.0979238

> <r_epik_Charging_Adjusted_Penalty>
0.206043

> <i_epik_Tot_Q>
0

> <i_epik_Tot_abs_Q>
0

> <r_epik_Metal_State_Penalty>
3.07911

> <b_epik_Metal_Only>
0

> <s_epik_Chemistry_Notes>
This compound contains an acetal/aminal-like group ( X-CH(R)-Y where X, Y are N, S, or O) that may be acid/base labile, releasing an aldehyde.

> <s_lp_Force_Field>
OPLS_2005

> <r_lp_Energy>
30.5173

> <b_lp_Chiralities_Consistent>
1

> <s_lp_Variant>
AV-unprocessed.smi:35-7

> <Gold.Version>
5.8.1

> <Gold.Id.Protein>
6NUR|6NUR_protein|mol2

> <Gold.PLP.Fitness>
39.7284

> <Gold.PLP.PLP>
-25.6449

> <Gold.PLP.part.hbond>
-5.7204

> <Gold.PLP.part.metal>
0.0000

> <Gold.PLP.part.buried>
-3.4454

> <Gold.PLP.part.nonpolar>
-16.7530

> <Gold.PLP.part.repulsive>
0.2211

> <Gold.PLP.ligand.clash>
0.0000

> <Gold.PLP.ligand.torsion>
0.3829

> <Gold.PLP.Chemscore.Hbond>
4.9280

> <Gold.PLP.Chemscore.CHOScore>
0.0000

> <Gold.PLP.Chemscore.Metal>
0.0000

> <Gold.Chemscore.Hbonds>
donor molecule, donor type, donor heavy atom, donor atom, acceptor molecule, acceptor atom, score
      L1  H    11    24       P1  8028  1.00
      L1  H    15    28       P1  7957  1.00
      P1  H  6896  6909       L1     1  0.92
      P1  H  7989  7998       L1     8  0.85
      P1  H  7997  8009       L1     5  1.00

> <Gold.PLP.Chemscore.Internal.Correction>
0.0653

> <Gold.Rescore>
     Score         DG    S(hbond)    S(metal)    S(lipo)     H(rot)  DE(clash)    DE(int)     intcor
     13.65     -14.21       4.25        0.00      33.67       3.67       0.07       0.50       ----

> <Gold.Chemscore.Fitness>
13.6456

> <Gold.Chemscore.DG>
-14.2100

> <Gold.Chemscore.ZeroCoef>
-5.4800

> <Gold.Chemscore.Hbond>
4.2475

> <Gold.Chemscore.Metal>
0.0000

> <Gold.Chemscore.Lipo>
33.6652

> <Gold.Chemscore.Internal_Hbond>
0.0000

> <Gold.Chemscore.DEClash>
0.0650

> <Gold.Chemscore.DEInternal>
0.4994

> <Gold.Chemscore.Rot>
3.6701

> <Gold.Chemscore.Internal.Correction>
   9.000000E+99

> <Gold.Chemscore.Hbonds>
donor molecule, donor type, donor heavy atom, donor atom, acceptor molecule, acceptor atom, score
      L1  H    11    24       P1  8028  1.00
      L1  H    15    28       P1  7957  0.88
      P1  H  6896  6909       L1     1  0.82
      P1  H  7989  7998       L1     8  0.18
      P1  H  7997  8009       L1     5  0.90

> <Gold.Chemscore.Hbond.Weighted>
-14.1866

> <Gold.Chemscore.Metal.Weighted>
-0.0000

> <Gold.Chemscore.Lipo.Weighted>
-3.9388

> <Gold.Chemscore.Internal_Hbond.Weighted>
0.0000

> <Gold.Chemscore.DEClash.Weighted>
0.0650

> <Gold.Chemscore.DEInternal.Weighted>
0.4994

> <Gold.Chemscore.Rot.Weighted>
9.3955

> <Gold.Chemscore.Internal.Correction.Weighted>
   9.000000E+99

> <Gold.Protein.RotatedTorsions>
[ 6907 6896 6895 6894 ] final  116.34 input  -60.11 | X-H torsion
[ 7974 7965 7964 7962 ] final   83.70 input  175.53 | X-H torsion
[ 8008 7997 7996 7995 ] final -153.89 input   59.86 | X-H torsion
[ 10167 10162 10161 10158 ] final   37.52 input  -65.29 | X-H torsion
[ 10718 10713 10712 10709 ] final -150.75 input   66.30 | X-H torsion
[ 10763 10752 10751 10750 ] final  -66.85 input  -60.55 | X-H torsion
[ 11005 11000 10999 10996 ] final   59.55 input  -57.11 | X-H torsion

> <Gold.Protein.ActiveResidues>
 VAL166  LYS551  ARG553  GLY616  TRP617  ASP618  TYR619  PRO620  LYS621  CYS622 
 ASP623  PHE694  ASN695  SER759  ASP760  ASP761  ALA762  ILE779  LEU786  VAL792 
 PHE793  MET794  SER795  GLU796  ALA797  LYS798  CYS799  TRP800  GLU811  SER814 

> <Gold.Protein.RotatedAtoms>
  152.4684  133.7974  159.6934 H   0  0  0  0  0  0  0  0  0  0  0  0  # atno 6907 bound_to 6896
  150.8660  133.7564  159.2983 H   0  0  0  0  0  0  0  0  0  0  0  0  # atno 6908 bound_to 6896
  151.5114  135.1068  159.9907 H   0  0  0  0  0  0  0  0  0  0  0  0  # atno 6909 bound_to 6896
  145.6084  139.2364  143.2206 H   0  0  0  0  0  0  0  0  0  0  0  0  # atno 7974 bound_to 7965
  155.6779  140.0741  157.2496 H   0  0  0  0  0  0  0  0  0  0  0  0  # atno 8008 bound_to 7997
  154.4111  140.1687  156.2001 H   0  0  0  0  0  0  0  0  0  0  0  0  # atno 8009 bound_to 7997
  155.9560  140.3373  155.6452 H   0  0  0  0  0  0  0  0  0  0  0  0  # atno 8010 bound_to 7997
  140.4024  144.1705  150.6134 H   0  0  0  0  0  0  0  0  0  0  0  0  # atno 10167 bound_to 10162
  156.4502  130.8164  151.2395 H   0  0  0  0  0  0  0  0  0  0  0  0  # atno 10718 bound_to 10713
  154.3658  135.6106  153.5714 H   0  0  0  0  0  0  0  0  0  0  0  0  # atno 10763 bound_to 10752
  152.9792  135.5826  154.4580 H   0  0  0  0  0  0  0  0  0  0  0  0  # atno 10764 bound_to 10752
  154.4325  135.2848  155.1880 H   0  0  0  0  0  0  0  0  0  0  0  0  # atno 10765 bound_to 10752
  140.0296  134.6032  155.9525 H   0  0  0  0  0  0  0  0  0  0  0  0  # atno 11005 bound_to 11000
  146.1523  140.6907  142.9316 LP  0  0  0  0  0  0  0  0  0  0  0  0  # atno 17320 bound_to 7965
  144.7280  140.4585  143.6959 LP  0  0  0  0  0  0  0  0  0  0  0  0  # atno 17321 bound_to 7965
  140.4725  143.2407  151.9068 LP  0  0  0  0  0  0  0  0  0  0  0  0  # atno 17342 bound_to 10162
  139.4784  144.5354  151.8606 LP  0  0  0  0  0  0  0  0  0  0  0  0  # atno 17343 bound_to 10162
  157.7503  131.0140  150.3447 LP  0  0  0  0  0  0  0  0  0  0  0  0  # atno 17370 bound_to 10713
  156.3824  130.3883  149.7092 LP  0  0  0  0  0  0  0  0  0  0  0  0  # atno 17371 bound_to 10713
  141.1823  133.6549  156.5071 LP  0  0  0  0  0  0  0  0  0  0  0  0  # atno 17394 bound_to 11000
  140.4248  134.7154  157.4910 LP  0  0  0  0  0  0  0  0  0  0  0  0  # atno 17395 bound_to 11000

$$$$
