AV-unprocessed.smi:290|AV-procd|sdf|2220|dock2
  -GOLD-   2262022 63D 1   1.00000     0.00000
 Structure written by MMmdl.
 59 62  0  0  0  0  0  0  0  0  2 V2000
  151.7282  138.0761  154.8192 C   0  0  0  0  0  0  0  0  0  0  0  0
  151.2789  139.0174  155.9487 C   0  0  1  0  0  0  0  0  0  0  0  0
  152.3745  139.7940  156.4125 O   0  0  0  0  0  0  0  0  0  0  0  0
  151.8354  140.9006  157.1124 C   0  0  0  0  0  0  0  0  0  0  0  0
  150.7046  141.3519  156.1973 C   0  0  0  0  0  0  0  0  0  0  0  0
  150.1652  140.0449  155.6095 C   0  0  1  0  0  0  0  0  0  0  0  0
  150.0148  140.2190  154.2103 O   0  0  0  0  0  0  0  0  0  0  0  0
  148.7873  139.6669  156.2075 C   0  0  0  0  0  0  0  0  0  0  0  0
  148.2646  138.4027  155.7114 N   0  0  0  0  0  0  0  0  0  0  0  0
  148.9079  137.1846  155.7105 C   0  0  0  0  0  0  0  0  0  0  0  0
  148.2270  136.1935  155.2023 N   0  0  0  0  0  0  0  0  0  0  0  0
  147.0193  136.7718  154.8357 C   0  0  0  0  0  0  0  0  0  0  0  0
  145.8319  136.2759  154.2388 C   0  0  0  0  0  0  0  0  0  0  0  0
  145.7001  134.9731  153.8998 N   0  0  0  0  0  0  0  0  0  0  0  0
  146.9515  134.2827  153.6514 C   0  0  0  0  0  0  0  0  0  0  0  0
  146.5685  132.9977  152.9191 C   0  0  0  0  0  0  0  0  0  0  0  0
  145.1337  133.2182  152.3942 C   0  0  2  0  0  0  0  0  0  0  0  0
  145.0212  132.8524  150.9465 N   0  3  1  0  0  0  0  0  0  0  0  0
  145.2910  131.4052  150.7401 C   0  0  0  0  0  0  0  0  0  0  0  0
  143.7693  133.2964  150.2686 C   0  0  0  0  0  0  0  0  0  0  0  0
  143.7026  132.9234  148.7753 C   0  0  0  0  0  0  0  0  0  0  0  0
  142.7118  133.6892  148.1219 O   0  0  0  0  0  0  0  0  0  0  0  0
  144.8354  134.6934  152.7601 C   0  0  1  0  0  0  0  0  0  0  0  0
  143.3602  134.9663  153.1288 C   0  0  0  0  0  0  0  0  0  0  0  0
  144.8103  137.1484  154.0309 N   0  0  0  0  0  0  0  0  0  0  0  0
  144.9480  138.4310  154.3824 C   0  0  0  0  0  0  0  0  0  0  0  0
  145.9970  139.0345  154.9460 N   0  0  0  0  0  0  0  0  0  0  0  0
  147.0212  138.1577  155.1553 C   0  0  0  0  0  0  0  0  0  0  0  0
  144.4558  132.5826  152.9673 H   0  0  0  0  0  0  0  0  0  0  0  0
  145.1386  135.3407  151.9357 H   0  0  0  0  0  0  0  0  0  0  0  0
  150.8920  137.4868  154.4420 H   0  0  0  0  0  0  0  0  0  0  0  0
  152.4885  137.3811  155.1757 H   0  0  0  0  0  0  0  0  0  0  0  0
  152.1564  138.6295  153.9831 H   0  0  0  0  0  0  0  0  0  0  0  0
  150.9643  138.4109  156.7989 H   0  0  0  0  0  0  0  0  0  0  0  0
  151.4517  140.5758  158.0811 H   0  0  0  0  0  0  0  0  0  0  0  0
  152.5818  141.6778  157.2770 H   0  0  0  0  0  0  0  0  0  0  0  0
  149.9513  141.9382  156.7250 H   0  0  0  0  0  0  0  0  0  0  0  0
  151.1227  141.9888  155.4157 H   0  0  0  0  0  0  0  0  0  0  0  0
  149.1053  140.3968  154.0252 H   0  0  0  0  0  0  0  0  0  0  0  0
  148.8548  139.6032  157.2944 H   0  0  0  0  0  0  0  0  0  0  0  0
  148.0542  140.4464  155.9947 H   0  0  0  0  0  0  0  0  0  0  0  0
  149.9081  137.0524  156.0968 H   0  0  0  0  0  0  0  0  0  0  0  0
  147.6125  134.8855  153.0266 H   0  0  0  0  0  0  0  0  0  0  0  0
  147.4730  134.0702  154.5854 H   0  0  0  0  0  0  0  0  0  0  0  0
  147.2883  132.7966  152.1243 H   0  0  0  0  0  0  0  0  0  0  0  0
  146.5892  132.1466  153.6010 H   0  0  0  0  0  0  0  0  0  0  0  0
  144.4519  130.7998  151.0851 H   0  0  0  0  0  0  0  0  0  0  0  0
  146.1791  131.0769  151.2791 H   0  0  0  0  0  0  0  0  0  0  0  0
  145.4729  131.1758  149.6914 H   0  0  0  0  0  0  0  0  0  0  0  0
  142.9091  132.8780  150.7931 H   0  0  0  0  0  0  0  0  0  0  0  0
  143.6747  134.3794  150.3158 H   0  0  0  0  0  0  0  0  0  0  0  0
  144.6606  133.0431  148.2713 H   0  0  0  0  0  0  0  0  0  0  0  0
  143.4367  131.8709  148.6727 H   0  0  0  0  0  0  0  0  0  0  0  0
  141.9535  133.7481  148.6834 H   0  0  0  0  0  0  0  0  0  0  0  0
  142.6701  134.7160  152.3260 H   0  0  0  0  0  0  0  0  0  0  0  0
  143.2013  136.0186  153.3661 H   0  0  0  0  0  0  0  0  0  0  0  0
  143.0613  134.3867  154.0029 H   0  0  0  0  0  0  0  0  0  0  0  0
  144.0962  139.0646  154.1841 H   0  0  0  0  0  0  0  0  0  0  0  0
  145.7669  133.3525  150.4832 H   0  0  0  0  0  0  0  0  0  0  0  0
  1  2  1  0  0  0  0
  1 31  1  0  0  0  0
  1 32  1  0  0  0  0
  1 33  1  0  0  0  0
  2  6  1  0  0  0  0
  2  3  1  0  0  0  0
  2 34  1  0  0  0  0
  3  4  1  0  0  0  0
  4  5  1  0  0  0  0
  4 35  1  0  0  0  0
  4 36  1  0  0  0  0
  5  6  1  0  0  0  0
  5 37  1  0  0  0  0
  5 38  1  0  0  0  0
  6  7  1  0  0  0  0
  6  8  1  0  0  0  0
  7 39  1  0  0  0  0
  8  9  1  0  0  0  0
  8 40  1  0  0  0  0
  8 41  1  0  0  0  0
  9 28  1  0  0  0  0
  9 10  1  0  0  0  0
 10 11  2  0  0  0  0
 10 42  1  0  0  0  0
 11 12  1  0  0  0  0
 12 28  2  0  0  0  0
 12 13  1  0  0  0  0
 13 14  1  0  0  0  0
 13 25  2  0  0  0  0
 14 23  1  0  0  0  0
 14 15  1  0  0  0  0
 15 16  1  0  0  0  0
 15 43  1  0  0  0  0
 15 44  1  0  0  0  0
 16 17  1  0  0  0  0
 16 45  1  0  0  0  0
 16 46  1  0  0  0  0
 17 29  1  0  0  0  0
 17 18  1  0  0  0  0
 17 23  1  0  0  0  0
 18 19  1  0  0  0  0
 18 20  1  0  0  0  0
 18 59  1  0  0  0  0
 19 47  1  0  0  0  0
 19 48  1  0  0  0  0
 19 49  1  0  0  0  0
 20 21  1  0  0  0  0
 20 50  1  0  0  0  0
 20 51  1  0  0  0  0
 21 22  1  0  0  0  0
 21 52  1  0  0  0  0
 21 53  1  0  0  0  0
 22 54  1  0  0  0  0
 23 30  1  0  0  0  0
 23 24  1  0  0  0  0
 24 55  1  0  0  0  0
 24 56  1  0  0  0  0
 24 57  1  0  0  0  0
 25 26  1  0  0  0  0
 26 27  2  0  0  0  0
 26 58  1  0  0  0  0
 27 28  1  0  0  0  0
M  CHG  1  18   1
M  END
> <s_m_source_file>
AV-unprocessed.smi

> <i_m_source_file_index>
290

> <i_lp_mmshare_version>
43012

> <i_f3d_flags>
0

> <s_epik_input>
W0NIMl0xW0NIMl1PW0NAQEhdKFtDSDNdKVtDQEBdMShbT0hdKVtDSDJdbihbY0hdbjIpYyhjMjMpbltjSF1uYzNONFtDSDJdW0NIMl1bQ0BIXShbQ0BIXTRbQ0gzXSlOKFtDSDNdKVtDSDJdW0NIMl1bT0hd

> <s_epik_cmdline>
J2VwaWtfcHl0aG9uJywgJy1waCcsICc3LjAnLCAnLXRuJywgJzgnLCAnLW1hJywgJzIwMCcsICctbWV0YWxfYmluZGluZycsICctaW1hZScsICc8aW5maWxlLm1hZT4nLCAnLW9tYWUnLCAnPG91dGZpbGUubWFlPic=

> <r_lp_tautomer_probability>
1

> <r_epik_Ionization_Penalty>
0.0036983

> <r_epik_Ionization_Penalty_Charging>
0.0032725

> <r_epik_Ionization_Penalty_Neutral>
0.000425798

> <r_epik_State_Penalty>
-0

> <r_epik_Charging_Adjusted_Penalty>
0.0032725

> <i_epik_Tot_Q>
1

> <i_epik_Tot_abs_Q>
1

> <r_epik_Metal_State_Penalty>
-0

> <b_epik_Metal_Only>
0

> <s_lp_Force_Field>
OPLS_2005

> <r_lp_Energy>
65.0723

> <b_lp_Chiralities_Consistent>
1

> <s_lp_Variant>
AV-unprocessed.smi:290-6

> <Gold.Version>
5.8.1

> <Gold.Id.Protein>
6NUR|6NUR_protein|mol2

> <Gold.PLP.Fitness>
47.1733

> <Gold.PLP.PLP>
-36.4842

> <Gold.PLP.part.hbond>
-5.9822

> <Gold.PLP.part.metal>
0.0000

> <Gold.PLP.part.buried>
-5.8824

> <Gold.PLP.part.nonpolar>
-25.2292

> <Gold.PLP.part.repulsive>
0.4069

> <Gold.PLP.ligand.clash>
0.0000

> <Gold.PLP.ligand.torsion>
0.9289

> <Gold.PLP.Chemscore.Hbond>
3.1081

> <Gold.PLP.Chemscore.CHOScore>
1.0000

> <Gold.PLP.Chemscore.Metal>
0.0000

> <Gold.Chemscore.Hbonds>
donor molecule, donor type, donor heavy atom, donor atom, acceptor molecule, acceptor atom, score
      L1  H    22    54       P1 10186  0.73
      P1  H  7989  7998       L1     7  0.91
      P1  H  7997  8010       L1     3  1.00
      P1  H 10192 10197       L1    22  0.35
      L1  C    26    58       P1 10175  1.00

> <Gold.PLP.Chemscore.Internal.Correction>
0.2226

> <Gold.Rescore>
     Score         DG    S(hbond)    S(metal)    S(lipo)     H(rot)  DE(clash)    DE(int)     intcor
     11.09     -15.48       2.67        0.00      89.42       3.67       0.34       4.05       ----

> <Gold.Chemscore.Fitness>
11.0899

> <Gold.Chemscore.DG>
-15.4798

> <Gold.Chemscore.ZeroCoef>
-5.4800

> <Gold.Chemscore.Hbond>
2.6714

> <Gold.Chemscore.Metal>
0.0000

> <Gold.Chemscore.Lipo>
89.4171

> <Gold.Chemscore.Internal_Hbond>
0.0000

> <Gold.Chemscore.DEClash>
0.3396

> <Gold.Chemscore.DEInternal>
4.0503

> <Gold.Chemscore.Rot>
3.6658

> <Gold.Chemscore.Internal.Correction>
   9.000000E+99

> <Gold.Chemscore.Hbonds>
donor molecule, donor type, donor heavy atom, donor atom, acceptor molecule, acceptor atom, score
      L1  H    22    54       P1 10186  0.71
      P1  H  7989  7998       L1     7  0.67
      P1  H  7997  8010       L1     3  0.49
      P1  H 10192 10197       L1    22  0.01

> <Gold.Chemscore.Hbond.Weighted>
-8.9224

> <Gold.Chemscore.Metal.Weighted>
-0.0000

> <Gold.Chemscore.Lipo.Weighted>
-10.4618

> <Gold.Chemscore.Internal_Hbond.Weighted>
0.0000

> <Gold.Chemscore.DEClash.Weighted>
0.3396

> <Gold.Chemscore.DEInternal.Weighted>
4.0503

> <Gold.Chemscore.Rot.Weighted>
9.3844

> <Gold.Chemscore.Internal.Correction.Weighted>
   9.000000E+99

> <Gold.Protein.RotatedTorsions>
[ 6907 6896 6895 6894 ] final  103.82 input  -60.11 | X-H torsion
[ 7974 7965 7964 7962 ] final  163.73 input  175.53 | X-H torsion
[ 8008 7997 7996 7995 ] final   77.02 input   59.86 | X-H torsion
[ 10167 10162 10161 10158 ] final  145.83 input  -65.29 | X-H torsion
[ 10718 10713 10712 10709 ] final -116.16 input   66.30 | X-H torsion
[ 10763 10752 10751 10750 ] final  -64.12 input  -60.55 | X-H torsion
[ 11005 11000 10999 10996 ] final   -9.52 input  -57.11 | X-H torsion

> <Gold.Protein.ActiveResidues>
 VAL166  LYS551  ARG553  GLY616  TRP617  ASP618  TYR619  PRO620  LYS621  CYS622 
 ASP623  PHE694  ASN695  SER759  ASP760  ASP761  ALA762  ILE779  LEU786  VAL792 
 PHE793  MET794  SER795  GLU796  ALA797  LYS798  CYS799  TRP800  GLU811  SER814 

> <Gold.Protein.RotatedAtoms>
  152.5284  133.9769  159.7788 H   0  0  0  0  0  0  0  0  0  0  0  0  # atno 6907 bound_to 6896
  151.0030  133.6029  159.2699 H   0  0  0  0  0  0  0  0  0  0  0  0  # atno 6908 bound_to 6896
  151.3131  135.0806  159.9333 H   0  0  0  0  0  0  0  0  0  0  0  0  # atno 6909 bound_to 6896
  144.7576  139.8225  143.6344 H   0  0  0  0  0  0  0  0  0  0  0  0  # atno 7974 bound_to 7965
  155.8357  140.3464  155.5600 H   0  0  0  0  0  0  0  0  0  0  0  0  # atno 8008 bound_to 7997
  155.8194  140.0910  157.1877 H   0  0  0  0  0  0  0  0  0  0  0  0  # atno 8009 bound_to 7997
  154.4004  140.1433  156.3469 H   0  0  0  0  0  0  0  0  0  0  0  0  # atno 8010 bound_to 7997
  139.4918  144.5873  151.6751 H   0  0  0  0  0  0  0  0  0  0  0  0  # atno 10167 bound_to 10162
  156.0945  130.6120  150.9000 H   0  0  0  0  0  0  0  0  0  0  0  0  # atno 10718 bound_to 10713
  154.3253  135.6187  153.5526 H   0  0  0  0  0  0  0  0  0  0  0  0  # atno 10763 bound_to 10752
  152.9816  135.5734  154.5023 H   0  0  0  0  0  0  0  0  0  0  0  0  # atno 10764 bound_to 10752
  154.4699  135.2859  155.1627 H   0  0  0  0  0  0  0  0  0  0  0  0  # atno 10765 bound_to 10752
  140.7350  133.8717  155.8923 H   0  0  0  0  0  0  0  0  0  0  0  0  # atno 11005 bound_to 11000
  146.1605  139.4717  142.9991 LP  0  0  0  0  0  0  0  0  0  0  0  0  # atno 17320 bound_to 7965
  145.6725  141.0212  143.1650 LP  0  0  0  0  0  0  0  0  0  0  0  0  # atno 17321 bound_to 7965
  140.5493  144.0452  150.6120 LP  0  0  0  0  0  0  0  0  0  0  0  0  # atno 17342 bound_to 10162
  140.3501  143.2968  152.0496 LP  0  0  0  0  0  0  0  0  0  0  0  0  # atno 17343 bound_to 10162
  157.6102  131.0937  150.8808 LP  0  0  0  0  0  0  0  0  0  0  0  0  # atno 17370 bound_to 10713
  156.8949  130.5226  149.5285 LP  0  0  0  0  0  0  0  0  0  0  0  0  # atno 17371 bound_to 10713
  140.9887  134.1308  157.4428 LP  0  0  0  0  0  0  0  0  0  0  0  0  # atno 17394 bound_to 11000
  139.8818  135.0033  156.6182 LP  0  0  0  0  0  0  0  0  0  0  0  0  # atno 17395 bound_to 11000

$$$$
