#       Name:                AV-unprocessed.smi:686
#       Creating user name   scv26
#       Creation time:       Fri Mar 27 00:32:28 2020


#       File generated by GOLD software.
#

@<TRIPOS>MOLECULE
AV-unprocessed.smi:686
    44    45     1
SMALL
NO_CHARGES


@<TRIPOS>ATOM
      1 ****         0.8379  -1.0585   2.4062 C.3            1 S1                 0.0000
      2 ****        -0.2625  -0.4202   1.5237 C.3            1 S1                 0.0000
      3 ****        -1.4174  -1.4039   1.2971 C.3            1 S1                 0.0000
      4 ****        -1.0246  -2.2146   0.1194 N.4            1 S1                 1.0000
      5 ****        -2.1427  -2.8575  -0.6285 C.3            1 S1                 0.0000
      6 ****        -3.0835  -3.6393   0.3090 C.3            1 S1                 0.0000
      7 ****        -1.6064  -3.8044  -1.7187 C.3            1 S1                 0.0000
      8 ****        -0.0991  -1.3884  -0.6993 C.3            1 S1                 0.0000
      9 ****         0.1364  -0.0821   0.0719 C.3            1 S1                 0.0000
     10 ****         1.5047   0.4040  -0.0727 N.pl3          1 S1                -1.0000
     11 ****         1.9222   1.9210   0.3463 S.o2           1 S1                 0.0000
     12 ****         1.2157   2.4253   1.5360 O.2            1 S1                 0.0000
     13 ****         3.3837   2.0839   0.3336 O.2            1 S1                 0.0000
     14 ****         1.3055   2.9114  -1.0908 C.3            1 S1                 0.0000
     15 ****         1.6575   4.3600  -0.9023 C.2            1 S1                 0.0000
     16 ****         2.9081   5.0029  -1.1176 C.2            1 S1                 0.0000
     17 ****         2.6568   6.3055  -0.7971 C.2            1 S1                 0.0000
     18 ****         1.3616   6.4619  -0.4246 O.3            1 S1                 0.0000
     19 ****         0.7307   5.2149  -0.4981 N.2            1 S1                 0.0000
     20 ****         1.2602  -1.9630   1.9645 H              1 S1                 0.0000
     21 ****         0.4320  -1.3358   3.3794 H              1 S1                 0.0000
     22 ****         1.6589  -0.3660   2.5997 H              1 S1                 0.0000
     23 ****        -0.6286   0.4720   2.0330 H              1 S1                 0.0000
     24 ****        -1.6020  -2.0339   2.1682 H              1 S1                 0.0000
     25 ****        -2.3466  -0.8653   1.0895 H              1 S1                 0.0000
     26 ****        -2.7241  -2.0700  -1.1105 H              1 S1                 0.0000
     27 ****        -3.8665  -4.1453  -0.2571 H              1 S1                 0.0000
     28 ****        -3.5860  -2.9878   1.0239 H              1 S1                 0.0000
     29 ****        -2.5406  -4.3996   0.8715 H              1 S1                 0.0000
     30 ****        -2.4255  -4.2877  -2.2520 H              1 S1                 0.0000
     31 ****        -0.9851  -4.5906  -1.2883 H              1 S1                 0.0000
     32 ****        -1.0093  -3.2810  -2.4651 H              1 S1                 0.0000
     33 ****         0.8235  -1.9540  -0.8385 H              1 S1                 0.0000
     34 ****        -0.5017  -1.1654  -1.6882 H              1 S1                 0.0000
     35 ****        -0.5855   0.6442  -0.3043 H              1 S1                 0.0000
     36 ****         1.7614   2.5170  -1.9986 H              1 S1                 0.0000
     37 ****         0.2271   2.7806  -1.1755 H              1 S1                 0.0000
     38 ****         3.8421   4.5727  -1.4470 H              1 S1                 0.0000
     39 ****         3.2654   7.1976  -0.7856 H              1 S1                 0.0000
     40 ****        -0.4556  -2.9624   0.4893 H              1 S1                 0.0000
     41 ****         2.2039  -0.2103  -0.4385 LP             1 S1                 0.0000
     42 ****         0.9083   7.1072  -1.0395 LP             1 S1                 0.0000
     43 ****         1.3186   6.8082   0.5125 LP             1 S1                 0.0000
     44 ****        -0.2254   5.0110  -0.2881 LP             1 S1                 0.0000
@<TRIPOS>BOND
    1    1    2 1     
    2    1   20 1     
    3    1   21 1     
    4    1   22 1     
    5    2    9 1     
    6    2    3 1     
    7    2   23 1     
    8    3    4 1     
    9    3   24 1     
   10    3   25 1     
   11    4    5 1     
   12    4    8 1     
   13    4   40 1     
   14    5    6 1     
   15    5    7 1     
   16    5   26 1     
   17    6   27 1     
   18    6   28 1     
   19    6   29 1     
   20    7   30 1     
   21    7   31 1     
   22    7   32 1     
   23    8    9 1     
   24    8   33 1     
   25    8   34 1     
   26    9   10 1     
   27    9   35 1     
   28   10   11 1     
   29   11   12 2     
   30   11   13 2     
   31   11   14 1     
   32   14   15 1     
   33   14   36 1     
   34   14   37 1     
   35   15   19 2     
   36   15   16 1     
   37   16   17 2     
   38   16   38 1     
   39   17   18 1     
   40   17   39 1     
   41   18   19 1     
   42   10   41 1     
   43   18   42 1     
   44   18   43 1     
   45   19   44 1     
@<TRIPOS>SUBSTRUCTURE
      1 S1             1
@<TRIPOS>SET
LONE_PAIRS      STATIC     ATOMS    <user>   **** ""
6 41 12 13 42 43 44
DONOR_HYDROGENS      STATIC     ATOMS    <user>   **** ""
1 40
ATOM$BLUE        STATIC     ATOMS    COLORGROUP SYSTEM
6 41 12 13 42 43 44
ATOM$RED        STATIC     ATOMS    COLORGROUP SYSTEM
1 40
