AV-unprocessed.smi:2604|AV-procd|sdf|10192|dock3
  -GOLD-   2272014203D 1   1.00000     0.00000
 Structure written by MMmdl.
 26 27  0  0  0  0  0  0  0  0  2 V2000
  152.2965  142.3685  159.3870 C   0  0  0  0  0  0  0  0  0  0  0  0
  152.2027  143.7740  159.3763 C   0  0  0  0  0  0  0  0  0  0  0  0
  151.7302  144.4753  158.3238 N   0  0  0  0  0  0  0  0  0  0  0  0
  151.3326  143.7884  157.2318 C   0  0  0  0  0  0  0  0  0  0  0  0
  151.3841  142.3803  157.1352 C   0  0  0  0  0  0  0  0  0  0  0  0
  150.9070  141.6751  155.8750 C   0  0  1  0  0  0  0  0  0  0  0  0
  151.2467  140.1667  155.8631 C   0  0  0  0  0  0  0  0  0  0  0  0
  150.7948  139.5641  154.6127 N   0  0  0  0  0  0  0  0  0  0  0  0
  149.3440  139.6972  154.5208 C   0  0  0  0  0  0  0  0  0  0  0  0
  148.9581  141.1881  154.4891 C   0  0  0  0  0  0  0  0  0  0  0  0
  149.4505  141.8665  155.7053 N   0  3  0  0  0  0  0  0  0  0  0  0
  151.8792  141.6595  158.2444 C   0  0  0  0  0  0  0  0  0  0  0  0
  152.6779  141.8475  160.2528 H   0  0  0  0  0  0  0  0  0  0  0  0
  152.5114  144.3497  160.2365 H   0  0  0  0  0  0  0  0  0  0  0  0
  150.9581  144.3839  156.4121 H   0  0  0  0  0  0  0  0  0  0  0  0
  151.4016  142.1450  155.0226 H   0  0  0  0  0  0  0  0  0  0  0  0
  152.3247  140.0255  155.9480 H   0  0  0  0  0  0  0  0  0  0  0  0
  150.7881  139.6445  156.7037 H   0  0  0  0  0  0  0  0  0  0  0  0
  151.0471  138.5854  154.5983 H   0  0  0  0  0  0  0  0  0  0  0  0
  149.0014  139.2034  153.6112 H   0  0  0  0  0  0  0  0  0  0  0  0
  148.8677  139.1885  155.3603 H   0  0  0  0  0  0  0  0  0  0  0  0
  149.3757  141.6744  153.6062 H   0  0  0  0  0  0  0  0  0  0  0  0
  147.8752  141.2991  154.4333 H   0  0  0  0  0  0  0  0  0  0  0  0
  148.9770  141.4768  156.5075 H   0  0  0  0  0  0  0  0  0  0  0  0
  151.9334  140.5810  158.2293 H   0  0  0  0  0  0  0  0  0  0  0  0
  149.2453  142.8536  155.6465 H   0  0  0  0  0  0  0  0  0  0  0  0
  1 12  1  0  0  0  0
  1  2  2  0  0  0  0
  1 13  1  0  0  0  0
  2  3  1  0  0  0  0
  2 14  1  0  0  0  0
  3  4  2  0  0  0  0
  4  5  1  0  0  0  0
  4 15  1  0  0  0  0
  5  6  1  0  0  0  0
  5 12  2  0  0  0  0
  6 11  1  0  0  0  0
  6  7  1  0  0  0  0
  6 16  1  0  0  0  0
  7  8  1  0  0  0  0
  7 17  1  0  0  0  0
  7 18  1  0  0  0  0
  8  9  1  0  0  0  0
  8 19  1  0  0  0  0
  9 10  1  0  0  0  0
  9 20  1  0  0  0  0
  9 21  1  0  0  0  0
 10 11  1  0  0  0  0
 10 22  1  0  0  0  0
 10 23  1  0  0  0  0
 11 24  1  0  0  0  0
 11 26  1  0  0  0  0
 12 25  1  0  0  0  0
M  CHG  1  11   1
M  END
> <s_m_source_file>
AV-unprocessed.smi

> <i_m_source_file_index>
2604

> <i_lp_mmshare_version>
43012

> <i_f3d_flags>
0

> <s_epik_input>
W2NIXTFbY0hdW2NIXW5bY0hdYzFbQ0BASF0yW0NIMl1bTkhdW0NIMl1bQ0gyXVtOSF0y

> <s_epik_cmdline>
J2VwaWtfcHl0aG9uJywgJy1waCcsICc3LjAnLCAnLXRuJywgJzgnLCAnLW1hJywgJzIwMCcsICctbWV0YWxfYmluZGluZycsICctaW1hZScsICc8aW5maWxlLm1hZT4nLCAnLW9tYWUnLCAnPG91dGZpbGUubWFlPic=

> <r_epik_Ionization_Penalty>
0.0278512

> <r_epik_Ionization_Penalty_Charging>
0.015072

> <r_epik_Ionization_Penalty_Neutral>
0.0127792

> <r_epik_State_Penalty>
0.548815

> <r_epik_Charging_Adjusted_Penalty>
0.563887

> <i_epik_Tot_Q>
1

> <i_epik_Tot_abs_Q>
1

> <r_epik_Metal_State_Penalty>
0.542887

> <b_epik_Metal_Only>
0

> <s_lp_Force_Field>
OPLS_2005

> <r_lp_Energy>
7.72855

> <b_lp_Chiralities_Consistent>
1

> <s_lp_Variant>
AV-unprocessed.smi:2604-4

> <Gold.Version>
5.8.1

> <Gold.Id.Protein>
6NUR|6NUR_protein|mol2

> <Gold.PLP.Fitness>
41.0229

> <Gold.PLP.PLP>
-29.2483

> <Gold.PLP.part.hbond>
-2.0000

> <Gold.PLP.part.metal>
0.0000

> <Gold.PLP.part.buried>
-4.6340

> <Gold.PLP.part.nonpolar>
-22.1662

> <Gold.PLP.part.repulsive>
0.1785

> <Gold.PLP.ligand.clash>
0.0000

> <Gold.PLP.ligand.torsion>
0.1188

> <Gold.PLP.Chemscore.Hbond>
3.0000

> <Gold.PLP.Chemscore.CHOScore>
1.0000

> <Gold.PLP.Chemscore.Metal>
0.0000

> <Gold.Chemscore.Hbonds>
donor molecule, donor type, donor heavy atom, donor atom, acceptor molecule, acceptor atom, score
      L1  H    11    26       P1  8028  2.00
      P1  H  7989  7998       L1     8  0.75
      L1  C     4    15       P1  8028  1.00

> <Gold.PLP.Chemscore.Internal.Correction>
0.0122

> <Gold.Rescore>
     Score         DG    S(hbond)    S(metal)    S(lipo)     H(rot)  DE(clash)    DE(int)     intcor
     17.23     -17.51       1.40        0.00      84.69       1.00       0.12       0.16       ----

> <Gold.Chemscore.Fitness>
17.2250

> <Gold.Chemscore.DG>
-17.5053

> <Gold.Chemscore.ZeroCoef>
-5.4800

> <Gold.Chemscore.Hbond>
1.4002

> <Gold.Chemscore.Metal>
0.0000

> <Gold.Chemscore.Lipo>
84.6882

> <Gold.Chemscore.Internal_Hbond>
0.0000

> <Gold.Chemscore.DEClash>
0.1168

> <Gold.Chemscore.DEInternal>
0.1635

> <Gold.Chemscore.Rot>
1.0000

> <Gold.Chemscore.Internal.Correction>
   9.000000E+99

> <Gold.Chemscore.Hbonds>
donor molecule, donor type, donor heavy atom, donor atom, acceptor molecule, acceptor atom, score
      L1  H    11    26       P1  8028  1.00
      P1  H  7989  7998       L1     8  0.07

> <Gold.Chemscore.Hbond.Weighted>
-4.6768

> <Gold.Chemscore.Metal.Weighted>
-0.0000

> <Gold.Chemscore.Lipo.Weighted>
-9.9085

> <Gold.Chemscore.Internal_Hbond.Weighted>
0.0000

> <Gold.Chemscore.DEClash.Weighted>
0.1168

> <Gold.Chemscore.DEInternal.Weighted>
0.1635

> <Gold.Chemscore.Rot.Weighted>
2.5600

> <Gold.Chemscore.Internal.Correction.Weighted>
   9.000000E+99

> <Gold.Protein.RotatedTorsions>
[ 6907 6896 6895 6894 ] final   32.51 input  -60.11 | X-H torsion
[ 7974 7965 7964 7962 ] final  170.70 input  175.53 | X-H torsion
[ 8008 7997 7996 7995 ] final  128.57 input   59.86 | X-H torsion
[ 10167 10162 10161 10158 ] final -120.94 input  -65.29 | X-H torsion
[ 10718 10713 10712 10709 ] final  -25.55 input   66.30 | X-H torsion
[ 10763 10752 10751 10750 ] final -141.76 input  -60.55 | X-H torsion
[ 11005 11000 10999 10996 ] final  -51.45 input  -57.11 | X-H torsion

> <Gold.Protein.ActiveResidues>
 VAL166  LYS551  ARG553  GLY616  TRP617  ASP618  TYR619  PRO620  LYS621  CYS622 
 ASP623  PHE694  ASN695  SER759  ASP760  ASP761  ALA762  ILE779  LEU786  VAL792 
 PHE793  MET794  SER795  GLU796  ALA797  LYS798  CYS799  TRP800  GLU811  SER814 

> <Gold.Protein.RotatedAtoms>
  152.0755  134.9506  160.0573 H   0  0  0  0  0  0  0  0  0  0  0  0  # atno 6907 bound_to 6896
  152.0815  133.4150  159.4511 H   0  0  0  0  0  0  0  0  0  0  0  0  # atno 6908 bound_to 6896
  150.6836  134.2896  159.4704 H   0  0  0  0  0  0  0  0  0  0  0  0  # atno 6909 bound_to 6896
  144.7316  139.9241  143.6421 H   0  0  0  0  0  0  0  0  0  0  0  0  # atno 7974 bound_to 7965
  156.2918  140.2641  156.2457 H   0  0  0  0  0  0  0  0  0  0  0  0  # atno 8008 bound_to 7997
  154.9933  140.0388  157.2347 H   0  0  0  0  0  0  0  0  0  0  0  0  # atno 8009 bound_to 7997
  154.7667  140.2770  155.6175 H   0  0  0  0  0  0  0  0  0  0  0  0  # atno 8010 bound_to 7997
  140.0304  143.5254  152.2179 H   0  0  0  0  0  0  0  0  0  0  0  0  # atno 10167 bound_to 10162
  156.4629  130.4507  149.6917 H   0  0  0  0  0  0  0  0  0  0  0  0  # atno 10718 bound_to 10713
  154.8534  135.3515  154.5919 H   0  0  0  0  0  0  0  0  0  0  0  0  # atno 10763 bound_to 10752
  153.6529  135.6993  153.5207 H   0  0  0  0  0  0  0  0  0  0  0  0  # atno 10764 bound_to 10752
  153.2879  135.4243  155.1098 H   0  0  0  0  0  0  0  0  0  0  0  0  # atno 10765 bound_to 10752
  141.0872  133.6640  156.3879 H   0  0  0  0  0  0  0  0  0  0  0  0  # atno 11005 bound_to 11000
  146.0907  139.3897  143.0407 LP  0  0  0  0  0  0  0  0  0  0  0  0  # atno 17320 bound_to 7965
  145.7715  140.9894  143.1147 LP  0  0  0  0  0  0  0  0  0  0  0  0  # atno 17321 bound_to 7965
  139.6080  144.7601  151.3018 LP  0  0  0  0  0  0  0  0  0  0  0  0  # atno 17342 bound_to 10162
  140.7304  143.6880  150.7946 LP  0  0  0  0  0  0  0  0  0  0  0  0  # atno 17343 bound_to 10162
  156.3698  130.7525  151.2506 LP  0  0  0  0  0  0  0  0  0  0  0  0  # atno 17370 bound_to 10713
  157.7496  131.0326  150.4235 LP  0  0  0  0  0  0  0  0  0  0  0  0  # atno 17371 bound_to 10713
  140.5336  134.6188  157.5358 LP  0  0  0  0  0  0  0  0  0  0  0  0  # atno 17394 bound_to 11000
  139.9691  134.7322  156.0077 LP  0  0  0  0  0  0  0  0  0  0  0  0  # atno 17395 bound_to 11000

$$$$
