#       Name:                AV-unprocessed.smi:2307
#       Creating user name   scv26
#       Creation time:       Fri Mar 27 12:47:08 2020


#       File generated by GOLD software.
#

@<TRIPOS>MOLECULE
AV-unprocessed.smi:2307
    45    46     1
SMALL
NO_CHARGES


@<TRIPOS>ATOM
      1 ****        -2.8616   3.0301  -0.6582 C.3            1 S1                 0.0000
      2 ****        -2.3602   1.6084  -0.8401 C.2            1 S1                 0.0000
      3 ****        -2.4353   0.7923   0.2920 N.2            1 S1                 0.0000
      4 ****        -2.0272  -0.4328   0.2319 C.2            1 S1                 0.0000
      5 ****        -1.4983  -0.9785  -0.9512 N.am           1 S1                 0.0000
      6 ****        -1.0431  -2.3804  -0.8934 C.3            1 S1                 0.0000
      7 ****         0.4969  -2.5144  -0.8224 C.3            1 S1                 0.0000
      8 ****         0.8205  -3.8876  -0.7511 O.3            1 S1                 0.0000
      9 ****         1.1111  -1.7172   0.3207 C.ar           1 S1                 0.0000
     10 ****         1.0126  -2.1756   1.6508 C.ar           1 S1                 0.0000
     11 ****         1.5610  -1.4190   2.7035 C.ar           1 S1                 0.0000
     12 ****         2.2125  -0.1943   2.4523 C.ar           1 S1                 0.0000
     13 ****         2.7141   0.4803   3.5470 O.3            1 S1                 0.0000
     14 ****         3.3353   1.6833   3.4095 C.3            1 S1                 0.0000
     15 ****         3.7175   2.1348   4.6284 F              1 S1                 0.0000
     16 ****         4.4579   1.5900   2.6534 F              1 S1                 0.0000
     17 ****         2.5095   2.6223   2.8827 F              1 S1                 0.0000
     18 ****         2.3093   0.2620   1.1135 C.ar           1 S1                 0.0000
     19 ****         1.7630  -0.4947   0.0591 C.ar           1 S1                 0.0000
     20 ****        -1.3996  -0.2538  -2.1028 C.2            1 S1                 0.0000
     21 ****        -0.9412  -0.7430  -3.1368 O.2            1 S1                 0.0000
     22 ****        -1.8676   1.1390  -2.0186 C.2            1 S1                 0.0000
     23 ****        -1.7633   1.9807  -3.2841 C.3            1 S1                 0.0000
     24 ****        -3.7004   3.2266  -1.3264 H              1 S1                 0.0000
     25 ****        -2.0680   3.7462  -0.8731 H              1 S1                 0.0000
     26 ****        -3.2011   3.2047   0.3635 H              1 S1                 0.0000
     27 ****        -2.0610  -1.1071   1.0891 H              1 S1                 0.0000
     28 ****        -1.4868  -2.8975  -0.0400 H              1 S1                 0.0000
     29 ****        -1.4190  -2.9190  -1.7654 H              1 S1                 0.0000
     30 ****         0.9269  -2.1515  -1.7566 H              1 S1                 0.0000
     31 ****         1.7583  -3.9776  -0.8263 H              1 S1                 0.0000
     32 ****         0.5093  -3.1061   1.8695 H              1 S1                 0.0000
     33 ****         1.4769  -1.7819   3.7175 H              1 S1                 0.0000
     34 ****         2.7962   1.1931   0.8684 H              1 S1                 0.0000
     35 ****         1.8385  -0.1261  -0.9535 H              1 S1                 0.0000
     36 ****        -0.7227   2.0533  -3.6015 H              1 S1                 0.0000
     37 ****        -2.1401   2.9943  -3.1584 H              1 S1                 0.0000
     38 ****        -2.3325   1.5184  -4.0912 H              1 S1                 0.0000
     39 ****        -2.8042   1.1556   1.1474 LP             1 S1                 0.0000
     40 ****         0.3731  -4.3792  -1.4983 LP             1 S1                 0.0000
     41 ****         0.5145  -4.2617   0.1243 LP             1 S1                 0.0000
     42 ****         3.3757  -0.1327   3.9790 LP             1 S1                 0.0000
     43 ****         1.9432   0.6285   4.1663 LP             1 S1                 0.0000
     44 ****        -0.6304  -1.6935  -3.1453 LP             1 S1                 0.0000
     45 ****        -0.8799  -0.1896  -3.9675 LP             1 S1                 0.0000
@<TRIPOS>BOND
    1    1    2 1     
    2    1   24 1     
    3    1   25 1     
    4    1   26 1     
    5    2   22 2     
    6    2    3 1     
    7    3    4 2     
    8    4    5 1     
    9    4   27 1     
   10    5    6 1     
   11    5   20 am    
   12    6    7 1     
   13    6   28 1     
   14    6   29 1     
   15    7    8 1     
   16    7    9 1     
   17    7   30 1     
   18    8   31 1     
   19    9   19 ar    
   20    9   10 ar    
   21   10   11 ar    
   22   10   32 1     
   23   11   12 ar    
   24   11   33 1     
   25   12   13 1     
   26   12   18 ar    
   27   13   14 1     
   28   14   15 1     
   29   14   16 1     
   30   14   17 1     
   31   18   19 ar    
   32   18   34 1     
   33   19   35 1     
   34   20   21 2     
   35   20   22 1     
   36   22   23 1     
   37   23   36 1     
   38   23   37 1     
   39   23   38 1     
   40    3   39 1     
   41    8   40 1     
   42    8   41 1     
   43   13   42 1     
   44   13   43 1     
   45   21   44 1     
   46   21   45 1     
@<TRIPOS>SUBSTRUCTURE
      1 S1             1
@<TRIPOS>SET
LONE_PAIRS      STATIC     ATOMS    <user>   **** ""
7 39 40 41 42 43 44 45
DONOR_HYDROGENS      STATIC     ATOMS    <user>   **** ""
1 31
ATOM$BLUE        STATIC     ATOMS    COLORGROUP SYSTEM
7 39 40 41 42 43 44 45
ATOM$RED        STATIC     ATOMS    COLORGROUP SYSTEM
1 31
