AV-unprocessed.smi:235|AV-procd|sdf|1805|dock7
  -GOLD-   2262020383D 1   1.00000     0.00000
 Structure written by MMmdl.
 54 58  0  0  0  0  0  0  0  0  1 V2000
  147.3773  137.4059  161.5336 O   0  0  0  0  0  0  0  0  0  0  0  0
  147.3673  136.6892  160.5318 C   0  0  0  0  0  0  0  0  0  0  0  0
  147.3070  135.3505  160.5832 N   0  0  0  0  0  0  0  0  0  0  0  0
  147.2472  134.5740  161.7771 C   0  0  0  0  0  0  0  0  0  0  0  0
  146.1223  133.5697  161.8985 C   0  0  0  0  0  0  0  0  0  0  0  0
  146.1003  134.8239  162.7303 C   0  0  0  0  0  0  0  0  0  0  0  0
  147.3997  137.3113  159.1288 C   0  0  2  0  0  0  0  0  0  0  0  0
  146.1629  136.9406  158.2842 C   0  0  0  0  0  0  0  0  0  0  0  0
  146.7052  136.8040  156.8674 C   0  0  0  0  0  0  0  0  0  0  0  0
  148.0896  136.2182  157.1141 C   0  0  0  0  0  0  0  0  0  0  0  0
  148.5522  136.8190  158.3631 N   0  0  0  0  0  0  0  0  0  0  0  0
  149.5861  137.6971  158.3170 C   0  0  0  0  0  0  0  0  0  0  0  0
  150.8671  137.2517  158.4177 N   0  0  0  0  0  0  0  0  0  0  0  0
  151.8874  138.1076  158.3066 C   0  0  0  0  0  0  0  0  0  0  0  0
  151.8532  139.4228  158.0824 N   0  0  0  0  0  0  0  0  0  0  0  0
  150.5700  139.8725  157.9780 C   0  0  0  0  0  0  0  0  0  0  0  0
  149.3893  139.0866  158.0902 C   0  0  0  0  0  0  0  0  0  0  0  0
  148.2680  139.8929  157.9373 N   0  0  0  0  0  0  0  0  0  0  0  0
  148.7568  141.0835  157.7237 C   0  0  0  0  0  0  0  0  0  0  0  0
  150.1312  141.1582  157.7176 N   0  0  0  0  0  0  0  0  0  0  0  0
  150.9373  142.3404  157.4782 C   0  0  0  0  0  0  0  0  0  0  0  0
  150.7871  143.4046  158.5868 C   0  0  2  0  0  0  0  0  0  0  0  0
  150.7854  144.6689  157.9551 O   0  0  0  0  0  0  0  0  0  0  0  0
  151.9014  143.3790  159.6579 C   0  0  1  0  0  0  0  0  0  0  0  0
  151.7387  144.4304  160.7609 C   0  0  0  0  0  0  0  0  0  0  0  0
  152.4377  143.8208  161.9676 C   0  0  0  0  0  0  0  0  0  0  0  0
  152.6978  142.3728  161.5528 C   0  0  0  0  0  0  0  0  0  0  0  0
  151.8756  142.1761  160.4137 O   0  0  0  0  0  0  0  0  0  0  0  0
  147.2910  134.8445  159.7096 H   0  0  0  0  0  0  0  0  0  0  0  0
  148.1954  134.2775  162.2238 H   0  0  0  0  0  0  0  0  0  0  0  0
  145.4086  133.4994  161.0798 H   0  0  0  0  0  0  0  0  0  0  0  0
  146.3383  132.6333  162.4088 H   0  0  0  0  0  0  0  0  0  0  0  0
  146.3041  134.7257  163.7946 H   0  0  0  0  0  0  0  0  0  0  0  0
  145.3846  135.5992  162.4642 H   0  0  0  0  0  0  0  0  0  0  0  0
  147.4431  138.4006  159.2108 H   0  0  0  0  0  0  0  0  0  0  0  0
  145.7336  135.9863  158.5941 H   0  0  0  0  0  0  0  0  0  0  0  0
  145.3749  137.6911  158.3519 H   0  0  0  0  0  0  0  0  0  0  0  0
  146.0832  136.1763  156.2288 H   0  0  0  0  0  0  0  0  0  0  0  0
  146.7914  137.7873  156.4027 H   0  0  0  0  0  0  0  0  0  0  0  0
  148.0173  135.1413  157.2715 H   0  0  0  0  0  0  0  0  0  0  0  0
  148.7558  136.3666  156.2634 H   0  0  0  0  0  0  0  0  0  0  0  0
  152.8722  137.6744  158.4009 H   0  0  0  0  0  0  0  0  0  0  0  0
  148.1235  141.9408  157.5474 H   0  0  0  0  0  0  0  0  0  0  0  0
  151.9805  142.0345  157.3867 H   0  0  0  0  0  0  0  0  0  0  0  0
  150.6470  142.7557  156.5121 H   0  0  0  0  0  0  0  0  0  0  0  0
  149.8199  143.2846  159.0763 H   0  0  0  0  0  0  0  0  0  0  0  0
  150.3084  144.5970  157.1422 H   0  0  0  0  0  0  0  0  0  0  0  0
  152.8822  143.4815  159.1893 H   0  0  0  0  0  0  0  0  0  0  0  0
  152.1540  145.3981  160.4774 H   0  0  0  0  0  0  0  0  0  0  0  0
  150.6823  144.5759  160.9911 H   0  0  0  0  0  0  0  0  0  0  0  0
  153.3718  144.3334  162.2001 H   0  0  0  0  0  0  0  0  0  0  0  0
  151.7963  143.8728  162.8482 H   0  0  0  0  0  0  0  0  0  0  0  0
  153.7426  142.2395  161.2701 H   0  0  0  0  0  0  0  0  0  0  0  0
  152.4624  141.6574  162.3409 H   0  0  0  0  0  0  0  0  0  0  0  0
  1  2  2  0  0  0  0
  2  3  1  0  0  0  0
  2  7  1  0  0  0  0
  3  4  1  0  0  0  0
  3 29  1  0  0  0  0
  4  6  1  0  0  0  0
  4  5  1  0  0  0  0
  4 30  1  0  0  0  0
  5  6  1  0  0  0  0
  5 31  1  0  0  0  0
  5 32  1  0  0  0  0
  6 33  1  0  0  0  0
  6 34  1  0  0  0  0
  7 11  1  0  0  0  0
  7  8  1  0  0  0  0
  7 35  1  0  0  0  0
  8  9  1  0  0  0  0
  8 36  1  0  0  0  0
  8 37  1  0  0  0  0
  9 10  1  0  0  0  0
  9 38  1  0  0  0  0
  9 39  1  0  0  0  0
 10 11  1  0  0  0  0
 10 40  1  0  0  0  0
 10 41  1  0  0  0  0
 11 12  1  0  0  0  0
 12 17  1  0  0  0  0
 12 13  2  0  0  0  0
 13 14  1  0  0  0  0
 14 15  2  0  0  0  0
 14 42  1  0  0  0  0
 15 16  1  0  0  0  0
 16 20  1  0  0  0  0
 16 17  2  0  0  0  0
 17 18  1  0  0  0  0
 18 19  2  0  0  0  0
 19 20  1  0  0  0  0
 19 43  1  0  0  0  0
 20 21  1  0  0  0  0
 21 22  1  0  0  0  0
 21 44  1  0  0  0  0
 21 45  1  0  0  0  0
 22 23  1  0  0  0  0
 22 24  1  0  0  0  0
 22 46  1  0  0  0  0
 23 47  1  0  0  0  0
 24 28  1  0  0  0  0
 24 25  1  0  0  0  0
 24 48  1  0  0  0  0
 25 26  1  0  0  0  0
 25 49  1  0  0  0  0
 25 50  1  0  0  0  0
 26 27  1  0  0  0  0
 26 51  1  0  0  0  0
 26 52  1  0  0  0  0
 27 28  1  0  0  0  0
 27 53  1  0  0  0  0
 27 54  1  0  0  0  0
M  END
> <s_m_source_file>
AV-unprocessed.smi

> <i_m_source_file_index>
235

> <i_lp_mmshare_version>
43012

> <i_f3d_flags>
0

> <s_epik_input>
W0NIMl0xW0NIMl1bQ0hdMVtOSF1DKD1PKVtDQEBIXTJbQ0gyXVtDSDJdW0NIMl1OMmMobltjSF1uMyljKGMzNCluW2NIXW40W0NIMl1bQ0BIXShbT0hdKVtDQEBIXTVbQ0gyXVtDSDJdW0NIMl1PNQ==

> <s_epik_cmdline>
J2VwaWtfcHl0aG9uJywgJy1waCcsICc3LjAnLCAnLXRuJywgJzgnLCAnLW1hJywgJzIwMCcsICctbWV0YWxfYmluZGluZycsICctaW1hZScsICc8aW5maWxlLm1hZT4nLCAnLW9tYWUnLCAnPG91dGZpbGUubWFlPic=

> <r_lp_tautomer_probability>
1

> <r_epik_Ionization_Penalty>
0.000526714

> <r_epik_Ionization_Penalty_Charging>
0

> <r_epik_Ionization_Penalty_Neutral>
0.000526714

> <r_epik_State_Penalty>
0.000272704

> <r_epik_Charging_Adjusted_Penalty>
0.000272704

> <i_epik_Tot_Q>
0

> <i_epik_Tot_abs_Q>
0

> <r_epik_Metal_State_Penalty>
-0

> <b_epik_Metal_Only>
0

> <s_lp_Force_Field>
OPLS_2005

> <r_lp_Energy>
59.397

> <b_lp_Chiralities_Consistent>
1

> <s_lp_Variant>
AV-unprocessed.smi:235-5

> <Gold.Version>
5.8.1

> <Gold.Id.Protein>
6NUR|6NUR_protein|mol2

> <Gold.PLP.Fitness>
52.6489

> <Gold.PLP.PLP>
-46.4597

> <Gold.PLP.part.hbond>
-4.5257

> <Gold.PLP.part.metal>
0.0000

> <Gold.PLP.part.buried>
-8.0499

> <Gold.PLP.part.nonpolar>
-33.2924

> <Gold.PLP.part.repulsive>
0.0955

> <Gold.PLP.ligand.clash>
0.0000

> <Gold.PLP.ligand.torsion>
1.2335

> <Gold.PLP.Chemscore.Hbond>
2.7840

> <Gold.PLP.Chemscore.CHOScore>
0.0000

> <Gold.PLP.Chemscore.Metal>
0.0000

> <Gold.Chemscore.Hbonds>
donor molecule, donor type, donor heavy atom, donor atom, acceptor molecule, acceptor atom, score
      L1  H    23    47       P1  8028  1.00
      P1  H  6931  6943       L1     1  0.80
      P1  H  6934  6947       L1     1  0.86

> <Gold.PLP.Chemscore.Internal.Correction>
0.3041

> <Gold.Rescore>
     Score         DG    S(hbond)    S(metal)    S(lipo)     H(rot)  DE(clash)    DE(int)     intcor
     19.06     -20.24       3.33        0.00      96.88       3.00       0.01       1.17       ----

> <Gold.Chemscore.Fitness>
19.0632

> <Gold.Chemscore.DG>
-20.2448

> <Gold.Chemscore.ZeroCoef>
-5.4800

> <Gold.Chemscore.Hbond>
3.3256

> <Gold.Chemscore.Metal>
0.0000

> <Gold.Chemscore.Lipo>
96.8757

> <Gold.Chemscore.Internal_Hbond>
0.0000

> <Gold.Chemscore.DEClash>
0.0089

> <Gold.Chemscore.DEInternal>
1.1728

> <Gold.Chemscore.Rot>
2.9989

> <Gold.Chemscore.Internal.Correction>
   9.000000E+99

> <Gold.Chemscore.Hbonds>
donor molecule, donor type, donor heavy atom, donor atom, acceptor molecule, acceptor atom, score
      L1  H    23    47       P1  8028  0.57
      P1  H  6931  6943       L1     1  0.74
      P1  H  6934  6947       L1     1  0.47

> <Gold.Chemscore.Hbond.Weighted>
-11.1076

> <Gold.Chemscore.Metal.Weighted>
-0.0000

> <Gold.Chemscore.Lipo.Weighted>
-11.3345

> <Gold.Chemscore.Internal_Hbond.Weighted>
0.0000

> <Gold.Chemscore.DEClash.Weighted>
0.0089

> <Gold.Chemscore.DEInternal.Weighted>
1.1728

> <Gold.Chemscore.Rot.Weighted>
7.6772

> <Gold.Chemscore.Internal.Correction.Weighted>
   9.000000E+99

> <Gold.Protein.RotatedTorsions>
[ 6907 6896 6895 6894 ] final  133.67 input  -60.11 | X-H torsion
[ 7974 7965 7964 7962 ] final   77.21 input  175.53 | X-H torsion
[ 8008 7997 7996 7995 ] final  -37.73 input   59.86 | X-H torsion
[ 10167 10162 10161 10158 ] final  -51.30 input  -65.29 | X-H torsion
[ 10718 10713 10712 10709 ] final  159.15 input   66.30 | X-H torsion
[ 10763 10752 10751 10750 ] final  -33.28 input  -60.55 | X-H torsion
[ 11005 11000 10999 10996 ] final -154.65 input  -57.11 | X-H torsion

> <Gold.Protein.ActiveResidues>
 VAL166  LYS551  ARG553  GLY616  TRP617  ASP618  TYR619  PRO620  LYS621  CYS622 
 ASP623  PHE694  ASN695  SER759  ASP760  ASP761  ALA762  ILE779  LEU786  VAL792 
 PHE793  MET794  SER795  GLU796  ALA797  LYS798  CYS799  TRP800  GLU811  SER814 

> <Gold.Protein.RotatedAtoms>
  152.3195  133.5838  159.5734 H   0  0  0  0  0  0  0  0  0  0  0  0  # atno 6907 bound_to 6896
  150.7364  134.0033  159.3654 H   0  0  0  0  0  0  0  0  0  0  0  0  # atno 6908 bound_to 6896
  151.7918  135.0734  160.0439 H   0  0  0  0  0  0  0  0  0  0  0  0  # atno 6909 bound_to 6896
  145.6930  139.2558  143.1749 H   0  0  0  0  0  0  0  0  0  0  0  0  # atno 7974 bound_to 7965
  154.4048  140.1596  156.2585 H   0  0  0  0  0  0  0  0  0  0  0  0  # atno 8008 bound_to 7997
  155.9057  140.3430  155.6038 H   0  0  0  0  0  0  0  0  0  0  0  0  # atno 8009 bound_to 7997
  155.7395  140.0790  157.2243 H   0  0  0  0  0  0  0  0  0  0  0  0  # atno 8010 bound_to 7997
  140.6595  143.2625  151.4484 H   0  0  0  0  0  0  0  0  0  0  0  0  # atno 10167 bound_to 10162
  157.1682  131.0603  151.2197 H   0  0  0  0  0  0  0  0  0  0  0  0  # atno 10718 bound_to 10713
  153.8276  135.6869  153.4819 H   0  0  0  0  0  0  0  0  0  0  0  0  # atno 10763 bound_to 10752
  153.1531  135.4610  154.9663 H   0  0  0  0  0  0  0  0  0  0  0  0  # atno 10764 bound_to 10752
  154.7901  135.3298  154.7742 H   0  0  0  0  0  0  0  0  0  0  0  0  # atno 10765 bound_to 10752
  140.6950  134.3999  157.5215 H   0  0  0  0  0  0  0  0  0  0  0  0  # atno 11005 bound_to 11000
  146.0865  140.7705  142.9616 LP  0  0  0  0  0  0  0  0  0  0  0  0  # atno 17320 bound_to 7965
  144.6991  140.3570  143.7171 LP  0  0  0  0  0  0  0  0  0  0  0  0  # atno 17321 bound_to 7965
  139.5825  144.1677  152.1987 LP  0  0  0  0  0  0  0  0  0  0  0  0  # atno 17342 bound_to 10162
  140.1007  144.5542  150.6991 LP  0  0  0  0  0  0  0  0  0  0  0  0  # atno 17343 bound_to 10162
  157.4069  130.7363  149.6809 LP  0  0  0  0  0  0  0  0  0  0  0  0  # atno 17370 bound_to 10713
  155.9742  130.4106  150.3937 LP  0  0  0  0  0  0  0  0  0  0  0  0  # atno 17371 bound_to 10713
  139.8912  134.8784  156.2329 LP  0  0  0  0  0  0  0  0  0  0  0  0  # atno 17394 bound_to 11000
  141.0210  133.7041  156.1268 LP  0  0  0  0  0  0  0  0  0  0  0  0  # atno 17395 bound_to 11000

$$$$
