#       Name:                AV-unprocessed.smi:3285
#       Creating user name   scv26
#       Creation time:       Fri Mar 27 18:50:33 2020


#       File generated by GOLD software.
#

@<TRIPOS>MOLECULE
AV-unprocessed.smi:3285
    48    49     1
SMALL
NO_CHARGES


@<TRIPOS>ATOM
      1 ****        -2.6957   2.0695   2.3692 C.3            1 S1                 0.0000
      2 ****        -2.7924   2.9602   1.1637 C.2            1 S1                 0.0000
      3 ****        -3.2337   4.1990   1.2998 N.2            1 S1                 0.0000
      4 ****        -3.2024   4.7596   0.0195 O.3            1 S1                 0.0000
      5 ****        -2.7346   3.8259  -0.8475 C.2            1 S1                 0.0000
      6 ****        -2.6233   4.2350  -2.2773 C.3            1 S1                 0.0000
      7 ****        -2.4542   2.6612  -0.1874 C.2            1 S1                 0.0000
      8 ****        -1.9152   1.3703  -0.7415 C.3            1 S1                 0.0000
      9 ****        -0.4091   1.2347  -0.4837 C.3            1 S1                 0.0000
     10 ****         0.1053  -0.0435  -1.0173 N.4            1 S1                 1.0000
     11 ****         1.5704  -0.2385  -0.9084 C.3            1 S1                 0.0000
     12 ****         2.0274  -1.3897  -1.8198 C.3            1 S1                 0.0000
     13 ****         1.5665  -2.7586  -1.2940 C.3            1 S1                 0.0000
     14 ****         2.0306  -3.0143   0.1544 C.3            1 S1                 0.0000
     15 ****         1.5483  -4.3999   0.6197 C.3            1 S1                 0.0000
     16 ****         1.5661  -1.8662   1.0891 C.3            1 S1                 0.0000
     17 ****         2.0547  -2.0388   2.5385 C.3            1 S1                 0.0000
     18 ****         2.0288  -0.4981   0.5422 C.3            1 S1                 0.0000
     19 ****        -1.6556   1.9121   2.6546 H              1 S1                 0.0000
     20 ****        -3.1372   1.0930   2.1700 H              1 S1                 0.0000
     21 ****        -3.2143   2.4951   3.2294 H              1 S1                 0.0000
     22 ****        -1.6396   3.9858  -2.6755 H              1 S1                 0.0000
     23 ****        -2.7699   5.3094  -2.3917 H              1 S1                 0.0000
     24 ****        -3.3732   3.7262  -2.8831 H              1 S1                 0.0000
     25 ****        -2.4357   0.5205  -0.2985 H              1 S1                 0.0000
     26 ****        -2.1044   1.3049  -1.8136 H              1 S1                 0.0000
     27 ****         0.1227   2.0635  -0.9529 H              1 S1                 0.0000
     28 ****        -0.2166   1.2909   0.5873 H              1 S1                 0.0000
     29 ****        -0.3602  -0.8089  -0.5507 H              1 S1                 0.0000
     30 ****         2.0459   0.6754  -1.2675 H              1 S1                 0.0000
     31 ****         1.6627  -1.2365  -2.8364 H              1 S1                 0.0000
     32 ****         3.1163  -1.3841  -1.8857 H              1 S1                 0.0000
     33 ****         0.4790  -2.8255  -1.3491 H              1 S1                 0.0000
     34 ****         1.9512  -3.5409  -1.9495 H              1 S1                 0.0000
     35 ****         3.1217  -3.0310   0.1534 H              1 S1                 0.0000
     36 ****         0.4626  -4.4313   0.7167 H              1 S1                 0.0000
     37 ****         1.9798  -4.6775   1.5809 H              1 S1                 0.0000
     38 ****         1.8392  -5.1740  -0.0909 H              1 S1                 0.0000
     39 ****         0.4754  -1.8665   1.1139 H              1 S1                 0.0000
     40 ****         3.1412  -2.1201   2.5847 H              1 S1                 0.0000
     41 ****         1.6311  -2.9268   3.0068 H              1 S1                 0.0000
     42 ****         1.7606  -1.1883   3.1541 H              1 S1                 0.0000
     43 ****         3.1187  -0.4600   0.5718 H              1 S1                 0.0000
     44 ****         1.6963   0.3038   1.2009 H              1 S1                 0.0000
     45 ****        -0.1331  -0.0764  -1.9982 H              1 S1                 0.0000
     46 ****        -3.5293   4.6438   2.1452 LP             1 S1                 0.0000
     47 ****        -2.5988   5.5568   0.0149 LP             1 S1                 0.0000
     48 ****        -4.1244   5.0380  -0.2496 LP             1 S1                 0.0000
@<TRIPOS>BOND
    1    1    2 1     
    2    1   19 1     
    3    1   20 1     
    4    1   21 1     
    5    2    7 1     
    6    2    3 2     
    7    3    4 1     
    8    4    5 1     
    9    5    6 1     
   10    5    7 2     
   11    6   22 1     
   12    6   23 1     
   13    6   24 1     
   14    7    8 1     
   15    8    9 1     
   16    8   25 1     
   17    8   26 1     
   18    9   10 1     
   19    9   27 1     
   20    9   28 1     
   21   10   11 1     
   22   10   29 1     
   23   10   45 1     
   24   11   18 1     
   25   11   12 1     
   26   11   30 1     
   27   12   13 1     
   28   12   31 1     
   29   12   32 1     
   30   13   14 1     
   31   13   33 1     
   32   13   34 1     
   33   14   15 1     
   34   14   16 1     
   35   14   35 1     
   36   15   36 1     
   37   15   37 1     
   38   15   38 1     
   39   16   17 1     
   40   16   18 1     
   41   16   39 1     
   42   17   40 1     
   43   17   41 1     
   44   17   42 1     
   45   18   43 1     
   46   18   44 1     
   47    3   46 1     
   48    4   47 1     
   49    4   48 1     
@<TRIPOS>SUBSTRUCTURE
      1 S1             1
@<TRIPOS>SET
LONE_PAIRS      STATIC     ATOMS    <user>   **** ""
3 46 47 48
DONOR_HYDROGENS      STATIC     ATOMS    <user>   **** ""
2 29 45
ATOM$BLUE        STATIC     ATOMS    COLORGROUP SYSTEM
3 46 47 48
ATOM$RED        STATIC     ATOMS    COLORGROUP SYSTEM
2 29 45
