AV-unprocessed.smi:2648|AV-procd|sdf|10285|dock7
  -GOLD-   2272014303D 1   1.00000     0.00000
 Structure written by MMmdl.
 32 33  0  0  0  0  0  0  0  0  1 V2000
  144.5147  136.5712  152.1423 O   0  0  0  0  0  0  0  0  0  0  0  0
  145.7241  136.3982  151.9917 C   0  0  0  0  0  0  0  0  0  0  0  0
  146.6476  137.3012  152.3512 N   0  0  0  0  0  0  0  0  0  0  0  0
  146.3560  138.5932  152.9596 C   0  0  0  0  0  0  0  0  0  0  0  0
  147.5267  139.0809  153.8323 C   0  0  0  0  0  0  0  0  0  0  0  0
  147.2182  140.3654  154.4648 N   0  0  0  0  0  0  0  0  0  0  0  0
  146.1063  140.6097  155.1705 C   0  0  0  0  0  0  0  0  0  0  0  0
  145.1753  139.8370  155.3948 O   0  0  0  0  0  0  0  0  0  0  0  0
  146.1669  142.0323  155.6822 C   0  0  0  0  0  0  0  0  0  0  0  0
  147.4493  142.4232  155.1375 N   0  0  0  0  0  0  0  0  0  0  0  0
  148.0309  141.4372  154.4420 C   0  0  0  0  0  0  0  0  0  0  0  0
  149.1263  141.5124  153.8875 O   0  0  0  0  0  0  0  0  0  0  0  0
  146.2947  135.3137  151.4384 N   0  0  0  0  0  0  0  0  0  0  0  0
  145.6715  134.1436  150.9246 C   0  0  0  0  0  0  0  0  0  0  0  0
  146.5037  133.0656  150.5589 C   0  0  0  0  0  0  0  0  0  0  0  0
  145.9116  131.8887  150.0593 C   0  0  0  0  0  0  0  0  0  0  0  0
  144.5789  131.7313  149.9181 N   0  0  0  0  0  0  0  0  0  0  0  0
  143.7825  132.7585  150.2820 C   0  0  0  0  0  0  0  0  0  0  0  0
  144.2715  133.9777  150.7922 C   0  0  0  0  0  0  0  0  0  0  0  0
  147.6197  137.0837  152.1872 H   0  0  0  0  0  0  0  0  0  0  0  0
  146.1215  139.3252  152.1845 H   0  0  0  0  0  0  0  0  0  0  0  0
  145.4565  138.4858  153.5667 H   0  0  0  0  0  0  0  0  0  0  0  0
  147.7582  138.3361  154.5955 H   0  0  0  0  0  0  0  0  0  0  0  0
  148.4321  139.1760  153.2301 H   0  0  0  0  0  0  0  0  0  0  0  0
  145.3560  142.6409  155.2806 H   0  0  0  0  0  0  0  0  0  0  0  0
  146.1634  142.0688  156.7719 H   0  0  0  0  0  0  0  0  0  0  0  0
  147.8522  143.3378  155.2801 H   0  0  0  0  0  0  0  0  0  0  0  0
  147.2961  135.3550  151.3187 H   0  0  0  0  0  0  0  0  0  0  0  0
  147.5777  133.1357  150.6518 H   0  0  0  0  0  0  0  0  0  0  0  0
  146.5265  131.0508  149.7662 H   0  0  0  0  0  0  0  0  0  0  0  0
  142.7200  132.6023  150.1678 H   0  0  0  0  0  0  0  0  0  0  0  0
  143.5683  134.7446  151.0774 H   0  0  0  0  0  0  0  0  0  0  0  0
  1  2  2  0  0  0  0
  2  3  1  0  0  0  0
  2 13  1  0  0  0  0
  3  4  1  0  0  0  0
  3 20  1  0  0  0  0
  4  5  1  0  0  0  0
  4 21  1  0  0  0  0
  4 22  1  0  0  0  0
  5  6  1  0  0  0  0
  5 23  1  0  0  0  0
  5 24  1  0  0  0  0
  6 11  1  0  0  0  0
  6  7  1  0  0  0  0
  7  8  2  0  0  0  0
  7  9  1  0  0  0  0
  9 10  1  0  0  0  0
  9 25  1  0  0  0  0
  9 26  1  0  0  0  0
 10 11  1  0  0  0  0
 10 27  1  0  0  0  0
 11 12  2  0  0  0  0
 13 14  1  0  0  0  0
 13 28  1  0  0  0  0
 14 19  1  0  0  0  0
 14 15  2  0  0  0  0
 15 16  1  0  0  0  0
 15 29  1  0  0  0  0
 16 17  2  0  0  0  0
 16 30  1  0  0  0  0
 17 18  1  0  0  0  0
 18 19  2  0  0  0  0
 18 31  1  0  0  0  0
 19 32  1  0  0  0  0
M  END
> <s_m_source_file>
AV-unprocessed.smi

> <i_m_source_file_index>
2648

> <i_lp_mmshare_version>
43012

> <i_f3d_flags>
0

> <s_epik_input>
W2NIXTFbY0hdbltjSF1bY0hdYzFbTkhdQyg9TylbTkhdW0NIMl1bQ0gyXU4yQyg9TylbQ0gyXVtOSF1DMj1P

> <s_epik_cmdline>
J2VwaWtfcHl0aG9uJywgJy1waCcsICc3LjAnLCAnLXRuJywgJzgnLCAnLW1hJywgJzIwMCcsICctbWV0YWxfYmluZGluZycsICctaW1hZScsICc8aW5maWxlLm1hZT4nLCAnLW9tYWUnLCAnPG91dGZpbGUubWFlPic=

> <r_lp_tautomer_probability>
1

> <r_epik_Ionization_Penalty>
0.109042

> <r_epik_Ionization_Penalty_Charging>
0

> <r_epik_Ionization_Penalty_Neutral>
0.109042

> <r_epik_State_Penalty>
0.0987421

> <r_epik_Charging_Adjusted_Penalty>
0.0987421

> <i_epik_Tot_Q>
0

> <i_epik_Tot_abs_Q>
0

> <r_epik_Metal_State_Penalty>
0.108818

> <b_epik_Metal_Only>
0

> <s_lp_Force_Field>
OPLS_2005

> <r_lp_Energy>
20.6194

> <b_lp_Chiralities_Consistent>
1

> <s_lp_Variant>
AV-unprocessed.smi:2648-1

> <Gold.Version>
5.8.1

> <Gold.Id.Protein>
6NUR|6NUR_protein|mol2

> <Gold.PLP.Fitness>
48.3352

> <Gold.PLP.PLP>
-32.0699

> <Gold.PLP.part.hbond>
-5.8257

> <Gold.PLP.part.metal>
0.0000

> <Gold.PLP.part.buried>
-5.8585

> <Gold.PLP.part.nonpolar>
-23.8568

> <Gold.PLP.part.repulsive>
2.3984

> <Gold.PLP.ligand.clash>
0.0000

> <Gold.PLP.ligand.torsion>
0.2798

> <Gold.PLP.Chemscore.Hbond>
3.7542

> <Gold.PLP.Chemscore.CHOScore>
1.8528

> <Gold.PLP.Chemscore.Metal>
0.0000

> <Gold.Chemscore.Hbonds>
donor molecule, donor type, donor heavy atom, donor atom, acceptor molecule, acceptor atom, score
      L1  H     3    20       P1  7948  1.00
      L1  H    10    27       P1  8028  1.00
      L1  H    13    28       P1  7948  0.96
      P1  H  8011  8017       L1    12  0.70
      P1  H 10785 10796       L1    17  0.04
      L1  C    16    30       P1 10747  0.90
      L1  C    18    31       P1 10186  0.83

> <Gold.PLP.Chemscore.Internal.Correction>
0.0037

> <Gold.Rescore>
     Score         DG    S(hbond)    S(metal)    S(lipo)     H(rot)  DE(clash)    DE(int)     intcor
     16.58     -19.34       3.68        0.00      55.81       1.93       0.09       2.67       ----

> <Gold.Chemscore.Fitness>
16.5777

> <Gold.Chemscore.DG>
-19.3401

> <Gold.Chemscore.ZeroCoef>
-5.4800

> <Gold.Chemscore.Hbond>
3.6767

> <Gold.Chemscore.Metal>
0.0000

> <Gold.Chemscore.Lipo>
55.8053

> <Gold.Chemscore.Internal_Hbond>
0.0000

> <Gold.Chemscore.DEClash>
0.0921

> <Gold.Chemscore.DEInternal>
2.6703

> <Gold.Chemscore.Rot>
1.9334

> <Gold.Chemscore.Internal.Correction>
   9.000000E+99

> <Gold.Chemscore.Hbonds>
donor molecule, donor type, donor heavy atom, donor atom, acceptor molecule, acceptor atom, score
      L1  H     3    20       P1  7948  0.98
      L1  H    10    27       P1  8028  0.50
      L1  H    13    28       P1  7948  0.76
      P1  H  8011  8017       L1    12  0.72
      P1  H 10785 10796       L1    17  0.04

> <Gold.Chemscore.Hbond.Weighted>
-12.2803

> <Gold.Chemscore.Metal.Weighted>
-0.0000

> <Gold.Chemscore.Lipo.Weighted>
-6.5292

> <Gold.Chemscore.Internal_Hbond.Weighted>
0.0000

> <Gold.Chemscore.DEClash.Weighted>
0.0921

> <Gold.Chemscore.DEInternal.Weighted>
2.6703

> <Gold.Chemscore.Rot.Weighted>
4.9494

> <Gold.Chemscore.Internal.Correction.Weighted>
   9.000000E+99

> <Gold.Protein.RotatedTorsions>
[ 6907 6896 6895 6894 ] final -177.21 input  -60.11 | X-H torsion
[ 7974 7965 7964 7962 ] final  -79.06 input  175.53 | X-H torsion
[ 8008 7997 7996 7995 ] final   16.03 input   59.86 | X-H torsion
[ 10167 10162 10161 10158 ] final  174.45 input  -65.29 | X-H torsion
[ 10718 10713 10712 10709 ] final  -35.36 input   66.30 | X-H torsion
[ 10763 10752 10751 10750 ] final   -4.56 input  -60.55 | X-H torsion
[ 11005 11000 10999 10996 ] final   76.58 input  -57.11 | X-H torsion

> <Gold.Protein.ActiveResidues>
 VAL166  LYS551  ARG553  GLY616  TRP617  ASP618  TYR619  PRO620  LYS621  CYS622 
 ASP623  PHE694  ASN695  SER759  ASP760  ASP761  ALA762  ILE779  LEU786  VAL792 
 PHE793  MET794  SER795  GLU796  ALA797  LYS798  CYS799  TRP800  GLU811  SER814 

> <Gold.Protein.RotatedAtoms>
  151.6173  133.3342  159.3080 H   0  0  0  0  0  0  0  0  0  0  0  0  # atno 6907 bound_to 6896
  150.8124  134.7291  159.6711 H   0  0  0  0  0  0  0  0  0  0  0  0  # atno 6908 bound_to 6896
  152.4221  134.5941  160.0034 H   0  0  0  0  0  0  0  0  0  0  0  0  # atno 6909 bound_to 6896
  145.5782  140.9453  143.1358 H   0  0  0  0  0  0  0  0  0  0  0  0  # atno 7974 bound_to 7965
  154.8712  140.2959  155.5480 H   0  0  0  0  0  0  0  0  0  0  0  0  # atno 8008 bound_to 7997
  156.3021  140.2460  156.3634 H   0  0  0  0  0  0  0  0  0  0  0  0  # atno 8009 bound_to 7997
  154.8815  140.0397  157.1774 H   0  0  0  0  0  0  0  0  0  0  0  0  # atno 8010 bound_to 7997
  139.5142  144.3145  152.0261 H   0  0  0  0  0  0  0  0  0  0  0  0  # atno 10167 bound_to 10162
  156.3396  130.4291  149.7799 H   0  0  0  0  0  0  0  0  0  0  0  0  # atno 10718 bound_to 10713
  153.3865  135.7000  153.6526 H   0  0  0  0  0  0  0  0  0  0  0  0  # atno 10763 bound_to 10752
  153.5116  135.3630  155.2590 H   0  0  0  0  0  0  0  0  0  0  0  0  # atno 10764 bound_to 10752
  154.8698  135.4136  154.3173 H   0  0  0  0  0  0  0  0  0  0  0  0  # atno 10765 bound_to 10752
  139.9292  134.7613  156.1414 H   0  0  0  0  0  0  0  0  0  0  0  0  # atno 11005 bound_to 11000
  144.7406  139.7460  143.7312 LP  0  0  0  0  0  0  0  0  0  0  0  0  # atno 17320 bound_to 7965
  146.1735  139.4896  142.9912 LP  0  0  0  0  0  0  0  0  0  0  0  0  # atno 17321 bound_to 7965
  140.2588  144.4089  150.6193 LP  0  0  0  0  0  0  0  0  0  0  0  0  # atno 17342 bound_to 10162
  140.6172  143.2173  151.6768 LP  0  0  0  0  0  0  0  0  0  0  0  0  # atno 17343 bound_to 10162
  156.5041  130.8142  151.3144 LP  0  0  0  0  0  0  0  0  0  0  0  0  # atno 17370 bound_to 10713
  157.7444  130.9935  150.2675 LP  0  0  0  0  0  0  0  0  0  0  0  0  # atno 17371 bound_to 10713
  141.0870  133.6730  156.2457 LP  0  0  0  0  0  0  0  0  0  0  0  0  # atno 17394 bound_to 11000
  140.6250  134.5323  157.5552 LP  0  0  0  0  0  0  0  0  0  0  0  0  # atno 17395 bound_to 11000

$$$$
