AV-unprocessed.smi:1066|AV-procd|sdf|4668|dock7
  -GOLD-   22720 3183D 1   1.00000     0.00000
 Structure written by MMmdl.
 38 40  0  0  0  0  0  0  0  0  2 V2000
  149.3592  133.5724  153.7911 C   0  0  0  0  0  0  0  0  0  0  0  0
  149.8487  132.4669  154.6819 C   0  0  0  0  0  0  0  0  0  0  0  0
  150.5954  132.7611  155.7381 N   0  0  0  0  0  0  0  0  0  0  0  0
  150.8943  131.5442  156.3614 O   0  0  0  0  0  0  0  0  0  0  0  0
  150.2991  130.5707  155.6350 C   0  0  0  0  0  0  0  0  0  0  0  0
  150.4256  128.9065  156.0485 Cl  0  0  0  0  0  0  0  0  0  0  0  0
  149.6197  131.0651  154.5587 C   0  0  0  0  0  0  0  0  0  0  0  0
  148.8309  130.3356  153.5011 C   0  0  0  0  0  0  0  0  0  0  0  0
  147.4977  131.0471  153.2711 C   0  0  0  0  0  0  0  0  0  0  0  0
  146.6959  131.1708  154.1963 O   0  0  0  0  0  0  0  0  0  0  0  0
  147.2754  131.5153  152.0337 N   0  0  0  0  0  0  0  0  0  0  0  0
  146.0858  132.2495  151.6216 C   0  0  2  0  0  0  0  0  0  0  0  0
  145.0842  131.4312  150.8136 C   0  0  0  0  0  0  0  0  0  0  0  0
  144.2758  132.5133  150.0870 C   0  0  0  0  0  0  0  0  0  0  0  0
  145.1640  133.6955  149.9512 N   0  3  1  0  0  0  0  0  0  0  0  0
  144.5365  134.9592  150.3961 C   0  0  0  0  0  0  0  0  0  0  0  0
  145.5266  135.9809  150.9019 C   0  0  0  0  0  0  0  0  0  0  0  0
  144.6675  135.2085  151.8796 C   0  0  0  0  0  0  0  0  0  0  0  0
  146.4257  133.3846  150.6580 C   0  0  0  0  0  0  0  0  0  0  0  0
  149.3635  133.2646  152.7453 H   0  0  0  0  0  0  0  0  0  0  0  0
  149.9838  134.4625  153.8735 H   0  0  0  0  0  0  0  0  0  0  0  0
  148.3390  133.8564  154.0492 H   0  0  0  0  0  0  0  0  0  0  0  0
  149.3757  130.2831  152.5578 H   0  0  0  0  0  0  0  0  0  0  0  0
  148.6380  129.3030  153.7946 H   0  0  0  0  0  0  0  0  0  0  0  0
  147.9904  131.3663  151.3359 H   0  0  0  0  0  0  0  0  0  0  0  0
  145.5885  132.6707  152.4982 H   0  0  0  0  0  0  0  0  0  0  0  0
  145.6044  130.8043  150.0875 H   0  0  0  0  0  0  0  0  0  0  0  0
  144.4629  130.7844  151.4341 H   0  0  0  0  0  0  0  0  0  0  0  0
  143.9262  132.1741  149.1116 H   0  0  0  0  0  0  0  0  0  0  0  0
  143.3951  132.7684  150.6788 H   0  0  0  0  0  0  0  0  0  0  0  0
  143.6411  135.2713  149.8611 H   0  0  0  0  0  0  0  0  0  0  0  0
  146.5866  135.7363  150.8629 H   0  0  0  0  0  0  0  0  0  0  0  0
  145.2862  137.0309  150.7484 H   0  0  0  0  0  0  0  0  0  0  0  0
  143.8629  135.7516  152.3713 H   0  0  0  0  0  0  0  0  0  0  0  0
  145.1552  134.4488  152.4877 H   0  0  0  0  0  0  0  0  0  0  0  0
  146.8530  134.2502  151.1669 H   0  0  0  0  0  0  0  0  0  0  0  0
  147.1515  133.0489  149.9156 H   0  0  0  0  0  0  0  0  0  0  0  0
  145.3900  133.8043  148.9728 H   0  0  0  0  0  0  0  0  0  0  0  0
  1  2  1  0  0  0  0
  1 20  1  0  0  0  0
  1 21  1  0  0  0  0
  1 22  1  0  0  0  0
  2  7  1  0  0  0  0
  2  3  2  0  0  0  0
  3  4  1  0  0  0  0
  4  5  1  0  0  0  0
  5  6  1  0  0  0  0
  5  7  2  0  0  0  0
  7  8  1  0  0  0  0
  8  9  1  0  0  0  0
  8 23  1  0  0  0  0
  8 24  1  0  0  0  0
  9 10  2  0  0  0  0
  9 11  1  0  0  0  0
 11 12  1  0  0  0  0
 11 25  1  0  0  0  0
 12 19  1  0  0  0  0
 12 13  1  0  0  0  0
 12 26  1  0  0  0  0
 13 14  1  0  0  0  0
 13 27  1  0  0  0  0
 13 28  1  0  0  0  0
 14 15  1  0  0  0  0
 14 29  1  0  0  0  0
 14 30  1  0  0  0  0
 15 16  1  0  0  0  0
 15 19  1  0  0  0  0
 15 38  1  0  0  0  0
 16 18  1  0  0  0  0
 16 17  1  0  0  0  0
 16 31  1  0  0  0  0
 17 18  1  0  0  0  0
 17 32  1  0  0  0  0
 17 33  1  0  0  0  0
 18 34  1  0  0  0  0
 18 35  1  0  0  0  0
 19 36  1  0  0  0  0
 19 37  1  0  0  0  0
M  CHG  1  15   1
M  END
> <s_m_source_file>
AV-unprocessed.smi

> <i_m_source_file_index>
1066

> <i_lp_mmshare_version>
43012

> <i_f3d_flags>
0

> <s_epik_input>
W0NIM11jMW5vYyhDbCljMVtDSDJdQyg9TylbTkhdW0NAQEhdMltDSDJdW0NIMl1OKFtDSDJdMilbQ0hdM1tDSDJdW0NIMl0z

> <s_epik_cmdline>
J2VwaWtfcHl0aG9uJywgJy1waCcsICc3LjAnLCAnLXRuJywgJzgnLCAnLW1hJywgJzIwMCcsICctbWV0YWxfYmluZGluZycsICctaW1hZScsICc8aW5maWxlLm1hZT4nLCAnLW9tYWUnLCAnPG91dGZpbGUubWFlPic=

> <r_epik_Ionization_Penalty>
0.00108138

> <r_epik_Ionization_Penalty_Charging>
0.00108128

> <r_epik_Ionization_Penalty_Neutral>
9.66632e-08

> <r_epik_State_Penalty>
0.000708577

> <r_epik_Charging_Adjusted_Penalty>
0.00178986

> <i_epik_Tot_Q>
1

> <i_epik_Tot_abs_Q>
1

> <r_epik_Metal_State_Penalty>
-0

> <b_epik_Metal_Only>
0

> <s_lp_Force_Field>
OPLS_2005

> <r_lp_Energy>
31.6954

> <b_lp_Chiralities_Consistent>
1

> <s_lp_Variant>
AV-unprocessed.smi:1066-1

> <Gold.Version>
5.8.1

> <Gold.Id.Protein>
6NUR|6NUR_protein|mol2

> <Gold.PLP.Fitness>
40.4300

> <Gold.PLP.PLP>
-35.2747

> <Gold.PLP.part.hbond>
-2.0000

> <Gold.PLP.part.metal>
0.0000

> <Gold.PLP.part.buried>
-4.4333

> <Gold.PLP.part.nonpolar>
-28.4945

> <Gold.PLP.part.repulsive>
0.2355

> <Gold.PLP.ligand.clash>
0.0000

> <Gold.PLP.ligand.torsion>
1.0586

> <Gold.PLP.Chemscore.Hbond>
2.0000

> <Gold.PLP.Chemscore.CHOScore>
0.0000

> <Gold.PLP.Chemscore.Metal>
0.0000

> <Gold.Chemscore.Hbonds>
donor molecule, donor type, donor heavy atom, donor atom, acceptor molecule, acceptor atom, score
      L1  H    11    25       P1 10747  1.00
      L1  H    15    38       P1  7921  0.99

> <Gold.PLP.Chemscore.Internal.Correction>
1.2725

> <Gold.Rescore>
     Score         DG    S(hbond)    S(metal)    S(lipo)     H(rot)  DE(clash)    DE(int)     intcor
     16.03     -16.99       1.89        0.00      78.68       1.57       0.00       0.97       ----

> <Gold.Chemscore.Fitness>
16.0264

> <Gold.Chemscore.DG>
-16.9916

> <Gold.Chemscore.ZeroCoef>
-5.4800

> <Gold.Chemscore.Hbond>
1.8947

> <Gold.Chemscore.Metal>
0.0000

> <Gold.Chemscore.Lipo>
78.6774

> <Gold.Chemscore.Internal_Hbond>
0.0000

> <Gold.Chemscore.DEClash>
0.0000

> <Gold.Chemscore.DEInternal>
0.9651

> <Gold.Chemscore.Rot>
1.5711

> <Gold.Chemscore.Internal.Correction>
   9.000000E+99

> <Gold.Chemscore.Hbonds>
donor molecule, donor type, donor heavy atom, donor atom, acceptor molecule, acceptor atom, score
      L1  H    11    25       P1 10747  0.93
      L1  H    15    38       P1  7921  0.66

> <Gold.Chemscore.Hbond.Weighted>
-6.3284

> <Gold.Chemscore.Metal.Weighted>
-0.0000

> <Gold.Chemscore.Lipo.Weighted>
-9.2053

> <Gold.Chemscore.Internal_Hbond.Weighted>
0.0000

> <Gold.Chemscore.DEClash.Weighted>
0.0000

> <Gold.Chemscore.DEInternal.Weighted>
0.9651

> <Gold.Chemscore.Rot.Weighted>
4.0221

> <Gold.Chemscore.Internal.Correction.Weighted>
   9.000000E+99

> <Gold.Protein.RotatedTorsions>
[ 6907 6896 6895 6894 ] final -113.06 input  -60.11 | X-H torsion
[ 7974 7965 7964 7962 ] final   42.99 input  175.53 | X-H torsion
[ 8008 7997 7996 7995 ] final  -47.98 input   59.86 | X-H torsion
[ 10167 10162 10161 10158 ] final  -43.03 input  -65.29 | X-H torsion
[ 10718 10713 10712 10709 ] final  -77.66 input   66.30 | X-H torsion
[ 10763 10752 10751 10750 ] final   46.83 input  -60.55 | X-H torsion
[ 11005 11000 10999 10996 ] final  109.37 input  -57.11 | X-H torsion

> <Gold.Protein.ActiveResidues>
 VAL166  LYS551  ARG553  GLY616  TRP617  ASP618  TYR619  PRO620  LYS621  CYS622 
 ASP623  PHE694  ASN695  SER759  ASP760  ASP761  ALA762  ILE779  LEU786  VAL792 
 PHE793  MET794  SER795  GLU796  ALA797  LYS798  CYS799  TRP800  GLU811  SER814 

> <Gold.Protein.RotatedAtoms>
  150.7802  133.9000  159.3338 H   0  0  0  0  0  0  0  0  0  0  0  0  # atno 6907 bound_to 6896
  151.6864  135.0951  160.0235 H   0  0  0  0  0  0  0  0  0  0  0  0  # atno 6908 bound_to 6896
  152.3851  133.6561  159.6227 H   0  0  0  0  0  0  0  0  0  0  0  0  # atno 6909 bound_to 6896
  146.0693  139.5237  142.9608 H   0  0  0  0  0  0  0  0  0  0  0  0  # atno 7974 bound_to 7965
  154.4023  140.1333  156.4263 H   0  0  0  0  0  0  0  0  0  0  0  0  # atno 8008 bound_to 7997
  155.7594  140.3486  155.5170 H   0  0  0  0  0  0  0  0  0  0  0  0  # atno 8009 bound_to 7997
  155.8874  140.0997  157.1433 H   0  0  0  0  0  0  0  0  0  0  0  0  # atno 8010 bound_to 7997
  140.6948  143.3005  151.3294 H   0  0  0  0  0  0  0  0  0  0  0  0  # atno 10167 bound_to 10162
  156.0139  130.4497  150.3378 H   0  0  0  0  0  0  0  0  0  0  0  0  # atno 10718 bound_to 10713
  152.9806  135.5996  154.3663 H   0  0  0  0  0  0  0  0  0  0  0  0  # atno 10763 bound_to 10752
  154.3340  135.2768  155.2459 H   0  0  0  0  0  0  0  0  0  0  0  0  # atno 10764 bound_to 10752
  154.4570  135.5975  153.6285 H   0  0  0  0  0  0  0  0  0  0  0  0  # atno 10765 bound_to 10752
  139.8861  134.9456  156.6114 H   0  0  0  0  0  0  0  0  0  0  0  0  # atno 11005 bound_to 11000
  145.6419  141.0282  143.1807 LP  0  0  0  0  0  0  0  0  0  0  0  0  # atno 17320 bound_to 7965
  144.7222  139.7993  143.7378 LP  0  0  0  0  0  0  0  0  0  0  0  0  # atno 17321 bound_to 7965
  139.6391  144.0574  152.2540 LP  0  0  0  0  0  0  0  0  0  0  0  0  # atno 17342 bound_to 10162
  140.0073  144.6249  150.7677 LP  0  0  0  0  0  0  0  0  0  0  0  0  # atno 17343 bound_to 10162
  157.1475  131.0312  151.2900 LP  0  0  0  0  0  0  0  0  0  0  0  0  # atno 17370 bound_to 10713
  157.4420  130.7549  149.7078 LP  0  0  0  0  0  0  0  0  0  0  0  0  # atno 17371 bound_to 10713
  140.7808  133.8661  155.8566 LP  0  0  0  0  0  0  0  0  0  0  0  0  # atno 17394 bound_to 11000
  140.9762  134.1466  157.4534 LP  0  0  0  0  0  0  0  0  0  0  0  0  # atno 17395 bound_to 11000

$$$$
