#       Name:                AV-unprocessed.smi:2628
#       Creating user name   scv26
#       Creation time:       Fri Mar 27 14:25:18 2020


#       File generated by GOLD software.
#

@<TRIPOS>MOLECULE
AV-unprocessed.smi:2628
    44    44     1
SMALL
NO_CHARGES


@<TRIPOS>ATOM
      1 ****        -3.8025   1.8003  -2.9093 C.3            1 S1                 0.0000
      2 ****        -3.5615   1.2041  -1.5184 C.3            1 S1                 0.0000
      3 ****        -2.6972   2.1131  -0.6294 C.3            1 S1                 0.0000
      4 ****        -2.4870   1.5911   0.8070 C.3            1 S1                 0.0000
      5 ****        -1.7519   0.3402   0.8811 N.am           1 S1                 0.0000
      6 ****        -0.3590   0.2662   0.7912 C.2            1 S1                 0.0000
      7 ****         0.3425   1.4507   0.6168 N.pl3          1 S1                 0.0000
      8 ****         0.3186  -0.9174   0.8608 C.2            1 S1                 0.0000
      9 ****         1.7107  -0.9436   0.7617 N.pl3          1 S1                 0.0000
     10 ****         2.6755   0.1312   0.5831 C.3            1 S1                 0.0000
     11 ****         4.0887  -0.4208   0.3669 C.3            1 S1                 0.0000
     12 ****         4.5501  -1.0112   1.5711 O.3            1 S1                 0.0000
     13 ****         5.8523  -1.5545   1.4447 C.3            1 S1                 0.0000
     14 ****        -0.4254  -2.1779   1.0306 C.2            1 S1                 0.0000
     15 ****         0.0504  -3.3097   1.1049 O.2            1 S1                 0.0000
     16 ****        -1.8091  -2.0390   1.1049 N.am           1 S1                 0.0000
     17 ****        -2.5123  -0.8434   1.0338 C.2            1 S1                 0.0000
     18 ****        -3.7420  -0.8647   1.0970 O.2            1 S1                 0.0000
     19 ****        -2.3495  -2.8846   1.2148 H              1 S1                 0.0000
     20 ****        -4.4168   1.1342  -3.5154 H              1 S1                 0.0000
     21 ****        -2.8622   1.9584  -3.4381 H              1 S1                 0.0000
     22 ****        -4.3164   2.7596  -2.8436 H              1 S1                 0.0000
     23 ****        -4.5211   1.0230  -1.0330 H              1 S1                 0.0000
     24 ****        -3.0826   0.2314  -1.6323 H              1 S1                 0.0000
     25 ****        -1.7306   2.2712  -1.1086 H              1 S1                 0.0000
     26 ****        -3.1653   3.0962  -0.5709 H              1 S1                 0.0000
     27 ****        -1.9154   2.3066   1.3986 H              1 S1                 0.0000
     28 ****        -3.4325   1.4849   1.3403 H              1 S1                 0.0000
     29 ****        -0.1265   2.3427   0.5555 H              1 S1                 0.0000
     30 ****         1.3519   1.4764   0.6312 H              1 S1                 0.0000
     31 ****         2.1336  -1.8587   0.8124 H              1 S1                 0.0000
     32 ****         2.3908   0.7179  -0.2906 H              1 S1                 0.0000
     33 ****         2.6563   0.7966   1.4468 H              1 S1                 0.0000
     34 ****         4.0945  -1.1465  -0.4482 H              1 S1                 0.0000
     35 ****         4.7581   0.3930   0.0842 H              1 S1                 0.0000
     36 ****         6.1580  -1.9987   2.3920 H              1 S1                 0.0000
     37 ****         6.5777  -0.7825   1.1847 H              1 S1                 0.0000
     38 ****         5.8818  -2.3342   0.6825 H              1 S1                 0.0000
     39 ****         3.9208  -1.7437   1.8308 LP             1 S1                 0.0000
     40 ****         4.5621  -0.3127   2.2866 LP             1 S1                 0.0000
     41 ****         1.0403  -3.4406   1.0497 LP             1 S1                 0.0000
     42 ****        -0.5526  -4.0990   1.2206 LP             1 S1                 0.0000
     43 ****        -4.2605  -0.0115   1.0400 LP             1 S1                 0.0000
     44 ****        -4.2221  -1.7352   1.2054 LP             1 S1                 0.0000
@<TRIPOS>BOND
    1    1    2 1     
    2    1   20 1     
    3    1   21 1     
    4    1   22 1     
    5    2    3 1     
    6    2   23 1     
    7    2   24 1     
    8    3    4 1     
    9    3   25 1     
   10    3   26 1     
   11    4    5 1     
   12    4   27 1     
   13    4   28 1     
   14    5   17 1     
   15    5    6 1     
   16    6    7 1     
   17    6    8 2     
   18    7   29 1     
   19    7   30 1     
   20    8    9 1     
   21    8   14 1     
   22    9   10 1     
   23    9   31 1     
   24   10   11 1     
   25   10   32 1     
   26   10   33 1     
   27   11   12 1     
   28   11   34 1     
   29   11   35 1     
   30   12   13 1     
   31   13   36 1     
   32   13   37 1     
   33   13   38 1     
   34   14   15 2     
   35   14   16 1     
   36   16   19 1     
   37   16   17 1     
   38   17   18 2     
   39   12   39 1     
   40   12   40 1     
   41   15   41 1     
   42   15   42 1     
   43   18   43 1     
   44   18   44 1     
@<TRIPOS>SUBSTRUCTURE
      1 S1             1
@<TRIPOS>SET
LONE_PAIRS      STATIC     ATOMS    <user>   **** ""
6 39 40 41 42 43 44
DONOR_HYDROGENS      STATIC     ATOMS    <user>   **** ""
4 29 30 31 19
ATOM$BLUE        STATIC     ATOMS    COLORGROUP SYSTEM
6 39 40 41 42 43 44
ATOM$RED        STATIC     ATOMS    COLORGROUP SYSTEM
4 29 30 31 19
