#       Name:                AV-unprocessed.smi:3345
#       Creating user name   scv26
#       Creation time:       Fri Mar 27 19:30:58 2020


#       File generated by GOLD software.
#

@<TRIPOS>MOLECULE
AV-unprocessed.smi:3345
    47    48     1
SMALL
NO_CHARGES


@<TRIPOS>ATOM
      1 ****        -2.0415  -1.3422   2.8727 C.3            1 S1                 0.0000
      2 ****        -1.5247  -0.5465   1.6671 C.3            1 S1                 0.0000
      3 ****        -1.7624  -1.3017   0.3413 C.3            1 S1                 0.0000
      4 ****        -1.1822  -0.6780  -0.8504 N.3            1 S1                 0.0000
      5 ****        -1.8202   0.5903  -1.1943 C.3            1 S1                 0.0000
      6 ****        -1.1910   1.2232  -2.4472 C.3            1 S1                 0.0000
      7 ****        -1.2623   0.3060  -3.5341 O.3            1 S1                 0.0000
      8 ****        -0.6155  -0.9311  -3.2534 C.3            1 S1                 0.0000
      9 ****        -1.2432  -1.5696  -2.0023 C.3            1 S1                 0.0000
     10 ****        -0.0961  -0.2882   1.8287 N.am           1 S1                 0.0000
     11 ****         0.4905   0.9197   1.8184 C.2            1 S1                 0.0000
     12 ****        -0.1365   1.9792   1.8484 O.2            1 S1                 0.0000
     13 ****         2.0224   0.9154   1.7088 C.3            1 S1                 0.0000
     14 ****         2.6624   2.2416   2.1682 C.3            1 S1                 0.0000
     15 ****         2.4101   0.5527   0.3496 N.pl3          1 S1                 0.0000
     16 ****         2.7140  -0.6413  -0.1644 C.2            1 S1                 0.0000
     17 ****         2.9552  -0.6229  -1.4675 N.2            1 S1                 0.0000
     18 ****         2.7560   0.7051  -1.7164 C.2            1 S1                 0.0000
     19 ****         2.4170   1.4520  -0.6660 N.2            1 S1                 0.0000
     20 ****        -3.1096  -1.5410   2.7806 H              1 S1                 0.0000
     21 ****        -1.8887  -0.7910   3.8012 H              1 S1                 0.0000
     22 ****        -1.5313  -2.3014   2.9663 H              1 S1                 0.0000
     23 ****        -2.0818   0.3907   1.6411 H              1 S1                 0.0000
     24 ****        -1.3380  -2.3009   0.4500 H              1 S1                 0.0000
     25 ****        -2.8332  -1.4495   0.1932 H              1 S1                 0.0000
     26 ****        -2.8866   0.4348  -1.3636 H              1 S1                 0.0000
     27 ****        -1.7343   1.2957  -0.3689 H              1 S1                 0.0000
     28 ****        -1.7189   2.1380  -2.7161 H              1 S1                 0.0000
     29 ****        -0.1516   1.4961  -2.2600 H              1 S1                 0.0000
     30 ****        -0.7237  -1.5932  -4.1125 H              1 S1                 0.0000
     31 ****         0.4528  -0.7661  -3.1085 H              1 S1                 0.0000
     32 ****        -0.7240  -2.5018  -1.7770 H              1 S1                 0.0000
     33 ****        -2.2810  -1.8324  -2.2124 H              1 S1                 0.0000
     34 ****         0.5066  -1.0981   1.8179 H              1 S1                 0.0000
     35 ****         2.3941   0.1303   2.3692 H              1 S1                 0.0000
     36 ****         2.4078   2.4614   3.2055 H              1 S1                 0.0000
     37 ****         2.3356   3.0876   1.5621 H              1 S1                 0.0000
     38 ****         3.7497   2.1905   2.1035 H              1 S1                 0.0000
     39 ****         2.7495  -1.5454   0.4255 H              1 S1                 0.0000
     40 ****         2.8538   1.1325  -2.7035 H              1 S1                 0.0000
     41 ****        -0.2270  -0.4934  -0.6189 LP             1 S1                 0.0000
     42 ****        -0.8257   0.7213  -4.3322 LP             1 S1                 0.0000
     43 ****        -2.2246   0.1249  -3.7372 LP             1 S1                 0.0000
     44 ****        -1.1358   1.9680   1.8825 LP             1 S1                 0.0000
     45 ****         0.3537   2.8507   1.8387 LP             1 S1                 0.0000
     46 ****         3.2091  -1.3651  -2.0877 LP             1 S1                 0.0000
     47 ****         2.2175   2.4314  -0.6344 LP             1 S1                 0.0000
@<TRIPOS>BOND
    1    1    2 1     
    2    1   20 1     
    3    1   21 1     
    4    1   22 1     
    5    2    3 1     
    6    2   10 1     
    7    2   23 1     
    8    3    4 1     
    9    3   24 1     
   10    3   25 1     
   11    4    9 1     
   12    4    5 1     
   13    5    6 1     
   14    5   26 1     
   15    5   27 1     
   16    6    7 1     
   17    6   28 1     
   18    6   29 1     
   19    7    8 1     
   20    8    9 1     
   21    8   30 1     
   22    8   31 1     
   23    9   32 1     
   24    9   33 1     
   25   10   11 am    
   26   10   34 1     
   27   11   12 2     
   28   11   13 1     
   29   13   14 1     
   30   13   15 1     
   31   13   35 1     
   32   14   36 1     
   33   14   37 1     
   34   14   38 1     
   35   15   19 1     
   36   15   16 1     
   37   16   17 2     
   38   16   39 1     
   39   17   18 1     
   40   18   19 2     
   41   18   40 1     
   42    4   41 1     
   43    7   42 1     
   44    7   43 1     
   45   12   44 1     
   46   12   45 1     
   47   17   46 1     
   48   19   47 1     
@<TRIPOS>SUBSTRUCTURE
      1 S1             1
@<TRIPOS>SET
LONE_PAIRS      STATIC     ATOMS    <user>   **** ""
7 41 42 43 44 45 46 47
DONOR_HYDROGENS      STATIC     ATOMS    <user>   **** ""
1 34
ATOM$BLUE        STATIC     ATOMS    COLORGROUP SYSTEM
7 41 42 43 44 45 46 47
ATOM$RED        STATIC     ATOMS    COLORGROUP SYSTEM
1 34
