#       Name:                AV-unprocessed.smi:947
#       Creating user name   scv26
#       Creation time:       Fri Mar 27 02:15:02 2020


#       File generated by GOLD software.
#

@<TRIPOS>MOLECULE
AV-unprocessed.smi:947
    26    27     1
SMALL
NO_CHARGES


@<TRIPOS>ATOM
      1 ****        -3.5818   0.8554  -0.4201 C.3            1 S1                 0.0000
      2 ****        -2.0823   0.8860  -0.3818 C.2            1 S1                 0.0000
      3 ****        -1.2218   2.0175  -0.4478 C.2            1 S1                 0.0000
      4 ****         0.0366   1.4901  -0.3761 C.2            1 S1                 0.0000
      5 ****         1.3681   2.1662  -0.4029 C.3            1 S1                 0.0000
      6 ****        -0.1112   0.1197  -0.2639 N.pl3          1 S1                 0.0000
      7 ****         0.9202  -0.8757  -0.1660 C.3            1 S1                 0.0000
      8 ****         0.6054  -2.3587   0.0493 C.3            1 S1                 0.0000
      9 ****         1.8294  -2.4399   0.8355 N.4            1 S1                 1.0000
     10 ****         1.7463  -1.0108   1.1113 C.3            1 S1                 0.0000
     11 ****        -1.4099  -0.2486  -0.2756 N.2            1 S1                 0.0000
     12 ****        -3.9960   1.8637  -0.4358 H              1 S1                 0.0000
     13 ****        -3.9874   0.3446   0.4535 H              1 S1                 0.0000
     14 ****        -3.9410   0.3360  -1.3088 H              1 S1                 0.0000
     15 ****        -1.4891   3.0602  -0.5377 H              1 S1                 0.0000
     16 ****         1.2538   3.2449  -0.5128 H              1 S1                 0.0000
     17 ****         1.9708   1.8070  -1.2372 H              1 S1                 0.0000
     18 ****         1.9178   1.9812   0.5199 H              1 S1                 0.0000
     19 ****         1.5646  -0.7438  -1.0381 H              1 S1                 0.0000
     20 ****        -0.2786  -2.5470   0.6620 H              1 S1                 0.0000
     21 ****         0.6165  -2.9683  -0.8547 H              1 S1                 0.0000
     22 ****         1.7528  -3.0230   1.6569 H              1 S1                 0.0000
     23 ****         2.7086  -0.4985   1.0954 H              1 S1                 0.0000
     24 ****         1.1805  -0.7982   2.0205 H              1 S1                 0.0000
     25 ****         2.6266  -2.6595   0.2556 H              1 S1                 0.0000
     26 ****        -1.7818  -1.1750  -0.2169 LP             1 S1                 0.0000
@<TRIPOS>BOND
    1    1    2 1     
    2    1   12 1     
    3    1   13 1     
    4    1   14 1     
    5    2   11 2     
    6    2    3 1     
    7    3    4 2     
    8    3   15 1     
    9    4    5 1     
   10    4    6 1     
   11    5   16 1     
   12    5   17 1     
   13    5   18 1     
   14    6    7 1     
   15    6   11 1     
   16    7   10 1     
   17    7    8 1     
   18    7   19 1     
   19    8    9 1     
   20    8   20 1     
   21    8   21 1     
   22    9   10 1     
   23    9   22 1     
   24    9   25 1     
   25   10   23 1     
   26   10   24 1     
   27   11   26 1     
@<TRIPOS>SUBSTRUCTURE
      1 S1             1
@<TRIPOS>SET
LONE_PAIRS      STATIC     ATOMS    <user>   **** ""
1 26
DONOR_HYDROGENS      STATIC     ATOMS    <user>   **** ""
2 22 25
ATOM$BLUE        STATIC     ATOMS    COLORGROUP SYSTEM
1 26
ATOM$RED        STATIC     ATOMS    COLORGROUP SYSTEM
2 22 25
