#       Name:                AV-unprocessed.smi:1434
#       Creating user name   scv26
#       Creation time:       Fri Mar 27 05:52:53 2020


#       File generated by GOLD software.
#

@<TRIPOS>MOLECULE
AV-unprocessed.smi:1434
    47    48     1
SMALL
NO_CHARGES


@<TRIPOS>ATOM
      1 ****        -3.5178   3.6734   3.3341 C.3            1 S1                 0.0000
      2 ****        -4.8115   3.1956   2.1110 S.o2           1 S1                 0.0000
      3 ****        -5.3982   1.9371   2.6019 O.2            1 S1                 0.0000
      4 ****        -5.7087   4.3583   2.0339 O.2            1 S1                 0.0000
      5 ****        -3.9449   3.0343   0.7434 N.pl3          1 S1                -1.0000
      6 ****        -3.1390   1.8470   0.4856 C.3            1 S1                 0.0000
      7 ****        -3.9785   0.7660  -0.2442 C.3            1 S1                 0.0000
      8 ****        -3.1283  -0.4160  -0.7810 C.3            1 S1                 0.0000
      9 ****        -1.9148   0.0557  -1.6150 C.3            1 S1                 0.0000
     10 ****        -1.1432   1.0062  -0.7808 N.am           1 S1                 0.0000
     11 ****         0.1241   0.8135  -0.3251 C.2            1 S1                 0.0000
     12 ****         0.7047   1.6042   0.4198 O.2            1 S1                 0.0000
     13 ****         0.7164  -0.3116  -0.7578 N.am           1 S1                 0.0000
     14 ****         2.0668  -0.7267  -0.4049 C.3            1 S1                 0.0000
     15 ****         2.4875  -1.9522  -1.2275 C.3            1 S1                 0.0000
     16 ****         3.8841  -2.4274  -0.8763 C.ar           1 S1                 0.0000
     17 ****         5.0175  -2.0482  -1.6281 C.ar           1 S1                 0.0000
     18 ****         6.2899  -2.5179  -1.2405 C.ar           1 S1                 0.0000
     19 ****         6.4023  -3.3561  -0.1119 C.ar           1 S1                 0.0000
     20 ****         5.2379  -3.7014   0.6036 C.ar           1 S1                 0.0000
     21 ****         4.0368  -3.2295   0.2026 N.pl3          1 S1                 1.0000
     22 ****        -1.9276   2.2100  -0.4163 C.3            1 S1                 0.0000
     23 ****        -3.9935   3.8978   4.2881 H              1 S1                 0.0000
     24 ****        -2.9898   4.5573   2.9773 H              1 S1                 0.0000
     25 ****        -2.8110   2.8557   3.4707 H              1 S1                 0.0000
     26 ****        -2.7467   1.4172   1.4081 H              1 S1                 0.0000
     27 ****        -4.7587   0.3852   0.4155 H              1 S1                 0.0000
     28 ****        -4.4951   1.2240  -1.0894 H              1 S1                 0.0000
     29 ****        -2.7771  -1.0289   0.0516 H              1 S1                 0.0000
     30 ****        -3.7574  -1.0687  -1.3869 H              1 S1                 0.0000
     31 ****        -1.3537  -0.8099  -1.9659 H              1 S1                 0.0000
     32 ****        -2.2566   0.5707  -2.5140 H              1 S1                 0.0000
     33 ****         0.1896  -0.9183  -1.3690 H              1 S1                 0.0000
     34 ****         2.7618   0.0959  -0.5831 H              1 S1                 0.0000
     35 ****         2.1008  -0.9546   0.6615 H              1 S1                 0.0000
     36 ****         1.7844  -2.7710  -1.0665 H              1 S1                 0.0000
     37 ****         2.4486  -1.7183  -2.2924 H              1 S1                 0.0000
     38 ****         4.9161  -1.4031  -2.4888 H              1 S1                 0.0000
     39 ****         7.1694  -2.2376  -1.8018 H              1 S1                 0.0000
     40 ****         7.3677  -3.7269   0.2009 H              1 S1                 0.0000
     41 ****         5.2311  -4.3351   1.4786 H              1 S1                 0.0000
     42 ****        -2.2763   2.6805  -1.3372 H              1 S1                 0.0000
     43 ****        -1.3179   2.9667   0.0801 H              1 S1                 0.0000
     44 ****         3.2080  -3.4911   0.7371 H              1 S1                 0.0000
     45 ****        -3.9655   3.7671   0.0633 LP             1 S1                 0.0000
     46 ****         0.2432   2.4389   0.7202 LP             1 S1                 0.0000
     47 ****         1.6376   1.4114   0.7241 LP             1 S1                 0.0000
@<TRIPOS>BOND
    1    1    2 1     
    2    1   23 1     
    3    1   24 1     
    4    1   25 1     
    5    2    3 2     
    6    2    4 2     
    7    2    5 1     
    8    5    6 1     
    9    6   22 1     
   10    6    7 1     
   11    6   26 1     
   12    7    8 1     
   13    7   27 1     
   14    7   28 1     
   15    8    9 1     
   16    8   29 1     
   17    8   30 1     
   18    9   10 1     
   19    9   31 1     
   20    9   32 1     
   21   10   11 am    
   22   10   22 1     
   23   11   12 2     
   24   11   13 am    
   25   13   14 1     
   26   13   33 1     
   27   14   15 1     
   28   14   34 1     
   29   14   35 1     
   30   15   16 1     
   31   15   36 1     
   32   15   37 1     
   33   16   21 ar    
   34   16   17 ar    
   35   17   18 ar    
   36   17   38 1     
   37   18   19 ar    
   38   18   39 1     
   39   19   20 ar    
   40   19   40 1     
   41   20   21 ar    
   42   20   41 1     
   43   21   44 1     
   44   22   42 1     
   45   22   43 1     
   46    5   45 1     
   47   12   46 1     
   48   12   47 1     
@<TRIPOS>SUBSTRUCTURE
      1 S1             1
@<TRIPOS>SET
LONE_PAIRS      STATIC     ATOMS    <user>   **** ""
5 3 4 45 46 47
DONOR_HYDROGENS      STATIC     ATOMS    <user>   **** ""
2 33 44
ATOM$BLUE        STATIC     ATOMS    COLORGROUP SYSTEM
5 3 4 45 46 47
ATOM$RED        STATIC     ATOMS    COLORGROUP SYSTEM
2 33 44
