AV-unprocessed.smi:3076|AV-procd|sdf|11727|dock3
  -GOLD-   2272017123D 1   1.00000     0.00000
 Structure written by MMmdl.
 20 20  0  0  0  0  0  0  0  0  1 V2000
  149.7375  145.2029  159.3156 N   0  0  0  0  0  0  0  0  0  0  0  0
  150.9975  145.3447  158.5699 C   0  0  0  0  0  0  0  0  0  0  0  0
  151.6365  143.9912  158.2139 C   0  0  2  0  0  0  0  0  0  0  0  0
  150.6525  143.1805  157.6024 O   0  0  0  0  0  0  0  0  0  0  0  0
  152.2111  143.3202  159.4513 C   0  0  0  0  0  0  0  0  0  0  0  0
  152.0516  143.8858  160.7353 C   0  0  0  0  0  0  0  0  0  0  0  0
  152.6159  143.2271  161.8445 C   0  0  0  0  0  0  0  0  0  0  0  0
  153.3205  142.0272  161.6246 C   0  0  0  0  0  0  0  0  0  0  0  0
  153.4831  141.4768  160.4024 N   0  0  0  0  0  0  0  0  0  0  0  0
  152.9389  142.1151  159.3439 C   0  0  0  0  0  0  0  0  0  0  0  0
  149.7012  145.8715  160.0837 H   0  0  0  0  0  0  0  0  0  0  0  0
  148.9414  145.3982  158.7105 H   0  0  0  0  0  0  0  0  0  0  0  0
  150.7865  145.8833  157.6455 H   0  0  0  0  0  0  0  0  0  0  0  0
  151.7025  145.9641  159.1256 H   0  0  0  0  0  0  0  0  0  0  0  0
  152.4427  144.1430  157.4945 H   0  0  0  0  0  0  0  0  0  0  0  0
  150.1259  143.7233  157.0359 H   0  0  0  0  0  0  0  0  0  0  0  0
  151.5088  144.8101  160.8698 H   0  0  0  0  0  0  0  0  0  0  0  0
  152.5128  143.6329  162.8399 H   0  0  0  0  0  0  0  0  0  0  0  0
  153.7672  141.4964  162.4523 H   0  0  0  0  0  0  0  0  0  0  0  0
  153.0926  141.6483  158.3820 H   0  0  0  0  0  0  0  0  0  0  0  0
  1  2  1  0  0  0  0
  1 11  1  0  0  0  0
  1 12  1  0  0  0  0
  2  3  1  0  0  0  0
  2 13  1  0  0  0  0
  2 14  1  0  0  0  0
  3  4  1  0  0  0  0
  3  5  1  0  0  0  0
  3 15  1  0  0  0  0
  4 16  1  0  0  0  0
  5 10  1  0  0  0  0
  5  6  2  0  0  0  0
  6  7  1  0  0  0  0
  6 17  1  0  0  0  0
  7  8  2  0  0  0  0
  7 18  1  0  0  0  0
  8  9  1  0  0  0  0
  8 19  1  0  0  0  0
  9 10  2  0  0  0  0
 10 20  1  0  0  0  0
M  END
> <s_m_source_file>
AV-unprocessed.smi

> <i_m_source_file_index>
3076

> <i_lp_mmshare_version>
43012

> <i_f3d_flags>
0

> <s_epik_input>
W05IMl1bQ0gyXVtDQEhdKFtPSF0pYzFbY0hdW2NIXVtjSF1uW2NIXTE=

> <s_epik_cmdline>
J2VwaWtfcHl0aG9uJywgJy1waCcsICc3LjAnLCAnLXRuJywgJzgnLCAnLW1hJywgJzIwMCcsICctbWV0YWxfYmluZGluZycsICctaW1hZScsICc8aW5maWxlLm1hZT4nLCAnLW9tYWUnLCAnPG91dGZpbGUubWFlPic=

> <r_epik_Ionization_Penalty>
2.22627

> <r_epik_Ionization_Penalty_Charging>
0

> <r_epik_Ionization_Penalty_Neutral>
2.22627

> <r_epik_State_Penalty>
2.36938

> <r_epik_Charging_Adjusted_Penalty>
2.36938

> <i_epik_Tot_Q>
0

> <i_epik_Tot_abs_Q>
0

> <r_epik_Metal_State_Penalty>
2.36785

> <b_epik_Metal_Only>
0

> <s_lp_Force_Field>
OPLS_2005

> <r_lp_Energy>
11.5599

> <b_lp_Chiralities_Consistent>
1

> <s_lp_Variant>
AV-unprocessed.smi:3076-3

> <Gold.Version>
5.8.1

> <Gold.Id.Protein>
6NUR|6NUR_protein|mol2

> <Gold.PLP.Fitness>
34.5120

> <Gold.PLP.PLP>
-29.0594

> <Gold.PLP.part.hbond>
-2.2032

> <Gold.PLP.part.metal>
0.0000

> <Gold.PLP.part.buried>
-3.4052

> <Gold.PLP.part.nonpolar>
-23.1471

> <Gold.PLP.part.repulsive>
0.0000

> <Gold.PLP.ligand.clash>
0.0000

> <Gold.PLP.ligand.torsion>
0.0913

> <Gold.PLP.Chemscore.Hbond>
1.8775

> <Gold.PLP.Chemscore.CHOScore>
0.0000

> <Gold.PLP.Chemscore.Metal>
0.0000

> <Gold.Chemscore.Hbonds>
donor molecule, donor type, donor heavy atom, donor atom, acceptor molecule, acceptor atom, score
      L1  H     1    12       P1  8029  1.00
      L1  H     4    16       P1  8028  0.84

> <Gold.PLP.Chemscore.Internal.Correction>
0.0028

> <Gold.Rescore>
     Score         DG    S(hbond)    S(metal)    S(lipo)     H(rot)  DE(clash)    DE(int)     intcor
     16.48     -16.58       1.94        0.00      79.74       1.85       0.00       0.09       ----

> <Gold.Chemscore.Fitness>
16.4841

> <Gold.Chemscore.DG>
-16.5777

> <Gold.Chemscore.ZeroCoef>
-5.4800

> <Gold.Chemscore.Hbond>
1.9440

> <Gold.Chemscore.Metal>
0.0000

> <Gold.Chemscore.Lipo>
79.7376

> <Gold.Chemscore.Internal_Hbond>
0.0000

> <Gold.Chemscore.DEClash>
0.0000

> <Gold.Chemscore.DEInternal>
0.0936

> <Gold.Chemscore.Rot>
1.8455

> <Gold.Chemscore.Internal.Correction>
   9.000000E+99

> <Gold.Chemscore.Hbonds>
donor molecule, donor type, donor heavy atom, donor atom, acceptor molecule, acceptor atom, score
      L1  H     1    12       P1  8029  0.99
      L1  H     4    16       P1  8028  0.83

> <Gold.Chemscore.Hbond.Weighted>
-6.4929

> <Gold.Chemscore.Metal.Weighted>
-0.0000

> <Gold.Chemscore.Lipo.Weighted>
-9.3293

> <Gold.Chemscore.Internal_Hbond.Weighted>
0.0000

> <Gold.Chemscore.DEClash.Weighted>
0.0000

> <Gold.Chemscore.DEInternal.Weighted>
0.0936

> <Gold.Chemscore.Rot.Weighted>
4.7245

> <Gold.Chemscore.Internal.Correction.Weighted>
   9.000000E+99

> <Gold.Protein.RotatedTorsions>
[ 6907 6896 6895 6894 ] final -122.84 input  -60.11 | X-H torsion
[ 7974 7965 7964 7962 ] final -171.59 input  175.53 | X-H torsion
[ 8008 7997 7996 7995 ] final   52.50 input   59.86 | X-H torsion
[ 10167 10162 10161 10158 ] final   36.60 input  -65.29 | X-H torsion
[ 10718 10713 10712 10709 ] final -124.80 input   66.30 | X-H torsion
[ 10763 10752 10751 10750 ] final -109.39 input  -60.55 | X-H torsion
[ 11005 11000 10999 10996 ] final   -5.38 input  -57.11 | X-H torsion

> <Gold.Protein.ActiveResidues>
 VAL166  LYS551  ARG553  GLY616  TRP617  ASP618  TYR619  PRO620  LYS621  CYS622 
 ASP623  PHE694  ASN695  SER759  ASP760  ASP761  ALA762  ILE779  LEU786  VAL792 
 PHE793  MET794  SER795  GLU796  ALA797  LYS798  CYS799  TRP800  GLU811  SER814 

> <Gold.Protein.RotatedAtoms>
  150.8614  133.7638  159.2990 H   0  0  0  0  0  0  0  0  0  0  0  0  # atno 6907 bound_to 6896
  151.5279  135.1066  159.9905 H   0  0  0  0  0  0  0  0  0  0  0  0  # atno 6908 bound_to 6896
  152.4629  133.7816  159.6909 H   0  0  0  0  0  0  0  0  0  0  0  0  # atno 6909 bound_to 6896
  144.7155  140.1899  143.6349 H   0  0  0  0  0  0  0  0  0  0  0  0  # atno 7974 bound_to 7965
  155.4529  140.3459  155.4303 H   0  0  0  0  0  0  0  0  0  0  0  0  # atno 8008 bound_to 7997
  156.1209  140.1487  156.9235 H   0  0  0  0  0  0  0  0  0  0  0  0  # atno 8009 bound_to 7997
  154.4823  140.0866  156.7384 H   0  0  0  0  0  0  0  0  0  0  0  0  # atno 8010 bound_to 7997
  140.4112  144.1590  150.6139 H   0  0  0  0  0  0  0  0  0  0  0  0  # atno 10167 bound_to 10162
  156.1619  130.6607  151.0061 H   0  0  0  0  0  0  0  0  0  0  0  0  # atno 10718 bound_to 10713
  154.8190  135.4603  154.0725 H   0  0  0  0  0  0  0  0  0  0  0  0  # atno 10763 bound_to 10752
  153.2094  135.6880  153.8139 H   0  0  0  0  0  0  0  0  0  0  0  0  # atno 10764 bound_to 10752
  153.7595  135.3286  155.3311 H   0  0  0  0  0  0  0  0  0  0  0  0  # atno 10765 bound_to 10752
  140.6905  133.9075  155.8615 H   0  0  0  0  0  0  0  0  0  0  0  0  # atno 11005 bound_to 11000
  145.8778  139.2306  143.1623 LP  0  0  0  0  0  0  0  0  0  0  0  0  # atno 17320 bound_to 7965
  146.0024  140.8508  143.0012 LP  0  0  0  0  0  0  0  0  0  0  0  0  # atno 17321 bound_to 7965
  140.4635  143.2439  151.9187 LP  0  0  0  0  0  0  0  0  0  0  0  0  # atno 17342 bound_to 10162
  139.4782  144.5443  151.8482 LP  0  0  0  0  0  0  0  0  0  0  0  0  # atno 17343 bound_to 10162
  157.6739  131.0855  150.7544 LP  0  0  0  0  0  0  0  0  0  0  0  0  # atno 17370 bound_to 10713
  156.7607  130.4797  149.5437 LP  0  0  0  0  0  0  0  0  0  0  0  0  # atno 17371 bound_to 10713
  141.0245  134.0843  157.4084 LP  0  0  0  0  0  0  0  0  0  0  0  0  # atno 17394 bound_to 11000
  139.8925  135.0125  156.6848 LP  0  0  0  0  0  0  0  0  0  0  0  0  # atno 17395 bound_to 11000

$$$$
