AV-unprocessed.smi:1131|AV-procd|sdf|4850|dock4
  -GOLD-   22720 3423D 1   1.00000     0.00000
 Structure written by MMmdl.
 33 34  0  0  0  0  0  0  0  0  1 V2000
  150.0904  140.4747  157.8710 O   0  0  0  0  0  0  0  0  0  0  0  0
  150.8572  141.1211  157.1558 C   0  0  0  0  0  0  0  0  0  0  0  0
  151.2515  140.6124  155.7615 C   0  0  0  0  0  0  0  0  0  0  0  0
  150.0933  140.3299  154.9010 N   0  0  0  0  0  0  0  0  0  0  0  0
  149.1275  141.3029  154.6852 C   0  0  0  0  0  0  0  0  0  0  0  0
  148.0303  141.1070  153.9159 C   0  0  0  0  0  0  0  0  0  0  0  0
  147.8078  139.8229  153.2602 C   0  0  0  0  0  0  0  0  0  0  0  0
  146.8471  139.5492  152.5441 O   0  0  0  0  0  0  0  0  0  0  0  0
  148.7996  138.8691  153.5040 N   0  0  0  0  0  0  0  0  0  0  0  0
  149.9320  139.0640  154.2963 C   0  0  0  0  0  0  0  0  0  0  0  0
  150.7443  138.1525  154.4487 O   0  0  0  0  0  0  0  0  0  0  0  0
  151.3783  142.3022  157.5204 N   0  0  0  0  0  0  0  0  0  0  0  0
  151.1282  142.9730  158.7918 C   0  0  0  0  0  0  0  0  0  0  0  0
  152.3572  142.9338  159.7201 C   0  0  2  0  0  0  0  0  0  0  0  0
  152.8622  141.5428  160.0494 C   0  0  0  0  0  0  0  0  0  0  0  0
  153.6980  141.8013  161.2988 C   0  0  0  0  0  0  0  0  0  0  0  0
  153.0717  142.8931  161.9664 O   0  0  0  0  0  0  0  0  0  0  0  0
  152.0958  143.4922  161.1185 C   0  0  0  0  0  0  0  0  0  0  0  0
  148.6863  137.9630  153.0732 H   0  0  0  0  0  0  0  0  0  0  0  0
  151.8938  141.3619  155.2961 H   0  0  0  0  0  0  0  0  0  0  0  0
  151.8742  139.7205  155.8582 H   0  0  0  0  0  0  0  0  0  0  0  0
  149.2487  142.2686  155.1551 H   0  0  0  0  0  0  0  0  0  0  0  0
  147.3126  141.9043  153.7863 H   0  0  0  0  0  0  0  0  0  0  0  0
  151.9954  142.7692  156.8719 H   0  0  0  0  0  0  0  0  0  0  0  0
  150.8222  144.0053  158.6127 H   0  0  0  0  0  0  0  0  0  0  0  0
  150.2810  142.4808  159.2702 H   0  0  0  0  0  0  0  0  0  0  0  0
  153.1741  143.5026  159.2726 H   0  0  0  0  0  0  0  0  0  0  0  0
  152.0284  140.8807  160.2871 H   0  0  0  0  0  0  0  0  0  0  0  0
  153.4388  141.0913  159.2417 H   0  0  0  0  0  0  0  0  0  0  0  0
  153.7661  140.9250  161.9436 H   0  0  0  0  0  0  0  0  0  0  0  0
  154.7105  142.0987  161.0235 H   0  0  0  0  0  0  0  0  0  0  0  0
  152.1556  144.5802  161.1506 H   0  0  0  0  0  0  0  0  0  0  0  0
  151.1075  143.1987  161.4748 H   0  0  0  0  0  0  0  0  0  0  0  0
  1  2  2  0  0  0  0
  2  3  1  0  0  0  0
  2 12  1  0  0  0  0
  3  4  1  0  0  0  0
  3 20  1  0  0  0  0
  3 21  1  0  0  0  0
  4 10  1  0  0  0  0
  4  5  1  0  0  0  0
  5  6  2  0  0  0  0
  5 22  1  0  0  0  0
  6  7  1  0  0  0  0
  6 23  1  0  0  0  0
  7  8  2  0  0  0  0
  7  9  1  0  0  0  0
  9 19  1  0  0  0  0
  9 10  1  0  0  0  0
 10 11  2  0  0  0  0
 12 13  1  0  0  0  0
 12 24  1  0  0  0  0
 13 14  1  0  0  0  0
 13 25  1  0  0  0  0
 13 26  1  0  0  0  0
 14 18  1  0  0  0  0
 14 15  1  0  0  0  0
 14 27  1  0  0  0  0
 15 16  1  0  0  0  0
 15 28  1  0  0  0  0
 15 29  1  0  0  0  0
 16 17  1  0  0  0  0
 16 30  1  0  0  0  0
 16 31  1  0  0  0  0
 17 18  1  0  0  0  0
 18 32  1  0  0  0  0
 18 33  1  0  0  0  0
M  END
> <s_m_source_file>
AV-unprocessed.smi

> <i_m_source_file_index>
1131

> <i_lp_mmshare_version>
43012

> <i_f3d_flags>
0

> <s_epik_input>
W0NIMl0xT1tDSDJdW0NIMl1bQ0BIXTFbQ0gyXVtOSF1DKD1PKVtDSDJdbjJbY0hdW2NIXWMoPU8pW25IXWMyPU8=

> <s_epik_cmdline>
J2VwaWtfcHl0aG9uJywgJy1waCcsICc3LjAnLCAnLXRuJywgJzgnLCAnLW1hJywgJzIwMCcsICctbWV0YWxfYmluZGluZycsICctaW1hZScsICc8aW5maWxlLm1hZT4nLCAnLW9tYWUnLCAnPG91dGZpbGUubWFlPic=

> <r_lp_tautomer_probability>
0.999537

> <r_epik_Ionization_Penalty>
0.00329016

> <r_epik_Ionization_Penalty_Charging>
0.00329014

> <r_epik_Ionization_Penalty_Neutral>
1.87063e-08

> <r_epik_State_Penalty>
0.00232461

> <r_epik_Charging_Adjusted_Penalty>
0.00561475

> <i_epik_Tot_Q>
0

> <i_epik_Tot_abs_Q>
0

> <r_epik_Metal_State_Penalty>
0.365289

> <b_epik_Metal_Only>
0

> <s_lp_Force_Field>
OPLS_2005

> <r_lp_Energy>
17.5195

> <b_lp_Chiralities_Consistent>
1

> <s_lp_Variant>
AV-unprocessed.smi:1131-1

> <Gold.Version>
5.8.1

> <Gold.Id.Protein>
6NUR|6NUR_protein|mol2

> <Gold.PLP.Fitness>
42.0472

> <Gold.PLP.PLP>
-36.8106

> <Gold.PLP.part.hbond>
-1.8437

> <Gold.PLP.part.metal>
0.0000

> <Gold.PLP.part.buried>
-0.8718

> <Gold.PLP.part.nonpolar>
-34.4112

> <Gold.PLP.part.repulsive>
0.8698

> <Gold.PLP.ligand.clash>
0.0000

> <Gold.PLP.ligand.torsion>
0.1296

> <Gold.PLP.Chemscore.Hbond>
0.8288

> <Gold.PLP.Chemscore.CHOScore>
1.0000

> <Gold.PLP.Chemscore.Metal>
0.0000

> <Gold.Chemscore.Hbonds>
donor molecule, donor type, donor heavy atom, donor atom, acceptor molecule, acceptor atom, score
      L1  H     9    19       P1  7948  0.80
      L1  C     5    22       P1  8028  1.00

> <Gold.PLP.Chemscore.Internal.Correction>
0.0096

> <Gold.Rescore>
     Score         DG    S(hbond)    S(metal)    S(lipo)     H(rot)  DE(clash)    DE(int)     intcor
     11.56     -11.97       0.93        0.00      74.83       2.09       0.20       0.21       ----

> <Gold.Chemscore.Fitness>
11.5608

> <Gold.Chemscore.DG>
-11.9733

> <Gold.Chemscore.ZeroCoef>
-5.4800

> <Gold.Chemscore.Hbond>
0.9261

> <Gold.Chemscore.Metal>
0.0000

> <Gold.Chemscore.Lipo>
74.8315

> <Gold.Chemscore.Internal_Hbond>
0.0000

> <Gold.Chemscore.DEClash>
0.1998

> <Gold.Chemscore.DEInternal>
0.2127

> <Gold.Chemscore.Rot>
2.0919

> <Gold.Chemscore.Internal.Correction>
   9.000000E+99

> <Gold.Chemscore.Hbonds>
donor molecule, donor type, donor heavy atom, donor atom, acceptor molecule, acceptor atom, score
      L1  H     9    19       P1  7948  0.78

> <Gold.Chemscore.Hbond.Weighted>
-3.0933

> <Gold.Chemscore.Metal.Weighted>
-0.0000

> <Gold.Chemscore.Lipo.Weighted>
-8.7553

> <Gold.Chemscore.Internal_Hbond.Weighted>
0.0000

> <Gold.Chemscore.DEClash.Weighted>
0.1998

> <Gold.Chemscore.DEInternal.Weighted>
0.2127

> <Gold.Chemscore.Rot.Weighted>
5.3552

> <Gold.Chemscore.Internal.Correction.Weighted>
   9.000000E+99

> <Gold.Protein.RotatedTorsions>
[ 6907 6896 6895 6894 ] final   66.45 input  -60.11 | X-H torsion
[ 7974 7965 7964 7962 ] final    5.04 input  175.53 | X-H torsion
[ 8008 7997 7996 7995 ] final  -83.76 input   59.86 | X-H torsion
[ 10167 10162 10161 10158 ] final -140.82 input  -65.29 | X-H torsion
[ 10718 10713 10712 10709 ] final   56.77 input   66.30 | X-H torsion
[ 10763 10752 10751 10750 ] final -140.98 input  -60.55 | X-H torsion
[ 11005 11000 10999 10996 ] final  141.64 input  -57.11 | X-H torsion

> <Gold.Protein.ActiveResidues>
 VAL166  LYS551  ARG553  GLY616  TRP617  ASP618  TYR619  PRO620  LYS621  CYS622 
 ASP623  PHE694  ASN695  SER759  ASP760  ASP761  ALA762  ILE779  LEU786  VAL792 
 PHE793  MET794  SER795  GLU796  ALA797  LYS798  CYS799  TRP800  GLU811  SER814 

> <Gold.Protein.RotatedAtoms>
  152.4481  134.5451  159.9850 H   0  0  0  0  0  0  0  0  0  0  0  0  # atno 6907 bound_to 6896
  151.5531  133.3409  159.2964 H   0  0  0  0  0  0  0  0  0  0  0  0  # atno 6908 bound_to 6896
  150.8403  134.7724  159.6990 H   0  0  0  0  0  0  0  0  0  0  0  0  # atno 6909 bound_to 6896
  146.2442  140.0443  142.8380 H   0  0  0  0  0  0  0  0  0  0  0  0  # atno 7974 bound_to 7965
  154.6226  140.0614  156.9633 H   0  0  0  0  0  0  0  0  0  0  0  0  # atno 8008 bound_to 7997
  155.1794  140.3298  155.4359 H   0  0  0  0  0  0  0  0  0  0  0  0  # atno 8009 bound_to 7997
  156.2439  140.1900  156.6891 H   0  0  0  0  0  0  0  0  0  0  0  0  # atno 8010 bound_to 7997
  139.8245  143.7530  152.2666 H   0  0  0  0  0  0  0  0  0  0  0  0  # atno 10167 bound_to 10162
  157.5458  130.8730  149.8890 H   0  0  0  0  0  0  0  0  0  0  0  0  # atno 10718 bound_to 10713
  154.8561  135.3537  154.5794 H   0  0  0  0  0  0  0  0  0  0  0  0  # atno 10763 bound_to 10752
  153.6406  135.6998  153.5248 H   0  0  0  0  0  0  0  0  0  0  0  0  # atno 10764 bound_to 10752
  153.2975  135.4216  155.1181 H   0  0  0  0  0  0  0  0  0  0  0  0  # atno 10765 bound_to 10752
  140.0416  134.9302  157.0854 H   0  0  0  0  0  0  0  0  0  0  0  0  # atno 11005 bound_to 11000
  145.1041  140.9364  143.4695 LP  0  0  0  0  0  0  0  0  0  0  0  0  # atno 17320 bound_to 7965
  145.0643  139.3081  143.5864 LP  0  0  0  0  0  0  0  0  0  0  0  0  # atno 17321 bound_to 7965
  139.7718  144.7474  151.0213 LP  0  0  0  0  0  0  0  0  0  0  0  0  # atno 17342 bound_to 10162
  140.7811  143.4637  151.0242 LP  0  0  0  0  0  0  0  0  0  0  0  0  # atno 17343 bound_to 10162
  156.0535  130.3713  150.1146 LP  0  0  0  0  0  0  0  0  0  0  0  0  # atno 17370 bound_to 10713
  156.9322  130.9717  151.3531 LP  0  0  0  0  0  0  0  0  0  0  0  0  # atno 17371 bound_to 10713
  140.4060  134.2032  155.7163 LP  0  0  0  0  0  0  0  0  0  0  0  0  # atno 17394 bound_to 11000
  141.1886  133.8257  157.0989 LP  0  0  0  0  0  0  0  0  0  0  0  0  # atno 17395 bound_to 11000

$$$$
