#       Name:                AV-unprocessed.smi:56
#       Creating user name   scv26
#       Creation time:       Thu Mar 26 16:48:06 2020


#       File generated by GOLD software.
#

@<TRIPOS>MOLECULE
AV-unprocessed.smi:56
    26    27     1
SMALL
NO_CHARGES


@<TRIPOS>ATOM
      1 ****        -1.9053   0.2065   0.2639 O.3            1 S1                 0.0000
      2 ****        -0.4981   0.1077   0.1124 C.3            1 S1                 0.0000
      3 ****        -0.0659  -1.3423   0.0590 C.2            1 S1                 0.0000
      4 ****         0.6855  -2.0222  -0.9488 C.2            1 S1                 0.0000
      5 ****         0.7816  -3.3057  -0.4925 C.2            1 S1                 0.0000
      6 ****         0.1170  -3.3441   0.7089 N.pl3          1 S1                 0.0000
      7 ****        -0.4053  -2.1534   1.0546 N.2            1 S1                 0.0000
      8 ****         0.1801   0.9087   1.2290 C.3            1 S1                 0.0000
      9 ****         0.1171   2.3687   0.7554 C.3            1 S1                 0.0000
     10 ****        -0.1254   2.3311  -0.7018 N.4            1 S1                 1.0000
     11 ****        -0.1025   0.9203  -1.1292 C.3            1 S1                 0.0000
     12 ****         0.0112  -4.1615   1.2934 H              1 S1                 0.0000
     13 ****        -2.1432   1.1162   0.3503 H              1 S1                 0.0000
     14 ****         1.0922  -1.6328  -1.8702 H              1 S1                 0.0000
     15 ****         1.2572  -4.1786  -0.9152 H              1 S1                 0.0000
     16 ****        -0.2670   0.7505   2.2114 H              1 S1                 0.0000
     17 ****         1.2285   0.6138   1.3005 H              1 S1                 0.0000
     18 ****        -0.7074   2.8981   1.2338 H              1 S1                 0.0000
     19 ****         1.0388   2.9047   0.9836 H              1 S1                 0.0000
     20 ****        -1.0441   2.7100  -0.8815 H              1 S1                 0.0000
     21 ****         0.9261   0.7008  -1.4183 H              1 S1                 0.0000
     22 ****        -0.7391   0.7354  -1.9955 H              1 S1                 0.0000
     23 ****         0.5679   2.8687  -1.2029 H              1 S1                 0.0000
     24 ****        -2.1901  -0.2934   1.0818 LP             1 S1                 0.0000
     25 ****        -2.3568  -0.1831  -0.5389 LP             1 S1                 0.0000
     26 ****        -0.9304  -1.9296   1.8756 LP             1 S1                 0.0000
@<TRIPOS>BOND
    1    1    2 1     
    2    1   13 1     
    3    2   11 1     
    4    2    8 1     
    5    2    3 1     
    6    3    7 2     
    7    3    4 1     
    8    4    5 2     
    9    4   14 1     
   10    5    6 1     
   11    5   15 1     
   12    6    7 1     
   13    6   12 1     
   14    8    9 1     
   15    8   16 1     
   16    8   17 1     
   17    9   10 1     
   18    9   18 1     
   19    9   19 1     
   20   10   11 1     
   21   10   20 1     
   22   10   23 1     
   23   11   21 1     
   24   11   22 1     
   25    1   24 1     
   26    1   25 1     
   27    7   26 1     
@<TRIPOS>SUBSTRUCTURE
      1 S1             1
@<TRIPOS>SET
LONE_PAIRS      STATIC     ATOMS    <user>   **** ""
3 24 25 26
DONOR_HYDROGENS      STATIC     ATOMS    <user>   **** ""
4 13 12 20 23
ATOM$BLUE        STATIC     ATOMS    COLORGROUP SYSTEM
3 24 25 26
ATOM$RED        STATIC     ATOMS    COLORGROUP SYSTEM
4 13 12 20 23
