#       Name:                AV-unprocessed.smi:569
#       Creating user name   scv26
#       Creation time:       Thu Mar 26 23:46:21 2020


#       File generated by GOLD software.
#

@<TRIPOS>MOLECULE
AV-unprocessed.smi:569
    40    41     1
SMALL
NO_CHARGES


@<TRIPOS>ATOM
      1 ****        -4.0185   3.7000  -0.0379 C.3            1 S1                 0.0000
      2 ****        -3.6302   2.6558   0.9518 C.2            1 S1                 0.0000
      3 ****        -3.4678   1.3687   0.6363 N.2            1 S1                 0.0000
      4 ****        -3.1004   0.5854   1.7361 C.2            1 S1                 0.0000
      5 ****        -2.8628  -0.8878   1.5625 C.3            1 S1                 0.0000
      6 ****        -1.3636  -1.1845   1.4802 C.2            1 S1                 0.0000
      7 ****        -0.8277  -1.8877   2.3365 O.2            1 S1                 0.0000
      8 ****        -0.7016  -0.6481   0.4425 N.am           1 S1                 0.0000
      9 ****         0.7303  -0.7738   0.1931 C.3            1 S1                 0.0000
     10 ****         1.2253   0.4589  -0.5843 C.3            1 S1                 0.0000
     11 ****         2.7200   0.3462  -0.9240 C.3            1 S1                 0.0000
     12 ****         3.0271  -0.9436  -1.7087 C.3            1 S1                 0.0000
     13 ****         4.5216  -1.0548  -2.0421 C.3            1 S1                 0.0000
     14 ****         2.5297  -2.1770  -0.9301 C.3            1 S1                 0.0000
     15 ****         1.0350  -2.0678  -0.5868 C.3            1 S1                 0.0000
     16 ****        -2.9964   1.3059   2.9005 C.2            1 S1                 0.0000
     17 ****        -3.3449   2.9949   2.6544 S.3            1 S1                 0.0000
     18 ****        -3.4866   3.5468  -0.9772 H              1 S1                 0.0000
     19 ****        -3.7740   4.6916   0.3430 H              1 S1                 0.0000
     20 ****        -5.0907   3.6518  -0.2283 H              1 S1                 0.0000
     21 ****        -3.2966  -1.4430   2.3951 H              1 S1                 0.0000
     22 ****        -3.3473  -1.2597   0.6588 H              1 S1                 0.0000
     23 ****        -1.2291  -0.0882  -0.2119 H              1 S1                 0.0000
     24 ****         1.2584  -0.8047   1.1482 H              1 S1                 0.0000
     25 ****         0.6529   0.5705  -1.5064 H              1 S1                 0.0000
     26 ****         1.0496   1.3635  -0.0007 H              1 S1                 0.0000
     27 ****         3.0284   1.2176  -1.5025 H              1 S1                 0.0000
     28 ****         3.3034   0.3658  -0.0023 H              1 S1                 0.0000
     29 ****         2.4826  -0.9001  -2.6533 H              1 S1                 0.0000
     30 ****         5.1278  -1.0965  -1.1366 H              1 S1                 0.0000
     31 ****         4.8578  -0.1994  -2.6290 H              1 S1                 0.0000
     32 ****         4.7287  -1.9539  -2.6231 H              1 S1                 0.0000
     33 ****         2.7037  -3.0815  -1.5138 H              1 S1                 0.0000
     34 ****         3.1047  -2.2888  -0.0098 H              1 S1                 0.0000
     35 ****         0.7303  -2.9386  -0.0052 H              1 S1                 0.0000
     36 ****         0.4497  -2.0916  -1.5072 H              1 S1                 0.0000
     37 ****        -2.7305   0.9462   3.8836 H              1 S1                 0.0000
     38 ****        -3.5949   1.0040  -0.2861 LP             1 S1                 0.0000
     39 ****        -1.3718  -2.2650   3.0858 LP             1 S1                 0.0000
     40 ****         0.1519  -2.0816   2.2828 LP             1 S1                 0.0000
@<TRIPOS>BOND
    1    1    2 1     
    2    1   18 1     
    3    1   19 1     
    4    1   20 1     
    5    2   17 1     
    6    2    3 2     
    7    3    4 1     
    8    4    5 1     
    9    4   16 2     
   10    5    6 1     
   11    5   21 1     
   12    5   22 1     
   13    6    7 2     
   14    6    8 am    
   15    8    9 1     
   16    8   23 1     
   17    9   15 1     
   18    9   10 1     
   19    9   24 1     
   20   10   11 1     
   21   10   25 1     
   22   10   26 1     
   23   11   12 1     
   24   11   27 1     
   25   11   28 1     
   26   12   13 1     
   27   12   14 1     
   28   12   29 1     
   29   13   30 1     
   30   13   31 1     
   31   13   32 1     
   32   14   15 1     
   33   14   33 1     
   34   14   34 1     
   35   15   35 1     
   36   15   36 1     
   37   16   17 1     
   38   16   37 1     
   39    3   38 1     
   40    7   39 1     
   41    7   40 1     
@<TRIPOS>SUBSTRUCTURE
      1 S1             1
@<TRIPOS>SET
LONE_PAIRS      STATIC     ATOMS    <user>   **** ""
3 38 39 40
DONOR_HYDROGENS      STATIC     ATOMS    <user>   **** ""
1 23
ATOM$BLUE        STATIC     ATOMS    COLORGROUP SYSTEM
3 38 39 40
ATOM$RED        STATIC     ATOMS    COLORGROUP SYSTEM
1 23
