AV-unprocessed.smi:1329|AV-procd|sdf|5483|dock10
  -GOLD-   22720 5 53D 1   1.00000     0.00000
 Structure written by MMmdl.
 42 43  0  0  0  0  0  0  0  0  1 V2000
  148.4446  140.9152  154.3291 C   0  0  0  0  0  0  0  0  0  0  0  0
  149.1338  139.6193  154.6620 C   0  0  0  0  0  0  0  0  0  0  0  0
  150.4234  139.6519  154.7436 N   0  0  0  0  0  0  0  0  0  0  0  0
  151.1530  138.5193  155.0439 N   0  0  0  0  0  0  0  0  0  0  0  0
  152.6027  138.7408  155.0945 C   0  0  0  0  0  0  0  0  0  0  0  0
  153.1622  138.5785  156.5254 C   0  0  2  0  0  0  0  0  0  0  0  0
  153.6130  137.2486  156.6881 O   0  0  0  0  0  0  0  0  0  0  0  0
  152.0933  138.8343  157.5980 C   0  0  0  0  0  0  0  0  0  0  0  0
  152.0346  140.2274  157.8553 O   0  0  0  0  0  0  0  0  0  0  0  0
  153.1180  140.6957  158.6415 C   0  0  0  0  0  0  0  0  0  0  0  0
  152.8313  142.0514  159.2608 C   0  0  0  0  0  0  0  0  0  0  0  0
  152.9452  142.2432  160.6550 C   0  0  0  0  0  0  0  0  0  0  0  0
  152.6611  143.5004  161.2229 C   0  0  0  0  0  0  0  0  0  0  0  0
  152.2549  144.5699  160.4018 C   0  0  0  0  0  0  0  0  0  0  0  0
  152.1306  144.3806  159.0118 C   0  0  0  0  0  0  0  0  0  0  0  0
  152.4154  143.1235  158.4433 C   0  0  0  0  0  0  0  0  0  0  0  0
  150.6158  137.2896  155.2887 C   0  0  0  0  0  0  0  0  0  0  0  0
  151.3058  136.3081  155.5687 O   0  0  0  0  0  0  0  0  0  0  0  0
  149.1546  137.2588  155.1912 C   0  0  0  0  0  0  0  0  0  0  0  0
  148.5501  135.9892  155.4367 C   0  0  0  0  0  0  0  0  0  0  0  0
  148.0655  134.9534  155.6165 N   0  0  0  0  0  0  0  0  0  0  0  0
  148.4265  138.3631  154.8897 C   0  0  0  0  0  0  0  0  0  0  0  0
  146.9080  138.3839  154.7781 C   0  0  0  0  0  0  0  0  0  0  0  0
  147.7032  141.1674  155.0875 H   0  0  0  0  0  0  0  0  0  0  0  0
  147.9353  140.8452  153.3678 H   0  0  0  0  0  0  0  0  0  0  0  0
  149.1483  141.7469  154.2692 H   0  0  0  0  0  0  0  0  0  0  0  0
  153.0824  138.0267  154.4225 H   0  0  0  0  0  0  0  0  0  0  0  0
  152.8668  139.7188  154.6867 H   0  0  0  0  0  0  0  0  0  0  0  0
  154.0018  139.2521  156.7009 H   0  0  0  0  0  0  0  0  0  0  0  0
  154.3783  137.1247  156.1477 H   0  0  0  0  0  0  0  0  0  0  0  0
  151.1213  138.4617  157.2696 H   0  0  0  0  0  0  0  0  0  0  0  0
  152.3532  138.3104  158.5196 H   0  0  0  0  0  0  0  0  0  0  0  0
  153.3304  139.9765  159.4342 H   0  0  0  0  0  0  0  0  0  0  0  0
  154.0155  140.7806  158.0273 H   0  0  0  0  0  0  0  0  0  0  0  0
  153.2507  141.4287  161.2956 H   0  0  0  0  0  0  0  0  0  0  0  0
  152.7529  143.6435  162.2895 H   0  0  0  0  0  0  0  0  0  0  0  0
  152.0362  145.5335  160.8379 H   0  0  0  0  0  0  0  0  0  0  0  0
  151.8152  145.1992  158.3817 H   0  0  0  0  0  0  0  0  0  0  0  0
  152.3144  142.9855  157.3766 H   0  0  0  0  0  0  0  0  0  0  0  0
  146.4744  137.3885  154.8698 H   0  0  0  0  0  0  0  0  0  0  0  0
  146.5973  138.7844  153.8126 H   0  0  0  0  0  0  0  0  0  0  0  0
  146.4777  139.0060  155.5636 H   0  0  0  0  0  0  0  0  0  0  0  0
  1  2  1  0  0  0  0
  1 24  1  0  0  0  0
  1 25  1  0  0  0  0
  1 26  1  0  0  0  0
  2 22  1  0  0  0  0
  2  3  2  0  0  0  0
  3  4  1  0  0  0  0
  4  5  1  0  0  0  0
  4 17  1  0  0  0  0
  5  6  1  0  0  0  0
  5 27  1  0  0  0  0
  5 28  1  0  0  0  0
  6  7  1  0  0  0  0
  6  8  1  0  0  0  0
  6 29  1  0  0  0  0
  7 30  1  0  0  0  0
  8  9  1  0  0  0  0
  8 31  1  0  0  0  0
  8 32  1  0  0  0  0
  9 10  1  0  0  0  0
 10 11  1  0  0  0  0
 10 33  1  0  0  0  0
 10 34  1  0  0  0  0
 11 16  1  0  0  0  0
 11 12  2  0  0  0  0
 12 13  1  0  0  0  0
 12 35  1  0  0  0  0
 13 14  2  0  0  0  0
 13 36  1  0  0  0  0
 14 15  1  0  0  0  0
 14 37  1  0  0  0  0
 15 16  2  0  0  0  0
 15 38  1  0  0  0  0
 16 39  1  0  0  0  0
 17 18  2  0  0  0  0
 17 19  1  0  0  0  0
 19 20  1  0  0  0  0
 19 22  2  0  0  0  0
 20 21  3  0  0  0  0
 22 23  1  0  0  0  0
 23 40  1  0  0  0  0
 23 41  1  0  0  0  0
 23 42  1  0  0  0  0
M  END
> <s_m_source_file>
AV-unprocessed.smi

> <i_m_source_file_index>
1329

> <i_lp_mmshare_version>
43012

> <i_f3d_flags>
0

> <s_epik_input>
TiNDYyhjMVtDSDNdKWMoPU8pbihuYzFbQ0gzXSlbQ0gyXVtDQEhdKFtPSF0pW0NIMl1PW0NIMl1jMltjSF1bY0hdW2NIXVtjSF1bY0hdMg==

> <s_epik_cmdline>
J2VwaWtfcHl0aG9uJywgJy1waCcsICc3LjAnLCAnLXRuJywgJzgnLCAnLW1hJywgJzIwMCcsICctbWV0YWxfYmluZGluZycsICctaW1hZScsICc8aW5maWxlLm1hZT4nLCAnLW9tYWUnLCAnPG91dGZpbGUubWFlPic=

> <r_lp_tautomer_probability>
1

> <r_epik_Ionization_Penalty>
6.13319e-08

> <r_epik_Ionization_Penalty_Charging>
2.19172e-10

> <r_epik_Ionization_Penalty_Neutral>
6.11128e-08

> <r_epik_State_Penalty>
-0

> <r_epik_Charging_Adjusted_Penalty>
2.19172e-10

> <i_epik_Tot_Q>
0

> <i_epik_Tot_abs_Q>
0

> <r_epik_Metal_State_Penalty>
-0

> <b_epik_Metal_Only>
0

> <s_lp_Force_Field>
OPLS_2005

> <r_lp_Energy>
29.8656

> <b_lp_Chiralities_Consistent>
1

> <s_lp_Variant>
AV-unprocessed.smi:1329-1

> <Gold.Version>
5.8.1

> <Gold.Id.Protein>
6NUR|6NUR_protein|mol2

> <Gold.PLP.Fitness>
47.4053

> <Gold.PLP.PLP>
-43.2990

> <Gold.PLP.part.hbond>
-2.7181

> <Gold.PLP.part.metal>
0.0000

> <Gold.PLP.part.buried>
-0.8431

> <Gold.PLP.part.nonpolar>
-38.9569

> <Gold.PLP.part.repulsive>
0.2612

> <Gold.PLP.ligand.clash>
0.0000

> <Gold.PLP.ligand.torsion>
0.9635

> <Gold.PLP.Chemscore.Hbond>
2.0000

> <Gold.PLP.Chemscore.CHOScore>
0.0000

> <Gold.PLP.Chemscore.Metal>
0.0000

> <Gold.Chemscore.Hbonds>
donor molecule, donor type, donor heavy atom, donor atom, acceptor molecule, acceptor atom, score
      P1  H  7989  7998       L1     3  0.78
      P1  H 10752 10764       L1    18  1.00

> <Gold.PLP.Chemscore.Internal.Correction>
0.0333

> <Gold.Rescore>
     Score         DG    S(hbond)    S(metal)    S(lipo)     H(rot)  DE(clash)    DE(int)     intcor
     15.62     -19.31       1.69        0.00     124.18       2.48       1.31       2.38       ----

> <Gold.Chemscore.Fitness>
15.6227

> <Gold.Chemscore.DG>
-19.3093

> <Gold.Chemscore.ZeroCoef>
-5.4800

> <Gold.Chemscore.Hbond>
1.6894

> <Gold.Chemscore.Metal>
0.0000

> <Gold.Chemscore.Lipo>
124.1827

> <Gold.Chemscore.Internal_Hbond>
0.0000

> <Gold.Chemscore.DEClash>
1.3058

> <Gold.Chemscore.DEInternal>
2.3807

> <Gold.Chemscore.Rot>
2.4777

> <Gold.Chemscore.Internal.Correction>
   9.000000E+99

> <Gold.Chemscore.Hbonds>
donor molecule, donor type, donor heavy atom, donor atom, acceptor molecule, acceptor atom, score
      P1  H  7989  7998       L1     3  0.46
      P1  H 10752 10764       L1    18  0.96

> <Gold.Chemscore.Hbond.Weighted>
-5.6427

> <Gold.Chemscore.Metal.Weighted>
-0.0000

> <Gold.Chemscore.Lipo.Weighted>
-14.5294

> <Gold.Chemscore.Internal_Hbond.Weighted>
0.0000

> <Gold.Chemscore.DEClash.Weighted>
1.3058

> <Gold.Chemscore.DEInternal.Weighted>
2.3807

> <Gold.Chemscore.Rot.Weighted>
6.3428

> <Gold.Chemscore.Internal.Correction.Weighted>
   9.000000E+99

> <Gold.Protein.RotatedTorsions>
[ 6907 6896 6895 6894 ] final  -48.47 input  -60.11 | X-H torsion
[ 7974 7965 7964 7962 ] final  -30.21 input  175.53 | X-H torsion
[ 8008 7997 7996 7995 ] final -109.68 input   59.86 | X-H torsion
[ 10167 10162 10161 10158 ] final   15.25 input  -65.29 | X-H torsion
[ 10718 10713 10712 10709 ] final -120.95 input   66.30 | X-H torsion
[ 10763 10752 10751 10750 ] final  -50.11 input  -60.55 | X-H torsion
[ 11005 11000 10999 10996 ] final  -97.65 input  -57.11 | X-H torsion

> <Gold.Protein.ActiveResidues>
 VAL166  LYS551  ARG553  GLY616  TRP617  ASP618  TYR619  PRO620  LYS621  CYS622 
 ASP623  PHE694  ASN695  SER759  ASP760  ASP761  ALA762  ILE779  LEU786  VAL792 
 PHE793  MET794  SER795  GLU796  ALA797  LYS798  CYS799  TRP800  GLU811  SER814 

> <Gold.Protein.RotatedAtoms>
  150.8902  134.8305  159.7287 H   0  0  0  0  0  0  0  0  0  0  0  0  # atno 6907 bound_to 6896
  152.4832  134.4659  159.9630 H   0  0  0  0  0  0  0  0  0  0  0  0  # atno 6908 bound_to 6896
  151.4723  133.3527  159.2860 H   0  0  0  0  0  0  0  0  0  0  0  0  # atno 6909 bound_to 6896
  146.1160  140.5511  142.8757 H   0  0  0  0  0  0  0  0  0  0  0  0  # atno 7974 bound_to 7965
  154.9630  140.0399  157.2199 H   0  0  0  0  0  0  0  0  0  0  0  0  # atno 8008 bound_to 7997
  154.7871  140.2829  155.5997 H   0  0  0  0  0  0  0  0  0  0  0  0  # atno 8009 bound_to 7997
  156.2944  140.2580  156.2710 H   0  0  0  0  0  0  0  0  0  0  0  0  # atno 8010 bound_to 7997
  140.5880  143.8851  150.6848 H   0  0  0  0  0  0  0  0  0  0  0  0  # atno 10167 bound_to 10162
  156.1298  130.6387  150.9603 H   0  0  0  0  0  0  0  0  0  0  0  0  # atno 10718 bound_to 10713
  154.1051  135.6557  153.4875 H   0  0  0  0  0  0  0  0  0  0  0  0  # atno 10763 bound_to 10752
  153.0275  135.5234  154.7248 H   0  0  0  0  0  0  0  0  0  0  0  0  # atno 10764 bound_to 10752
  154.6411  135.2988  155.0071 H   0  0  0  0  0  0  0  0  0  0  0  0  # atno 10765 bound_to 10752
  141.1371  133.8187  157.0735 H   0  0  0  0  0  0  0  0  0  0  0  0  # atno 11005 bound_to 11000
  144.7553  140.5292  143.6773 LP  0  0  0  0  0  0  0  0  0  0  0  0  # atno 17320 bound_to 7965
  145.5566  139.1478  143.3364 LP  0  0  0  0  0  0  0  0  0  0  0  0  # atno 17321 bound_to 7965
  140.2367  143.3695  152.1521 LP  0  0  0  0  0  0  0  0  0  0  0  0  # atno 17342 bound_to 10162
  139.5210  144.7040  151.5410 LP  0  0  0  0  0  0  0  0  0  0  0  0  # atno 17343 bound_to 10162
  157.6477  131.0901  150.8118 LP  0  0  0  0  0  0  0  0  0  0  0  0  # atno 17370 bound_to 10713
  156.8204  130.4982  149.5344 LP  0  0  0  0  0  0  0  0  0  0  0  0  # atno 17371 bound_to 10713
  140.0496  134.9812  157.1112 LP  0  0  0  0  0  0  0  0  0  0  0  0  # atno 17394 bound_to 11000
  140.4010  134.2083  155.7163 LP  0  0  0  0  0  0  0  0  0  0  0  0  # atno 17395 bound_to 11000

$$$$
