#       Name:                AV-unprocessed.smi:94
#       Creating user name   scv26
#       Creation time:       Thu Mar 26 17:29:51 2020


#       File generated by GOLD software.
#

@<TRIPOS>MOLECULE
AV-unprocessed.smi:94
    63    65     1
SMALL
NO_CHARGES


@<TRIPOS>ATOM
      1 ****        -0.9370   4.8725  -3.4959 C.3            1 S1                 0.0000
      2 ****        -0.2647   3.8428  -2.7855 O.3            1 S1                 0.0000
      3 ****        -1.0197   2.8516  -2.1909 C.ar           1 S1                 0.0000
      4 ****        -2.4355   2.8010  -2.2666 C.ar           1 S1                 0.0000
      5 ****        -3.1533   1.7607  -1.6476 C.ar           1 S1                 0.0000
      6 ****        -2.4693   0.7501  -0.9474 C.ar           1 S1                 0.0000
      7 ****        -3.2287  -0.3803  -0.2842 C.3            1 S1                 0.0000
      8 ****        -1.0658   0.7893  -0.8691 C.ar           1 S1                 0.0000
      9 ****        -0.3332   1.8388  -1.4749 C.ar           1 S1                 0.0000
     10 ****         1.1930   1.8675  -1.3749 C.3            1 S1                 0.0000
     11 ****         1.8334   1.1803  -2.5926 C.3            1 S1                 0.0000
     12 ****         1.6525   1.2448  -0.1388 N.am           1 S1                 0.0000
     13 ****         2.8372   1.4029   0.4718 C.2            1 S1                 0.0000
     14 ****         3.7331   2.1176   0.0251 O.2            1 S1                 0.0000
     15 ****         3.0540   0.6466   1.7966 C.3            1 S1                 0.0000
     16 ****         1.8273   0.0191   2.3472 N.am           1 S1                 0.0000
     17 ****         1.0370   0.7648   3.2572 C.2            1 S1                 0.0000
     18 ****         1.3638   1.8997   3.6068 O.2            1 S1                 0.0000
     19 ****        -0.1741   0.1034   3.7283 C.2            1 S1                 0.0000
     20 ****        -0.9707   0.7242   4.6147 F              1 S1                 0.0000
     21 ****        -0.5124  -1.1238   3.2833 C.2            1 S1                 0.0000
     22 ****         0.2438  -1.8248   2.3646 N.am           1 S1                 0.0000
     23 ****        -0.2229  -3.1955   1.9268 C.3            1 S1                 0.0000
     24 ****        -0.5144  -3.2908   0.4218 C.3            1 S1                 0.0000
     25 ****        -0.0751  -4.7085   0.1265 C.3            1 S1                 0.0000
     26 ****         1.1096  -4.8785   1.0717 C.3            1 S1                 0.0000
     27 ****         0.7589  -4.1409   2.2402 O.3            1 S1                 0.0000
     28 ****         1.4602  -1.2734   1.8988 C.2            1 S1                 0.0000
     29 ****         2.1777  -1.8875   1.1086 O.2            1 S1                 0.0000
     30 ****        -0.2021   5.5701  -3.8975 H              1 S1                 0.0000
     31 ****        -1.6042   5.4368  -2.8429 H              1 S1                 0.0000
     32 ****        -1.5047   4.4727  -4.3371 H              1 S1                 0.0000
     33 ****        -3.0001   3.5518  -2.7978 H              1 S1                 0.0000
     34 ****        -4.2309   1.7408  -1.7179 H              1 S1                 0.0000
     35 ****        -3.0969  -1.3028  -0.8501 H              1 S1                 0.0000
     36 ****        -4.2958  -0.1621  -0.2273 H              1 S1                 0.0000
     37 ****        -2.8608  -0.5437   0.7297 H              1 S1                 0.0000
     38 ****        -0.5579  -0.0029  -0.3383 H              1 S1                 0.0000
     39 ****         1.5153   2.9098  -1.3482 H              1 S1                 0.0000
     40 ****         1.5261   1.6637  -3.5204 H              1 S1                 0.0000
     41 ****         1.5426   0.1309  -2.6527 H              1 S1                 0.0000
     42 ****         2.9220   1.2224  -2.5496 H              1 S1                 0.0000
     43 ****         0.9884   0.6344   0.3143 H              1 S1                 0.0000
     44 ****         3.8296  -0.1031   1.6339 H              1 S1                 0.0000
     45 ****         3.5031   1.3342   2.5147 H              1 S1                 0.0000
     46 ****        -1.4218  -1.5670   3.6623 H              1 S1                 0.0000
     47 ****        -1.1071  -3.4189   2.5252 H              1 S1                 0.0000
     48 ****        -1.5694  -3.1093   0.2165 H              1 S1                 0.0000
     49 ****         0.0796  -2.5780  -0.1488 H              1 S1                 0.0000
     50 ****        -0.8682  -5.4090   0.3911 H              1 S1                 0.0000
     51 ****         0.1876  -4.8668  -0.9198 H              1 S1                 0.0000
     52 ****         1.3095  -5.9238   1.3072 H              1 S1                 0.0000
     53 ****         2.0132  -4.4559   0.6321 H              1 S1                 0.0000
     54 ****         0.2677   4.2824  -2.0621 LP             1 S1                 0.0000
     55 ****         0.3548   3.3953  -3.4304 LP             1 S1                 0.0000
     56 ****         3.5959   2.6144  -0.8319 LP             1 S1                 0.0000
     57 ****         4.5986   2.2019   0.5189 LP             1 S1                 0.0000
     58 ****         2.2010   2.3120   3.2474 LP             1 S1                 0.0000
     59 ****         0.7919   2.4089   4.2500 LP             1 S1                 0.0000
     60 ****         0.4064  -4.7677   2.9351 LP             1 S1                 0.0000
     61 ****         1.5692  -3.6733   2.5933 LP             1 S1                 0.0000
     62 ****         3.0264  -1.4741   0.7788 LP             1 S1                 0.0000
     63 ****         1.9116  -2.7996   0.7967 LP             1 S1                 0.0000
@<TRIPOS>BOND
    1    1    2 1     
    2    1   30 1     
    3    1   31 1     
    4    1   32 1     
    5    2    3 1     
    6    3    9 ar    
    7    3    4 ar    
    8    4    5 ar    
    9    4   33 1     
   10    5    6 ar    
   11    5   34 1     
   12    6    7 1     
   13    6    8 ar    
   14    7   35 1     
   15    7   36 1     
   16    7   37 1     
   17    8    9 ar    
   18    8   38 1     
   19    9   10 1     
   20   10   11 1     
   21   10   12 1     
   22   10   39 1     
   23   11   40 1     
   24   11   41 1     
   25   11   42 1     
   26   12   13 am    
   27   12   43 1     
   28   13   14 2     
   29   13   15 1     
   30   15   16 1     
   31   15   44 1     
   32   15   45 1     
   33   16   28 am    
   34   16   17 am    
   35   17   18 2     
   36   17   19 1     
   37   19   20 1     
   38   19   21 2     
   39   21   22 1     
   40   21   46 1     
   41   22   23 1     
   42   22   28 am    
   43   23   27 1     
   44   23   24 1     
   45   23   47 1     
   46   24   25 1     
   47   24   48 1     
   48   24   49 1     
   49   25   26 1     
   50   25   50 1     
   51   25   51 1     
   52   26   27 1     
   53   26   52 1     
   54   26   53 1     
   55   28   29 2     
   56    2   54 1     
   57    2   55 1     
   58   14   56 1     
   59   14   57 1     
   60   18   58 1     
   61   18   59 1     
   62   27   60 1     
   63   27   61 1     
   64   29   62 1     
   65   29   63 1     
@<TRIPOS>SUBSTRUCTURE
      1 S1             1
@<TRIPOS>SET
LONE_PAIRS      STATIC     ATOMS    <user>   **** ""
10 54 55 56 57 58 59 60 61 62 63
DONOR_HYDROGENS      STATIC     ATOMS    <user>   **** ""
1 43
ATOM$BLUE        STATIC     ATOMS    COLORGROUP SYSTEM
10 54 55 56 57 58 59 60 61 62 63
ATOM$RED        STATIC     ATOMS    COLORGROUP SYSTEM
1 43
