AV-unprocessed.smi:1840|AV-procd|sdf|7492|dock5
  -GOLD-   22720 9193D 1   1.00000     0.00000
 Structure written by MMmdl.
 43 44  0  0  0  0  0  0  0  0  1 V2000
  150.8415  145.2549  159.4514 C   0  0  0  0  0  0  0  0  0  0  0  0
  150.5136  143.7795  159.1864 C   0  0  2  0  0  0  0  0  0  0  0  0
  151.6752  143.0627  158.4638 C   0  0  0  0  0  0  0  0  0  0  0  0
  152.5244  142.3143  159.3760 N   0  0  0  0  0  0  0  0  0  0  0  0
  153.0967  142.7383  160.5568 C   0  0  0  0  0  0  0  0  0  0  0  0
  153.7805  141.6784  161.0801 C   0  0  0  0  0  0  0  0  0  0  0  0
  153.5672  140.6372  160.1340 C   0  0  0  0  0  0  0  0  0  0  0  0
  152.8197  141.0219  159.1124 N   0  0  0  0  0  0  0  0  0  0  0  0
  149.2866  143.6944  158.3955 N   0  0  0  0  0  0  0  0  0  0  0  0
  148.6497  142.5586  158.0751 C   0  0  0  0  0  0  0  0  0  0  0  0
  148.9527  141.4472  158.5096 O   0  0  0  0  0  0  0  0  0  0  0  0
  147.6763  142.7744  157.1807 N   0  0  0  0  0  0  0  0  0  0  0  0
  146.8820  141.7339  156.5270 C   0  0  2  0  0  0  0  0  0  0  0  0
  147.7857  140.7596  155.7365 C   0  0  0  0  0  0  0  0  0  0  0  0
  148.4211  141.4292  154.5066 C   0  0  0  0  0  0  0  0  0  0  0  0
  147.3469  142.0406  153.5944 C   0  0  0  0  0  0  0  0  0  0  0  0
  146.4466  143.0205  154.3649 C   0  0  0  0  0  0  0  0  0  0  0  0
  145.8061  142.3549  155.6019 C   0  0  2  0  0  0  0  0  0  0  0  0
  144.8675  143.3227  156.3431 C   0  0  0  0  0  0  0  0  0  0  0  0
  151.7382  145.3521  160.0638 H   0  0  0  0  0  0  0  0  0  0  0  0
  150.0268  145.7491  159.9818 H   0  0  0  0  0  0  0  0  0  0  0  0
  151.0133  145.7981  158.5215 H   0  0  0  0  0  0  0  0  0  0  0  0
  150.3637  143.3035  160.1573 H   0  0  0  0  0  0  0  0  0  0  0  0
  151.2907  142.3868  157.6977 H   0  0  0  0  0  0  0  0  0  0  0  0
  152.3008  143.7917  157.9478 H   0  0  0  0  0  0  0  0  0  0  0  0
  152.9622  143.7443  160.9265 H   0  0  0  0  0  0  0  0  0  0  0  0
  154.3437  141.6499  162.0010 H   0  0  0  0  0  0  0  0  0  0  0  0
  153.9301  139.6202  160.1593 H   0  0  0  0  0  0  0  0  0  0  0  0
  148.9538  144.5542  157.9844 H   0  0  0  0  0  0  0  0  0  0  0  0
  147.5084  143.7242  156.8828 H   0  0  0  0  0  0  0  0  0  0  0  0
  146.3687  141.1678  157.3067 H   0  0  0  0  0  0  0  0  0  0  0  0
  148.5656  140.3471  156.3778 H   0  0  0  0  0  0  0  0  0  0  0  0
  147.1891  139.9073  155.4087 H   0  0  0  0  0  0  0  0  0  0  0  0
  149.1184  142.2045  154.8265 H   0  0  0  0  0  0  0  0  0  0  0  0
  149.0093  140.6991  153.9500 H   0  0  0  0  0  0  0  0  0  0  0  0
  147.8196  142.5514  152.7549 H   0  0  0  0  0  0  0  0  0  0  0  0
  146.7361  141.2443  153.1670 H   0  0  0  0  0  0  0  0  0  0  0  0
  147.0319  143.8889  154.6695 H   0  0  0  0  0  0  0  0  0  0  0  0
  145.6678  143.3951  153.7000 H   0  0  0  0  0  0  0  0  0  0  0  0
  145.1848  141.5342  155.2394 H   0  0  0  0  0  0  0  0  0  0  0  0
  145.3959  144.2084  156.6967 H   0  0  0  0  0  0  0  0  0  0  0  0
  144.4100  142.8398  157.2071 H   0  0  0  0  0  0  0  0  0  0  0  0
  144.0613  143.6604  155.6912 H   0  0  0  0  0  0  0  0  0  0  0  0
  1  2  1  0  0  0  0
  1 20  1  0  0  0  0
  1 21  1  0  0  0  0
  1 22  1  0  0  0  0
  2  3  1  0  0  0  0
  2  9  1  0  0  0  0
  2 23  1  0  0  0  0
  3  4  1  0  0  0  0
  3 24  1  0  0  0  0
  3 25  1  0  0  0  0
  4  8  1  0  0  0  0
  4  5  1  0  0  0  0
  5  6  2  0  0  0  0
  5 26  1  0  0  0  0
  6  7  1  0  0  0  0
  6 27  1  0  0  0  0
  7  8  2  0  0  0  0
  7 28  1  0  0  0  0
  9 10  1  0  0  0  0
  9 29  1  0  0  0  0
 10 11  2  0  0  0  0
 10 12  1  0  0  0  0
 12 13  1  0  0  0  0
 12 30  1  0  0  0  0
 13 18  1  0  0  0  0
 13 14  1  0  0  0  0
 13 31  1  0  0  0  0
 14 15  1  0  0  0  0
 14 32  1  0  0  0  0
 14 33  1  0  0  0  0
 15 16  1  0  0  0  0
 15 34  1  0  0  0  0
 15 35  1  0  0  0  0
 16 17  1  0  0  0  0
 16 36  1  0  0  0  0
 16 37  1  0  0  0  0
 17 18  1  0  0  0  0
 17 38  1  0  0  0  0
 17 39  1  0  0  0  0
 18 19  1  0  0  0  0
 18 40  1  0  0  0  0
 19 41  1  0  0  0  0
 19 42  1  0  0  0  0
 19 43  1  0  0  0  0
M  END
> <s_m_source_file>
AV-unprocessed.smi

> <i_m_source_file_index>
1840

> <i_lp_mmshare_version>
43012

> <i_f3d_flags>
0

> <s_epik_input>
bjFbY0hdW2NIXVtjSF1uMVtDSDJdW0NAQEhdKFtDSDNdKVtOSF1DKD1PKVtOSF1bQ0BASF0yW0NIMl1bQ0gyXVtDSDJdW0NIMl1bQ0BIXTJbQ0gzXQ==

> <s_epik_cmdline>
J2VwaWtfcHl0aG9uJywgJy1waCcsICc3LjAnLCAnLXRuJywgJzgnLCAnLW1hJywgJzIwMCcsICctbWV0YWxfYmluZGluZycsICctaW1hZScsICc8aW5maWxlLm1hZT4nLCAnLW9tYWUnLCAnPG91dGZpbGUubWFlPic=

> <r_lp_tautomer_probability>
1

> <r_epik_Ionization_Penalty>
7.38659e-05

> <r_epik_Ionization_Penalty_Charging>
0

> <r_epik_Ionization_Penalty_Neutral>
7.38659e-05

> <r_epik_State_Penalty>
-0

> <r_epik_Charging_Adjusted_Penalty>
0

> <i_epik_Tot_Q>
0

> <i_epik_Tot_abs_Q>
0

> <r_epik_Metal_State_Penalty>
-0

> <b_epik_Metal_Only>
0

> <s_lp_Force_Field>
OPLS_2005

> <r_lp_Energy>
6.60397

> <b_lp_Chiralities_Consistent>
1

> <s_lp_Variant>
AV-unprocessed.smi:1840-5

> <Gold.Version>
5.8.1

> <Gold.Id.Protein>
6NUR|6NUR_protein|mol2

> <Gold.PLP.Fitness>
40.1548

> <Gold.PLP.PLP>
-39.0587

> <Gold.PLP.part.hbond>
-4.7189

> <Gold.PLP.part.metal>
0.0000

> <Gold.PLP.part.buried>
-3.3464

> <Gold.PLP.part.nonpolar>
-30.7664

> <Gold.PLP.part.repulsive>
0.1209

> <Gold.PLP.ligand.clash>
0.0000

> <Gold.PLP.ligand.torsion>
0.6599

> <Gold.PLP.Chemscore.Hbond>
0.8000

> <Gold.PLP.Chemscore.CHOScore>
0.0000

> <Gold.PLP.Chemscore.Metal>
0.0000

> <Gold.Chemscore.Hbonds>
donor molecule, donor type, donor heavy atom, donor atom, acceptor molecule, acceptor atom, score
      L1  H     9    29       P1  8029  0.80

> <Gold.PLP.Chemscore.Internal.Correction>
0.0159

> <Gold.Rescore>
     Score         DG    S(hbond)    S(metal)    S(lipo)     H(rot)  DE(clash)    DE(int)     intcor
     11.57     -12.32       0.07        0.00      90.49       1.56       0.14       0.61       ----

> <Gold.Chemscore.Fitness>
11.5699

> <Gold.Chemscore.DG>
-12.3236

> <Gold.Chemscore.ZeroCoef>
-5.4800

> <Gold.Chemscore.Hbond>
0.0731

> <Gold.Chemscore.Metal>
0.0000

> <Gold.Chemscore.Lipo>
90.4862

> <Gold.Chemscore.Internal_Hbond>
0.0000

> <Gold.Chemscore.DEClash>
0.1390

> <Gold.Chemscore.DEInternal>
0.6148

> <Gold.Chemscore.Rot>
1.5576

> <Gold.Chemscore.Internal.Correction>
   9.000000E+99

> <Gold.Chemscore.Hbonds>
donor molecule, donor type, donor heavy atom, donor atom, acceptor molecule, acceptor atom, score
      L1  H     9    29       P1  8029  0.12

> <Gold.Chemscore.Hbond.Weighted>
-0.2442

> <Gold.Chemscore.Metal.Weighted>
-0.0000

> <Gold.Chemscore.Lipo.Weighted>
-10.5869

> <Gold.Chemscore.Internal_Hbond.Weighted>
0.0000

> <Gold.Chemscore.DEClash.Weighted>
0.1390

> <Gold.Chemscore.DEInternal.Weighted>
0.6148

> <Gold.Chemscore.Rot.Weighted>
3.9875

> <Gold.Chemscore.Internal.Correction.Weighted>
   9.000000E+99

> <Gold.Protein.RotatedTorsions>
[ 6907 6896 6895 6894 ] final  101.42 input  -60.11 | X-H torsion
[ 7974 7965 7964 7962 ] final  166.77 input  175.53 | X-H torsion
[ 8008 7997 7996 7995 ] final  -47.97 input   59.86 | X-H torsion
[ 10167 10162 10161 10158 ] final    0.18 input  -65.29 | X-H torsion
[ 10718 10713 10712 10709 ] final  133.34 input   66.30 | X-H torsion
[ 10763 10752 10751 10750 ] final   -6.98 input  -60.55 | X-H torsion
[ 11005 11000 10999 10996 ] final  179.39 input  -57.11 | X-H torsion

> <Gold.Protein.ActiveResidues>
 VAL166  LYS551  ARG553  GLY616  TRP617  ASP618  TYR619  PRO620  LYS621  CYS622 
 ASP623  PHE694  ASN695  SER759  ASP760  ASP761  ALA762  ILE779  LEU786  VAL792 
 PHE793  MET794  SER795  GLU796  ALA797  LYS798  CYS799  TRP800  GLU811  SER814 

> <Gold.Protein.RotatedAtoms>
  152.5350  134.0129  159.7946 H   0  0  0  0  0  0  0  0  0  0  0  0  # atno 6907 bound_to 6896
  151.0328  133.5767  159.2666 H   0  0  0  0  0  0  0  0  0  0  0  0  # atno 6908 bound_to 6896
  151.2765  135.0708  159.9207 H   0  0  0  0  0  0  0  0  0  0  0  0  # atno 6909 bound_to 6896
  144.7449  139.8663  143.6385 H   0  0  0  0  0  0  0  0  0  0  0  0  # atno 7974 bound_to 7965
  154.4023  140.1333  156.4263 H   0  0  0  0  0  0  0  0  0  0  0  0  # atno 8008 bound_to 7997
  155.7594  140.3486  155.5170 H   0  0  0  0  0  0  0  0  0  0  0  0  # atno 8009 bound_to 7997
  155.8873  140.0997  157.1433 H   0  0  0  0  0  0  0  0  0  0  0  0  # atno 8010 bound_to 7997
  140.6740  143.6968  150.7983 H   0  0  0  0  0  0  0  0  0  0  0  0  # atno 10167 bound_to 10162
  157.4782  131.1084  150.9715 H   0  0  0  0  0  0  0  0  0  0  0  0  # atno 10718 bound_to 10713
  153.4199  135.7010  153.6301 H   0  0  0  0  0  0  0  0  0  0  0  0  # atno 10763 bound_to 10752
  153.4760  135.3704  155.2417 H   0  0  0  0  0  0  0  0  0  0  0  0  # atno 10764 bound_to 10752
  154.8721  135.4054  154.3565 H   0  0  0  0  0  0  0  0  0  0  0  0  # atno 10765 bound_to 10752
  140.4057  134.6737  157.4586 H   0  0  0  0  0  0  0  0  0  0  0  0  # atno 11005 bound_to 11000
  146.1312  139.4348  143.0167 LP  0  0  0  0  0  0  0  0  0  0  0  0  # atno 17320 bound_to 7965
  145.7160  141.0091  143.1428 LP  0  0  0  0  0  0  0  0  0  0  0  0  # atno 17321 bound_to 7965
  140.0658  143.5109  152.2605 LP  0  0  0  0  0  0  0  0  0  0  0  0  # atno 17342 bound_to 10162
  139.6023  144.7586  151.3144 LP  0  0  0  0  0  0  0  0  0  0  0  0  # atno 17343 bound_to 10162
  157.0457  130.5767  149.5363 LP  0  0  0  0  0  0  0  0  0  0  0  0  # atno 17370 bound_to 10713
  156.0108  130.5199  150.7981 LP  0  0  0  0  0  0  0  0  0  0  0  0  # atno 17371 bound_to 10713
  140.0304  134.6414  155.9114 LP  0  0  0  0  0  0  0  0  0  0  0  0  # atno 17394 bound_to 11000
  141.1840  133.6552  156.5140 LP  0  0  0  0  0  0  0  0  0  0  0  0  # atno 17395 bound_to 11000

$$$$
