AV-unprocessed.smi:189|AV-procd|sdf|1488|dock9
  -GOLD-   2262019303D 1   1.00000     0.00000
 Structure written by MMmdl.
 53 57  0  0  0  0  0  0  0  0  1 V2000
  154.8036  139.3778  159.9398 C   0  0  0  0  0  0  0  0  0  0  0  0
  153.4530  140.0452  160.2740 C   0  0  1  0  0  0  0  0  0  0  0  0
  153.6632  141.5003  160.7606 C   0  0  0  0  0  0  0  0  0  0  0  0
  152.5906  142.2884  160.0150 C   0  0  1  0  0  0  0  0  0  0  0  0
  152.8170  143.7833  159.7606 C   0  0  0  0  0  0  0  0  0  0  0  0
  151.6400  144.3350  158.9287 C   0  0  0  0  0  0  0  0  0  0  0  0
  151.3923  143.5152  157.6417 C   0  0  0  0  0  0  0  0  0  0  0  0
  151.2613  142.0025  157.9190 C   0  0  0  0  0  0  0  0  0  0  0  0
  152.5007  141.5278  158.7005 C   0  0  2  0  0  0  0  0  0  0  0  0
  152.5272  140.1397  159.1356 N   0  0  0  0  0  0  0  0  0  0  0  0
  152.4368  139.1025  158.2651 C   0  0  0  0  0  0  0  0  0  0  0  0
  153.4659  138.8351  157.4187 N   0  0  0  0  0  0  0  0  0  0  0  0
  153.3896  137.8070  156.5689 C   0  0  0  0  0  0  0  0  0  0  0  0
  152.3966  136.9305  156.4065 N   0  0  0  0  0  0  0  0  0  0  0  0
  151.3636  137.1900  157.2582 C   0  0  0  0  0  0  0  0  0  0  0  0
  151.3013  138.2475  158.2088 C   0  0  0  0  0  0  0  0  0  0  0  0
  150.0919  138.2008  158.8914 N   0  0  0  0  0  0  0  0  0  0  0  0
  149.4777  137.1697  158.3795 C   0  0  0  0  0  0  0  0  0  0  0  0
  150.1717  136.5004  157.3969 N   0  0  0  0  0  0  0  0  0  0  0  0
  149.7261  135.3238  156.6665 C   0  0  0  0  0  0  0  0  0  0  0  0
  148.8268  135.6600  155.4542 C   0  0  2  0  0  0  0  0  0  0  0  0
  149.5114  136.5727  154.6132 O   0  0  0  0  0  0  0  0  0  0  0  0
  147.4748  136.2634  155.8255 C   0  0  0  0  0  0  0  0  0  0  0  0
  146.5638  135.7635  154.7131 C   0  0  0  0  0  0  0  0  0  0  0  0
  147.0191  134.4358  154.5151 O   0  0  0  0  0  0  0  0  0  0  0  0
  148.4396  134.4238  154.6181 C   0  0  0  0  0  0  0  0  0  0  0  0
  155.4725  139.4084  160.8002 H   0  0  0  0  0  0  0  0  0  0  0  0
  155.3030  139.8842  159.1130 H   0  0  0  0  0  0  0  0  0  0  0  0
  154.6847  138.3296  159.6664 H   0  0  0  0  0  0  0  0  0  0  0  0
  152.9526  139.4803  161.0613 H   0  0  0  0  0  0  0  0  0  0  0  0
  153.5739  141.5960  161.8429 H   0  0  0  0  0  0  0  0  0  0  0  0
  154.6507  141.8665  160.4759 H   0  0  0  0  0  0  0  0  0  0  0  0
  151.6529  142.1667  160.5618 H   0  0  0  0  0  0  0  0  0  0  0  0
  152.8973  144.3216  160.7053 H   0  0  0  0  0  0  0  0  0  0  0  0
  153.7558  143.9371  159.2269 H   0  0  0  0  0  0  0  0  0  0  0  0
  150.7353  144.3219  159.5379 H   0  0  0  0  0  0  0  0  0  0  0  0
  151.8213  145.3797  158.6748 H   0  0  0  0  0  0  0  0  0  0  0  0
  150.4963  143.8783  157.1377 H   0  0  0  0  0  0  0  0  0  0  0  0
  152.2194  143.6796  156.9499 H   0  0  0  0  0  0  0  0  0  0  0  0
  150.3549  141.8046  158.4925 H   0  0  0  0  0  0  0  0  0  0  0  0
  151.1554  141.4688  156.9754 H   0  0  0  0  0  0  0  0  0  0  0  0
  153.3967  141.7124  158.1042 H   0  0  0  0  0  0  0  0  0  0  0  0
  154.2484  137.6656  155.9292 H   0  0  0  0  0  0  0  0  0  0  0  0
  148.4961  136.8624  158.7100 H   0  0  0  0  0  0  0  0  0  0  0  0
  150.6067  134.7680  156.3417 H   0  0  0  0  0  0  0  0  0  0  0  0
  149.1942  134.6721  157.3608 H   0  0  0  0  0  0  0  0  0  0  0  0
  149.1841  136.4712  153.7323 H   0  0  0  0  0  0  0  0  0  0  0  0
  147.1241  135.8504  156.7718 H   0  0  0  0  0  0  0  0  0  0  0  0
  147.4862  137.3500  155.9210 H   0  0  0  0  0  0  0  0  0  0  0  0
  145.5087  135.7915  154.9855 H   0  0  0  0  0  0  0  0  0  0  0  0
  146.7025  136.3430  153.7990 H   0  0  0  0  0  0  0  0  0  0  0  0
  148.8790  134.4488  153.6194 H   0  0  0  0  0  0  0  0  0  0  0  0
  148.7529  133.4907  155.0878 H   0  0  0  0  0  0  0  0  0  0  0  0
  1  2  1  0  0  0  0
  1 27  1  0  0  0  0
  1 28  1  0  0  0  0
  1 29  1  0  0  0  0
  2 10  1  0  0  0  0
  2  3  1  0  0  0  0
  2 30  1  0  0  0  0
  3  4  1  0  0  0  0
  3 31  1  0  0  0  0
  3 32  1  0  0  0  0
  4  9  1  0  0  0  0
  4  5  1  0  0  0  0
  4 33  1  0  0  0  0
  5  6  1  0  0  0  0
  5 34  1  0  0  0  0
  5 35  1  0  0  0  0
  6  7  1  0  0  0  0
  6 36  1  0  0  0  0
  6 37  1  0  0  0  0
  7  8  1  0  0  0  0
  7 38  1  0  0  0  0
  7 39  1  0  0  0  0
  8  9  1  0  0  0  0
  8 40  1  0  0  0  0
  8 41  1  0  0  0  0
  9 10  1  0  0  0  0
  9 42  1  0  0  0  0
 10 11  1  0  0  0  0
 11 16  1  0  0  0  0
 11 12  2  0  0  0  0
 12 13  1  0  0  0  0
 13 14  2  0  0  0  0
 13 43  1  0  0  0  0
 14 15  1  0  0  0  0
 15 19  1  0  0  0  0
 15 16  2  0  0  0  0
 16 17  1  0  0  0  0
 17 18  2  0  0  0  0
 18 19  1  0  0  0  0
 18 44  1  0  0  0  0
 19 20  1  0  0  0  0
 20 21  1  0  0  0  0
 20 45  1  0  0  0  0
 20 46  1  0  0  0  0
 21 26  1  0  0  0  0
 21 22  1  0  0  0  0
 21 23  1  0  0  0  0
 22 47  1  0  0  0  0
 23 24  1  0  0  0  0
 23 48  1  0  0  0  0
 23 49  1  0  0  0  0
 24 25  1  0  0  0  0
 24 50  1  0  0  0  0
 24 51  1  0  0  0  0
 25 26  1  0  0  0  0
 26 52  1  0  0  0  0
 26 53  1  0  0  0  0
M  END
> <s_m_source_file>
AV-unprocessed.smi

> <i_m_source_file_index>
189

> <i_lp_mmshare_version>
43012

> <i_f3d_flags>
0

> <s_epik_input>
W0NIMl0xW0NIMl1bQ0gyXVtDSDJdW0NASF0oW0NASF0xMilOKFtDQEhdKFtDSDNdKVtDSDJdMiljKG5bY0hdbjMpYyhjMzQpbltjSF1uNFtDSDJdW0NAQF01KFtPSF0pW0NIMl1bQ0gyXU9bQ0gyXTU=

> <s_epik_cmdline>
J2VwaWtfcHl0aG9uJywgJy1waCcsICc3LjAnLCAnLXRuJywgJzgnLCAnLW1hJywgJzIwMCcsICctbWV0YWxfYmluZGluZycsICctaW1hZScsICc8aW5maWxlLm1hZT4nLCAnLW9tYWUnLCAnPG91dGZpbGUubWFlPic=

> <r_lp_tautomer_probability>
1

> <r_epik_Ionization_Penalty>
0.00594261

> <r_epik_Ionization_Penalty_Charging>
0

> <r_epik_Ionization_Penalty_Neutral>
0.00594261

> <r_epik_State_Penalty>
0.00429776

> <r_epik_Charging_Adjusted_Penalty>
0.00429776

> <i_epik_Tot_Q>
0

> <i_epik_Tot_abs_Q>
0

> <r_epik_Metal_State_Penalty>
-0

> <b_epik_Metal_Only>
0

> <s_lp_Force_Field>
OPLS_2005

> <r_lp_Energy>
58.0948

> <b_lp_Chiralities_Consistent>
1

> <s_lp_Variant>
AV-unprocessed.smi:189-14

> <Gold.Version>
5.8.1

> <Gold.Id.Protein>
6NUR|6NUR_protein|mol2

> <Gold.PLP.Fitness>
48.2304

> <Gold.PLP.PLP>
-40.1490

> <Gold.PLP.part.hbond>
-3.0806

> <Gold.PLP.part.metal>
0.0000

> <Gold.PLP.part.buried>
-5.1188

> <Gold.PLP.part.nonpolar>
-32.6207

> <Gold.PLP.part.repulsive>
0.0830

> <Gold.PLP.ligand.clash>
0.0000

> <Gold.PLP.ligand.torsion>
0.5596

> <Gold.PLP.Chemscore.Hbond>
2.9360

> <Gold.PLP.Chemscore.CHOScore>
0.0000

> <Gold.PLP.Chemscore.Metal>
0.0000

> <Gold.Chemscore.Hbonds>
donor molecule, donor type, donor heavy atom, donor atom, acceptor molecule, acceptor atom, score
      L1  H    22    47       P1  7948  1.00
      P1  H  7997  8010       L1    12  0.86
      P1  H 10752 10764       L1    14  0.71

> <Gold.PLP.Chemscore.Internal.Correction>
0.3926

> <Gold.Rescore>
     Score         DG    S(hbond)    S(metal)    S(lipo)     H(rot)  DE(clash)    DE(int)     intcor
     18.48     -20.08       2.25        0.00     105.10       2.03       0.04       1.55       ----

> <Gold.Chemscore.Fitness>
18.4827

> <Gold.Chemscore.DG>
-20.0808

> <Gold.Chemscore.ZeroCoef>
-5.4800

> <Gold.Chemscore.Hbond>
2.2455

> <Gold.Chemscore.Metal>
0.0000

> <Gold.Chemscore.Lipo>
105.0999

> <Gold.Chemscore.Internal_Hbond>
0.0000

> <Gold.Chemscore.DEClash>
0.0437

> <Gold.Chemscore.DEInternal>
1.5543

> <Gold.Chemscore.Rot>
2.0297

> <Gold.Chemscore.Internal.Correction>
   9.000000E+99

> <Gold.Chemscore.Hbonds>
donor molecule, donor type, donor heavy atom, donor atom, acceptor molecule, acceptor atom, score
      L1  H    22    47       P1  7948  0.97
      P1  H  7997  8010       L1    12  0.79
      P1  H 10752 10764       L1    14  0.20

> <Gold.Chemscore.Hbond.Weighted>
-7.5000

> <Gold.Chemscore.Metal.Weighted>
-0.0000

> <Gold.Chemscore.Lipo.Weighted>
-12.2967

> <Gold.Chemscore.Internal_Hbond.Weighted>
0.0000

> <Gold.Chemscore.DEClash.Weighted>
0.0437

> <Gold.Chemscore.DEInternal.Weighted>
1.5543

> <Gold.Chemscore.Rot.Weighted>
5.1960

> <Gold.Chemscore.Internal.Correction.Weighted>
   9.000000E+99

> <Gold.Protein.RotatedTorsions>
[ 6907 6896 6895 6894 ] final  -91.23 input  -60.11 | X-H torsion
[ 7974 7965 7964 7962 ] final   12.21 input  175.53 | X-H torsion
[ 8008 7997 7996 7995 ] final   20.85 input   59.86 | X-H torsion
[ 10167 10162 10161 10158 ] final  166.39 input  -65.29 | X-H torsion
[ 10718 10713 10712 10709 ] final -142.41 input   66.30 | X-H torsion
[ 10763 10752 10751 10750 ] final  -12.17 input  -60.55 | X-H torsion
[ 11005 11000 10999 10996 ] final -102.62 input  -57.11 | X-H torsion

> <Gold.Protein.ActiveResidues>
 VAL166  LYS551  ARG553  GLY616  TRP617  ASP618  TYR619  PRO620  LYS621  CYS622 
 ASP623  PHE694  ASN695  SER759  ASP760  ASP761  ALA762  ILE779  LEU786  VAL792 
 PHE793  MET794  SER795  GLU796  ALA797  LYS798  CYS799  TRP800  GLU811  SER814 

> <Gold.Protein.RotatedAtoms>
  150.6890  134.2309  159.4433 H   0  0  0  0  0  0  0  0  0  0  0  0  # atno 6907 bound_to 6896
  152.0260  134.9793  160.0581 H   0  0  0  0  0  0  0  0  0  0  0  0  # atno 6908 bound_to 6896
  152.1351  133.4396  159.4776 H   0  0  0  0  0  0  0  0  0  0  0  0  # atno 6909 bound_to 6896
  146.2356  139.9370  142.8488 H   0  0  0  0  0  0  0  0  0  0  0  0  # atno 7974 bound_to 7965
  154.9417  140.3054  155.5117 H   0  0  0  0  0  0  0  0  0  0  0  0  # atno 8008 bound_to 7997
  156.2995  140.2335  156.4425 H   0  0  0  0  0  0  0  0  0  0  0  0  # atno 8009 bound_to 7997
  154.8139  140.0427  157.1351 H   0  0  0  0  0  0  0  0  0  0  0  0  # atno 8010 bound_to 7997
  139.4924  144.4032  151.9385 H   0  0  0  0  0  0  0  0  0  0  0  0  # atno 10167 bound_to 10162
  156.3456  130.7660  151.1804 H   0  0  0  0  0  0  0  0  0  0  0  0  # atno 10718 bound_to 10713
  153.4946  135.7017  153.5865 H   0  0  0  0  0  0  0  0  0  0  0  0  # atno 10763 bound_to 10752
  153.4023  135.3869  155.1996 H   0  0  0  0  0  0  0  0  0  0  0  0  # atno 10764 bound_to 10752
  154.8714  135.3884  154.4410 H   0  0  0  0  0  0  0  0  0  0  0  0  # atno 10765 bound_to 10752
  141.1181  133.8573  157.1383 H   0  0  0  0  0  0  0  0  0  0  0  0  # atno 11005 bound_to 11000
  145.1989  140.9846  143.4167 LP  0  0  0  0  0  0  0  0  0  0  0  0  # atno 17320 bound_to 7965
  144.9791  139.3802  143.6271 LP  0  0  0  0  0  0  0  0  0  0  0  0  # atno 17321 bound_to 7965
  140.3472  144.3133  150.5956 LP  0  0  0  0  0  0  0  0  0  0  0  0  # atno 17342 bound_to 10162
  140.5516  143.2205  151.7917 LP  0  0  0  0  0  0  0  0  0  0  0  0  # atno 17343 bound_to 10162
  157.7453  131.0442  150.4782 LP  0  0  0  0  0  0  0  0  0  0  0  0  # atno 17370 bound_to 10713
  156.4969  130.4108  149.6375 LP  0  0  0  0  0  0  0  0  0  0  0  0  # atno 17371 bound_to 10713
  140.0118  134.9985  157.0411 LP  0  0  0  0  0  0  0  0  0  0  0  0  # atno 17394 bound_to 11000
  140.4587  134.1507  155.7189 LP  0  0  0  0  0  0  0  0  0  0  0  0  # atno 17395 bound_to 11000

$$$$
