AV-unprocessed.smi:2180|AV-procd|sdf|8859|dock9
  -GOLD-   2272012 53D 1   1.00000     0.00000
 Structure written by MMmdl.
 39 40  0  0  0  0  0  0  0  0  1 V2000
  153.1772  143.1411  162.6948 C   0  0  0  0  0  0  0  0  0  0  0  0
  152.8052  143.2249  161.2436 C   0  0  0  0  0  0  0  0  0  0  0  0
  152.5887  144.3892  160.4551 C   0  0  0  0  0  0  0  0  0  0  0  0
  152.2770  143.9057  159.2156 C   0  0  0  0  0  0  0  0  0  0  0  0
  151.9406  144.6402  157.9587 C   0  0  0  0  0  0  0  0  0  0  0  0
  152.3149  142.5237  159.3028 N   0  0  0  0  0  0  0  0  0  0  0  0
  152.0584  141.5259  158.2751 C   0  0  0  0  0  0  0  0  0  0  0  0
  150.7004  141.7542  157.6094 C   0  0  0  0  0  0  0  0  0  0  0  0
  149.9919  142.6978  157.9594 O   0  0  0  0  0  0  0  0  0  0  0  0
  150.3559  140.8853  156.6463 N   0  0  0  0  0  0  0  0  0  0  0  0
  149.1373  140.9371  155.8405 C   0  0  2  0  0  0  0  0  0  0  0  0
  147.9938  140.1445  156.5242 C   0  0  0  0  0  0  0  0  0  0  0  0
  146.8861  139.6120  155.5910 C   0  0  0  0  0  0  0  0  0  0  0  0
  146.2251  140.6636  154.6769 C   0  0  0  0  0  0  0  0  0  0  0  0
  147.1684  141.4865  153.7669 C   0  0  0  0  0  0  0  0  0  0  0  0
  148.4437  140.8347  153.4703 N   0  0  0  0  0  0  0  0  0  0  0  0
  149.4089  140.5716  154.3682 C   0  0  0  0  0  0  0  0  0  0  0  0
  150.4674  140.0393  154.0357 O   0  0  0  0  0  0  0  0  0  0  0  0
  152.6429  142.1123  160.5474 N   0  0  0  0  0  0  0  0  0  0  0  0
  153.0633  144.1074  163.1864 H   0  0  0  0  0  0  0  0  0  0  0  0
  154.2141  142.8267  162.8150 H   0  0  0  0  0  0  0  0  0  0  0  0
  152.5475  142.4251  163.2238 H   0  0  0  0  0  0  0  0  0  0  0  0
  152.6515  145.4246  160.7554 H   0  0  0  0  0  0  0  0  0  0  0  0
  152.2062  145.6941  158.0430 H   0  0  0  0  0  0  0  0  0  0  0  0
  150.8723  144.5822  157.7507 H   0  0  0  0  0  0  0  0  0  0  0  0
  152.4779  144.2301  157.1036 H   0  0  0  0  0  0  0  0  0  0  0  0
  152.8620  141.5577  157.5385 H   0  0  0  0  0  0  0  0  0  0  0  0
  152.0800  140.5299  158.7207 H   0  0  0  0  0  0  0  0  0  0  0  0
  151.0045  140.1429  156.4268 H   0  0  0  0  0  0  0  0  0  0  0  0
  148.8377  141.9858  155.8191 H   0  0  0  0  0  0  0  0  0  0  0  0
  148.4143  139.2877  157.0531 H   0  0  0  0  0  0  0  0  0  0  0  0
  147.5434  140.7713  157.2948 H   0  0  0  0  0  0  0  0  0  0  0  0
  147.2868  138.8036  154.9780 H   0  0  0  0  0  0  0  0  0  0  0  0
  146.1126  139.1445  156.2009 H   0  0  0  0  0  0  0  0  0  0  0  0
  145.5077  140.1414  154.0428 H   0  0  0  0  0  0  0  0  0  0  0  0
  145.6314  141.3502  155.2814 H   0  0  0  0  0  0  0  0  0  0  0  0
  146.6655  141.7025  152.8241 H   0  0  0  0  0  0  0  0  0  0  0  0
  147.3634  142.4612  154.2156 H   0  0  0  0  0  0  0  0  0  0  0  0
  148.6143  140.5812  152.5075 H   0  0  0  0  0  0  0  0  0  0  0  0
  1  2  1  0  0  0  0
  1 20  1  0  0  0  0
  1 21  1  0  0  0  0
  1 22  1  0  0  0  0
  2 19  2  0  0  0  0
  2  3  1  0  0  0  0
  3  4  2  0  0  0  0
  3 23  1  0  0  0  0
  4  5  1  0  0  0  0
  4  6  1  0  0  0  0
  5 24  1  0  0  0  0
  5 25  1  0  0  0  0
  5 26  1  0  0  0  0
  6  7  1  0  0  0  0
  6 19  1  0  0  0  0
  7  8  1  0  0  0  0
  7 27  1  0  0  0  0
  7 28  1  0  0  0  0
  8  9  2  0  0  0  0
  8 10  1  0  0  0  0
 10 11  1  0  0  0  0
 10 29  1  0  0  0  0
 11 17  1  0  0  0  0
 11 12  1  0  0  0  0
 11 30  1  0  0  0  0
 12 13  1  0  0  0  0
 12 31  1  0  0  0  0
 12 32  1  0  0  0  0
 13 14  1  0  0  0  0
 13 33  1  0  0  0  0
 13 34  1  0  0  0  0
 14 15  1  0  0  0  0
 14 35  1  0  0  0  0
 14 36  1  0  0  0  0
 15 16  1  0  0  0  0
 15 37  1  0  0  0  0
 15 38  1  0  0  0  0
 16 17  1  0  0  0  0
 16 39  1  0  0  0  0
 17 18  2  0  0  0  0
M  END
> <s_m_source_file>
AV-unprocessed.smi

> <i_m_source_file_index>
2180

> <i_lp_mmshare_version>
43012

> <i_f3d_flags>
0

> <s_epik_input>
W0NIM11jMVtjSF1jKFtDSDNdKW4objEpW0NIMl1DKD1PKVtOSF1bQ0BASF0yW0NIMl1bQ0gyXVtDSDJdW0NIMl1bTkhdQzI9Tw==

> <s_epik_cmdline>
J2VwaWtfcHl0aG9uJywgJy1waCcsICc3LjAnLCAnLXRuJywgJzgnLCAnLW1hJywgJzIwMCcsICctbWV0YWxfYmluZGluZycsICctaW1hZScsICc8aW5maWxlLm1hZT4nLCAnLW9tYWUnLCAnPG91dGZpbGUubWFlPic=

> <r_lp_tautomer_probability>
1

> <r_epik_Ionization_Penalty>
0.000287215

> <r_epik_Ionization_Penalty_Charging>
0

> <r_epik_Ionization_Penalty_Neutral>
0.000287215

> <r_epik_State_Penalty>
-0

> <r_epik_Charging_Adjusted_Penalty>
0

> <i_epik_Tot_Q>
0

> <i_epik_Tot_abs_Q>
0

> <r_epik_Metal_State_Penalty>
-0

> <b_epik_Metal_Only>
0

> <s_lp_Force_Field>
OPLS_2005

> <r_lp_Energy>
13.5369

> <b_lp_Chiralities_Consistent>
1

> <s_lp_Variant>
AV-unprocessed.smi:2180-1

> <Gold.Version>
5.8.1

> <Gold.Id.Protein>
6NUR|6NUR_protein|mol2

> <Gold.PLP.Fitness>
44.3264

> <Gold.PLP.PLP>
-39.0163

> <Gold.PLP.part.hbond>
-2.0000

> <Gold.PLP.part.metal>
0.0000

> <Gold.PLP.part.buried>
-6.5774

> <Gold.PLP.part.nonpolar>
-30.4469

> <Gold.PLP.part.repulsive>
0.9996

> <Gold.PLP.ligand.clash>
0.0000

> <Gold.PLP.ligand.torsion>
0.3717

> <Gold.PLP.Chemscore.Hbond>
2.0000

> <Gold.PLP.Chemscore.CHOScore>
0.0000

> <Gold.PLP.Chemscore.Metal>
0.0000

> <Gold.Chemscore.Hbonds>
donor molecule, donor type, donor heavy atom, donor atom, acceptor molecule, acceptor atom, score
      L1  H    16    39       P1  7957  1.00
      P1  H  7989  7998       L1    18  0.98

> <Gold.PLP.Chemscore.Internal.Correction>
0.0534

> <Gold.Rescore>
     Score         DG    S(hbond)    S(metal)    S(lipo)     H(rot)  DE(clash)    DE(int)     intcor
     17.16     -18.43       1.95        0.00      87.46       1.48       0.07       1.20       ----

> <Gold.Chemscore.Fitness>
17.1567

> <Gold.Chemscore.DG>
-18.4271

> <Gold.Chemscore.ZeroCoef>
-5.4800

> <Gold.Chemscore.Hbond>
1.9503

> <Gold.Chemscore.Metal>
0.0000

> <Gold.Chemscore.Lipo>
87.4556

> <Gold.Chemscore.Internal_Hbond>
0.0000

> <Gold.Chemscore.DEClash>
0.0732

> <Gold.Chemscore.DEInternal>
1.1973

> <Gold.Chemscore.Rot>
1.4840

> <Gold.Chemscore.Internal.Correction>
   9.000000E+99

> <Gold.Chemscore.Hbonds>
donor molecule, donor type, donor heavy atom, donor atom, acceptor molecule, acceptor atom, score
      L1  H    16    39       P1  7957  0.98
      P1  H  7989  7998       L1    18  0.88

> <Gold.Chemscore.Hbond.Weighted>
-6.5139

> <Gold.Chemscore.Metal.Weighted>
-0.0000

> <Gold.Chemscore.Lipo.Weighted>
-10.2323

> <Gold.Chemscore.Internal_Hbond.Weighted>
0.0000

> <Gold.Chemscore.DEClash.Weighted>
0.0732

> <Gold.Chemscore.DEInternal.Weighted>
1.1973

> <Gold.Chemscore.Rot.Weighted>
3.7991

> <Gold.Chemscore.Internal.Correction.Weighted>
   9.000000E+99

> <Gold.Protein.RotatedTorsions>
[ 6907 6896 6895 6894 ] final   83.35 input  -60.11 | X-H torsion
[ 7974 7965 7964 7962 ] final  150.86 input  175.53 | X-H torsion
[ 8008 7997 7996 7995 ] final  126.13 input   59.86 | X-H torsion
[ 10167 10162 10161 10158 ] final  -25.70 input  -65.29 | X-H torsion
[ 10718 10713 10712 10709 ] final  -72.36 input   66.30 | X-H torsion
[ 10763 10752 10751 10750 ] final  149.36 input  -60.55 | X-H torsion
[ 11005 11000 10999 10996 ] final  165.72 input  -57.11 | X-H torsion

> <Gold.Protein.ActiveResidues>
 VAL166  LYS551  ARG553  GLY616  TRP617  ASP618  TYR619  PRO620  LYS621  CYS622 
 ASP623  PHE694  ASN695  SER759  ASP760  ASP761  ALA762  ILE779  LEU786  VAL792 
 PHE793  MET794  SER795  GLU796  ALA797  LYS798  CYS799  TRP800  GLU811  SER814 

> <Gold.Protein.RotatedAtoms>
  152.5325  134.2909  159.9042 H   0  0  0  0  0  0  0  0  0  0  0  0  # atno 6907 bound_to 6896
  151.2861  133.4180  159.2637 H   0  0  0  0  0  0  0  0  0  0  0  0  # atno 6908 bound_to 6896
  151.0241  134.9506  159.8132 H   0  0  0  0  0  0  0  0  0  0  0  0  # atno 6909 bound_to 6896
  144.8334  139.6463  143.6049 H   0  0  0  0  0  0  0  0  0  0  0  0  # atno 7974 bound_to 7965
  156.2855  140.2700  156.2062 H   0  0  0  0  0  0  0  0  0  0  0  0  # atno 8008 bound_to 7997
  155.0311  140.0386  157.2492 H   0  0  0  0  0  0  0  0  0  0  0  0  # atno 8009 bound_to 7997
  154.7354  140.2714  155.6425 H   0  0  0  0  0  0  0  0  0  0  0  0  # atno 8010 bound_to 7997
  140.7285  143.4242  151.0904 H   0  0  0  0  0  0  0  0  0  0  0  0  # atno 10167 bound_to 10162
  156.0323  130.4371  150.2582 H   0  0  0  0  0  0  0  0  0  0  0  0  # atno 10718 bound_to 10713
  154.0698  135.2867  155.3310 H   0  0  0  0  0  0  0  0  0  0  0  0  # atno 10763 bound_to 10752
  154.6754  135.5284  153.8196 H   0  0  0  0  0  0  0  0  0  0  0  0  # atno 10764 bound_to 10752
  153.0490  135.6568  154.0880 H   0  0  0  0  0  0  0  0  0  0  0  0  # atno 10765 bound_to 10752
  140.2590  134.7917  157.3572 H   0  0  0  0  0  0  0  0  0  0  0  0  # atno 11005 bound_to 11000
  146.2635  139.6464  142.9346 LP  0  0  0  0  0  0  0  0  0  0  0  0  # atno 17320 bound_to 7965
  145.4847  141.0438  143.2626 LP  0  0  0  0  0  0  0  0  0  0  0  0  # atno 17321 bound_to 7965
  139.7891  143.8245  152.3149 LP  0  0  0  0  0  0  0  0  0  0  0  0  # atno 17342 bound_to 10162
  139.8222  144.7290  150.9558 LP  0  0  0  0  0  0  0  0  0  0  0  0  # atno 17343 bound_to 10162
  157.0683  131.0109  151.3199 LP  0  0  0  0  0  0  0  0  0  0  0  0  # atno 17370 bound_to 10713
  157.5018  130.7885  149.7613 LP  0  0  0  0  0  0  0  0  0  0  0  0  # atno 17371 bound_to 10713
  140.1483  134.4882  155.7980 LP  0  0  0  0  0  0  0  0  0  0  0  0  # atno 17394 bound_to 11000
  141.2192  133.6852  156.7333 LP  0  0  0  0  0  0  0  0  0  0  0  0  # atno 17395 bound_to 11000

$$$$
