AV-unprocessed.smi:1230|AV-procd|sdf|5152|dock2
  -GOLD-   22720 4223D 1   1.00000     0.00000
 Structure written by MMmdl.
 38 39  0  0  0  0  0  0  0  0  2 V2000
  153.1120  141.6566  159.6901 C   0  0  0  0  0  0  0  0  0  0  0  0
  152.5127  143.0465  159.4202 C   0  0  2  0  0  0  0  0  0  0  0  0
  152.5225  143.9014  160.7036 C   0  0  0  0  0  0  0  0  0  0  0  0
  151.9220  145.2952  160.4654 C   0  0  0  0  0  0  0  0  0  0  0  0
  150.4996  145.1924  159.8982 C   0  0  0  0  0  0  0  0  0  0  0  0
  150.4805  144.3526  158.6130 C   0  0  0  0  0  0  0  0  0  0  0  0
  151.0836  142.9499  158.8402 C   0  0  1  0  0  0  0  0  0  0  0  0
  151.1597  142.2811  157.5895 O   0  0  0  0  0  0  0  0  0  0  0  0
  149.9045  141.8734  157.0651 C   0  0  0  0  0  0  0  0  0  0  0  0
  150.0455  141.6742  155.5490 C   0  0  0  0  0  0  0  0  0  0  0  0
  150.4516  140.2976  155.2334 N   0  0  0  0  0  0  0  0  0  0  0  0
  151.7643  139.9177  155.5609 C   0  0  0  0  0  0  0  0  0  0  0  0
  152.2343  138.6875  155.2819 C   0  0  0  0  0  0  0  0  0  0  0  0
  153.5650  138.2814  155.5938 C   0  0  0  0  0  0  0  0  0  0  0  0
  154.6376  137.9216  155.8409 N   0  0  0  0  0  0  0  0  0  0  0  0
  151.3465  137.7315  154.6246 C   0  0  0  0  0  0  0  0  0  0  0  0
  151.7470  136.5977  154.3639 O   0  0  0  0  0  0  0  0  0  0  0  0
  150.0838  138.1556  154.3233 N   0  5  0  0  0  0  0  0  0  0  0  0
  149.6200  139.4134  154.6046 C   0  0  0  0  0  0  0  0  0  0  0  0
  148.4816  139.7761  154.3072 O   0  0  0  0  0  0  0  0  0  0  0  0
  152.5156  141.1020  160.4151 H   0  0  0  0  0  0  0  0  0  0  0  0
  154.1252  141.7363  160.0846 H   0  0  0  0  0  0  0  0  0  0  0  0
  153.1635  141.0623  158.7777 H   0  0  0  0  0  0  0  0  0  0  0  0
  153.1447  143.5434  158.6824 H   0  0  0  0  0  0  0  0  0  0  0  0
  151.9589  143.3945  161.4882 H   0  0  0  0  0  0  0  0  0  0  0  0
  153.5426  144.0043  161.0752 H   0  0  0  0  0  0  0  0  0  0  0  0
  151.9106  145.8606  161.3975 H   0  0  0  0  0  0  0  0  0  0  0  0
  152.5531  145.8527  159.7721 H   0  0  0  0  0  0  0  0  0  0  0  0
  149.8392  144.7420  160.6404 H   0  0  0  0  0  0  0  0  0  0  0  0
  150.1064  146.1891  159.6963 H   0  0  0  0  0  0  0  0  0  0  0  0
  149.4568  144.2773  158.2468 H   0  0  0  0  0  0  0  0  0  0  0  0
  151.0443  144.8690  157.8350 H   0  0  0  0  0  0  0  0  0  0  0  0
  150.4610  142.3846  159.5370 H   0  0  0  0  0  0  0  0  0  0  0  0
  149.6066  140.9398  157.5433 H   0  0  0  0  0  0  0  0  0  0  0  0
  149.1218  142.6034  157.2741 H   0  0  0  0  0  0  0  0  0  0  0  0
  149.1051  141.9197  155.0537 H   0  0  0  0  0  0  0  0  0  0  0  0
  150.7714  142.3838  155.1494 H   0  0  0  0  0  0  0  0  0  0  0  0
  152.3597  140.6841  156.0356 H   0  0  0  0  0  0  0  0  0  0  0  0
  1  2  1  0  0  0  0
  1 21  1  0  0  0  0
  1 22  1  0  0  0  0
  1 23  1  0  0  0  0
  2  7  1  0  0  0  0
  2  3  1  0  0  0  0
  2 24  1  0  0  0  0
  3  4  1  0  0  0  0
  3 25  1  0  0  0  0
  3 26  1  0  0  0  0
  4  5  1  0  0  0  0
  4 27  1  0  0  0  0
  4 28  1  0  0  0  0
  5  6  1  0  0  0  0
  5 29  1  0  0  0  0
  5 30  1  0  0  0  0
  6  7  1  0  0  0  0
  6 31  1  0  0  0  0
  6 32  1  0  0  0  0
  7  8  1  0  0  0  0
  7 33  1  0  0  0  0
  8  9  1  0  0  0  0
  9 10  1  0  0  0  0
  9 34  1  0  0  0  0
  9 35  1  0  0  0  0
 10 11  1  0  0  0  0
 10 36  1  0  0  0  0
 10 37  1  0  0  0  0
 11 19  1  0  0  0  0
 11 12  1  0  0  0  0
 12 13  2  0  0  0  0
 12 38  1  0  0  0  0
 13 14  1  0  0  0  0
 13 16  1  0  0  0  0
 14 15  3  0  0  0  0
 16 17  2  0  0  0  0
 16 18  1  0  0  0  0
 18 19  1  0  0  0  0
 19 20  2  0  0  0  0
M  CHG  1  18  -1
M  END
> <s_m_source_file>
AV-unprocessed.smi

> <i_m_source_file_index>
1230

> <i_lp_mmshare_version>
43012

> <i_f3d_flags>
0

> <s_epik_input>
W0NIM11bQ0BASF0xW0NIMl1bQ0gyXVtDSDJdW0NIMl1bQ0BIXTFPW0NIMl1bQ0gyXW4yW2NIXWMoQyNOKWMoPU8pW25IXWMyPU8=

> <s_epik_cmdline>
J2VwaWtfcHl0aG9uJywgJy1waCcsICc3LjAnLCAnLXRuJywgJzgnLCAnLW1hJywgJzIwMCcsICctbWV0YWxfYmluZGluZycsICctaW1hZScsICc8aW5maWxlLm1hZT4nLCAnLW9tYWUnLCAnPG91dGZpbGUubWFlPic=

> <r_epik_Ionization_Penalty>
0.400014

> <r_epik_Ionization_Penalty_Charging>
4.81474e-10

> <r_epik_Ionization_Penalty_Neutral>
0.400014

> <r_epik_State_Penalty>
0.399305

> <r_epik_Charging_Adjusted_Penalty>
0.399305

> <i_epik_Tot_Q>
-1

> <i_epik_Tot_abs_Q>
1

> <r_epik_Metal_State_Penalty>
0.00056968

> <b_epik_Metal_Only>
0

> <s_lp_Force_Field>
OPLS_2005

> <r_lp_Energy>
24.1099

> <b_lp_Chiralities_Consistent>
1

> <s_lp_Variant>
AV-unprocessed.smi:1230-1

> <Gold.Version>
5.8.1

> <Gold.Id.Protein>
6NUR|6NUR_protein|mol2

> <Gold.PLP.Fitness>
45.1175

> <Gold.PLP.PLP>
-42.9734

> <Gold.PLP.part.hbond>
-3.0000

> <Gold.PLP.part.metal>
0.0000

> <Gold.PLP.part.buried>
-2.8693

> <Gold.PLP.part.nonpolar>
-38.3676

> <Gold.PLP.part.repulsive>
1.4585

> <Gold.PLP.ligand.clash>
0.0000

> <Gold.PLP.ligand.torsion>
0.4441

> <Gold.PLP.Chemscore.Hbond>
1.0000

> <Gold.PLP.Chemscore.CHOScore>
0.0000

> <Gold.PLP.Chemscore.Metal>
0.0000

> <Gold.Chemscore.Hbonds>
donor molecule, donor type, donor heavy atom, donor atom, acceptor molecule, acceptor atom, score
      P1  H 10752 10764       L1    17  1.00

> <Gold.PLP.Chemscore.Internal.Correction>
0.0323

> <Gold.Rescore>
     Score         DG    S(hbond)    S(metal)    S(lipo)     H(rot)  DE(clash)    DE(int)     intcor
     15.68     -16.37       1.09        0.00     103.49       1.90       0.31       0.38       ----

> <Gold.Chemscore.Fitness>
15.6803

> <Gold.Chemscore.DG>
-16.3701

> <Gold.Chemscore.ZeroCoef>
-5.4800

> <Gold.Chemscore.Hbond>
1.0904

> <Gold.Chemscore.Metal>
0.0000

> <Gold.Chemscore.Lipo>
103.4876

> <Gold.Chemscore.Internal_Hbond>
0.0000

> <Gold.Chemscore.DEClash>
0.3108

> <Gold.Chemscore.DEInternal>
0.3790

> <Gold.Chemscore.Rot>
1.8984

> <Gold.Chemscore.Internal.Correction>
   9.000000E+99

> <Gold.Chemscore.Hbonds>
donor molecule, donor type, donor heavy atom, donor atom, acceptor molecule, acceptor atom, score
      P1  H 10752 10764       L1    17  0.94

> <Gold.Chemscore.Hbond.Weighted>
-3.6418

> <Gold.Chemscore.Metal.Weighted>
-0.0000

> <Gold.Chemscore.Lipo.Weighted>
-12.1081

> <Gold.Chemscore.Internal_Hbond.Weighted>
0.0000

> <Gold.Chemscore.DEClash.Weighted>
0.3108

> <Gold.Chemscore.DEInternal.Weighted>
0.3790

> <Gold.Chemscore.Rot.Weighted>
4.8598

> <Gold.Chemscore.Internal.Correction.Weighted>
   9.000000E+99

> <Gold.Protein.RotatedTorsions>
[ 6907 6896 6895 6894 ] final   12.04 input  -60.11 | X-H torsion
[ 7974 7965 7964 7962 ] final  -51.22 input  175.53 | X-H torsion
[ 8008 7997 7996 7995 ] final  -44.67 input   59.86 | X-H torsion
[ 10167 10162 10161 10158 ] final  121.50 input  -65.29 | X-H torsion
[ 10718 10713 10712 10709 ] final  123.07 input   66.30 | X-H torsion
[ 10763 10752 10751 10750 ] final  -87.53 input  -60.55 | X-H torsion
[ 11005 11000 10999 10996 ] final   68.29 input  -57.11 | X-H torsion

> <Gold.Protein.ActiveResidues>
 VAL166  LYS551  ARG553  GLY616  TRP617  ASP618  TYR619  PRO620  LYS621  CYS622 
 ASP623  PHE694  ASN695  SER759  ASP760  ASP761  ALA762  ILE779  LEU786  VAL792 
 PHE793  MET794  SER795  GLU796  ALA797  LYS798  CYS799  TRP800  GLU811  SER814 

> <Gold.Protein.RotatedAtoms>
  151.7640  135.0803  160.0349 H   0  0  0  0  0  0  0  0  0  0  0  0  # atno 6907 bound_to 6896
  152.3333  133.5979  159.5833 H   0  0  0  0  0  0  0  0  0  0  0  0  # atno 6908 bound_to 6896
  150.7435  133.9750  159.3599 H   0  0  0  0  0  0  0  0  0  0  0  0  # atno 6909 bound_to 6896
  145.9213  140.7831  142.9646 H   0  0  0  0  0  0  0  0  0  0  0  0  # atno 7974 bound_to 7965
  154.3998  140.1416  156.3722 H   0  0  0  0  0  0  0  0  0  0  0  0  # atno 8008 bound_to 7997
  155.8082  140.3473  155.5421 H   0  0  0  0  0  0  0  0  0  0  0  0  # atno 8009 bound_to 7997
  155.8413  140.0927  157.1723 H   0  0  0  0  0  0  0  0  0  0  0  0  # atno 8010 bound_to 7997
  139.5916  144.7027  151.3277 H   0  0  0  0  0  0  0  0  0  0  0  0  # atno 10167 bound_to 10162
  157.5693  131.1084  150.8396 H   0  0  0  0  0  0  0  0  0  0  0  0  # atno 10718 bound_to 10713
  154.6346  135.5410  153.7719 H   0  0  0  0  0  0  0  0  0  0  0  0  # atno 10763 bound_to 10752
  153.0302  135.6444  154.1250 H   0  0  0  0  0  0  0  0  0  0  0  0  # atno 10764 bound_to 10752
  154.1178  135.2922  155.3195 H   0  0  0  0  0  0  0  0  0  0  0  0  # atno 10765 bound_to 10752
  139.9720  134.6884  156.0428 H   0  0  0  0  0  0  0  0  0  0  0  0  # atno 11005 bound_to 11000
  144.6753  140.1981  143.7390 LP  0  0  0  0  0  0  0  0  0  0  0  0  # atno 17320 bound_to 7965
  145.8546  139.2192  143.1752 LP  0  0  0  0  0  0  0  0  0  0  0  0  # atno 17321 bound_to 7965
  140.7177  143.7220  150.7688 LP  0  0  0  0  0  0  0  0  0  0  0  0  # atno 17342 bound_to 10162
  140.0777  143.4999  152.2546 LP  0  0  0  0  0  0  0  0  0  0  0  0  # atno 17343 bound_to 10162
  156.8872  130.5200  149.5288 LP  0  0  0  0  0  0  0  0  0  0  0  0  # atno 17370 bound_to 10713
  156.0739  130.5766  150.9437 LP  0  0  0  0  0  0  0  0  0  0  0  0  # atno 17371 bound_to 10713
  141.1399  133.6567  156.3701 LP  0  0  0  0  0  0  0  0  0  0  0  0  # atno 17394 bound_to 11000
  140.5273  134.6247  157.5338 LP  0  0  0  0  0  0  0  0  0  0  0  0  # atno 17395 bound_to 11000

$$$$
