AV-unprocessed.smi:1389|AV-procd|sdf|5652|dock8
  -GOLD-   22720 5273D 1   1.00000     0.00000
 Structure written by MMmdl.
 53 55  0  0  0  0  0  0  0  0  3 V2000
  149.1219  139.9835  154.5281 C   0  0  0  0  0  0  0  0  0  0  0  0
  149.0877  141.2360  155.4391 C   0  0  2  0  0  0  0  0  0  0  0  0
  149.3198  140.8401  156.9243 C   0  0  0  0  0  0  0  0  0  0  0  0
  150.6926  140.4247  157.2079 N   0  0  0  0  0  0  0  0  0  0  0  0
  151.3099  140.5441  158.3927 C   0  0  0  0  0  0  0  0  0  0  0  0
  150.7666  140.9964  159.4002 O   0  0  0  0  0  0  0  0  0  0  0  0
  152.5842  140.1234  158.3264 N   0  0  0  0  0  0  0  0  0  0  0  0
  153.5575  140.1195  159.3660 C   0  0  0  0  0  0  0  0  0  0  0  0
  154.4830  139.0585  159.5381 C   0  0  0  0  0  0  0  0  0  0  0  0
  155.4348  139.1227  160.5748 C   0  0  0  0  0  0  0  0  0  0  0  0
  155.4550  140.2493  161.4171 C   0  0  0  0  0  0  0  0  0  0  0  0
  154.5716  141.2498  161.2173 N   0  3  0  0  0  0  0  0  0  0  0  0
  153.6352  141.2365  160.2368 C   0  0  0  0  0  0  0  0  0  0  0  0
  152.7658  142.3340  160.1113 N   0  0  0  0  0  0  0  0  0  0  0  0
  152.6450  143.1873  161.2824 C   0  0  0  0  0  0  0  0  0  0  0  0
  151.9860  144.4747  160.7814 C   0  0  0  0  0  0  0  0  0  0  0  0
  152.2752  144.5044  159.2755 C   0  0  0  0  0  0  0  0  0  0  0  0
  153.0615  143.2200  158.9981 C   0  0  0  0  0  0  0  0  0  0  0  0
  147.8198  142.0263  155.2769 N   0  3  0  0  0  0  0  0  0  0  0  0
  147.2689  141.9818  153.8928 C   0  0  0  0  0  0  0  0  0  0  0  0
  145.9903  142.8263  153.7666 C   0  0  0  0  0  0  0  0  0  0  0  0
  145.0224  142.3655  154.6951 O   0  0  0  0  0  0  0  0  0  0  0  0
  145.4793  142.5189  156.0291 C   0  0  0  0  0  0  0  0  0  0  0  0
  146.7461  141.6741  156.2497 C   0  0  0  0  0  0  0  0  0  0  0  0
  150.0286  139.3974  154.6711 H   0  0  0  0  0  0  0  0  0  0  0  0
  149.1214  140.2405  153.4694 H   0  0  0  0  0  0  0  0  0  0  0  0
  148.2730  139.3274  154.7228 H   0  0  0  0  0  0  0  0  0  0  0  0
  149.9135  141.8784  155.1291 H   0  0  0  0  0  0  0  0  0  0  0  0
  149.1485  141.6856  157.5873 H   0  0  0  0  0  0  0  0  0  0  0  0
  148.6054  140.0708  157.2227 H   0  0  0  0  0  0  0  0  0  0  0  0
  151.2174  140.0397  156.4359 H   0  0  0  0  0  0  0  0  0  0  0  0
  152.9234  139.8674  157.4106 H   0  0  0  0  0  0  0  0  0  0  0  0
  154.4881  138.2008  158.8830 H   0  0  0  0  0  0  0  0  0  0  0  0
  156.1434  138.3198  160.7181 H   0  0  0  0  0  0  0  0  0  0  0  0
  156.1493  140.3831  162.2339 H   0  0  0  0  0  0  0  0  0  0  0  0
  152.0481  142.7071  162.0584 H   0  0  0  0  0  0  0  0  0  0  0  0
  153.6265  143.4111  161.7025 H   0  0  0  0  0  0  0  0  0  0  0  0
  150.9091  144.4402  160.9514 H   0  0  0  0  0  0  0  0  0  0  0  0
  152.3753  145.3531  161.2969 H   0  0  0  0  0  0  0  0  0  0  0  0
  151.3381  144.5056  158.7173 H   0  0  0  0  0  0  0  0  0  0  0  0
  152.8386  145.3897  158.9795 H   0  0  0  0  0  0  0  0  0  0  0  0
  154.1302  143.4350  158.9568 H   0  0  0  0  0  0  0  0  0  0  0  0
  152.7714  142.7687  158.0488 H   0  0  0  0  0  0  0  0  0  0  0  0
  147.9815  142.3695  153.1682 H   0  0  0  0  0  0  0  0  0  0  0  0
  147.0588  140.9473  153.6168 H   0  0  0  0  0  0  0  0  0  0  0  0
  146.2022  143.8842  153.9314 H   0  0  0  0  0  0  0  0  0  0  0  0
  145.5814  142.7384  152.7599 H   0  0  0  0  0  0  0  0  0  0  0  0
  145.6694  143.5718  156.2444 H   0  0  0  0  0  0  0  0  0  0  0  0
  144.6909  142.1948  156.7087 H   0  0  0  0  0  0  0  0  0  0  0  0
  146.5076  140.6131  156.1624 H   0  0  0  0  0  0  0  0  0  0  0  0
  147.0713  141.8540  157.2732 H   0  0  0  0  0  0  0  0  0  0  0  0
  148.0584  142.9903  155.4618 H   0  0  0  0  0  0  0  0  0  0  0  0
  154.6113  142.0587  161.8378 H   0  0  0  0  0  0  0  0  0  0  0  0
  1  2  1  0  0  0  0
  1 25  1  0  0  0  0
  1 26  1  0  0  0  0
  1 27  1  0  0  0  0
  2  3  1  0  0  0  0
  2 19  1  0  0  0  0
  2 28  1  0  0  0  0
  3  4  1  0  0  0  0
  3 29  1  0  0  0  0
  3 30  1  0  0  0  0
  4  5  1  0  0  0  0
  4 31  1  0  0  0  0
  5  6  2  0  0  0  0
  5  7  1  0  0  0  0
  7  8  1  0  0  0  0
  7 32  1  0  0  0  0
  8 13  1  0  0  0  0
  8  9  2  0  0  0  0
  9 10  1  0  0  0  0
  9 33  1  0  0  0  0
 10 11  2  0  0  0  0
 10 34  1  0  0  0  0
 11 12  1  0  0  0  0
 11 35  1  0  0  0  0
 12 13  2  0  0  0  0
 12 53  1  0  0  0  0
 13 14  1  0  0  0  0
 14 18  1  0  0  0  0
 14 15  1  0  0  0  0
 15 16  1  0  0  0  0
 15 36  1  0  0  0  0
 15 37  1  0  0  0  0
 16 17  1  0  0  0  0
 16 38  1  0  0  0  0
 16 39  1  0  0  0  0
 17 18  1  0  0  0  0
 17 40  1  0  0  0  0
 17 41  1  0  0  0  0
 18 42  1  0  0  0  0
 18 43  1  0  0  0  0
 19 24  1  0  0  0  0
 19 20  1  0  0  0  0
 19 52  1  0  0  0  0
 20 21  1  0  0  0  0
 20 44  1  0  0  0  0
 20 45  1  0  0  0  0
 21 22  1  0  0  0  0
 21 46  1  0  0  0  0
 21 47  1  0  0  0  0
 22 23  1  0  0  0  0
 23 24  1  0  0  0  0
 23 48  1  0  0  0  0
 23 49  1  0  0  0  0
 24 50  1  0  0  0  0
 24 51  1  0  0  0  0
M  CHG  1  12   1
M  CHG  1  19   1
M  END
> <s_m_source_file>
AV-unprocessed.smi

> <i_m_source_file_index>
1389

> <i_lp_mmshare_version>
43012

> <i_f3d_flags>
0

> <s_epik_input>
W0NIMl0xW0NIMl1PW0NIMl1bQ0gyXU4xW0NASF0oW0NIM10pW0NIMl1bTkhdQyg9TylbTkhdYzJbY0hdW2NIXVtjSF1uYzJOM1tDSDJdW0NIMl1bQ0gyXVtDSDJdMw==

> <s_epik_cmdline>
J2VwaWtfcHl0aG9uJywgJy1waCcsICc3LjAnLCAnLXRuJywgJzgnLCAnLW1hJywgJzIwMCcsICctbWV0YWxfYmluZGluZycsICctaW1hZScsICc8aW5maWxlLm1hZT4nLCAnLW9tYWUnLCAnPG91dGZpbGUubWFlPic=

> <r_lp_tautomer_probability>
0.999994

> <r_epik_Ionization_Penalty>
1.80872

> <r_epik_Ionization_Penalty_Charging>
1.8087

> <r_epik_Ionization_Penalty_Neutral>
2.02981e-05

> <r_epik_State_Penalty>
1.84892

> <r_epik_Charging_Adjusted_Penalty>
3.65762

> <i_epik_Tot_Q>
2

> <i_epik_Tot_abs_Q>
2

> <r_epik_Metal_State_Penalty>
1.9311

> <b_epik_Metal_Only>
0

> <s_lp_Force_Field>
OPLS_2005

> <r_lp_Energy>
59.2072

> <b_lp_Chiralities_Consistent>
1

> <s_lp_Variant>
AV-unprocessed.smi:1389-7

> <Gold.Version>
5.8.1

> <Gold.Id.Protein>
6NUR|6NUR_protein|mol2

> <Gold.PLP.Fitness>
47.4929

> <Gold.PLP.PLP>
-45.4747

> <Gold.PLP.part.hbond>
-2.9642

> <Gold.PLP.part.metal>
0.0000

> <Gold.PLP.part.buried>
-6.5061

> <Gold.PLP.part.nonpolar>
-37.4239

> <Gold.PLP.part.repulsive>
0.4358

> <Gold.PLP.ligand.clash>
0.6100

> <Gold.PLP.ligand.torsion>
1.7249

> <Gold.PLP.Chemscore.Hbond>
2.0000

> <Gold.PLP.Chemscore.CHOScore>
0.0000

> <Gold.PLP.Chemscore.Metal>
0.0000

> <Gold.Chemscore.Hbonds>
donor molecule, donor type, donor heavy atom, donor atom, acceptor molecule, acceptor atom, score
      L1  H    19    52       P1  8028  2.00

> <Gold.PLP.Chemscore.Internal.Correction>
0.0780

> <Gold.Rescore>
     Score         DG    S(hbond)    S(metal)    S(lipo)     H(rot)  DE(clash)    DE(int)     intcor
     11.59     -17.34       0.92        0.00     111.40       1.66       0.18       5.58       ----

> <Gold.Chemscore.Fitness>
11.5888

> <Gold.Chemscore.DG>
-17.3444

> <Gold.Chemscore.ZeroCoef>
-5.4800

> <Gold.Chemscore.Hbond>
0.9238

> <Gold.Chemscore.Metal>
0.0000

> <Gold.Chemscore.Lipo>
111.3966

> <Gold.Chemscore.Internal_Hbond>
0.0000

> <Gold.Chemscore.DEClash>
0.1779

> <Gold.Chemscore.DEInternal>
5.5776

> <Gold.Chemscore.Rot>
1.6620

> <Gold.Chemscore.Internal.Correction>
   9.000000E+99

> <Gold.Chemscore.Hbonds>
donor molecule, donor type, donor heavy atom, donor atom, acceptor molecule, acceptor atom, score
      L1  H    19    52       P1  8028  0.88

> <Gold.Chemscore.Hbond.Weighted>
-3.0856

> <Gold.Chemscore.Metal.Weighted>
-0.0000

> <Gold.Chemscore.Lipo.Weighted>
-13.0334

> <Gold.Chemscore.Internal_Hbond.Weighted>
0.0000

> <Gold.Chemscore.DEClash.Weighted>
0.1779

> <Gold.Chemscore.DEInternal.Weighted>
5.5776

> <Gold.Chemscore.Rot.Weighted>
4.2547

> <Gold.Chemscore.Internal.Correction.Weighted>
   9.000000E+99

> <Gold.Protein.RotatedTorsions>
[ 6907 6896 6895 6894 ] final  -53.92 input  -60.11 | X-H torsion
[ 7974 7965 7964 7962 ] final   64.11 input  175.53 | X-H torsion
[ 8008 7997 7996 7995 ] final -129.00 input   59.86 | X-H torsion
[ 10167 10162 10161 10158 ] final  -57.50 input  -65.29 | X-H torsion
[ 10718 10713 10712 10709 ] final  124.88 input   66.30 | X-H torsion
[ 10763 10752 10751 10750 ] final  -53.36 input  -60.55 | X-H torsion
[ 11005 11000 10999 10996 ] final   86.86 input  -57.11 | X-H torsion

> <Gold.Protein.ActiveResidues>
 VAL166  LYS551  ARG553  GLY616  TRP617  ASP618  TYR619  PRO620  LYS621  CYS622 
 ASP623  PHE694  ASN695  SER759  ASP760  ASP761  ALA762  ILE779  LEU786  VAL792 
 PHE793  MET794  SER795  GLU796  ALA797  LYS798  CYS799  TRP800  GLU811  SER814 

> <Gold.Protein.RotatedAtoms>
  150.8384  134.7666  159.6911 H   0  0  0  0  0  0  0  0  0  0  0  0  # atno 6907 bound_to 6896
  152.4476  134.5458  159.9862 H   0  0  0  0  0  0  0  0  0  0  0  0  # atno 6908 bound_to 6896
  151.5603  133.3366  159.3005 H   0  0  0  0  0  0  0  0  0  0  0  0  # atno 6909 bound_to 6896
  145.8540  139.3272  143.0858 H   0  0  0  0  0  0  0  0  0  0  0  0  # atno 7974 bound_to 7965
  155.2720  140.0440  157.3008 H   0  0  0  0  0  0  0  0  0  0  0  0  # atno 8008 bound_to 7997
  154.5647  140.2356  155.8250 H   0  0  0  0  0  0  0  0  0  0  0  0  # atno 8009 bound_to 7997
  156.2076  140.3008  155.9668 H   0  0  0  0  0  0  0  0  0  0  0  0  # atno 8010 bound_to 7997
  140.6254  143.2436  151.5377 H   0  0  0  0  0  0  0  0  0  0  0  0  # atno 10167 bound_to 10162
  157.5549  131.1092  150.8638 H   0  0  0  0  0  0  0  0  0  0  0  0  # atno 10718 bound_to 10713
  154.1576  135.6480  153.4978 H   0  0  0  0  0  0  0  0  0  0  0  0  # atno 10763 bound_to 10752
  153.0119  135.5353  154.6744 H   0  0  0  0  0  0  0  0  0  0  0  0  # atno 10764 bound_to 10752
  154.6048  135.2947  155.0467 H   0  0  0  0  0  0  0  0  0  0  0  0  # atno 10765 bound_to 10752
  139.8934  134.8383  156.2779 H   0  0  0  0  0  0  0  0  0  0  0  0  # atno 11005 bound_to 11000
  145.9325  140.9038  143.0349 LP  0  0  0  0  0  0  0  0  0  0  0  0  # atno 17320 bound_to 7965
  144.6728  140.1437  143.7435 LP  0  0  0  0  0  0  0  0  0  0  0  0  # atno 17321 bound_to 7965
  139.5475  144.2482  152.1470 LP  0  0  0  0  0  0  0  0  0  0  0  0  # atno 17342 bound_to 10162
  140.1712  144.4934  150.6578 LP  0  0  0  0  0  0  0  0  0  0  0  0  # atno 17343 bound_to 10162
  156.9153  130.5295  149.5280 LP  0  0  0  0  0  0  0  0  0  0  0  0  # atno 17370 bound_to 10713
  156.0610  130.5662  150.9192 LP  0  0  0  0  0  0  0  0  0  0  0  0  # atno 17371 bound_to 10713
  141.0058  133.7124  156.1032 LP  0  0  0  0  0  0  0  0  0  0  0  0  # atno 17394 bound_to 11000
  140.7435  134.4123  157.5551 LP  0  0  0  0  0  0  0  0  0  0  0  0  # atno 17395 bound_to 11000

$$$$
