AV-unprocessed.smi:1701|AV-procd|sdf|6821|dock3
  -GOLD-   22720 7593D 1   1.00000     0.00000
 Structure written by MMmdl.
 55 57  0  0  0  0  0  0  0  0  3 V2000
  152.1230  143.9785  157.7707 C   0  0  0  0  0  0  0  0  0  0  0  0
  151.1469  142.8859  157.3083 C   0  0  0  0  0  0  0  0  0  0  0  0
  151.6384  141.5290  157.5490 N   0  0  0  0  0  0  0  0  0  0  0  0
  152.4797  141.2678  158.7195 C   0  0  0  0  0  0  0  0  0  0  0  0
  151.9761  141.9598  159.9948 C   0  0  0  0  0  0  0  0  0  0  0  0
  151.1455  140.4468  156.7789 C   0  0  0  0  0  0  0  0  0  0  0  0
  150.4263  140.6090  155.5680 C   0  0  0  0  0  0  0  0  0  0  0  0
  149.9633  139.4779  154.8651 C   0  0  0  0  0  0  0  0  0  0  0  0
  150.2262  138.1851  155.3618 C   0  0  0  0  0  0  0  0  0  0  0  0
  149.7186  137.0772  154.6306 N   0  0  0  0  0  0  0  0  0  0  0  0
  149.2823  135.8893  155.0950 C   0  0  0  0  0  0  0  0  0  0  0  0
  149.3401  135.5337  156.2695 O   0  0  0  0  0  0  0  0  0  0  0  0
  148.7884  135.0736  154.1466 N   0  0  0  0  0  0  0  0  0  0  0  0
  148.2384  133.7271  154.3113 C   0  0  2  0  0  0  0  0  0  0  0  0
  149.1391  132.7728  155.1143 C   0  0  0  0  0  0  0  0  0  0  0  0
  149.0298  131.4083  154.4053 C   0  0  0  0  0  0  0  0  0  0  0  0
  148.0352  131.5706  153.3206 N   0  3  1  0  0  0  0  0  0  0  0  0
  146.6854  131.0873  153.7218 C   0  0  0  0  0  0  0  0  0  0  0  0
  145.6083  131.4669  152.6980 C   0  0  0  0  0  0  0  0  0  0  0  0
  145.5722  132.9852  152.5079 C   0  0  0  0  0  0  0  0  0  0  0  0
  146.9486  133.4756  152.0459 C   0  0  0  0  0  0  0  0  0  0  0  0
  148.1002  133.0089  152.9647 C   0  0  1  0  0  0  0  0  0  0  0  0
  150.9443  138.0711  156.5751 C   0  0  0  0  0  0  0  0  0  0  0  0
  151.3660  139.1822  157.2161 N   0  3  0  0  0  0  0  0  0  0  0  0
  151.6979  144.9670  157.5973 H   0  0  0  0  0  0  0  0  0  0  0  0
  153.0656  143.9330  157.2277 H   0  0  0  0  0  0  0  0  0  0  0  0
  152.3464  143.8997  158.8345 H   0  0  0  0  0  0  0  0  0  0  0  0
  150.1728  143.0196  157.7784 H   0  0  0  0  0  0  0  0  0  0  0  0
  150.9651  143.0084  156.2401 H   0  0  0  0  0  0  0  0  0  0  0  0
  152.5685  140.1939  158.8858 H   0  0  0  0  0  0  0  0  0  0  0  0
  153.4934  141.6094  158.5083 H   0  0  0  0  0  0  0  0  0  0  0  0
  152.6084  141.7011  160.8440 H   0  0  0  0  0  0  0  0  0  0  0  0
  150.9573  141.6592  160.2402 H   0  0  0  0  0  0  0  0  0  0  0  0
  151.9926  143.0441  159.8986 H   0  0  0  0  0  0  0  0  0  0  0  0
  150.2114  141.5852  155.1614 H   0  0  0  0  0  0  0  0  0  0  0  0
  149.4099  139.6085  153.9467 H   0  0  0  0  0  0  0  0  0  0  0  0
  149.6976  137.1932  153.6282 H   0  0  0  0  0  0  0  0  0  0  0  0
  148.8250  135.4199  153.1983 H   0  0  0  0  0  0  0  0  0  0  0  0
  147.2578  133.7861  154.7862 H   0  0  0  0  0  0  0  0  0  0  0  0
  150.1776  133.1071  155.1142 H   0  0  0  0  0  0  0  0  0  0  0  0
  148.8153  132.7131  156.1540 H   0  0  0  0  0  0  0  0  0  0  0  0
  149.9897  131.1538  153.9542 H   0  0  0  0  0  0  0  0  0  0  0  0
  148.7727  130.6006  155.0922 H   0  0  0  0  0  0  0  0  0  0  0  0
  146.7175  130.0036  153.8395 H   0  0  0  0  0  0  0  0  0  0  0  0
  146.4176  131.4981  154.6964 H   0  0  0  0  0  0  0  0  0  0  0  0
  145.8079  130.9744  151.7453 H   0  0  0  0  0  0  0  0  0  0  0  0
  144.6340  131.1111  153.0344 H   0  0  0  0  0  0  0  0  0  0  0  0
  144.8132  133.2541  151.7726 H   0  0  0  0  0  0  0  0  0  0  0  0
  145.2891  133.4742  153.4406 H   0  0  0  0  0  0  0  0  0  0  0  0
  147.1296  133.0951  151.0398 H   0  0  0  0  0  0  0  0  0  0  0  0
  146.9509  134.5626  151.9590 H   0  0  0  0  0  0  0  0  0  0  0  0
  149.0336  133.1489  152.4154 H   0  0  0  0  0  0  0  0  0  0  0  0
  151.1886  137.1440  157.0713 H   0  0  0  0  0  0  0  0  0  0  0  0
  148.3214  131.0254  152.5198 H   0  0  0  0  0  0  0  0  0  0  0  0
  151.8791  139.0612  158.0893 H   0  0  0  0  0  0  0  0  0  0  0  0
  1  2  1  0  0  0  0
  1 25  1  0  0  0  0
  1 26  1  0  0  0  0
  1 27  1  0  0  0  0
  2  3  1  0  0  0  0
  2 28  1  0  0  0  0
  2 29  1  0  0  0  0
  3  4  1  0  0  0  0
  3  6  1  0  0  0  0
  4  5  1  0  0  0  0
  4 30  1  0  0  0  0
  4 31  1  0  0  0  0
  5 32  1  0  0  0  0
  5 33  1  0  0  0  0
  5 34  1  0  0  0  0
  6 24  1  0  0  0  0
  6  7  2  0  0  0  0
  7  8  1  0  0  0  0
  7 35  1  0  0  0  0
  8  9  2  0  0  0  0
  8 36  1  0  0  0  0
  9 10  1  0  0  0  0
  9 23  1  0  0  0  0
 10 11  1  0  0  0  0
 10 37  1  0  0  0  0
 11 12  2  0  0  0  0
 11 13  1  0  0  0  0
 13 14  1  0  0  0  0
 13 38  1  0  0  0  0
 14 22  1  0  0  0  0
 14 15  1  0  0  0  0
 14 39  1  0  0  0  0
 15 16  1  0  0  0  0
 15 40  1  0  0  0  0
 15 41  1  0  0  0  0
 16 17  1  0  0  0  0
 16 42  1  0  0  0  0
 16 43  1  0  0  0  0
 17 22  1  0  0  0  0
 17 18  1  0  0  0  0
 17 54  1  0  0  0  0
 18 19  1  0  0  0  0
 18 44  1  0  0  0  0
 18 45  1  0  0  0  0
 19 20  1  0  0  0  0
 19 46  1  0  0  0  0
 19 47  1  0  0  0  0
 20 21  1  0  0  0  0
 20 48  1  0  0  0  0
 20 49  1  0  0  0  0
 21 22  1  0  0  0  0
 21 50  1  0  0  0  0
 21 51  1  0  0  0  0
 22 52  1  0  0  0  0
 23 24  2  0  0  0  0
 23 53  1  0  0  0  0
 24 55  1  0  0  0  0
M  CHG  1  17   1
M  CHG  1  24   1
M  END
> <s_m_source_file>
AV-unprocessed.smi

> <i_m_source_file_index>
1701

> <i_lp_mmshare_version>
43012

> <i_f3d_flags>
0

> <s_epik_input>
W0NIM11bQ0gyXU4oW0NIMl1bQ0gzXSljMVtjSF1bY0hdYyhbY0hdbjEpW05IXUMoPU8pW05IXVtDQEhdKFtDSDJdW0NIMl0yKVtDQEBIXShOMjMpW0NIMl1bQ0gyXVtDSDJdW0NIMl0z

> <s_epik_cmdline>
J2VwaWtfcHl0aG9uJywgJy1waCcsICc3LjAnLCAnLXRuJywgJzgnLCAnLW1hJywgJzIwMCcsICctbWV0YWxfYmluZGluZycsICctaW1hZScsICc8aW5maWxlLm1hZT4nLCAnLW9tYWUnLCAnPG91dGZpbGUubWFlPic=

> <r_lp_tautomer_probability>
0.999994

> <r_epik_Ionization_Penalty>
0.302862

> <r_epik_Ionization_Penalty_Charging>
0.302842

> <r_epik_Ionization_Penalty_Neutral>
1.95166e-05

> <r_epik_State_Penalty>
0.019791

> <r_epik_Charging_Adjusted_Penalty>
0.322633

> <i_epik_Tot_Q>
2

> <i_epik_Tot_abs_Q>
2

> <r_epik_Metal_State_Penalty>
0.0536763

> <b_epik_Metal_Only>
0

> <s_lp_Force_Field>
OPLS_2005

> <r_lp_Energy>
65.2354

> <b_lp_Chiralities_Consistent>
1

> <s_lp_Variant>
AV-unprocessed.smi:1701-1

> <Gold.Version>
5.8.1

> <Gold.Id.Protein>
6NUR|6NUR_protein|mol2

> <Gold.PLP.Fitness>
48.2648

> <Gold.PLP.PLP>
-41.9311

> <Gold.PLP.part.hbond>
-3.0000

> <Gold.PLP.part.metal>
0.0000

> <Gold.PLP.part.buried>
-5.1899

> <Gold.PLP.part.nonpolar>
-33.8901

> <Gold.PLP.part.repulsive>
0.1387

> <Gold.PLP.ligand.clash>
0.0000

> <Gold.PLP.ligand.torsion>
0.8919

> <Gold.PLP.Chemscore.Hbond>
2.6490

> <Gold.PLP.Chemscore.CHOScore>
0.0000

> <Gold.PLP.Chemscore.Metal>
0.0000

> <Gold.Chemscore.Hbonds>
donor molecule, donor type, donor heavy atom, donor atom, acceptor molecule, acceptor atom, score
      L1  H    10    37       P1  7948  0.66
      L1  H    13    38       P1  7948  1.00
      L1  H    17    54       P1 10747  0.26

> <Gold.PLP.Chemscore.Internal.Correction>
0.1707

> <Gold.Rescore>
     Score         DG    S(hbond)    S(metal)    S(lipo)     H(rot)  DE(clash)    DE(int)     intcor
     19.72     -22.44       2.62        0.00      98.53       1.30       0.03       2.69       ----

> <Gold.Chemscore.Fitness>
19.7236

> <Gold.Chemscore.DG>
-22.4386

> <Gold.Chemscore.ZeroCoef>
-5.4800

> <Gold.Chemscore.Hbond>
2.6237

> <Gold.Chemscore.Metal>
0.0000

> <Gold.Chemscore.Lipo>
98.5345

> <Gold.Chemscore.Internal_Hbond>
0.0000

> <Gold.Chemscore.DEClash>
0.0293

> <Gold.Chemscore.DEInternal>
2.6857

> <Gold.Chemscore.Rot>
1.3020

> <Gold.Chemscore.Internal.Correction>
   9.000000E+99

> <Gold.Chemscore.Hbonds>
donor molecule, donor type, donor heavy atom, donor atom, acceptor molecule, acceptor atom, score
      L1  H    10    37       P1  7948  0.49
      L1  H    13    38       P1  7948  0.70
      L1  H    17    54       P1 10747  0.25

> <Gold.Chemscore.Hbond.Weighted>
-8.7631

> <Gold.Chemscore.Metal.Weighted>
-0.0000

> <Gold.Chemscore.Lipo.Weighted>
-11.5285

> <Gold.Chemscore.Internal_Hbond.Weighted>
0.0000

> <Gold.Chemscore.DEClash.Weighted>
0.0293

> <Gold.Chemscore.DEInternal.Weighted>
2.6857

> <Gold.Chemscore.Rot.Weighted>
3.3330

> <Gold.Chemscore.Internal.Correction.Weighted>
   9.000000E+99

> <Gold.Protein.RotatedTorsions>
[ 6907 6896 6895 6894 ] final  -49.63 input  -60.11 | X-H torsion
[ 7974 7965 7964 7962 ] final  -44.64 input  175.53 | X-H torsion
[ 8008 7997 7996 7995 ] final  164.00 input   59.86 | X-H torsion
[ 10167 10162 10161 10158 ] final  117.97 input  -65.29 | X-H torsion
[ 10718 10713 10712 10709 ] final   58.53 input   66.30 | X-H torsion
[ 10763 10752 10751 10750 ] final   27.14 input  -60.55 | X-H torsion
[ 11005 11000 10999 10996 ] final   11.46 input  -57.11 | X-H torsion

> <Gold.Protein.ActiveResidues>
 VAL166  LYS551  ARG553  GLY616  TRP617  ASP618  TYR619  PRO620  LYS621  CYS622 
 ASP623  PHE694  ASN695  SER759  ASP760  ASP761  ALA762  ILE779  LEU786  VAL792 
 PHE793  MET794  SER795  GLU796  ALA797  LYS798  CYS799  TRP800  GLU811  SER814 

> <Gold.Protein.RotatedAtoms>
  150.8786  134.8173  159.7207 H   0  0  0  0  0  0  0  0  0  0  0  0  # atno 6907 bound_to 6896
  152.4763  134.4832  159.9682 H   0  0  0  0  0  0  0  0  0  0  0  0  # atno 6908 bound_to 6896
  151.4910  133.3486  159.2889 H   0  0  0  0  0  0  0  0  0  0  0  0  # atno 6909 bound_to 6896
  145.9901  140.7190  142.9321 H   0  0  0  0  0  0  0  0  0  0  0  0  # atno 7974 bound_to 7965
  156.1914  140.1708  156.8085 H   0  0  0  0  0  0  0  0  0  0  0  0  # atno 8008 bound_to 7997
  154.5475  140.0724  156.8645 H   0  0  0  0  0  0  0  0  0  0  0  0  # atno 8009 bound_to 7997
  155.3092  140.3366  155.4247 H   0  0  0  0  0  0  0  0  0  0  0  0  # atno 8010 bound_to 7997
  139.6143  144.7088  151.2775 H   0  0  0  0  0  0  0  0  0  0  0  0  # atno 10167 bound_to 10162
  157.5603  130.8831  149.9101 H   0  0  0  0  0  0  0  0  0  0  0  0  # atno 10718 bound_to 10713
  153.0576  135.6544  154.0541 H   0  0  0  0  0  0  0  0  0  0  0  0  # atno 10763 bound_to 10752
  154.0216  135.2919  155.3381 H   0  0  0  0  0  0  0  0  0  0  0  0  # atno 10764 bound_to 10752
  154.6898  135.5287  153.8444 H   0  0  0  0  0  0  0  0  0  0  0  0  # atno 10765 bound_to 10752
  140.5030  134.0727  155.7798 H   0  0  0  0  0  0  0  0  0  0  0  0  # atno 11005 bound_to 11000
  144.6886  140.3055  143.7256 LP  0  0  0  0  0  0  0  0  0  0  0  0  # atno 17320 bound_to 7965
  145.7643  139.1835  143.2249 LP  0  0  0  0  0  0  0  0  0  0  0  0  # atno 17321 bound_to 7965
  140.7340  143.6778  150.8026 LP  0  0  0  0  0  0  0  0  0  0  0  0  # atno 17342 bound_to 10162
  140.0378  143.5377  152.2731 LP  0  0  0  0  0  0  0  0  0  0  0  0  # atno 17343 bound_to 10162
  156.0657  130.3692  150.0885 LP  0  0  0  0  0  0  0  0  0  0  0  0  # atno 17370 bound_to 10713
  156.9049  130.9632  151.3571 LP  0  0  0  0  0  0  0  0  0  0  0  0  # atno 17371 bound_to 10713
  141.1425  133.9112  157.2292 LP  0  0  0  0  0  0  0  0  0  0  0  0  # atno 17394 bound_to 11000
  139.9702  135.0130  156.9492 LP  0  0  0  0  0  0  0  0  0  0  0  0  # atno 17395 bound_to 11000

$$$$
