AV-unprocessed.smi:873|AV-procd|sdf|4016|dock5
  -GOLD-   22720 1503D 1   1.00000     0.00000
 Structure written by MMmdl.
 45 48  0  0  0  0  0  0  0  0  1 V2000
  149.0223  135.1025  156.1155 O   0  0  0  0  0  0  0  0  0  0  0  0
  148.8699  135.4570  154.9471 C   0  0  0  0  0  0  0  0  0  0  0  0
  149.1789  136.6676  154.4516 N   0  0  0  0  0  0  0  0  0  0  0  0
  149.7838  137.7742  155.1073 C   0  0  0  0  0  0  0  0  0  0  0  0
  150.3522  137.7536  156.4057 C   0  0  0  0  0  0  0  0  0  0  0  0
  150.9232  138.8514  156.9474 N   0  0  0  0  0  0  0  0  0  0  0  0
  150.9416  139.9582  156.1998 C   0  0  0  0  0  0  0  0  0  0  0  0
  151.5433  141.1801  156.8219 C   0  0  0  0  0  0  0  0  0  0  0  0
  151.0429  141.6997  158.1546 C   0  0  0  0  0  0  0  0  0  0  0  0
  150.7612  142.4757  156.8983 C   0  0  0  0  0  0  0  0  0  0  0  0
  150.4329  140.0981  154.9728 N   0  0  0  0  0  0  0  0  0  0  0  0
  149.8602  139.0057  154.4235 C   0  0  0  0  0  0  0  0  0  0  0  0
  148.3523  134.6662  153.9966 N   0  0  0  0  0  0  0  0  0  0  0  0
  147.9073  133.2899  154.1948 C   0  0  0  0  0  0  0  0  0  0  0  0
  148.7264  132.3148  153.3303 C   0  0  0  0  0  0  0  0  0  0  0  0
  148.1600  130.8868  153.4207 C   0  0  0  0  0  0  0  0  0  0  0  0
  146.7600  130.8689  152.9959 N   0  0  0  0  0  0  0  0  0  0  0  0
  146.2688  129.5018  153.0545 C   0  0  0  0  0  0  0  0  0  0  0  0
  147.0706  128.4379  152.3398 C   0  0  0  0  0  0  0  0  0  0  0  0
  145.7461  128.8906  151.7744 C   0  0  0  0  0  0  0  0  0  0  0  0
  145.9569  131.6974  153.8951 C   0  0  0  0  0  0  0  0  0  0  0  0
  146.4215  133.1628  153.8237 C   0  0  0  0  0  0  0  0  0  0  0  0
  148.9397  136.8212  153.4829 H   0  0  0  0  0  0  0  0  0  0  0  0
  150.3749  136.8718  157.0256 H   0  0  0  0  0  0  0  0  0  0  0  0
  152.6112  141.2418  156.6210 H   0  0  0  0  0  0  0  0  0  0  0  0
  150.2065  141.1825  158.6206 H   0  0  0  0  0  0  0  0  0  0  0  0
  151.7801  142.1077  158.8428 H   0  0  0  0  0  0  0  0  0  0  0  0
  151.3108  143.4016  156.7434 H   0  0  0  0  0  0  0  0  0  0  0  0
  149.7370  142.4747  156.5304 H   0  0  0  0  0  0  0  0  0  0  0  0
  149.4582  139.1182  153.4273 H   0  0  0  0  0  0  0  0  0  0  0  0
  148.2613  135.0417  153.0641 H   0  0  0  0  0  0  0  0  0  0  0  0
  148.0234  133.0203  155.2464 H   0  0  0  0  0  0  0  0  0  0  0  0
  148.7197  132.6416  152.2892 H   0  0  0  0  0  0  0  0  0  0  0  0
  149.7700  132.3147  153.6471 H   0  0  0  0  0  0  0  0  0  0  0  0
  148.7424  130.2241  152.7795 H   0  0  0  0  0  0  0  0  0  0  0  0
  148.2501  130.5073  154.4401 H   0  0  0  0  0  0  0  0  0  0  0  0
  145.7676  129.1703  153.9627 H   0  0  0  0  0  0  0  0  0  0  0  0
  147.9718  128.7454  151.8124 H   0  0  0  0  0  0  0  0  0  0  0  0
  147.1116  127.4507  152.7954 H   0  0  0  0  0  0  0  0  0  0  0  0
  144.9044  128.2056  151.8539 H   0  0  0  0  0  0  0  0  0  0  0  0
  145.7682  129.4986  150.8717 H   0  0  0  0  0  0  0  0  0  0  0  0
  144.9070  131.6356  153.6061 H   0  0  0  0  0  0  0  0  0  0  0  0
  146.0300  131.3252  154.9184 H   0  0  0  0  0  0  0  0  0  0  0  0
  145.8153  133.7743  154.4927 H   0  0  0  0  0  0  0  0  0  0  0  0
  146.2526  133.5455  152.8158 H   0  0  0  0  0  0  0  0  0  0  0  0
  1  2  2  0  0  0  0
  2  3  1  0  0  0  0
  2 13  1  0  0  0  0
  3  4  1  0  0  0  0
  3 23  1  0  0  0  0
  4 12  1  0  0  0  0
  4  5  2  0  0  0  0
  5  6  1  0  0  0  0
  5 24  1  0  0  0  0
  6  7  2  0  0  0  0
  7  8  1  0  0  0  0
  7 11  1  0  0  0  0
  8 10  1  0  0  0  0
  8  9  1  0  0  0  0
  8 25  1  0  0  0  0
  9 10  1  0  0  0  0
  9 26  1  0  0  0  0
  9 27  1  0  0  0  0
 10 28  1  0  0  0  0
 10 29  1  0  0  0  0
 11 12  2  0  0  0  0
 12 30  1  0  0  0  0
 13 14  1  0  0  0  0
 13 31  1  0  0  0  0
 14 22  1  0  0  0  0
 14 15  1  0  0  0  0
 14 32  1  0  0  0  0
 15 16  1  0  0  0  0
 15 33  1  0  0  0  0
 15 34  1  0  0  0  0
 16 17  1  0  0  0  0
 16 35  1  0  0  0  0
 16 36  1  0  0  0  0
 17 18  1  0  0  0  0
 17 21  1  0  0  0  0
 18 20  1  0  0  0  0
 18 19  1  0  0  0  0
 18 37  1  0  0  0  0
 19 20  1  0  0  0  0
 19 38  1  0  0  0  0
 19 39  1  0  0  0  0
 20 40  1  0  0  0  0
 20 41  1  0  0  0  0
 21 22  1  0  0  0  0
 21 42  1  0  0  0  0
 21 43  1  0  0  0  0
 22 44  1  0  0  0  0
 22 45  1  0  0  0  0
M  END
> <s_m_source_file>
AV-unprocessed.smi

> <i_m_source_file_index>
873

> <i_lp_mmshare_version>
43012

> <i_f3d_flags>
0

> <s_epik_input>
W0NIMl0xW0NIMl1bQ0hdMU4oW0NIMl1bQ0gyXTIpW0NIMl1bQ0gyXVtDSF0yW05IXUMoPU8pW05IXWMzW2NIXW5jKG5bY0hdMylbQ0hdNFtDSDJdW0NIMl00

> <s_epik_cmdline>
J2VwaWtfcHl0aG9uJywgJy1waCcsICc3LjAnLCAnLXRuJywgJzgnLCAnLW1hJywgJzIwMCcsICctbWV0YWxfYmluZGluZycsICctaW1hZScsICc8aW5maWxlLm1hZT4nLCAnLW9tYWUnLCAnPG91dGZpbGUubWFlPic=

> <r_lp_tautomer_probability>
1

> <r_epik_Ionization_Penalty>
0.990889

> <r_epik_Ionization_Penalty_Charging>
0

> <r_epik_Ionization_Penalty_Neutral>
0.990889

> <r_epik_State_Penalty>
1.03856

> <r_epik_Charging_Adjusted_Penalty>
1.03856

> <i_epik_Tot_Q>
0

> <i_epik_Tot_abs_Q>
0

> <r_epik_Metal_State_Penalty>
1.03856

> <b_epik_Metal_Only>
0

> <s_lp_Force_Field>
OPLS_2005

> <r_lp_Energy>
20.0784

> <b_lp_Chiralities_Consistent>
1

> <s_lp_Variant>
AV-unprocessed.smi:873-3

> <Gold.Version>
5.8.1

> <Gold.Id.Protein>
6NUR|6NUR_protein|mol2

> <Gold.PLP.Fitness>
44.5838

> <Gold.PLP.PLP>
-33.0158

> <Gold.PLP.part.hbond>
-3.0000

> <Gold.PLP.part.metal>
0.0000

> <Gold.PLP.part.buried>
-5.7743

> <Gold.PLP.part.nonpolar>
-24.4275

> <Gold.PLP.part.repulsive>
0.2266

> <Gold.PLP.ligand.clash>
0.0000

> <Gold.PLP.ligand.torsion>
0.8583

> <Gold.PLP.Chemscore.Hbond>
3.0000

> <Gold.PLP.Chemscore.CHOScore>
1.0000

> <Gold.PLP.Chemscore.Metal>
0.0000

> <Gold.Chemscore.Hbonds>
donor molecule, donor type, donor heavy atom, donor atom, acceptor molecule, acceptor atom, score
      L1  H     3    23       P1  7948  0.94
      L1  H    13    31       P1  7948  0.90
      P1  H  7989  7998       L1    11  0.94
      L1  C    12    30       P1  7957  1.00

> <Gold.PLP.Chemscore.Internal.Correction>
1.2845

> <Gold.Rescore>
     Score         DG    S(hbond)    S(metal)    S(lipo)     H(rot)  DE(clash)    DE(int)     intcor
     17.82     -19.82       2.37        0.00      83.97       1.33       0.03       1.97       ----

> <Gold.Chemscore.Fitness>
17.8244

> <Gold.Chemscore.DG>
-19.8218

> <Gold.Chemscore.ZeroCoef>
-5.4800

> <Gold.Chemscore.Hbond>
2.3728

> <Gold.Chemscore.Metal>
0.0000

> <Gold.Chemscore.Lipo>
83.9669

> <Gold.Chemscore.Internal_Hbond>
0.0000

> <Gold.Chemscore.DEClash>
0.0272

> <Gold.Chemscore.DEInternal>
1.9703

> <Gold.Chemscore.Rot>
1.3310

> <Gold.Chemscore.Internal.Correction>
   9.000000E+99

> <Gold.Chemscore.Hbonds>
donor molecule, donor type, donor heavy atom, donor atom, acceptor molecule, acceptor atom, score
      L1  H     3    23       P1  7948  0.91
      L1  H    13    31       P1  7948  0.80
      P1  H  7989  7998       L1    11  0.43

> <Gold.Chemscore.Hbond.Weighted>
-7.9252

> <Gold.Chemscore.Metal.Weighted>
-0.0000

> <Gold.Chemscore.Lipo.Weighted>
-9.8241

> <Gold.Chemscore.Internal_Hbond.Weighted>
0.0000

> <Gold.Chemscore.DEClash.Weighted>
0.0272

> <Gold.Chemscore.DEInternal.Weighted>
1.9703

> <Gold.Chemscore.Rot.Weighted>
3.4075

> <Gold.Chemscore.Internal.Correction.Weighted>
   9.000000E+99

> <Gold.Protein.RotatedTorsions>
[ 6907 6896 6895 6894 ] final  -49.01 input  -60.11 | X-H torsion
[ 7974 7965 7964 7962 ] final  -63.11 input  175.53 | X-H torsion
[ 8008 7997 7996 7995 ] final  131.11 input   59.86 | X-H torsion
[ 10167 10162 10161 10158 ] final   95.09 input  -65.29 | X-H torsion
[ 10718 10713 10712 10709 ] final -129.89 input   66.30 | X-H torsion
[ 10763 10752 10751 10750 ] final  -48.93 input  -60.55 | X-H torsion
[ 11005 11000 10999 10996 ] final   52.21 input  -57.11 | X-H torsion

> <Gold.Protein.ActiveResidues>
 VAL166  LYS551  ARG553  GLY616  TRP617  ASP618  TYR619  PRO620  LYS621  CYS622 
 ASP623  PHE694  ASN695  SER759  ASP760  ASP761  ALA762  ILE779  LEU786  VAL792 
 PHE793  MET794  SER795  GLU796  ALA797  LYS798  CYS799  TRP800  GLU811  SER814 

> <Gold.Protein.RotatedAtoms>
  150.8848  134.8244  159.7250 H   0  0  0  0  0  0  0  0  0  0  0  0  # atno 6907 bound_to 6896
  152.4801  134.4739  159.9654 H   0  0  0  0  0  0  0  0  0  0  0  0  # atno 6908 bound_to 6896
  151.4810  133.3508  159.2873 H   0  0  0  0  0  0  0  0  0  0  0  0  # atno 6909 bound_to 6896
  145.7831  140.8751  143.0320 H   0  0  0  0  0  0  0  0  0  0  0  0  # atno 7974 bound_to 7965
  156.2965  140.2579  156.2872 H   0  0  0  0  0  0  0  0  0  0  0  0  # atno 8008 bound_to 7997
  154.9544  140.0393  157.2178 H   0  0  0  0  0  0  0  0  0  0  0  0  # atno 8009 bound_to 7997
  154.8005  140.2827  155.5929 H   0  0  0  0  0  0  0  0  0  0  0  0  # atno 8010 bound_to 7997
  139.8022  144.6809  150.9750 H   0  0  0  0  0  0  0  0  0  0  0  0  # atno 10167 bound_to 10162
  156.2091  130.6906  151.0628 H   0  0  0  0  0  0  0  0  0  0  0  0  # atno 10718 bound_to 10713
  154.0859  135.6584  153.4845 H   0  0  0  0  0  0  0  0  0  0  0  0  # atno 10763 bound_to 10752
  153.0339  135.5191  154.7428 H   0  0  0  0  0  0  0  0  0  0  0  0  # atno 10764 bound_to 10752
  154.6537  135.3005  154.9922 H   0  0  0  0  0  0  0  0  0  0  0  0  # atno 10765 bound_to 10752
  140.0868  134.5263  155.8891 H   0  0  0  0  0  0  0  0  0  0  0  0  # atno 11005 bound_to 11000
  144.6793  140.0017  143.7484 LP  0  0  0  0  0  0  0  0  0  0  0  0  # atno 17320 bound_to 7965
  146.0054  139.3125  143.0902 LP  0  0  0  0  0  0  0  0  0  0  0  0  # atno 17321 bound_to 7965
  140.7820  143.4270  151.0752 LP  0  0  0  0  0  0  0  0  0  0  0  0  # atno 17342 bound_to 10162
  139.7942  143.8176  152.3155 LP  0  0  0  0  0  0  0  0  0  0  0  0  # atno 17343 bound_to 10162
  157.7028  131.0769  150.6764 LP  0  0  0  0  0  0  0  0  0  0  0  0  # atno 17370 bound_to 10713
  156.6823  130.4571  149.5624 LP  0  0  0  0  0  0  0  0  0  0  0  0  # atno 17371 bound_to 10713
  141.2065  133.6656  156.6247 LP  0  0  0  0  0  0  0  0  0  0  0  0  # atno 17394 bound_to 11000
  140.3409  134.7850  157.4397 LP  0  0  0  0  0  0  0  0  0  0  0  0  # atno 17395 bound_to 11000

$$$$
