AV-unprocessed.smi:2565|AV-procd|sdf|10070|dock1
  -GOLD-   2272014103D 1   1.00000     0.00000
 Structure written by MMmdl.
 24 25  0  0  0  0  0  0  0  0  1 V2000
  153.5899  141.9119  162.0094 C   0  0  0  0  0  0  0  0  0  0  0  0
  153.6476  141.3188  160.6883 N   0  0  0  0  0  0  0  0  0  0  0  0
  154.4088  140.3006  160.2607 C   0  0  0  0  0  0  0  0  0  0  0  0
  154.2355  139.9646  158.9833 N   0  0  0  0  0  0  0  0  0  0  0  0
  153.2720  140.8398  158.5224 N   0  0  0  0  0  0  0  0  0  0  0  0
  152.9654  141.6240  159.5651 C   0  0  0  0  0  0  0  0  0  0  0  0
  151.9390  142.7180  159.5212 C   0  0  2  0  0  0  0  0  0  0  0  0
  151.3760  142.9341  158.1030 C   0  0  0  0  0  0  0  0  0  0  0  0
  150.4438  144.0604  158.0944 N   0  0  0  0  0  0  0  0  0  0  0  0
  151.0706  145.2699  158.6261 C   0  0  0  0  0  0  0  0  0  0  0  0
  151.6560  145.0013  160.0243 C   0  0  0  0  0  0  0  0  0  0  0  0
  152.5759  143.9166  159.9578 O   0  0  0  0  0  0  0  0  0  0  0  0
  154.1961  141.3333  162.7071 H   0  0  0  0  0  0  0  0  0  0  0  0
  152.5591  141.9251  162.3642 H   0  0  0  0  0  0  0  0  0  0  0  0
  153.9705  142.9328  161.9714 H   0  0  0  0  0  0  0  0  0  0  0  0
  155.1088  139.7863  160.9029 H   0  0  0  0  0  0  0  0  0  0  0  0
  151.1323  142.4764  160.2151 H   0  0  0  0  0  0  0  0  0  0  0  0
  152.1933  143.1260  157.4067 H   0  0  0  0  0  0  0  0  0  0  0  0
  150.8734  142.0308  157.7563 H   0  0  0  0  0  0  0  0  0  0  0  0
  150.1264  144.2316  157.1456 H   0  0  0  0  0  0  0  0  0  0  0  0
  151.8635  145.6024  157.9552 H   0  0  0  0  0  0  0  0  0  0  0  0
  150.3415  146.0790  158.6745 H   0  0  0  0  0  0  0  0  0  0  0  0
  152.1792  145.8860  160.3872 H   0  0  0  0  0  0  0  0  0  0  0  0
  150.8651  144.7827  160.7437 H   0  0  0  0  0  0  0  0  0  0  0  0
  1  2  1  0  0  0  0
  1 13  1  0  0  0  0
  1 14  1  0  0  0  0
  1 15  1  0  0  0  0
  2  6  1  0  0  0  0
  2  3  1  0  0  0  0
  3  4  2  0  0  0  0
  3 16  1  0  0  0  0
  4  5  1  0  0  0  0
  5  6  2  0  0  0  0
  6  7  1  0  0  0  0
  7 12  1  0  0  0  0
  7  8  1  0  0  0  0
  7 17  1  0  0  0  0
  8  9  1  0  0  0  0
  8 18  1  0  0  0  0
  8 19  1  0  0  0  0
  9 10  1  0  0  0  0
  9 20  1  0  0  0  0
 10 11  1  0  0  0  0
 10 21  1  0  0  0  0
 10 22  1  0  0  0  0
 11 12  1  0  0  0  0
 11 23  1  0  0  0  0
 11 24  1  0  0  0  0
M  END
> <s_m_source_file>
AV-unprocessed.smi

> <i_m_source_file_index>
2565

> <i_lp_mmshare_version>
43012

> <i_f3d_flags>
0

> <s_epik_input>
W0NIM11uMVtjSF1ubmMxW0NAQEhdMltDSDJdW05IXVtDSDJdW0NIMl1PMg==

> <s_epik_cmdline>
J2VwaWtfcHl0aG9uJywgJy1waCcsICc3LjAnLCAnLXRuJywgJzgnLCAnLW1hJywgJzIwMCcsICctbWV0YWxfYmluZGluZycsICctaW1hZScsICc8aW5maWxlLm1hZT4nLCAnLW9tYWUnLCAnPG91dGZpbGUubWFlPic=

> <r_lp_tautomer_probability>
1

> <r_epik_Ionization_Penalty>
0.980774

> <r_epik_Ionization_Penalty_Charging>
0

> <r_epik_Ionization_Penalty_Neutral>
0.980774

> <r_epik_State_Penalty>
1.0271

> <r_epik_Charging_Adjusted_Penalty>
1.0271

> <i_epik_Tot_Q>
0

> <i_epik_Tot_abs_Q>
0

> <r_epik_Metal_State_Penalty>
1.02688

> <b_epik_Metal_Only>
0

> <s_lp_Force_Field>
OPLS_2005

> <r_lp_Energy>
14.243

> <b_lp_Chiralities_Consistent>
1

> <s_lp_Variant>
AV-unprocessed.smi:2565-3

> <Gold.Version>
5.8.1

> <Gold.Id.Protein>
6NUR|6NUR_protein|mol2

> <Gold.PLP.Fitness>
34.0656

> <Gold.PLP.PLP>
-28.9082

> <Gold.PLP.part.hbond>
-3.4913

> <Gold.PLP.part.metal>
0.0000

> <Gold.PLP.part.buried>
-1.8579

> <Gold.PLP.part.nonpolar>
-22.4290

> <Gold.PLP.part.repulsive>
0.0129

> <Gold.PLP.ligand.clash>
0.0000

> <Gold.PLP.ligand.torsion>
0.0478

> <Gold.PLP.Chemscore.Hbond>
1.7500

> <Gold.PLP.Chemscore.CHOScore>
0.0000

> <Gold.PLP.Chemscore.Metal>
0.0000

> <Gold.Chemscore.Hbonds>
donor molecule, donor type, donor heavy atom, donor atom, acceptor molecule, acceptor atom, score
      L1  H     9    20       P1  8028  1.00
      P1  H  7997  8010       L1     4  0.45

> <Gold.PLP.Chemscore.Internal.Correction>
0.0030

> <Gold.Rescore>
     Score         DG    S(hbond)    S(metal)    S(lipo)     H(rot)  DE(clash)    DE(int)     intcor
     12.16     -12.20       0.89        0.00      53.95       1.00       0.04       0.00       ----

> <Gold.Chemscore.Fitness>
12.1642

> <Gold.Chemscore.DG>
-12.2037

> <Gold.Chemscore.ZeroCoef>
-5.4800

> <Gold.Chemscore.Hbond>
0.8897

> <Gold.Chemscore.Metal>
0.0000

> <Gold.Chemscore.Lipo>
53.9506

> <Gold.Chemscore.Internal_Hbond>
0.0000

> <Gold.Chemscore.DEClash>
0.0375

> <Gold.Chemscore.DEInternal>
0.0020

> <Gold.Chemscore.Rot>
1.0000

> <Gold.Chemscore.Internal.Correction>
   9.000000E+99

> <Gold.Chemscore.Hbonds>
donor molecule, donor type, donor heavy atom, donor atom, acceptor molecule, acceptor atom, score
      L1  H     9    20       P1  8028  0.76
      P1  H  7997  8010       L1     4  0.02

> <Gold.Chemscore.Hbond.Weighted>
-2.9715

> <Gold.Chemscore.Metal.Weighted>
-0.0000

> <Gold.Chemscore.Lipo.Weighted>
-6.3122

> <Gold.Chemscore.Internal_Hbond.Weighted>
0.0000

> <Gold.Chemscore.DEClash.Weighted>
0.0375

> <Gold.Chemscore.DEInternal.Weighted>
0.0020

> <Gold.Chemscore.Rot.Weighted>
2.5600

> <Gold.Chemscore.Internal.Correction.Weighted>
   9.000000E+99

> <Gold.Protein.RotatedTorsions>
[ 6907 6896 6895 6894 ] final   36.50 input  -60.11 | X-H torsion
[ 7974 7965 7964 7962 ] final  -37.05 input  175.53 | X-H torsion
[ 8008 7997 7996 7995 ] final    3.16 input   59.86 | X-H torsion
[ 10167 10162 10161 10158 ] final -127.19 input  -65.29 | X-H torsion
[ 10718 10713 10712 10709 ] final -173.38 input   66.30 | X-H torsion
[ 10763 10752 10751 10750 ] final  -32.46 input  -60.55 | X-H torsion
[ 11005 11000 10999 10996 ] final   28.32 input  -57.11 | X-H torsion

> <Gold.Protein.ActiveResidues>
 VAL166  LYS551  ARG553  GLY616  TRP617  ASP618  TYR619  PRO620  LYS621  CYS622 
 ASP623  PHE694  ASN695  SER759  ASP760  ASP761  ALA762  ILE779  LEU786  VAL792 
 PHE793  MET794  SER795  GLU796  ALA797  LYS798  CYS799  TRP800  GLU811  SER814 

> <Gold.Protein.RotatedAtoms>
  152.1305  134.9138  160.0558 H   0  0  0  0  0  0  0  0  0  0  0  0  # atno 6907 bound_to 6896
  152.0244  133.3907  159.4279 H   0  0  0  0  0  0  0  0  0  0  0  0  # atno 6908 bound_to 6896
  150.6856  134.3512  159.4953 H   0  0  0  0  0  0  0  0  0  0  0  0  # atno 6909 bound_to 6896
  146.0609  140.6350  142.8998 H   0  0  0  0  0  0  0  0  0  0  0  0  # atno 7974 bound_to 7965
  154.7003  140.2671  155.6726 H   0  0  0  0  0  0  0  0  0  0  0  0  # atno 8008 bound_to 7997
  156.2762  140.2773  156.1535 H   0  0  0  0  0  0  0  0  0  0  0  0  # atno 8009 bound_to 7997
  155.0774  140.0372  157.2618 H   0  0  0  0  0  0  0  0  0  0  0  0  # atno 8010 bound_to 7997
  139.9635  143.5923  152.2437 H   0  0  0  0  0  0  0  0  0  0  0  0  # atno 10167 bound_to 10162
  156.7694  130.9443  151.3119 H   0  0  0  0  0  0  0  0  0  0  0  0  # atno 10718 bound_to 10713
  153.8142  135.6880  153.4836 H   0  0  0  0  0  0  0  0  0  0  0  0  # atno 10763 bound_to 10752
  153.1610  135.4580  154.9769 H   0  0  0  0  0  0  0  0  0  0  0  0  # atno 10764 bound_to 10752
  154.7955  135.3317  154.7619 H   0  0  0  0  0  0  0  0  0  0  0  0  # atno 10765 bound_to 10752
  140.3168  134.2588  155.7724 H   0  0  0  0  0  0  0  0  0  0  0  0  # atno 11005 bound_to 11000
  144.7174  140.4257  143.7034 LP  0  0  0  0  0  0  0  0  0  0  0  0  # atno 17320 bound_to 7965
  145.6562  139.1573  143.2834 LP  0  0  0  0  0  0  0  0  0  0  0  0  # atno 17321 bound_to 7965
  139.6535  144.7661  151.2100 LP  0  0  0  0  0  0  0  0  0  0  0  0  # atno 17342 bound_to 10162
  140.7545  143.6122  150.8594 LP  0  0  0  0  0  0  0  0  0  0  0  0  # atno 17343 bound_to 10162
  157.6698  130.9040  150.0014 LP  0  0  0  0  0  0  0  0  0  0  0  0  # atno 17370 bound_to 10713
  156.1288  130.3644  149.9766 LP  0  0  0  0  0  0  0  0  0  0  0  0  # atno 17371 bound_to 10713
  141.2096  133.7745  156.9988 LP  0  0  0  0  0  0  0  0  0  0  0  0  # atno 17394 bound_to 11000
  140.0976  134.9555  157.1874 LP  0  0  0  0  0  0  0  0  0  0  0  0  # atno 17395 bound_to 11000

$$$$
