AV-unprocessed.smi:55|AV-procd|sdf|575|dock8
  -GOLD-   2262016483D 1   1.00000     0.00000
 Structure written by MMmdl.
 30 31  0  0  0  0  0  0  0  0  2 V2000
  150.3917  142.7081  158.9245 C   0  0  0  0  0  0  0  0  0  0  0  0
  150.7876  141.8470  157.7378 C   0  0  0  0  0  0  0  0  0  0  0  0
  150.0283  141.7626  156.6225 C   0  0  0  0  0  0  0  0  0  0  0  0
  150.3945  140.9765  155.5425 N   0  0  0  0  0  0  0  0  0  0  0  0
  149.5404  140.8871  154.2937 C   0  0  2  0  0  0  0  0  0  0  0  0
  148.2742  141.7444  154.4430 C   0  0  0  0  0  0  0  0  0  0  0  0
  147.1818  140.7887  154.0035 C   0  0  2  0  0  0  0  0  0  0  0  0
  145.9544  141.0967  154.6322 O   0  0  0  0  0  0  0  0  0  0  0  0
  147.7428  139.4369  154.4437 C   0  0  1  0  0  0  0  0  0  0  0  0
  147.1259  138.2425  153.7002 C   0  0  0  0  0  0  0  0  0  0  0  0
  147.4131  138.3269  152.3206 O   0  0  0  0  0  0  0  0  0  0  0  0
  149.1185  139.5673  154.0966 O   0  0  0  0  0  0  0  0  0  0  0  0
  151.6012  140.2308  155.5973 C   0  0  0  0  0  0  0  0  0  0  0  0
  151.9005  139.5437  154.6201 O   0  0  0  0  0  0  0  0  0  0  0  0
  152.3726  140.3087  156.7188 N   0  5  0  0  0  0  0  0  0  0  0  0
  152.0355  141.0761  157.7944 C   0  0  0  0  0  0  0  0  0  0  0  0
  152.7426  141.1387  158.8000 O   0  0  0  0  0  0  0  0  0  0  0  0
  150.1874  141.1822  153.4659 H   0  0  0  0  0  0  0  0  0  0  0  0
  147.0693  140.8228  152.9189 H   0  0  0  0  0  0  0  0  0  0  0  0
  147.6394  139.3293  155.5255 H   0  0  0  0  0  0  0  0  0  0  0  0
  149.4472  143.2223  158.7442 H   0  0  0  0  0  0  0  0  0  0  0  0
  151.1550  143.4620  159.1191 H   0  0  0  0  0  0  0  0  0  0  0  0
  150.2769  142.0945  159.8186 H   0  0  0  0  0  0  0  0  0  0  0  0
  149.1117  142.3307  156.5871 H   0  0  0  0  0  0  0  0  0  0  0  0
  148.1452  142.0316  155.4883 H   0  0  0  0  0  0  0  0  0  0  0  0
  148.3348  142.6464  153.8335 H   0  0  0  0  0  0  0  0  0  0  0  0
  145.2512  140.8679  154.0438 H   0  0  0  0  0  0  0  0  0  0  0  0
  147.5568  137.3102  154.0660 H   0  0  0  0  0  0  0  0  0  0  0  0
  146.0491  138.1873  153.8625 H   0  0  0  0  0  0  0  0  0  0  0  0
  147.9572  137.5922  152.0817 H   0  0  0  0  0  0  0  0  0  0  0  0
  1  2  1  0  0  0  0
  1 21  1  0  0  0  0
  1 22  1  0  0  0  0
  1 23  1  0  0  0  0
  2 16  1  0  0  0  0
  2  3  2  0  0  0  0
  3  4  1  0  0  0  0
  3 24  1  0  0  0  0
  4  5  1  0  0  0  0
  4 13  1  0  0  0  0
  5 18  1  0  0  0  0
  5 12  1  0  0  0  0
  5  6  1  0  0  0  0
  6  7  1  0  0  0  0
  6 25  1  0  0  0  0
  6 26  1  0  0  0  0
  7 19  1  0  0  0  0
  7  8  1  0  0  0  0
  7  9  1  0  0  0  0
  8 27  1  0  0  0  0
  9 20  1  0  0  0  0
  9 10  1  0  0  0  0
  9 12  1  0  0  0  0
 10 11  1  0  0  0  0
 10 28  1  0  0  0  0
 10 29  1  0  0  0  0
 11 30  1  0  0  0  0
 13 14  2  0  0  0  0
 13 15  1  0  0  0  0
 15 16  1  0  0  0  0
 16 17  2  0  0  0  0
M  CHG  1  15  -1
M  END
> <s_m_source_file>
AV-unprocessed.smi

> <i_m_source_file_index>
55

> <i_lp_mmshare_version>
43012

> <i_f3d_flags>
0

> <s_epik_input>
Tz1jMVtuSF1jKD1PKW4oW2NIXWMxW0NIM10pW0NAQEhdMltDSDJdW0NAQEhdKFtPSF0pW0NAQEhdKE8yKVtDSDJdW09IXQ==

> <s_epik_cmdline>
J2VwaWtfcHl0aG9uJywgJy1waCcsICc3LjAnLCAnLXRuJywgJzgnLCAnLW1hJywgJzIwMCcsICctbWV0YWxfYmluZGluZycsICctaW1hZScsICc8aW5maWxlLm1hZT4nLCAnLW9tYWUnLCAnPG91dGZpbGUubWFlPic=

> <r_lp_tautomer_probability>
0.999537

> <r_epik_Ionization_Penalty>
3.66603

> <r_epik_Ionization_Penalty_Charging>
1.09773e-07

> <r_epik_Ionization_Penalty_Neutral>
3.66603

> <r_epik_State_Penalty>
3.66562

> <r_epik_Charging_Adjusted_Penalty>
3.66562

> <i_epik_Tot_Q>
-1

> <i_epik_Tot_abs_Q>
1

> <r_epik_Metal_State_Penalty>
0.234536

> <b_epik_Metal_Only>
1

> <s_epik_Chemistry_Notes>
This compound contains an acetal/aminal-like group ( X-CH(R)-Y where X, Y are N, S, or O) that may be acid/base labile, releasing an aldehyde.

> <s_lp_Force_Field>
OPLS_2005

> <r_lp_Energy>
36.1714

> <b_lp_Chiralities_Consistent>
1

> <s_lp_Variant>
AV-unprocessed.smi:55-15

> <Gold.Version>
5.8.1

> <Gold.Id.Protein>
6NUR|6NUR_protein|mol2

> <Gold.PLP.Fitness>
41.2377

> <Gold.PLP.PLP>
-26.1732

> <Gold.PLP.part.hbond>
-4.4938

> <Gold.PLP.part.metal>
0.0000

> <Gold.PLP.part.buried>
0.2098

> <Gold.PLP.part.nonpolar>
-21.5393

> <Gold.PLP.part.repulsive>
0.8500

> <Gold.PLP.ligand.clash>
0.0000

> <Gold.PLP.ligand.torsion>
0.0249

> <Gold.PLP.Chemscore.Hbond>
4.0327

> <Gold.PLP.Chemscore.CHOScore>
1.0000

> <Gold.PLP.Chemscore.Metal>
0.0000

> <Gold.Chemscore.Hbonds>
donor molecule, donor type, donor heavy atom, donor atom, acceptor molecule, acceptor atom, score
      L1  H     8    27       P1 10175  0.47
      L1  H    11    30       P1  7948  1.00
      P1  H  7989  7998       L1    14  0.67
      P1  H  7997  8009       L1    15  2.00
      L1  C     3    24       P1  8028  0.82

> <Gold.PLP.Chemscore.Internal.Correction>
0.0163

> <Gold.Rescore>
     Score         DG    S(hbond)    S(metal)    S(lipo)     H(rot)  DE(clash)    DE(int)     intcor
      9.30     -10.78       2.28        0.00      39.02       2.69       0.15       1.33       ----

> <Gold.Chemscore.Fitness>
9.3000

> <Gold.Chemscore.DG>
-10.7811

> <Gold.Chemscore.ZeroCoef>
-5.4800

> <Gold.Chemscore.Hbond>
2.2799

> <Gold.Chemscore.Metal>
0.0000

> <Gold.Chemscore.Lipo>
39.0198

> <Gold.Chemscore.Internal_Hbond>
0.0000

> <Gold.Chemscore.DEClash>
0.1481

> <Gold.Chemscore.DEInternal>
1.3330

> <Gold.Chemscore.Rot>
2.6871

> <Gold.Chemscore.Internal.Correction>
   9.000000E+99

> <Gold.Chemscore.Hbonds>
donor molecule, donor type, donor heavy atom, donor atom, acceptor molecule, acceptor atom, score
      L1  H     8    27       P1 10175  0.45
      L1  H    11    30       P1  7948  1.00
      P1  H  7989  7998       L1    14  0.07
      P1  H  7997  8009       L1    15  0.73

> <Gold.Chemscore.Hbond.Weighted>
-7.6149

> <Gold.Chemscore.Metal.Weighted>
-0.0000

> <Gold.Chemscore.Lipo.Weighted>
-4.5653

> <Gold.Chemscore.Internal_Hbond.Weighted>
0.0000

> <Gold.Chemscore.DEClash.Weighted>
0.1481

> <Gold.Chemscore.DEInternal.Weighted>
1.3330

> <Gold.Chemscore.Rot.Weighted>
6.8791

> <Gold.Chemscore.Internal.Correction.Weighted>
   9.000000E+99

> <Gold.Protein.RotatedTorsions>
[ 6907 6896 6895 6894 ] final  -90.55 input  -60.11 | X-H torsion
[ 7974 7965 7964 7962 ] final   29.04 input  175.53 | X-H torsion
[ 8008 7997 7996 7995 ] final -173.24 input   59.86 | X-H torsion
[ 10167 10162 10161 10158 ] final  -60.30 input  -65.29 | X-H torsion
[ 10718 10713 10712 10709 ] final    3.11 input   66.30 | X-H torsion
[ 10763 10752 10751 10750 ] final  152.59 input  -60.55 | X-H torsion
[ 11005 11000 10999 10996 ] final   58.04 input  -57.11 | X-H torsion

> <Gold.Protein.ActiveResidues>
 VAL166  LYS551  ARG553  GLY616  TRP617  ASP618  TYR619  PRO620  LYS621  CYS622 
 ASP623  PHE694  ASN695  SER759  ASP760  ASP761  ALA762  ILE779  LEU786  VAL792 
 PHE793  MET794  SER795  GLU796  ALA797  LYS798  CYS799  TRP800  GLU811  SER814 

> <Gold.Protein.RotatedAtoms>
  150.6883  134.2415  159.4473 H   0  0  0  0  0  0  0  0  0  0  0  0  # atno 6907 bound_to 6896
  152.0359  134.9738  160.0582 H   0  0  0  0  0  0  0  0  0  0  0  0  # atno 6908 bound_to 6896
  152.1259  133.4345  159.4734 H   0  0  0  0  0  0  0  0  0  0  0  0  # atno 6909 bound_to 6896
  146.1694  139.6975  142.8978 H   0  0  0  0  0  0  0  0  0  0  0  0  # atno 7974 bound_to 7965
  155.9548  140.1133  157.0946 H   0  0  0  0  0  0  0  0  0  0  0  0  # atno 8008 bound_to 7997
  154.4118  140.1193  156.5167 H   0  0  0  0  0  0  0  0  0  0  0  0  # atno 8009 bound_to 7997
  155.6796  140.3473  155.4852 H   0  0  0  0  0  0  0  0  0  0  0  0  # atno 8010 bound_to 7997
  140.6080  143.2379  151.5776 H   0  0  0  0  0  0  0  0  0  0  0  0  # atno 10167 bound_to 10162
  156.8730  130.5626  149.5656 H   0  0  0  0  0  0  0  0  0  0  0  0  # atno 10718 bound_to 10713
  154.1224  135.2832  155.3205 H   0  0  0  0  0  0  0  0  0  0  0  0  # atno 10763 bound_to 10752
  154.6413  135.5401  153.7796 H   0  0  0  0  0  0  0  0  0  0  0  0  # atno 10764 bound_to 10752
  153.0308  135.6487  154.1378 H   0  0  0  0  0  0  0  0  0  0  0  0  # atno 10765 bound_to 10752
  140.0407  134.5878  155.9386 H   0  0  0  0  0  0  0  0  0  0  0  0  # atno 11005 bound_to 11000
  145.4379  141.0420  143.2874 LP  0  0  0  0  0  0  0  0  0  0  0  0  # atno 17320 bound_to 7965
  144.8141  139.5908  143.7016 LP  0  0  0  0  0  0  0  0  0  0  0  0  # atno 17321 bound_to 7965
  139.5339  144.2836  152.1209 LP  0  0  0  0  0  0  0  0  0  0  0  0  # atno 17342 bound_to 10162
  140.2029  144.4640  150.6422 LP  0  0  0  0  0  0  0  0  0  0  0  0  # atno 17343 bound_to 10162
  156.0716  130.5748  150.9395 LP  0  0  0  0  0  0  0  0  0  0  0  0  # atno 17370 bound_to 10713
  157.6185  131.0931  150.8667 LP  0  0  0  0  0  0  0  0  0  0  0  0  # atno 17371 bound_to 10713
  141.1881  133.6561  156.5311 LP  0  0  0  0  0  0  0  0  0  0  0  0  # atno 17394 bound_to 11000
  140.4074  134.7303  157.4816 LP  0  0  0  0  0  0  0  0  0  0  0  0  # atno 17395 bound_to 11000

$$$$
