AV-unprocessed.smi:703|AV-procd|sdf|3431|dock7
  -GOLD-   22720 0413D 1   1.00000     0.00000
 Structure written by MMmdl.
 38 39  0  0  0  0  0  0  0  0  2 V2000
  151.9194  144.9822  158.9552 C   0  0  0  0  0  0  0  0  0  0  0  0
  152.0306  144.0153  157.7686 C   0  0  0  0  0  0  0  0  0  0  0  0
  150.7328  143.3805  157.4387 N   0  3  2  0  0  0  0  0  0  0  0  0
  150.0137  142.7895  158.5868 C   0  0  0  0  0  0  0  0  0  0  0  0
  149.0974  141.7141  157.9976 C   0  0  1  0  0  0  0  0  0  0  0  0
  147.7424  142.2945  157.5599 C   0  0  0  0  0  0  0  0  0  0  0  0
  149.9109  141.1777  156.8120 C   0  0  2  0  0  0  0  0  0  0  0  0
  150.7179  140.0305  157.2402 N   0  0  0  0  0  0  0  0  0  0  0  0
  151.6907  139.2317  156.0597 S   0  0  0  0  0  0  0  0  0  0  0  0
  151.4249  139.8758  154.7647 O   0  0  0  0  0  0  0  0  0  0  0  0
  153.0654  139.1674  156.5793 O   0  0  0  0  0  0  0  0  0  0  0  0
  150.9884  137.5290  156.0440 C   0  0  0  0  0  0  0  0  0  0  0  0
  150.4157  137.2119  157.3958 C   0  0  0  0  0  0  0  0  0  0  0  0
  149.0487  137.1222  157.7777 C   0  0  0  0  0  0  0  0  0  0  0  0
  149.1087  136.8085  159.1048 C   0  0  0  0  0  0  0  0  0  0  0  0
  150.3993  136.7157  159.5132 O   0  0  0  0  0  0  0  0  0  0  0  0
  151.2266  136.9764  158.4150 N   0  0  0  0  0  0  0  0  0  0  0  0
  150.8124  142.3491  156.3792 C   0  0  0  0  0  0  0  0  0  0  0  0
  152.8731  145.4775  159.1384 H   0  0  0  0  0  0  0  0  0  0  0  0
  151.6395  144.4643  159.8726 H   0  0  0  0  0  0  0  0  0  0  0  0
  151.1760  145.7569  158.7651 H   0  0  0  0  0  0  0  0  0  0  0  0
  152.3776  144.5718  156.8969 H   0  0  0  0  0  0  0  0  0  0  0  0
  152.7805  143.2490  157.9706 H   0  0  0  0  0  0  0  0  0  0  0  0
  150.7316  142.3182  159.2603 H   0  0  0  0  0  0  0  0  0  0  0  0
  149.4712  143.5440  159.1577 H   0  0  0  0  0  0  0  0  0  0  0  0
  148.9023  140.9343  158.7359 H   0  0  0  0  0  0  0  0  0  0  0  0
  147.8637  143.0868  156.8205 H   0  0  0  0  0  0  0  0  0  0  0  0
  147.2025  142.7122  158.4101 H   0  0  0  0  0  0  0  0  0  0  0  0
  147.1115  141.5225  157.1184 H   0  0  0  0  0  0  0  0  0  0  0  0
  149.2576  140.8552  155.9997 H   0  0  0  0  0  0  0  0  0  0  0  0
  150.1498  139.3574  157.7545 H   0  0  0  0  0  0  0  0  0  0  0  0
  150.2261  137.4784  155.2661 H   0  0  0  0  0  0  0  0  0  0  0  0
  151.7810  136.8289  155.7815 H   0  0  0  0  0  0  0  0  0  0  0  0
  148.1649  137.2609  157.1728 H   0  0  0  0  0  0  0  0  0  0  0  0
  148.3574  136.6274  159.8593 H   0  0  0  0  0  0  0  0  0  0  0  0
  150.4584  142.7851  155.4447 H   0  0  0  0  0  0  0  0  0  0  0  0
  151.8414  142.0258  156.2122 H   0  0  0  0  0  0  0  0  0  0  0  0
  150.1315  144.1032  157.0696 H   0  0  0  0  0  0  0  0  0  0  0  0
  1  2  1  0  0  0  0
  1 19  1  0  0  0  0
  1 20  1  0  0  0  0
  1 21  1  0  0  0  0
  2  3  1  0  0  0  0
  2 22  1  0  0  0  0
  2 23  1  0  0  0  0
  3 18  1  0  0  0  0
  3  4  1  0  0  0  0
  3 38  1  0  0  0  0
  4  5  1  0  0  0  0
  4 24  1  0  0  0  0
  4 25  1  0  0  0  0
  5  6  1  0  0  0  0
  5  7  1  0  0  0  0
  5 26  1  0  0  0  0
  6 27  1  0  0  0  0
  6 28  1  0  0  0  0
  6 29  1  0  0  0  0
  7  8  1  0  0  0  0
  7 18  1  0  0  0  0
  7 30  1  0  0  0  0
  8  9  1  0  0  0  0
  8 31  1  0  0  0  0
  9 10  2  0  0  0  0
  9 11  2  0  0  0  0
  9 12  1  0  0  0  0
 12 13  1  0  0  0  0
 12 32  1  0  0  0  0
 12 33  1  0  0  0  0
 13 17  2  0  0  0  0
 13 14  1  0  0  0  0
 14 15  2  0  0  0  0
 14 34  1  0  0  0  0
 15 16  1  0  0  0  0
 15 35  1  0  0  0  0
 16 17  1  0  0  0  0
 18 36  1  0  0  0  0
 18 37  1  0  0  0  0
M  CHG  1   3   1
M  END
> <s_m_source_file>
AV-unprocessed.smi

> <i_m_source_file_index>
703

> <i_lp_mmshare_version>
43012

> <i_f3d_flags>
0

> <s_epik_input>
W0NIM11bQ0gyXU4xW0NIMl1bQ0BASF0oW0NIM10pW0NASF0oW0NIMl0xKVtOSF1TKD1PKSg9TylbQ0gyXWMyW2NIXVtjSF1vbjI=

> <s_epik_cmdline>
J2VwaWtfcHl0aG9uJywgJy1waCcsICc3LjAnLCAnLXRuJywgJzgnLCAnLW1hJywgJzIwMCcsICctbWV0YWxfYmluZGluZycsICctaW1hZScsICc8aW5maWxlLm1hZT4nLCAnLW9tYWUnLCAnPG91dGZpbGUubWFlPic=

> <r_epik_Ionization_Penalty>
0.00324529

> <r_epik_Ionization_Penalty_Charging>
0.0019384

> <r_epik_Ionization_Penalty_Neutral>
0.00130689

> <r_epik_State_Penalty>
0.00218682

> <r_epik_Charging_Adjusted_Penalty>
0.00412522

> <i_epik_Tot_Q>
1

> <i_epik_Tot_abs_Q>
1

> <r_epik_Metal_State_Penalty>
0.310831

> <b_epik_Metal_Only>
0

> <s_lp_Force_Field>
OPLS_2005

> <r_lp_Energy>
19.6136

> <b_lp_Chiralities_Consistent>
1

> <s_lp_Variant>
AV-unprocessed.smi:703-6

> <Gold.Version>
5.8.1

> <Gold.Id.Protein>
6NUR|6NUR_protein|mol2

> <Gold.PLP.Fitness>
42.4484

> <Gold.PLP.PLP>
-28.7845

> <Gold.PLP.part.hbond>
-4.2656

> <Gold.PLP.part.metal>
0.0000

> <Gold.PLP.part.buried>
-5.6551

> <Gold.PLP.part.nonpolar>
-19.2580

> <Gold.PLP.part.repulsive>
0.0708

> <Gold.PLP.ligand.clash>
0.0000

> <Gold.PLP.ligand.torsion>
0.7463

> <Gold.PLP.Chemscore.Hbond>
5.0000

> <Gold.PLP.Chemscore.CHOScore>
0.0000

> <Gold.PLP.Chemscore.Metal>
0.0000

> <Gold.Chemscore.Hbonds>
donor molecule, donor type, donor heavy atom, donor atom, acceptor molecule, acceptor atom, score
      L1  H     3    38       P1  8028  2.00
      P1  H  6896  6908       L1    16  0.80
      P1  H  7989  7998       L1    10  1.00
      P1  H  7997  8008       L1    11  1.00

> <Gold.PLP.Chemscore.Internal.Correction>
0.1566

> <Gold.Rescore>
     Score         DG    S(hbond)    S(metal)    S(lipo)     H(rot)  DE(clash)    DE(int)     intcor
     19.06     -20.04       3.70        0.00      61.32       1.94       0.18       0.81       ----

> <Gold.Chemscore.Fitness>
19.0576

> <Gold.Chemscore.DG>
-20.0392

> <Gold.Chemscore.ZeroCoef>
-5.4800

> <Gold.Chemscore.Hbond>
3.6981

> <Gold.Chemscore.Metal>
0.0000

> <Gold.Chemscore.Lipo>
61.3156

> <Gold.Chemscore.Internal_Hbond>
0.0000

> <Gold.Chemscore.DEClash>
0.1754

> <Gold.Chemscore.DEInternal>
0.8063

> <Gold.Chemscore.Rot>
1.9400

> <Gold.Chemscore.Internal.Correction>
   9.000000E+99

> <Gold.Chemscore.Hbonds>
donor molecule, donor type, donor heavy atom, donor atom, acceptor molecule, acceptor atom, score
      L1  H     3    38       P1  8028  0.84
      P1  H  6896  6908       L1    16  0.11
      P1  H  7989  7998       L1    10  0.99
      P1  H  7997  8008       L1    11  0.95

> <Gold.Chemscore.Hbond.Weighted>
-12.3517

> <Gold.Chemscore.Metal.Weighted>
-0.0000

> <Gold.Chemscore.Lipo.Weighted>
-7.1739

> <Gold.Chemscore.Internal_Hbond.Weighted>
0.0000

> <Gold.Chemscore.DEClash.Weighted>
0.1754

> <Gold.Chemscore.DEInternal.Weighted>
0.8063

> <Gold.Chemscore.Rot.Weighted>
4.9665

> <Gold.Chemscore.Internal.Correction.Weighted>
   9.000000E+99

> <Gold.Protein.RotatedTorsions>
[ 6907 6896 6895 6894 ] final -157.02 input  -60.11 | X-H torsion
[ 7974 7965 7964 7962 ] final   63.54 input  175.53 | X-H torsion
[ 8008 7997 7996 7995 ] final  -34.15 input   59.86 | X-H torsion
[ 10167 10162 10161 10158 ] final  -89.50 input  -65.29 | X-H torsion
[ 10718 10713 10712 10709 ] final  124.09 input   66.30 | X-H torsion
[ 10763 10752 10751 10750 ] final -116.59 input  -60.55 | X-H torsion
[ 11005 11000 10999 10996 ] final   88.72 input  -57.11 | X-H torsion

> <Gold.Protein.ActiveResidues>
 VAL166  LYS551  ARG553  GLY616  TRP617  ASP618  TYR619  PRO620  LYS621  CYS622 
 ASP623  PHE694  ASN695  SER759  ASP760  ASP761  ALA762  ILE779  LEU786  VAL792 
 PHE793  MET794  SER795  GLU796  ALA797  LYS798  CYS799  TRP800  GLU811  SER814 

> <Gold.Protein.RotatedAtoms>
  151.2966  133.4141  159.2636 H   0  0  0  0  0  0  0  0  0  0  0  0  # atno 6907 bound_to 6896
  151.0232  134.9485  159.8081 H   0  0  0  0  0  0  0  0  0  0  0  0  # atno 6908 bound_to 6896
  152.5329  134.2928  159.9102 H   0  0  0  0  0  0  0  0  0  0  0  0  # atno 6909 bound_to 6896
  145.8607  139.3313  143.0821 H   0  0  0  0  0  0  0  0  0  0  0  0  # atno 7974 bound_to 7965
  154.4129  140.1692  156.2002 H   0  0  0  0  0  0  0  0  0  0  0  0  # atno 8008 bound_to 7997
  155.9530  140.3399  155.6401 H   0  0  0  0  0  0  0  0  0  0  0  0  # atno 8009 bound_to 7997
  155.6846  140.0726  157.2462 H   0  0  0  0  0  0  0  0  0  0  0  0  # atno 8010 bound_to 7997
  140.3642  143.2826  151.9578 H   0  0  0  0  0  0  0  0  0  0  0  0  # atno 10167 bound_to 10162
  157.5612  131.1089  150.8534 H   0  0  0  0  0  0  0  0  0  0  0  0  # atno 10718 bound_to 10713
  154.8525  135.4340  154.1845 H   0  0  0  0  0  0  0  0  0  0  0  0  # atno 10763 bound_to 10752
  153.2928  135.6963  153.7282 H   0  0  0  0  0  0  0  0  0  0  0  0  # atno 10764 bound_to 10752
  153.6443  135.3462  155.3055 H   0  0  0  0  0  0  0  0  0  0  0  0  # atno 10765 bound_to 10752
  139.8890  134.8505  156.3040 H   0  0  0  0  0  0  0  0  0  0  0  0  # atno 11005 bound_to 11000
  145.9251  140.9088  143.0385 LP  0  0  0  0  0  0  0  0  0  0  0  0  # atno 17320 bound_to 7965
  144.6726  140.1342  143.7441 LP  0  0  0  0  0  0  0  0  0  0  0  0  # atno 17321 bound_to 7965
  139.4810  144.5965  151.7680 LP  0  0  0  0  0  0  0  0  0  0  0  0  # atno 17342 bound_to 10162
  140.5097  144.1043  150.5992 LP  0  0  0  0  0  0  0  0  0  0  0  0  # atno 17343 bound_to 10162
  156.9031  130.5254  149.5282 LP  0  0  0  0  0  0  0  0  0  0  0  0  # atno 17370 bound_to 10713
  156.0665  130.5707  150.9298 LP  0  0  0  0  0  0  0  0  0  0  0  0  # atno 17371 bound_to 10713
  140.9895  133.7218  156.0792 LP  0  0  0  0  0  0  0  0  0  0  0  0  # atno 17394 bound_to 11000
  140.7644  134.3903  157.5519 LP  0  0  0  0  0  0  0  0  0  0  0  0  # atno 17395 bound_to 11000

$$$$
