AV-unprocessed.smi:1109|AV-procd|sdf|4789|dock7
  -GOLD-   22720 3333D 1   1.00000     0.00000
 Structure written by MMmdl.
 45 46  0  0  0  0  0  0  0  0  1 V2000
  148.1004  140.8674  153.8226 C   0  0  0  0  0  0  0  0  0  0  0  0
  148.2841  139.5246  154.2332 O   0  0  0  0  0  0  0  0  0  0  0  0
  149.6219  139.2508  154.6189 C   0  0  0  0  0  0  0  0  0  0  0  0
  149.7528  137.7665  154.9947 C   0  0  0  0  0  0  0  0  0  0  0  0
  150.1747  137.5962  156.3890 N   0  0  0  0  0  0  0  0  0  0  0  0
  149.1631  137.1693  157.2278 N   0  0  0  0  0  0  0  0  0  0  0  0
  149.3838  136.9847  158.4866 C   0  0  0  0  0  0  0  0  0  0  0  0
  148.3317  136.4830  159.4287 C   0  0  0  0  0  0  0  0  0  0  0  0
  148.1556  137.1063  160.4773 O   0  0  0  0  0  0  0  0  0  0  0  0
  147.6460  135.3267  159.1580 N   0  0  0  0  0  0  0  0  0  0  0  0
  147.4462  134.7705  157.7995 C   0  0  0  0  0  0  0  0  0  0  0  0
  148.7210  134.2616  157.1004 C   0  0  0  0  0  0  0  0  0  0  0  0
  149.1478  134.8867  155.9980 N   0  0  0  0  0  0  0  0  0  0  0  0
  149.3155  133.2897  157.5595 O   0  0  0  0  0  0  0  0  0  0  0  0
  146.8437  134.6307  160.1961 C   0  0  0  0  0  0  0  0  0  0  0  0
  145.8954  135.5636  160.9834 C   0  0  0  0  0  0  0  0  0  0  0  0
  146.2963  135.4384  162.4564 C   0  0  0  0  0  0  0  0  0  0  0  0
  146.9353  134.0565  162.5714 C   0  0  0  0  0  0  0  0  0  0  0  0
  147.6759  133.8613  161.2479 C   0  0  0  0  0  0  0  0  0  0  0  0
  150.7104  137.2061  159.0397 C   0  0  0  0  0  0  0  0  0  0  0  0
  151.6980  137.6024  158.2067 C   0  0  0  0  0  0  0  0  0  0  0  0
  151.4664  137.8150  156.7770 C   0  0  0  0  0  0  0  0  0  0  0  0
  152.3521  138.1564  155.9939 O   0  0  0  0  0  0  0  0  0  0  0  0
  147.0604  141.0241  153.5364 H   0  0  0  0  0  0  0  0  0  0  0  0
  148.7263  141.1051  152.9617 H   0  0  0  0  0  0  0  0  0  0  0  0
  148.3358  141.5621  154.6298 H   0  0  0  0  0  0  0  0  0  0  0  0
  150.3135  139.5051  153.8140 H   0  0  0  0  0  0  0  0  0  0  0  0
  149.8842  139.8681  155.4792 H   0  0  0  0  0  0  0  0  0  0  0  0
  148.8022  137.2589  154.8229 H   0  0  0  0  0  0  0  0  0  0  0  0
  150.4629  137.2789  154.3240 H   0  0  0  0  0  0  0  0  0  0  0  0
  146.7500  133.9325  157.8599 H   0  0  0  0  0  0  0  0  0  0  0  0
  146.9370  135.4770  157.1431 H   0  0  0  0  0  0  0  0  0  0  0  0
  149.9846  134.5698  155.5304 H   0  0  0  0  0  0  0  0  0  0  0  0
  148.6336  135.6784  155.6399 H   0  0  0  0  0  0  0  0  0  0  0  0
  146.2104  133.8829  159.7152 H   0  0  0  0  0  0  0  0  0  0  0  0
  145.9238  136.6001  160.6454 H   0  0  0  0  0  0  0  0  0  0  0  0
  144.8673  135.2221  160.8568 H   0  0  0  0  0  0  0  0  0  0  0  0
  147.0325  136.2031  162.7062 H   0  0  0  0  0  0  0  0  0  0  0  0
  145.4498  135.5648  163.1316 H   0  0  0  0  0  0  0  0  0  0  0  0
  147.5929  133.9687  163.4367 H   0  0  0  0  0  0  0  0  0  0  0  0
  146.1548  133.3009  162.6685 H   0  0  0  0  0  0  0  0  0  0  0  0
  147.7780  132.8060  160.9930 H   0  0  0  0  0  0  0  0  0  0  0  0
  148.6866  134.2560  161.3469 H   0  0  0  0  0  0  0  0  0  0  0  0
  150.9073  137.0627  160.0924 H   0  0  0  0  0  0  0  0  0  0  0  0
  152.6874  137.7706  158.6061 H   0  0  0  0  0  0  0  0  0  0  0  0
  1  2  1  0  0  0  0
  1 24  1  0  0  0  0
  1 25  1  0  0  0  0
  1 26  1  0  0  0  0
  2  3  1  0  0  0  0
  3  4  1  0  0  0  0
  3 27  1  0  0  0  0
  3 28  1  0  0  0  0
  4  5  1  0  0  0  0
  4 29  1  0  0  0  0
  4 30  1  0  0  0  0
  5 22  1  0  0  0  0
  5  6  1  0  0  0  0
  6  7  2  0  0  0  0
  7  8  1  0  0  0  0
  7 20  1  0  0  0  0
  8  9  2  0  0  0  0
  8 10  1  0  0  0  0
 10 11  1  0  0  0  0
 10 15  1  0  0  0  0
 11 12  1  0  0  0  0
 11 31  1  0  0  0  0
 11 32  1  0  0  0  0
 12 13  1  0  0  0  0
 12 14  2  0  0  0  0
 13 33  1  0  0  0  0
 13 34  1  0  0  0  0
 15 19  1  0  0  0  0
 15 16  1  0  0  0  0
 15 35  1  0  0  0  0
 16 17  1  0  0  0  0
 16 36  1  0  0  0  0
 16 37  1  0  0  0  0
 17 18  1  0  0  0  0
 17 38  1  0  0  0  0
 17 39  1  0  0  0  0
 18 19  1  0  0  0  0
 18 40  1  0  0  0  0
 18 41  1  0  0  0  0
 19 42  1  0  0  0  0
 19 43  1  0  0  0  0
 20 21  2  0  0  0  0
 20 44  1  0  0  0  0
 21 22  1  0  0  0  0
 21 45  1  0  0  0  0
 22 23  2  0  0  0  0
M  END
> <s_m_source_file>
AV-unprocessed.smi

> <i_m_source_file_index>
1109

> <i_lp_mmshare_version>
43012

> <i_f3d_flags>
0

> <s_epik_input>
W0NIM11PW0NIMl1bQ0gyXW4xbmMoW2NIXVtjSF1jMT1PKUMoPU8pTihbQ0gyXUMoPU8pW05IMl0pW0NIXTJbQ0gyXVtDSDJdW0NIMl1bQ0gyXTI=

> <s_epik_cmdline>
J2VwaWtfcHl0aG9uJywgJy1waCcsICc3LjAnLCAnLXRuJywgJzgnLCAnLW1hJywgJzIwMCcsICctbWV0YWxfYmluZGluZycsICctaW1hZScsICc8aW5maWxlLm1hZT4nLCAnLW9tYWUnLCAnPG91dGZpbGUubWFlPic=

> <r_lp_tautomer_probability>
1

> <r_epik_Ionization_Penalty>
6.63696e-08

> <r_epik_Ionization_Penalty_Charging>
1.13312e-09

> <r_epik_Ionization_Penalty_Neutral>
6.52365e-08

> <r_epik_State_Penalty>
-0

> <r_epik_Charging_Adjusted_Penalty>
1.13312e-09

> <i_epik_Tot_Q>
0

> <i_epik_Tot_abs_Q>
0

> <r_epik_Metal_State_Penalty>
-0

> <b_epik_Metal_Only>
0

> <s_lp_Force_Field>
OPLS_2005

> <r_lp_Energy>
53.0262

> <b_lp_Chiralities_Consistent>
1

> <s_lp_Variant>
AV-unprocessed.smi:1109-1

> <Gold.Version>
5.8.1

> <Gold.Id.Protein>
6NUR|6NUR_protein|mol2

> <Gold.PLP.Fitness>
36.7788

> <Gold.PLP.PLP>
-30.4090

> <Gold.PLP.part.hbond>
-4.0000

> <Gold.PLP.part.metal>
0.0000

> <Gold.PLP.part.buried>
-3.9137

> <Gold.PLP.part.nonpolar>
-22.9460

> <Gold.PLP.part.repulsive>
0.1810

> <Gold.PLP.ligand.clash>
0.0000

> <Gold.PLP.ligand.torsion>
1.8970

> <Gold.PLP.Chemscore.Hbond>
3.2150

> <Gold.PLP.Chemscore.CHOScore>
0.0000

> <Gold.PLP.Chemscore.Metal>
0.0000

> <Gold.Chemscore.Hbonds>
donor molecule, donor type, donor heavy atom, donor atom, acceptor molecule, acceptor atom, score
      P1  H  6896  6908       L1    14  0.29
      P1  H  6931  6943       L1     9  0.78
      P1  H  6934  6947       L1     9  0.42

> <Gold.PLP.Chemscore.Internal.Correction>
0.5189

> <Gold.Rescore>
     Score         DG    S(hbond)    S(metal)    S(lipo)     H(rot)  DE(clash)    DE(int)     intcor
     13.82     -17.24       3.31        0.00      63.17       2.61       0.00       3.42       ----

> <Gold.Chemscore.Fitness>
13.8155

> <Gold.Chemscore.DG>
-17.2396

> <Gold.Chemscore.ZeroCoef>
-5.4800

> <Gold.Chemscore.Hbond>
3.3053

> <Gold.Chemscore.Metal>
0.0000

> <Gold.Chemscore.Lipo>
63.1675

> <Gold.Chemscore.Internal_Hbond>
0.0000

> <Gold.Chemscore.DEClash>
0.0029

> <Gold.Chemscore.DEInternal>
3.4212

> <Gold.Chemscore.Rot>
2.6057

> <Gold.Chemscore.Internal.Correction>
   9.000000E+99

> <Gold.Chemscore.Hbonds>
donor molecule, donor type, donor heavy atom, donor atom, acceptor molecule, acceptor atom, score
      P1  H  6896  6908       L1    14  0.27
      P1  H  6931  6943       L1     9  0.73
      P1  H  6934  6947       L1     9  0.42

> <Gold.Chemscore.Hbond.Weighted>
-11.0397

> <Gold.Chemscore.Metal.Weighted>
-0.0000

> <Gold.Chemscore.Lipo.Weighted>
-7.3906

> <Gold.Chemscore.Internal_Hbond.Weighted>
0.0000

> <Gold.Chemscore.DEClash.Weighted>
0.0029

> <Gold.Chemscore.DEInternal.Weighted>
3.4212

> <Gold.Chemscore.Rot.Weighted>
6.6707

> <Gold.Chemscore.Internal.Correction.Weighted>
   9.000000E+99

> <Gold.Protein.RotatedTorsions>
[ 6907 6896 6895 6894 ] final  113.42 input  -60.11 | X-H torsion
[ 7974 7965 7964 7962 ] final   77.31 input  175.53 | X-H torsion
[ 8008 7997 7996 7995 ] final  -58.00 input   59.86 | X-H torsion
[ 10167 10162 10161 10158 ] final  153.89 input  -65.29 | X-H torsion
[ 10718 10713 10712 10709 ] final  105.45 input   66.30 | X-H torsion
[ 10763 10752 10751 10750 ] final  156.15 input  -60.55 | X-H torsion
[ 11005 11000 10999 10996 ] final  167.66 input  -57.11 | X-H torsion

> <Gold.Protein.ActiveResidues>
 VAL166  LYS551  ARG553  GLY616  TRP617  ASP618  TYR619  PRO620  LYS621  CYS622 
 ASP623  PHE694  ASN695  SER759  ASP760  ASP761  ALA762  ILE779  LEU786  VAL792 
 PHE793  MET794  SER795  GLU796  ALA797  LYS798  CYS799  TRP800  GLU811  SER814 

> <Gold.Protein.RotatedAtoms>
  152.4862  133.8379  159.7136 H   0  0  0  0  0  0  0  0  0  0  0  0  # atno 6907 bound_to 6896
  150.8950  133.7183  159.2901 H   0  0  0  0  0  0  0  0  0  0  0  0  # atno 6908 bound_to 6896
  151.4643  135.1045  159.9786 H   0  0  0  0  0  0  0  0  0  0  0  0  # atno 6909 bound_to 6896
  145.6916  139.2554  143.1756 H   0  0  0  0  0  0  0  0  0  0  0  0  # atno 7974 bound_to 7965
  154.4291  140.1094  156.5888 H   0  0  0  0  0  0  0  0  0  0  0  0  # atno 8008 bound_to 7997
  155.6034  140.3493  155.4582 H   0  0  0  0  0  0  0  0  0  0  0  0  # atno 8009 bound_to 7997
  156.0155  140.1228  157.0400 H   0  0  0  0  0  0  0  0  0  0  0  0  # atno 8010 bound_to 7997
  139.4825  144.5234  151.7840 H   0  0  0  0  0  0  0  0  0  0  0  0  # atno 10167 bound_to 10162
  157.6705  131.0828  150.5858 H   0  0  0  0  0  0  0  0  0  0  0  0  # atno 10718 bound_to 10713
  154.1798  135.2800  155.3055 H   0  0  0  0  0  0  0  0  0  0  0  0  # atno 10763 bound_to 10752
  154.6011  135.5529  153.7379 H   0  0  0  0  0  0  0  0  0  0  0  0  # atno 10764 bound_to 10752
  153.0141  135.6392  154.1937 H   0  0  0  0  0  0  0  0  0  0  0  0  # atno 10765 bound_to 10752
  140.2791  134.7764  157.3743 H   0  0  0  0  0  0  0  0  0  0  0  0  # atno 11005 bound_to 11000
  146.0877  140.7692  142.9611 LP  0  0  0  0  0  0  0  0  0  0  0  0  # atno 17320 bound_to 7965
  144.6995  140.3587  143.7168 LP  0  0  0  0  0  0  0  0  0  0  0  0  # atno 17321 bound_to 7965
  140.4751  144.1531  150.5923 LP  0  0  0  0  0  0  0  0  0  0  0  0  # atno 17342 bound_to 10162
  140.4340  143.2555  151.9559 LP  0  0  0  0  0  0  0  0  0  0  0  0  # atno 17343 bound_to 10162
  156.6159  130.4392  149.5841 LP  0  0  0  0  0  0  0  0  0  0  0  0  # atno 17370 bound_to 10713
  156.2394  130.6842  151.1541 LP  0  0  0  0  0  0  0  0  0  0  0  0  # atno 17371 bound_to 10713
  140.1300  134.5108  155.8113 LP  0  0  0  0  0  0  0  0  0  0  0  0  # atno 17394 bound_to 11000
  141.2165  133.6786  156.7022 LP  0  0  0  0  0  0  0  0  0  0  0  0  # atno 17395 bound_to 11000

$$$$
