AV-unprocessed.smi:2822|AV-procd|sdf|10863|dock3
  -GOLD-   2272015303D 1   1.00000     0.00000
 Structure written by MMmdl.
 41 43  0  0  0  0  0  0  0  0  3 V2000
  150.1927  138.4138  154.3694 Cl  0  0  0  0  0  0  0  0  0  0  0  0
  149.1094  139.7567  154.2536 C   0  0  0  0  0  0  0  0  0  0  0  0
  149.4059  140.9453  154.9522 C   0  0  0  0  0  0  0  0  0  0  0  0
  148.5708  142.0028  154.8708 N   0  3  0  0  0  0  0  0  0  0  0  0
  147.4381  141.9825  154.1370 C   0  0  0  0  0  0  0  0  0  0  0  0
  147.0878  140.8230  153.4153 C   0  0  0  0  0  0  0  0  0  0  0  0
  147.9321  139.6859  153.4686 C   0  0  0  0  0  0  0  0  0  0  0  0
  147.6430  138.5014  152.7748 N   0  0  0  0  0  0  0  0  0  0  0  0
  146.3067  138.2114  152.2737 C   0  0  0  0  0  0  0  0  0  0  0  0
  145.7121  136.9397  152.9031 C   0  0  1  0  0  0  0  0  0  0  0  0
  144.8832  136.0934  151.9154 C   0  0  0  0  0  0  0  0  0  0  0  0
  144.3920  134.8569  152.5726 N   0  3  1  0  0  0  0  0  0  0  0  0
  143.5527  134.0020  151.6923 C   0  0  0  0  0  0  0  0  0  0  0  0
  144.3918  133.2346  150.6519 C   0  0  0  0  0  0  0  0  0  0  0  0
  145.5107  132.4300  151.3276 C   0  0  0  0  0  0  0  0  0  0  0  0
  146.3626  133.3418  152.2222 C   0  0  0  0  0  0  0  0  0  0  0  0
  145.4822  134.0955  153.2431 C   0  0  1  0  0  0  0  0  0  0  0  0
  146.2976  135.0266  154.1620 C   0  0  0  0  0  0  0  0  0  0  0  0
  146.7726  136.1539  153.4359 O   0  0  0  0  0  0  0  0  0  0  0  0
  150.2815  141.0805  155.5702 H   0  0  0  0  0  0  0  0  0  0  0  0
  146.8488  142.8880  154.1489 H   0  0  0  0  0  0  0  0  0  0  0  0
  146.1773  140.8254  152.8351 H   0  0  0  0  0  0  0  0  0  0  0  0
  148.3721  137.8154  152.6369 H   0  0  0  0  0  0  0  0  0  0  0  0
  145.6549  139.0606  152.4819 H   0  0  0  0  0  0  0  0  0  0  0  0
  146.3478  138.0946  151.1901 H   0  0  0  0  0  0  0  0  0  0  0  0
  145.0673  137.2524  153.7265 H   0  0  0  0  0  0  0  0  0  0  0  0
  144.0334  136.6732  151.5538 H   0  0  0  0  0  0  0  0  0  0  0  0
  145.4821  135.8367  151.0420 H   0  0  0  0  0  0  0  0  0  0  0  0
  143.0157  133.2895  152.3198 H   0  0  0  0  0  0  0  0  0  0  0  0
  142.7928  134.6087  151.1984 H   0  0  0  0  0  0  0  0  0  0  0  0
  143.7482  132.5644  150.0814 H   0  0  0  0  0  0  0  0  0  0  0  0
  144.8225  133.9273  149.9284 H   0  0  0  0  0  0  0  0  0  0  0  0
  145.0753  131.6303  151.9281 H   0  0  0  0  0  0  0  0  0  0  0  0
  146.1365  131.9493  150.5752 H   0  0  0  0  0  0  0  0  0  0  0  0
  147.1087  132.7434  152.7461 H   0  0  0  0  0  0  0  0  0  0  0  0
  146.9198  134.0467  151.6042 H   0  0  0  0  0  0  0  0  0  0  0  0
  145.0062  133.3469  153.8784 H   0  0  0  0  0  0  0  0  0  0  0  0
  145.6896  135.3622  155.0036 H   0  0  0  0  0  0  0  0  0  0  0  0
  147.1483  134.4931  154.5869 H   0  0  0  0  0  0  0  0  0  0  0  0
  143.7818  135.1751  153.3122 H   0  0  0  0  0  0  0  0  0  0  0  0
  148.8058  142.8518  155.3857 H   0  0  0  0  0  0  0  0  0  0  0  0
  1  2  1  0  0  0  0
  2  7  1  0  0  0  0
  2  3  2  0  0  0  0
  3  4  1  0  0  0  0
  3 20  1  0  0  0  0
  4  5  2  0  0  0  0
  4 41  1  0  0  0  0
  5  6  1  0  0  0  0
  5 21  1  0  0  0  0
  6  7  2  0  0  0  0
  6 22  1  0  0  0  0
  7  8  1  0  0  0  0
  8  9  1  0  0  0  0
  8 23  1  0  0  0  0
  9 10  1  0  0  0  0
  9 24  1  0  0  0  0
  9 25  1  0  0  0  0
 10 19  1  0  0  0  0
 10 11  1  0  0  0  0
 10 26  1  0  0  0  0
 11 12  1  0  0  0  0
 11 27  1  0  0  0  0
 11 28  1  0  0  0  0
 12 17  1  0  0  0  0
 12 13  1  0  0  0  0
 12 40  1  0  0  0  0
 13 14  1  0  0  0  0
 13 29  1  0  0  0  0
 13 30  1  0  0  0  0
 14 15  1  0  0  0  0
 14 31  1  0  0  0  0
 14 32  1  0  0  0  0
 15 16  1  0  0  0  0
 15 33  1  0  0  0  0
 15 34  1  0  0  0  0
 16 17  1  0  0  0  0
 16 35  1  0  0  0  0
 16 36  1  0  0  0  0
 17 18  1  0  0  0  0
 17 37  1  0  0  0  0
 18 19  1  0  0  0  0
 18 38  1  0  0  0  0
 18 39  1  0  0  0  0
M  CHG  1   4   1
M  CHG  1  12   1
M  END
> <s_m_source_file>
AV-unprocessed.smi

> <i_m_source_file_index>
2822

> <i_lp_mmshare_version>
43012

> <i_f3d_flags>
0

> <s_epik_input>
Q2xjMVtjSF1uW2NIXVtjSF1jMVtOSF1bQ0gyXVtDQEhdKFtDSDJdMilPW0NIMl1bQ0BASF0oTjIzKVtDSDJdW0NIMl1bQ0gyXVtDSDJdMw==

> <s_epik_cmdline>
J2VwaWtfcHl0aG9uJywgJy1waCcsICc3LjAnLCAnLXRuJywgJzgnLCAnLW1hJywgJzIwMCcsICctbWV0YWxfYmluZGluZycsICctaW1hZScsICc8aW5maWxlLm1hZT4nLCAnLW9tYWUnLCAnPG91dGZpbGUubWFlPic=

> <r_lp_tautomer_probability>
1

> <r_epik_Ionization_Penalty>
0.254999

> <r_epik_Ionization_Penalty_Charging>
0.254956

> <r_epik_Ionization_Penalty_Neutral>
4.33524e-05

> <r_epik_State_Penalty>
0.230978

> <r_epik_Charging_Adjusted_Penalty>
0.485934

> <i_epik_Tot_Q>
2

> <i_epik_Tot_abs_Q>
2

> <r_epik_Metal_State_Penalty>
3.47007

> <b_epik_Metal_Only>
0

> <s_lp_Force_Field>
OPLS_2005

> <r_lp_Energy>
41.3986

> <b_lp_Chiralities_Consistent>
1

> <s_lp_Variant>
AV-unprocessed.smi:2822-4

> <Gold.Version>
5.8.1

> <Gold.Id.Protein>
6NUR|6NUR_protein|mol2

> <Gold.PLP.Fitness>
40.1501

> <Gold.PLP.PLP>
-32.3781

> <Gold.PLP.part.hbond>
-3.0000

> <Gold.PLP.part.metal>
0.0000

> <Gold.PLP.part.buried>
-3.7852

> <Gold.PLP.part.nonpolar>
-29.9513

> <Gold.PLP.part.repulsive>
3.1656

> <Gold.PLP.ligand.clash>
0.0000

> <Gold.PLP.ligand.torsion>
0.6150

> <Gold.PLP.Chemscore.Hbond>
3.0000

> <Gold.PLP.Chemscore.CHOScore>
0.0000

> <Gold.PLP.Chemscore.Metal>
0.0000

> <Gold.Chemscore.Hbonds>
donor molecule, donor type, donor heavy atom, donor atom, acceptor molecule, acceptor atom, score
      L1  H     4    41       P1  8028  2.00
      L1  H     8    23       P1  7948  0.99

> <Gold.PLP.Chemscore.Internal.Correction>
0.0019

> <Gold.Rescore>
     Score         DG    S(hbond)    S(metal)    S(lipo)     H(rot)  DE(clash)    DE(int)     intcor
     16.62     -18.98       1.94        0.00      86.15       1.20       1.78       0.59       ----

> <Gold.Chemscore.Fitness>
16.6175

> <Gold.Chemscore.DG>
-18.9824

> <Gold.Chemscore.ZeroCoef>
-5.4800

> <Gold.Chemscore.Hbond>
1.9417

> <Gold.Chemscore.Metal>
0.0000

> <Gold.Chemscore.Lipo>
86.1484

> <Gold.Chemscore.Internal_Hbond>
0.0000

> <Gold.Chemscore.DEClash>
1.7794

> <Gold.Chemscore.DEInternal>
0.5854

> <Gold.Chemscore.Rot>
1.1962

> <Gold.Chemscore.Internal.Correction>
   9.000000E+99

> <Gold.Chemscore.Hbonds>
donor molecule, donor type, donor heavy atom, donor atom, acceptor molecule, acceptor atom, score
      L1  H     4    41       P1  8028  0.97
      L1  H     8    23       P1  7948  0.94

> <Gold.Chemscore.Hbond.Weighted>
-6.4853

> <Gold.Chemscore.Metal.Weighted>
-0.0000

> <Gold.Chemscore.Lipo.Weighted>
-10.0794

> <Gold.Chemscore.Internal_Hbond.Weighted>
0.0000

> <Gold.Chemscore.DEClash.Weighted>
1.7794

> <Gold.Chemscore.DEInternal.Weighted>
0.5854

> <Gold.Chemscore.Rot.Weighted>
3.0623

> <Gold.Chemscore.Internal.Correction.Weighted>
   9.000000E+99

> <Gold.Protein.RotatedTorsions>
[ 6907 6896 6895 6894 ] final  156.87 input  -60.11 | X-H torsion
[ 7974 7965 7964 7962 ] final  -25.09 input  175.53 | X-H torsion
[ 8008 7997 7996 7995 ] final  160.49 input   59.86 | X-H torsion
[ 10167 10162 10161 10158 ] final  -54.84 input  -65.29 | X-H torsion
[ 10718 10713 10712 10709 ] final  175.29 input   66.30 | X-H torsion
[ 10763 10752 10751 10750 ] final   -1.29 input  -60.55 | X-H torsion
[ 11005 11000 10999 10996 ] final   23.82 input  -57.11 | X-H torsion

> <Gold.Protein.ActiveResidues>
 VAL166  LYS551  ARG553  GLY616  TRP617  ASP618  TYR619  PRO620  LYS621  CYS622 
 ASP623  PHE694  ASN695  SER759  ASP760  ASP761  ALA762  ILE779  LEU786  VAL792 
 PHE793  MET794  SER795  GLU796  ALA797  LYS798  CYS799  TRP800  GLU811  SER814 

> <Gold.Protein.RotatedAtoms>
  152.0234  133.3908  159.4267 H   0  0  0  0  0  0  0  0  0  0  0  0  # atno 6907 bound_to 6896
  150.6888  134.3600  159.4955 H   0  0  0  0  0  0  0  0  0  0  0  0  # atno 6908 bound_to 6896
  152.1377  134.9086  160.0606 H   0  0  0  0  0  0  0  0  0  0  0  0  # atno 6909 bound_to 6896
  146.1513  140.4839  142.8610 H   0  0  0  0  0  0  0  0  0  0  0  0  # atno 7974 bound_to 7965
  156.2168  140.1803  156.7569 H   0  0  0  0  0  0  0  0  0  0  0  0  # atno 8008 bound_to 7997
  154.5804  140.0667  156.9125 H   0  0  0  0  0  0  0  0  0  0  0  0  # atno 8009 bound_to 7997
  155.2512  140.3329  155.4284 H   0  0  0  0  0  0  0  0  0  0  0  0  # atno 8010 bound_to 7997
  140.6408  143.2507  151.4994 H   0  0  0  0  0  0  0  0  0  0  0  0  # atno 10167 bound_to 10162
  156.9371  130.9989  151.2976 H   0  0  0  0  0  0  0  0  0  0  0  0  # atno 10718 bound_to 10713
  153.3429  135.6981  153.6852 H   0  0  0  0  0  0  0  0  0  0  0  0  # atno 10763 bound_to 10752
  153.5610  135.3535  155.2799 H   0  0  0  0  0  0  0  0  0  0  0  0  # atno 10764 bound_to 10752
  154.8640  135.4249  154.2646 H   0  0  0  0  0  0  0  0  0  0  0  0  # atno 10765 bound_to 10752
  140.3654  134.2080  155.7669 H   0  0  0  0  0  0  0  0  0  0  0  0  # atno 11005 bound_to 11000
  144.7908  140.6028  143.6543 LP  0  0  0  0  0  0  0  0  0  0  0  0  # atno 17320 bound_to 7965
  145.4815  139.1495  143.3759 LP  0  0  0  0  0  0  0  0  0  0  0  0  # atno 17321 bound_to 7965
  139.5617  144.2140  152.1702 LP  0  0  0  0  0  0  0  0  0  0  0  0  # atno 17342 bound_to 10162
  140.1410  144.5202  150.6744 LP  0  0  0  0  0  0  0  0  0  0  0  0  # atno 17343 bound_to 10162
  157.5809  130.8376  149.8521 LP  0  0  0  0  0  0  0  0  0  0  0  0  # atno 17370 bound_to 10713
  156.0421  130.3736  150.1409 LP  0  0  0  0  0  0  0  0  0  0  0  0  # atno 17371 bound_to 10713
  141.1971  133.8067  157.0642 LP  0  0  0  0  0  0  0  0  0  0  0  0  # atno 17394 bound_to 11000
  140.0593  134.9763  157.1277 LP  0  0  0  0  0  0  0  0  0  0  0  0  # atno 17395 bound_to 11000

$$$$
