AV-unprocessed.smi:99|AV-procd|sdf|896|dock8
  -GOLD-   2262017393D 1   1.00000     0.00000
 Structure written by MMmdl.
 52 55  0  0  0  0  0  0  0  0  2 V2000
  146.8149  134.6700  155.6477 O   0  0  0  0  0  0  0  0  0  0  0  0
  146.4627  135.0883  154.5433 C   0  0  0  0  0  0  0  0  0  0  0  0
  146.0188  136.3408  154.3244 O   0  0  0  0  0  0  0  0  0  0  0  0
  145.8821  137.2590  155.3972 C   0  0  0  0  0  0  0  0  0  0  0  0
  147.2549  137.4669  156.0494 C   0  0  1  0  0  0  0  0  0  0  0  0
  147.9188  138.5705  155.4426 O   0  0  0  0  0  0  0  0  0  0  0  0
  148.8556  139.1155  156.3315 C   0  0  2  0  0  0  0  0  0  0  0  0
  150.2568  138.8587  155.8098 N   0  0  0  0  0  0  0  0  0  0  0  0
  150.4788  138.1053  154.6683 C   0  0  0  0  0  0  0  0  0  0  0  0
  151.7270  137.8772  154.2106 C   0  0  0  0  0  0  0  0  0  0  0  0
  152.8686  138.4337  154.9312 C   0  0  0  0  0  0  0  0  0  0  0  0
  154.0021  138.2239  154.5041 O   0  0  0  0  0  0  0  0  0  0  0  0
  152.6236  139.1656  156.0562 N   0  5  0  0  0  0  0  0  0  0  0  0
  151.3621  139.3946  156.5241 C   0  0  0  0  0  0  0  0  0  0  0  0
  151.1279  140.0381  157.5475 O   0  0  0  0  0  0  0  0  0  0  0  0
  148.5990  138.4802  157.7201 C   0  0  2  0  0  0  0  0  0  0  0  0
  149.5448  137.4730  158.0494 O   0  0  0  0  0  0  0  0  0  0  0  0
  147.2104  137.8937  157.5157 C   0  0  2  0  0  0  0  0  0  0  0  0
  146.9304  136.8417  158.4360 O   0  0  0  0  0  0  0  0  0  0  0  0
  146.5781  137.0997  159.7142 C   0  0  0  0  0  0  0  0  0  0  0  0
  146.0199  138.1367  160.0778 O   0  0  0  0  0  0  0  0  0  0  0  0
  146.8956  135.9733  160.6374 C   0  0  0  0  0  0  0  0  0  0  0  0
  147.2202  134.7066  160.0983 C   0  0  0  0  0  0  0  0  0  0  0  0
  147.5504  133.6306  160.9445 C   0  0  0  0  0  0  0  0  0  0  0  0
  147.5567  133.8073  162.3403 C   0  0  0  0  0  0  0  0  0  0  0  0
  147.2318  135.0615  162.8889 C   0  0  0  0  0  0  0  0  0  0  0  0
  146.9033  136.1395  162.0441 C   0  0  0  0  0  0  0  0  0  0  0  0
  146.5076  134.2693  153.2975 C   0  0  0  0  0  0  0  0  0  0  0  0
  145.9420  134.7841  152.1078 C   0  0  0  0  0  0  0  0  0  0  0  0
  145.9486  134.0228  150.9229 C   0  0  0  0  0  0  0  0  0  0  0  0
  146.5209  132.7376  150.9129 C   0  0  0  0  0  0  0  0  0  0  0  0
  147.0907  132.2159  152.0887 C   0  0  0  0  0  0  0  0  0  0  0  0
  147.0870  132.9766  153.2738 C   0  0  0  0  0  0  0  0  0  0  0  0
  145.5023  138.2028  155.0051 H   0  0  0  0  0  0  0  0  0  0  0  0
  145.1688  136.8997  156.1406 H   0  0  0  0  0  0  0  0  0  0  0  0
  147.8752  136.5773  155.9267 H   0  0  0  0  0  0  0  0  0  0  0  0
  148.7272  140.1993  156.3192 H   0  0  0  0  0  0  0  0  0  0  0  0
  149.6489  137.6813  154.1244 H   0  0  0  0  0  0  0  0  0  0  0  0
  151.8821  137.2861  153.3199 H   0  0  0  0  0  0  0  0  0  0  0  0
  148.6116  139.2496  158.4924 H   0  0  0  0  0  0  0  0  0  0  0  0
  150.3663  137.6930  157.6360 H   0  0  0  0  0  0  0  0  0  0  0  0
  146.4931  138.7097  157.6178 H   0  0  0  0  0  0  0  0  0  0  0  0
  147.2298  134.5494  159.0294 H   0  0  0  0  0  0  0  0  0  0  0  0
  147.8021  132.6696  160.5212 H   0  0  0  0  0  0  0  0  0  0  0  0
  147.8105  132.9824  162.9895 H   0  0  0  0  0  0  0  0  0  0  0  0
  147.2350  135.1984  163.9601 H   0  0  0  0  0  0  0  0  0  0  0  0
  146.6611  137.0897  162.4971 H   0  0  0  0  0  0  0  0  0  0  0  0
  145.4907  135.7658  152.0928 H   0  0  0  0  0  0  0  0  0  0  0  0
  145.5110  134.4252  150.0211 H   0  0  0  0  0  0  0  0  0  0  0  0
  146.5224  132.1526  150.0053 H   0  0  0  0  0  0  0  0  0  0  0  0
  147.5272  131.2281  152.0849 H   0  0  0  0  0  0  0  0  0  0  0  0
  147.5261  132.5421  154.1599 H   0  0  0  0  0  0  0  0  0  0  0  0
  1  2  2  0  0  0  0
  2  3  1  0  0  0  0
  2 28  1  0  0  0  0
  3  4  1  0  0  0  0
  4  5  1  0  0  0  0
  4 34  1  0  0  0  0
  4 35  1  0  0  0  0
  5 18  1  0  0  0  0
  5  6  1  0  0  0  0
  5 36  1  0  0  0  0
  6  7  1  0  0  0  0
  7  8  1  0  0  0  0
  7 16  1  0  0  0  0
  7 37  1  0  0  0  0
  8 14  1  0  0  0  0
  8  9  1  0  0  0  0
  9 10  2  0  0  0  0
  9 38  1  0  0  0  0
 10 11  1  0  0  0  0
 10 39  1  0  0  0  0
 11 12  2  0  0  0  0
 11 13  1  0  0  0  0
 13 14  1  0  0  0  0
 14 15  2  0  0  0  0
 16 17  1  0  0  0  0
 16 18  1  0  0  0  0
 16 40  1  0  0  0  0
 17 41  1  0  0  0  0
 18 19  1  0  0  0  0
 18 42  1  0  0  0  0
 19 20  1  0  0  0  0
 20 21  2  0  0  0  0
 20 22  1  0  0  0  0
 22 27  1  0  0  0  0
 22 23  2  0  0  0  0
 23 24  1  0  0  0  0
 23 43  1  0  0  0  0
 24 25  2  0  0  0  0
 24 44  1  0  0  0  0
 25 26  1  0  0  0  0
 25 45  1  0  0  0  0
 26 27  2  0  0  0  0
 26 46  1  0  0  0  0
 27 47  1  0  0  0  0
 28 33  1  0  0  0  0
 28 29  2  0  0  0  0
 29 30  1  0  0  0  0
 29 48  1  0  0  0  0
 30 31  2  0  0  0  0
 30 49  1  0  0  0  0
 31 32  1  0  0  0  0
 31 50  1  0  0  0  0
 32 33  2  0  0  0  0
 32 51  1  0  0  0  0
 33 52  1  0  0  0  0
M  CHG  1  13  -1
M  END
> <s_m_source_file>
AV-unprocessed.smi

> <i_m_source_file_index>
99

> <i_lp_mmshare_version>
43012

> <i_f3d_flags>
0

> <s_epik_input>
W2NIXTFbY0hdW2NIXVtjSF1bY0hdYzFDKD1PKU9bQ0gyXVtDQEBIXTJPW0NAQEhdKG4zW2NIXVtjSF1jKD1PKVtuSF1jMz1PKVtDQEBIXShbT0hdKVtDQEhdMk9DKD1PKWM0W2NIXVtjSF1bY0hdW2NIXVtjSF00

> <s_epik_cmdline>
J2VwaWtfcHl0aG9uJywgJy1waCcsICc3LjAnLCAnLXRuJywgJzgnLCAnLW1hJywgJzIwMCcsICctbWV0YWxfYmluZGluZycsICctaW1hZScsICc8aW5maWxlLm1hZT4nLCAnLW9tYWUnLCAnPG91dGZpbGUubWFlPic=

> <r_lp_tautomer_probability>
1

> <r_epik_Ionization_Penalty>
2.89159

> <r_epik_Ionization_Penalty_Charging>
2.1077e-08

> <r_epik_Ionization_Penalty_Neutral>
2.89159

> <r_epik_State_Penalty>
2.88671

> <r_epik_Charging_Adjusted_Penalty>
2.88671

> <i_epik_Tot_Q>
-1

> <i_epik_Tot_abs_Q>
1

> <r_epik_Metal_State_Penalty>
0.0727308

> <b_epik_Metal_Only>
1

> <s_epik_Chemistry_Notes>
This compound has an ester and may undergo hydrolysis at high or low pH. This compound contains an acetal/aminal-like group ( X-CH(R)-Y where X, Y are N, S, or O) that may be acid/base labile, releasing an aldehyde.

> <s_lp_Force_Field>
OPLS_2005

> <r_lp_Energy>
52.3549

> <b_lp_Chiralities_Consistent>
1

> <s_lp_Variant>
AV-unprocessed.smi:99-32

> <Gold.Version>
5.8.1

> <Gold.Id.Protein>
6NUR|6NUR_protein|mol2

> <Gold.PLP.Fitness>
51.6766

> <Gold.PLP.PLP>
-43.4208

> <Gold.PLP.part.hbond>
-3.1198

> <Gold.PLP.part.metal>
0.0000

> <Gold.PLP.part.buried>
-4.1648

> <Gold.PLP.part.nonpolar>
-35.4078

> <Gold.PLP.part.repulsive>
0.1358

> <Gold.PLP.ligand.clash>
0.0000

> <Gold.PLP.ligand.torsion>
1.0026

> <Gold.PLP.Chemscore.Hbond>
2.9440

> <Gold.PLP.Chemscore.CHOScore>
0.3377

> <Gold.PLP.Chemscore.Metal>
0.0000

> <Gold.Chemscore.Hbonds>
donor molecule, donor type, donor heavy atom, donor atom, acceptor molecule, acceptor atom, score
      P1  H  6934  6947       L1    21  0.86
      P1  H  7997  8010       L1    13  1.90
      L1  C     9    38       P1  7948  0.46

> <Gold.PLP.Chemscore.Internal.Correction>
0.4159

> <Gold.Rescore>
     Score         DG    S(hbond)    S(metal)    S(lipo)     H(rot)  DE(clash)    DE(int)     intcor
     12.49     -13.93       1.87        0.00      87.35       3.13       0.09       1.35       ----

> <Gold.Chemscore.Fitness>
12.4881

> <Gold.Chemscore.DG>
-13.9303

> <Gold.Chemscore.ZeroCoef>
-5.4800

> <Gold.Chemscore.Hbond>
1.8726

> <Gold.Chemscore.Metal>
0.0000

> <Gold.Chemscore.Lipo>
87.3542

> <Gold.Chemscore.Internal_Hbond>
0.0000

> <Gold.Chemscore.DEClash>
0.0946

> <Gold.Chemscore.DEInternal>
1.3477

> <Gold.Chemscore.Rot>
3.1346

> <Gold.Chemscore.Internal.Correction>
   9.000000E+99

> <Gold.Chemscore.Hbonds>
donor molecule, donor type, donor heavy atom, donor atom, acceptor molecule, acceptor atom, score
      P1  H  6934  6947       L1    21  0.55
      P1  H  7997  8010       L1    13  0.21

> <Gold.Chemscore.Hbond.Weighted>
-6.2544

> <Gold.Chemscore.Metal.Weighted>
-0.0000

> <Gold.Chemscore.Lipo.Weighted>
-10.2204

> <Gold.Chemscore.Internal_Hbond.Weighted>
0.0000

> <Gold.Chemscore.DEClash.Weighted>
0.0946

> <Gold.Chemscore.DEInternal.Weighted>
1.3477

> <Gold.Chemscore.Rot.Weighted>
8.0246

> <Gold.Chemscore.Internal.Correction.Weighted>
   9.000000E+99

> <Gold.Protein.RotatedTorsions>
[ 6907 6896 6895 6894 ] final  -65.63 input  -60.11 | X-H torsion
[ 7974 7965 7964 7962 ] final  -56.89 input  175.53 | X-H torsion
[ 8008 7997 7996 7995 ] final   87.87 input   59.86 | X-H torsion
[ 10167 10162 10161 10158 ] final   -2.07 input  -65.29 | X-H torsion
[ 10718 10713 10712 10709 ] final  -85.00 input   66.30 | X-H torsion
[ 10763 10752 10751 10750 ] final  -11.37 input  -60.55 | X-H torsion
[ 11005 11000 10999 10996 ] final  -38.30 input  -57.11 | X-H torsion

> <Gold.Protein.ActiveResidues>
 VAL166  LYS551  ARG553  GLY616  TRP617  ASP618  TYR619  PRO620  LYS621  CYS622 
 ASP623  PHE694  ASN695  SER759  ASP760  ASP761  ALA762  ILE779  LEU786  VAL792 
 PHE793  MET794  SER795  GLU796  ALA797  LYS798  CYS799  TRP800  GLU811  SER814 

> <Gold.Protein.RotatedAtoms>
  150.7513  134.6134  159.6097 H   0  0  0  0  0  0  0  0  0  0  0  0  # atno 6907 bound_to 6896
  152.3461  134.7066  160.0259 H   0  0  0  0  0  0  0  0  0  0  0  0  # atno 6908 bound_to 6896
  151.7502  133.3291  159.3426 H   0  0  0  0  0  0  0  0  0  0  0  0  # atno 6909 bound_to 6896
  145.8574  140.8310  142.9954 H   0  0  0  0  0  0  0  0  0  0  0  0  # atno 7974 bound_to 7965
  155.9807  140.3377  155.6661 H   0  0  0  0  0  0  0  0  0  0  0  0  # atno 8008 bound_to 7997
  155.6552  140.0710  157.2591 H   0  0  0  0  0  0  0  0  0  0  0  0  # atno 8009 bound_to 7997
  154.4191  140.1718  156.1705 H   0  0  0  0  0  0  0  0  0  0  0  0  # atno 8010 bound_to 7997
  140.6836  143.6701  150.8192 H   0  0  0  0  0  0  0  0  0  0  0  0  # atno 10167 bound_to 10162
  156.0000  130.4716  150.4496 H   0  0  0  0  0  0  0  0  0  0  0  0  # atno 10718 bound_to 10713
  153.4828  135.7017  153.5928 H   0  0  0  0  0  0  0  0  0  0  0  0  # atno 10763 bound_to 10752
  153.4134  135.3843  155.2065 H   0  0  0  0  0  0  0  0  0  0  0  0  # atno 10764 bound_to 10752
  154.8721  135.3910  154.4280 H   0  0  0  0  0  0  0  0  0  0  0  0  # atno 10765 bound_to 10752
  141.0017  133.6952  156.2035 H   0  0  0  0  0  0  0  0  0  0  0  0  # atno 11005 bound_to 11000
  144.6727  140.1044  143.7459 LP  0  0  0  0  0  0  0  0  0  0  0  0  # atno 17320 bound_to 7965
  145.9288  139.2593  143.1337 LP  0  0  0  0  0  0  0  0  0  0  0  0  # atno 17321 bound_to 7965
  140.0405  143.5351  152.2720 LP  0  0  0  0  0  0  0  0  0  0  0  0  # atno 17342 bound_to 10162
  139.6176  144.7623  151.2811 LP  0  0  0  0  0  0  0  0  0  0  0  0  # atno 17343 bound_to 10162
  157.2530  131.0550  151.2367 LP  0  0  0  0  0  0  0  0  0  0  0  0  # atno 17370 bound_to 10713
  157.3509  130.7082  149.6440 LP  0  0  0  0  0  0  0  0  0  0  0  0  # atno 17371 bound_to 10713
  140.6878  134.4698  157.5589 LP  0  0  0  0  0  0  0  0  0  0  0  0  # atno 17394 bound_to 11000
  139.9042  134.8486  156.1772 LP  0  0  0  0  0  0  0  0  0  0  0  0  # atno 17395 bound_to 11000

$$$$
