AV-unprocessed.smi:21|AV-procd|sdf|157|dock4
  -GOLD-   2262015383D 1   1.00000     0.00000
 Structure written by MMmdl.
 61 64  0  0  0  0  0  0  0  0  1 V2000
  153.1209  142.4871  163.0518 C   0  0  0  0  0  0  0  0  0  0  0  0
  152.9684  141.6244  161.9360 O   0  0  0  0  0  0  0  0  0  0  0  0
  152.9683  142.3061  160.6889 C   0  0  1  0  0  0  0  0  0  0  0  0
  152.4076  141.4305  159.5550 C   0  0  0  0  0  0  0  0  0  0  0  0
  151.3569  142.3197  158.8811 C   0  0  1  0  0  0  0  0  0  0  0  0
  150.2959  141.5187  158.0973 C   0  0  0  0  0  0  0  0  0  0  0  0
  150.8469  140.3376  157.4332 N   0  0  0  0  0  0  0  0  0  0  0  0
  150.8116  140.3016  155.9731 C   0  0  0  0  0  0  0  0  0  0  0  0
  150.6411  139.1638  158.0844 C   0  0  0  0  0  0  0  0  0  0  0  0
  151.6754  138.5580  158.7274 N   0  0  0  0  0  0  0  0  0  0  0  0
  151.4901  137.3960  159.3600 C   0  0  0  0  0  0  0  0  0  0  0  0
  150.3705  136.6808  159.4798 N   0  0  0  0  0  0  0  0  0  0  0  0
  149.3249  137.2865  158.8481 C   0  0  0  0  0  0  0  0  0  0  0  0
  149.3745  138.5146  158.1291 C   0  0  0  0  0  0  0  0  0  0  0  0
  148.1165  138.8136  157.6224 N   0  0  0  0  0  0  0  0  0  0  0  0
  147.3694  137.8172  158.0095 C   0  0  0  0  0  0  0  0  0  0  0  0
  148.0085  136.8616  158.7676 N   0  0  0  0  0  0  0  0  0  0  0  0
  147.4192  135.6553  159.3326 C   0  0  0  0  0  0  0  0  0  0  0  0
  147.5986  135.5099  160.8693 C   0  0  1  0  0  0  0  0  0  0  0  0
  146.8991  136.6482  161.6490 C   0  0  0  0  0  0  0  0  0  0  0  0
  147.6187  136.9702  162.8206 O   0  0  0  0  0  0  0  0  0  0  0  0
  147.1600  134.1151  161.3888 C   0  0  2  0  0  0  0  0  0  0  0  0
  147.5158  132.9494  160.4805 C   0  0  0  0  0  0  0  0  0  0  0  0
  146.5754  131.8496  160.9644 C   0  0  0  0  0  0  0  0  0  0  0  0
  145.4253  132.5149  161.4741 O   0  0  0  0  0  0  0  0  0  0  0  0
  145.6425  133.9209  161.4799 C   0  0  0  0  0  0  0  0  0  0  0  0
  150.8262  143.1211  159.9708 N   0  0  0  0  0  0  0  0  0  0  0  0
  150.0648  144.2832  159.5323 C   0  0  0  0  0  0  0  0  0  0  0  0
  151.9971  143.4932  160.7456 C   0  0  0  0  0  0  0  0  0  0  0  0
  153.9686  142.6728  160.4525 H   0  0  0  0  0  0  0  0  0  0  0  0
  151.8786  142.9884  158.1950 H   0  0  0  0  0  0  0  0  0  0  0  0
  153.0948  141.9016  163.9705 H   0  0  0  0  0  0  0  0  0  0  0  0
  152.3125  143.2178  163.0979 H   0  0  0  0  0  0  0  0  0  0  0  0
  154.0721  143.0193  163.0228 H   0  0  0  0  0  0  0  0  0  0  0  0
  153.1786  141.0946  158.8611 H   0  0  0  0  0  0  0  0  0  0  0  0
  151.9274  140.5474  159.9762 H   0  0  0  0  0  0  0  0  0  0  0  0
  149.4753  141.2542  158.7647 H   0  0  0  0  0  0  0  0  0  0  0  0
  149.8558  142.1475  157.3233 H   0  0  0  0  0  0  0  0  0  0  0  0
  151.3439  139.4300  155.5901 H   0  0  0  0  0  0  0  0  0  0  0  0
  151.2892  141.1841  155.5494 H   0  0  0  0  0  0  0  0  0  0  0  0
  149.7832  140.2656  155.6123 H   0  0  0  0  0  0  0  0  0  0  0  0
  152.3643  136.9788  159.8377 H   0  0  0  0  0  0  0  0  0  0  0  0
  146.3226  137.7594  157.7530 H   0  0  0  0  0  0  0  0  0  0  0  0
  146.3618  135.6388  159.0686 H   0  0  0  0  0  0  0  0  0  0  0  0
  147.8551  134.7946  158.8241 H   0  0  0  0  0  0  0  0  0  0  0  0
  148.6678  135.5986  161.0691 H   0  0  0  0  0  0  0  0  0  0  0  0
  146.7808  137.5397  161.0333 H   0  0  0  0  0  0  0  0  0  0  0  0
  145.9002  136.3509  161.9661 H   0  0  0  0  0  0  0  0  0  0  0  0
  147.8441  136.1673  163.2655 H   0  0  0  0  0  0  0  0  0  0  0  0
  147.6019  133.9263  162.3681 H   0  0  0  0  0  0  0  0  0  0  0  0
  147.2956  133.1959  159.4404 H   0  0  0  0  0  0  0  0  0  0  0  0
  148.5628  132.6524  160.5455 H   0  0  0  0  0  0  0  0  0  0  0  0
  146.3116  131.1520  160.1691 H   0  0  0  0  0  0  0  0  0  0  0  0
  147.0348  131.2827  161.7749 H   0  0  0  0  0  0  0  0  0  0  0  0
  145.2042  134.3764  162.3671 H   0  0  0  0  0  0  0  0  0  0  0  0
  145.1466  134.3469  160.6067 H   0  0  0  0  0  0  0  0  0  0  0  0
  149.7421  144.8752  160.3893 H   0  0  0  0  0  0  0  0  0  0  0  0
  149.1710  143.9830  158.9862 H   0  0  0  0  0  0  0  0  0  0  0  0
  150.6614  144.9248  158.8824 H   0  0  0  0  0  0  0  0  0  0  0  0
  151.7276  143.7673  161.7661 H   0  0  0  0  0  0  0  0  0  0  0  0
  152.4808  144.3606  160.2934 H   0  0  0  0  0  0  0  0  0  0  0  0
  1  2  1  0  0  0  0
  1 32  1  0  0  0  0
  1 33  1  0  0  0  0
  1 34  1  0  0  0  0
  2  3  1  0  0  0  0
  3 30  1  0  0  0  0
  3 29  1  0  0  0  0
  3  4  1  0  0  0  0
  4  5  1  0  0  0  0
  4 35  1  0  0  0  0
  4 36  1  0  0  0  0
  5 31  1  0  0  0  0
  5  6  1  0  0  0  0
  5 27  1  0  0  0  0
  6  7  1  0  0  0  0
  6 37  1  0  0  0  0
  6 38  1  0  0  0  0
  7  8  1  0  0  0  0
  7  9  1  0  0  0  0
  8 39  1  0  0  0  0
  8 40  1  0  0  0  0
  8 41  1  0  0  0  0
  9 14  1  0  0  0  0
  9 10  2  0  0  0  0
 10 11  1  0  0  0  0
 11 12  2  0  0  0  0
 11 42  1  0  0  0  0
 12 13  1  0  0  0  0
 13 17  1  0  0  0  0
 13 14  2  0  0  0  0
 14 15  1  0  0  0  0
 15 16  2  0  0  0  0
 16 17  1  0  0  0  0
 16 43  1  0  0  0  0
 17 18  1  0  0  0  0
 18 19  1  0  0  0  0
 18 44  1  0  0  0  0
 18 45  1  0  0  0  0
 19 20  1  0  0  0  0
 19 22  1  0  0  0  0
 19 46  1  0  0  0  0
 20 21  1  0  0  0  0
 20 47  1  0  0  0  0
 20 48  1  0  0  0  0
 21 49  1  0  0  0  0
 22 26  1  0  0  0  0
 22 23  1  0  0  0  0
 22 50  1  0  0  0  0
 23 24  1  0  0  0  0
 23 51  1  0  0  0  0
 23 52  1  0  0  0  0
 24 25  1  0  0  0  0
 24 53  1  0  0  0  0
 24 54  1  0  0  0  0
 25 26  1  0  0  0  0
 26 55  1  0  0  0  0
 26 56  1  0  0  0  0
 27 28  1  0  0  0  0
 27 29  1  0  0  0  0
 28 57  1  0  0  0  0
 28 58  1  0  0  0  0
 28 59  1  0  0  0  0
 29 60  1  0  0  0  0
 29 61  1  0  0  0  0
M  END
> <s_m_source_file>
AV-unprocessed.smi

> <i_m_source_file_index>
21

> <i_lp_mmshare_version>
43012

> <i_f3d_flags>
0

> <s_epik_input>
W0NIM11PW0NASF0xW0NIMl1bQ0BIXShOKFtDSDNdKVtDSDJdMSlbQ0gyXU4oW0NIM10pYyhuW2NIXW4yKWMoYzIzKW5bY0hdbjNbQ0gyXVtDQEhdKFtDSDJdW09IXSlbQ0BASF00W0NIMl1bQ0gyXU9bQ0gyXTQ=

> <s_epik_cmdline>
J2VwaWtfcHl0aG9uJywgJy1waCcsICc3LjAnLCAnLXRuJywgJzgnLCAnLW1hJywgJzIwMCcsICctbWV0YWxfYmluZGluZycsICctaW1hZScsICc8aW5maWxlLm1hZT4nLCAnLW9tYWUnLCAnPG91dGZpbGUubWFlPic=

> <r_lp_tautomer_probability>
1

> <r_epik_Ionization_Penalty>
2.17574

> <r_epik_Ionization_Penalty_Charging>
0

> <r_epik_Ionization_Penalty_Neutral>
2.17574

> <r_epik_State_Penalty>
2.31336

> <r_epik_Charging_Adjusted_Penalty>
2.31336

> <i_epik_Tot_Q>
0

> <i_epik_Tot_abs_Q>
0

> <r_epik_Metal_State_Penalty>
2.31025

> <b_epik_Metal_Only>
0

> <s_lp_Force_Field>
OPLS_2005

> <r_lp_Energy>
71.0879

> <b_lp_Chiralities_Consistent>
1

> <s_lp_Variant>
AV-unprocessed.smi:21-37

> <Gold.Version>
5.8.1

> <Gold.Id.Protein>
6NUR|6NUR_protein|mol2

> <Gold.PLP.Fitness>
52.9103

> <Gold.PLP.PLP>
-51.7007

> <Gold.PLP.part.hbond>
-2.6276

> <Gold.PLP.part.metal>
0.0000

> <Gold.PLP.part.buried>
-9.1068

> <Gold.PLP.part.nonpolar>
-40.1261

> <Gold.PLP.part.repulsive>
0.1478

> <Gold.PLP.ligand.clash>
0.0000

> <Gold.PLP.ligand.torsion>
1.9284

> <Gold.PLP.Chemscore.Hbond>
1.3040

> <Gold.PLP.Chemscore.CHOScore>
0.0000

> <Gold.PLP.Chemscore.Metal>
0.0000

> <Gold.Chemscore.Hbonds>
donor molecule, donor type, donor heavy atom, donor atom, acceptor molecule, acceptor atom, score
      P1  H  6896  6908       L1    12  1.00
      P1  H  6931  6943       L1    21  0.63

> <Gold.PLP.Chemscore.Internal.Correction>
1.1545

> <Gold.Rescore>
     Score         DG    S(hbond)    S(metal)    S(lipo)     H(rot)  DE(clash)    DE(int)     intcor
     11.47     -14.17       0.80        0.00     122.75       3.26       0.30       2.39       ----

> <Gold.Chemscore.Fitness>
11.4736

> <Gold.Chemscore.DG>
-14.1671

> <Gold.Chemscore.ZeroCoef>
-5.4800

> <Gold.Chemscore.Hbond>
0.7979

> <Gold.Chemscore.Metal>
0.0000

> <Gold.Chemscore.Lipo>
122.7487

> <Gold.Chemscore.Internal_Hbond>
0.0000

> <Gold.Chemscore.DEClash>
0.3042

> <Gold.Chemscore.DEInternal>
2.3894

> <Gold.Chemscore.Rot>
3.2576

> <Gold.Chemscore.Internal.Correction>
   9.000000E+99

> <Gold.Chemscore.Hbonds>
donor molecule, donor type, donor heavy atom, donor atom, acceptor molecule, acceptor atom, score
      P1  H  6896  6908       L1    12  0.26
      P1  H  6931  6943       L1    21  0.12

> <Gold.Chemscore.Hbond.Weighted>
-2.6650

> <Gold.Chemscore.Metal.Weighted>
-0.0000

> <Gold.Chemscore.Lipo.Weighted>
-14.3616

> <Gold.Chemscore.Internal_Hbond.Weighted>
0.0000

> <Gold.Chemscore.DEClash.Weighted>
0.3042

> <Gold.Chemscore.DEInternal.Weighted>
2.3894

> <Gold.Chemscore.Rot.Weighted>
8.3395

> <Gold.Chemscore.Internal.Correction.Weighted>
   9.000000E+99

> <Gold.Protein.RotatedTorsions>
[ 6907 6896 6895 6894 ] final -151.19 input  -60.11 | X-H torsion
[ 7974 7965 7964 7962 ] final  -51.44 input  175.53 | X-H torsion
[ 8008 7997 7996 7995 ] final   -0.43 input   59.86 | X-H torsion
[ 10167 10162 10161 10158 ] final  -37.74 input  -65.29 | X-H torsion
[ 10718 10713 10712 10709 ] final -112.66 input   66.30 | X-H torsion
[ 10763 10752 10751 10750 ] final  174.41 input  -60.55 | X-H torsion
[ 11005 11000 10999 10996 ] final  169.05 input  -57.11 | X-H torsion

> <Gold.Protein.ActiveResidues>
 VAL166  LYS551  ARG553  GLY616  TRP617  ASP618  TYR619  PRO620  LYS621  CYS622 
 ASP623  PHE694  ASN695  SER759  ASP760  ASP761  ALA762  ILE779  LEU786  VAL792 
 PHE793  MET794  SER795  GLU796  ALA797  LYS798  CYS799  TRP800  GLU811  SER814 

> <Gold.Protein.RotatedAtoms>
  151.2095  133.4564  159.2597 H   0  0  0  0  0  0  0  0  0  0  0  0  # atno 6907 bound_to 6896
  151.0990  134.9961  159.8450 H   0  0  0  0  0  0  0  0  0  0  0  0  # atno 6908 bound_to 6896
  152.5441  134.2023  159.8770 H   0  0  0  0  0  0  0  0  0  0  0  0  # atno 6909 bound_to 6896
  145.9189  140.7851  142.9657 H   0  0  0  0  0  0  0  0  0  0  0  0  # atno 7974 bound_to 7965
  154.6582  140.2584  155.7138 H   0  0  0  0  0  0  0  0  0  0  0  0  # atno 8008 bound_to 7997
  156.2606  140.2854  156.0964 H   0  0  0  0  0  0  0  0  0  0  0  0  # atno 8009 bound_to 7997
  155.1349  140.0379  157.2774 H   0  0  0  0  0  0  0  0  0  0  0  0  # atno 8010 bound_to 7997
  140.7110  143.3322  151.2542 H   0  0  0  0  0  0  0  0  0  0  0  0  # atno 10167 bound_to 10162
  156.0719  130.5931  150.8538 H   0  0  0  0  0  0  0  0  0  0  0  0  # atno 10718 bound_to 10713
  154.4536  135.2765  155.1764 H   0  0  0  0  0  0  0  0  0  0  0  0  # atno 10763 bound_to 10752
  154.3581  135.6135  153.5680 H   0  0  0  0  0  0  0  0  0  0  0  0  # atno 10764 bound_to 10752
  152.9849  135.5827  154.4884 H   0  0  0  0  0  0  0  0  0  0  0  0  # atno 10765 bound_to 10752
  140.2937  134.7652  157.3859 H   0  0  0  0  0  0  0  0  0  0  0  0  # atno 11005 bound_to 11000
  144.6751  140.1944  143.7393 LP  0  0  0  0  0  0  0  0  0  0  0  0  # atno 17320 bound_to 7965
  145.8575  139.2206  143.1736 LP  0  0  0  0  0  0  0  0  0  0  0  0  # atno 17321 bound_to 7965
  139.6808  143.9858  152.2807 LP  0  0  0  0  0  0  0  0  0  0  0  0  # atno 17342 bound_to 10162
  139.9488  144.6634  150.8193 LP  0  0  0  0  0  0  0  0  0  0  0  0  # atno 17343 bound_to 10162
  157.5794  131.0946  150.9295 LP  0  0  0  0  0  0  0  0  0  0  0  0  # atno 17370 bound_to 10713
  156.9494  130.5414  149.5282 LP  0  0  0  0  0  0  0  0  0  0  0  0  # atno 17371 bound_to 10713
  140.1172  134.5267  155.8215 LP  0  0  0  0  0  0  0  0  0  0  0  0  # atno 17394 bound_to 11000
  141.2141  133.6744  156.6799 LP  0  0  0  0  0  0  0  0  0  0  0  0  # atno 17395 bound_to 11000

$$$$
