AV-unprocessed.smi:1369|AV-procd|sdf|5579|dock3
  -GOLD-   22720 5173D 1   1.00000     0.00000
 Structure written by MMmdl.
 39 41  0  0  0  0  0  0  0  0  1 V2000
  155.9078  138.3054  159.8923 C   0  0  0  0  0  0  0  0  0  0  0  0
  155.3823  139.3873  160.8295 C   0  0  0  0  0  0  0  0  0  0  0  0
  155.7952  139.4367  161.9873 O   0  0  0  0  0  0  0  0  0  0  0  0
  154.4601  140.2133  160.3031 N   0  0  0  0  0  0  0  0  0  0  0  0
  153.7913  141.3098  160.9172 C   0  0  0  0  0  0  0  0  0  0  0  0
  153.9708  141.6488  162.2807 C   0  0  0  0  0  0  0  0  0  0  0  0
  153.3045  142.7580  162.8319 C   0  0  0  0  0  0  0  0  0  0  0  0
  152.4633  143.5432  162.0254 C   0  0  0  0  0  0  0  0  0  0  0  0
  152.2924  143.2240  160.6658 C   0  0  0  0  0  0  0  0  0  0  0  0
  152.9582  142.1085  160.0972 C   0  0  0  0  0  0  0  0  0  0  0  0
  152.8344  141.7432  158.7723 O   0  0  0  0  0  0  0  0  0  0  0  0
  151.6818  142.1622  158.0542 C   0  0  0  0  0  0  0  0  0  0  0  0
  150.7548  140.9537  157.8659 C   0  0  0  0  0  0  0  0  0  0  0  0
  150.5524  140.6553  156.4509 N   0  0  0  0  0  0  0  0  0  0  0  0
  151.4728  140.0082  155.6224 C   0  0  0  0  0  0  0  0  0  0  0  0
  152.5945  139.5949  155.9109 O   0  0  0  0  0  0  0  0  0  0  0  0
  150.8873  139.9031  154.3871 O   0  0  0  0  0  0  0  0  0  0  0  0
  149.6409  140.4552  154.4404 C   0  0  0  0  0  0  0  0  0  0  0  0
  148.6742  140.5696  153.4274 C   0  0  0  0  0  0  0  0  0  0  0  0
  147.4469  141.1908  153.7581 C   0  0  0  0  0  0  0  0  0  0  0  0
  147.2099  141.6762  155.0695 C   0  0  0  0  0  0  0  0  0  0  0  0
  148.1942  141.5470  156.0760 C   0  0  0  0  0  0  0  0  0  0  0  0
  149.4036  140.9297  155.7130 C   0  0  0  0  0  0  0  0  0  0  0  0
  156.2220  138.7391  158.9425 H   0  0  0  0  0  0  0  0  0  0  0  0
  155.1313  137.5657  159.6974 H   0  0  0  0  0  0  0  0  0  0  0  0
  156.7644  137.7936  160.3317 H   0  0  0  0  0  0  0  0  0  0  0  0
  154.1458  139.9873  159.3704 H   0  0  0  0  0  0  0  0  0  0  0  0
  154.6278  141.0807  162.9209 H   0  0  0  0  0  0  0  0  0  0  0  0
  153.4441  143.0095  163.8729 H   0  0  0  0  0  0  0  0  0  0  0  0
  151.9520  144.3954  162.4482 H   0  0  0  0  0  0  0  0  0  0  0  0
  151.6413  143.8535  160.0789 H   0  0  0  0  0  0  0  0  0  0  0  0
  151.1560  142.9368  158.6141 H   0  0  0  0  0  0  0  0  0  0  0  0
  151.9589  142.5758  157.0830 H   0  0  0  0  0  0  0  0  0  0  0  0
  151.1626  140.0822  158.3784 H   0  0  0  0  0  0  0  0  0  0  0  0
  149.7888  141.1547  158.3313 H   0  0  0  0  0  0  0  0  0  0  0  0
  148.8618  140.1963  152.4315 H   0  0  0  0  0  0  0  0  0  0  0  0
  146.6814  141.2959  153.0033 H   0  0  0  0  0  0  0  0  0  0  0  0
  146.2662  142.1472  155.3025 H   0  0  0  0  0  0  0  0  0  0  0  0
  148.0192  141.9081  157.0787 H   0  0  0  0  0  0  0  0  0  0  0  0
  1  2  1  0  0  0  0
  1 24  1  0  0  0  0
  1 25  1  0  0  0  0
  1 26  1  0  0  0  0
  2  3  2  0  0  0  0
  2  4  1  0  0  0  0
  4  5  1  0  0  0  0
  4 27  1  0  0  0  0
  5 10  1  0  0  0  0
  5  6  2  0  0  0  0
  6  7  1  0  0  0  0
  6 28  1  0  0  0  0
  7  8  2  0  0  0  0
  7 29  1  0  0  0  0
  8  9  1  0  0  0  0
  8 30  1  0  0  0  0
  9 10  2  0  0  0  0
  9 31  1  0  0  0  0
 10 11  1  0  0  0  0
 11 12  1  0  0  0  0
 12 13  1  0  0  0  0
 12 32  1  0  0  0  0
 12 33  1  0  0  0  0
 13 14  1  0  0  0  0
 13 34  1  0  0  0  0
 13 35  1  0  0  0  0
 14 23  1  0  0  0  0
 14 15  1  0  0  0  0
 15 16  2  0  0  0  0
 15 17  1  0  0  0  0
 17 18  1  0  0  0  0
 18 23  2  0  0  0  0
 18 19  1  0  0  0  0
 19 20  2  0  0  0  0
 19 36  1  0  0  0  0
 20 21  1  0  0  0  0
 20 37  1  0  0  0  0
 21 22  2  0  0  0  0
 21 38  1  0  0  0  0
 22 23  1  0  0  0  0
 22 39  1  0  0  0  0
M  END
> <s_m_source_file>
AV-unprocessed.smi

> <i_m_source_file_index>
1369

> <i_lp_mmshare_version>
43012

> <i_f3d_flags>
0

> <s_epik_input>
W0NIM11DKD1PKVtOSF1jMVtjSF1bY0hdW2NIXVtjSF1jMU9bQ0gyXVtDSDJdbihjKD1PKW8yKWMoYzIzKVtjSF1bY0hdW2NIXVtjSF0z

> <s_epik_cmdline>
J2VwaWtfcHl0aG9uJywgJy1waCcsICc3LjAnLCAnLXRuJywgJzgnLCAnLW1hJywgJzIwMCcsICctbWV0YWxfYmluZGluZycsICctaW1hZScsICc8aW5maWxlLm1hZT4nLCAnLW9tYWUnLCAnPG91dGZpbGUubWFlPic=

> <r_lp_tautomer_probability>
1

> <r_epik_Ionization_Penalty>
9.24277e-08

> <r_epik_Ionization_Penalty_Charging>
1.02615e-14

> <r_epik_Ionization_Penalty_Neutral>
9.24277e-08

> <r_epik_State_Penalty>
-0

> <r_epik_Charging_Adjusted_Penalty>
1.02615e-14

> <i_epik_Tot_Q>
0

> <i_epik_Tot_abs_Q>
0

> <r_epik_Metal_State_Penalty>
-0

> <b_epik_Metal_Only>
0

> <s_lp_Force_Field>
OPLS_2005

> <r_lp_Energy>
36.4772

> <b_lp_Chiralities_Consistent>
1

> <s_lp_Variant>
AV-unprocessed.smi:1369-1

> <Gold.Version>
5.8.1

> <Gold.Id.Protein>
6NUR|6NUR_protein|mol2

> <Gold.PLP.Fitness>
51.0860

> <Gold.PLP.PLP>
-47.5144

> <Gold.PLP.part.hbond>
-1.9734

> <Gold.PLP.part.metal>
0.0000

> <Gold.PLP.part.buried>
-0.9194

> <Gold.PLP.part.nonpolar>
-43.4510

> <Gold.PLP.part.repulsive>
0.1677

> <Gold.PLP.ligand.clash>
0.0000

> <Gold.PLP.ligand.torsion>
1.2393

> <Gold.PLP.Chemscore.Hbond>
2.0000

> <Gold.PLP.Chemscore.CHOScore>
0.0000

> <Gold.PLP.Chemscore.Metal>
0.0000

> <Gold.Chemscore.Hbonds>
donor molecule, donor type, donor heavy atom, donor atom, acceptor molecule, acceptor atom, score
      P1  H  7989  7998       L1    17  0.94
      P1  H  7997  8009       L1    16  1.00

> <Gold.PLP.Chemscore.Internal.Correction>
0.0501

> <Gold.Rescore>
     Score         DG    S(hbond)    S(metal)    S(lipo)     H(rot)  DE(clash)    DE(int)     intcor
     16.68     -20.65       1.59        0.00     121.47       1.70       1.46       2.51       ----

> <Gold.Chemscore.Fitness>
16.6781

> <Gold.Chemscore.DG>
-20.6539

> <Gold.Chemscore.ZeroCoef>
-5.4800

> <Gold.Chemscore.Hbond>
1.5926

> <Gold.Chemscore.Metal>
0.0000

> <Gold.Chemscore.Lipo>
121.4650

> <Gold.Chemscore.Internal_Hbond>
0.0000

> <Gold.Chemscore.DEClash>
1.4627

> <Gold.Chemscore.DEInternal>
2.5130

> <Gold.Chemscore.Rot>
1.7019

> <Gold.Chemscore.Internal.Correction>
   9.000000E+99

> <Gold.Chemscore.Hbonds>
donor molecule, donor type, donor heavy atom, donor atom, acceptor molecule, acceptor atom, score
      P1  H  7989  7998       L1    17  0.17
      P1  H  7997  8009       L1    16  1.00

> <Gold.Chemscore.Hbond.Weighted>
-5.3194

> <Gold.Chemscore.Metal.Weighted>
-0.0000

> <Gold.Chemscore.Lipo.Weighted>
-14.2114

> <Gold.Chemscore.Internal_Hbond.Weighted>
0.0000

> <Gold.Chemscore.DEClash.Weighted>
1.4627

> <Gold.Chemscore.DEInternal.Weighted>
2.5130

> <Gold.Chemscore.Rot.Weighted>
4.3569

> <Gold.Chemscore.Internal.Correction.Weighted>
   9.000000E+99

> <Gold.Protein.RotatedTorsions>
[ 6907 6896 6895 6894 ] final  143.46 input  -60.11 | X-H torsion
[ 7974 7965 7964 7962 ] final  133.78 input  175.53 | X-H torsion
[ 8008 7997 7996 7995 ] final -143.21 input   59.86 | X-H torsion
[ 10167 10162 10161 10158 ] final   69.12 input  -65.29 | X-H torsion
[ 10718 10713 10712 10709 ] final  108.58 input   66.30 | X-H torsion
[ 10763 10752 10751 10750 ] final  -26.37 input  -60.55 | X-H torsion
[ 11005 11000 10999 10996 ] final   87.75 input  -57.11 | X-H torsion

> <Gold.Protein.ActiveResidues>
 VAL166  LYS551  ARG553  GLY616  TRP617  ASP618  TYR619  PRO620  LYS621  CYS622 
 ASP623  PHE694  ASN695  SER759  ASP760  ASP761  ALA762  ILE779  LEU786  VAL792 
 PHE793  MET794  SER795  GLU796  ALA797  LYS798  CYS799  TRP800  GLU811  SER814 

> <Gold.Protein.RotatedAtoms>
  152.2060  133.4876  159.5084 H   0  0  0  0  0  0  0  0  0  0  0  0  # atno 6907 bound_to 6896
  150.6980  134.1528  159.4156 H   0  0  0  0  0  0  0  0  0  0  0  0  # atno 6908 bound_to 6896
  151.9447  135.0197  160.0589 H   0  0  0  0  0  0  0  0  0  0  0  0  # atno 6909 bound_to 6896
  144.9830  139.4484  143.5377 H   0  0  0  0  0  0  0  0  0  0  0  0  # atno 7974 bound_to 7965
  155.5069  140.0580  157.2930 H   0  0  0  0  0  0  0  0  0  0  0  0  # atno 8008 bound_to 7997
  154.4566  140.1976  156.0311 H   0  0  0  0  0  0  0  0  0  0  0  0  # atno 8009 bound_to 7997
  156.0811  140.3247  155.7699 H   0  0  0  0  0  0  0  0  0  0  0  0  # atno 8010 bound_to 7997
  140.0712  144.5151  150.7226 H   0  0  0  0  0  0  0  0  0  0  0  0  # atno 10167 bound_to 10162
  157.6580  131.0896  150.6327 H   0  0  0  0  0  0  0  0  0  0  0  0  # atno 10718 bound_to 10713
  153.7149  135.6948  153.5028 H   0  0  0  0  0  0  0  0  0  0  0  0  # atno 10763 bound_to 10752
  153.2245  135.4358  155.0526 H   0  0  0  0  0  0  0  0  0  0  0  0  # atno 10764 bound_to 10752
  154.8303  135.3469  154.6685 H   0  0  0  0  0  0  0  0  0  0  0  0  # atno 10765 bound_to 10752
  139.8912  134.8443  156.2904 H   0  0  0  0  0  0  0  0  0  0  0  0  # atno 11005 bound_to 11000
  146.3413  139.9115  142.8779 LP  0  0  0  0  0  0  0  0  0  0  0  0  # atno 17320 bound_to 7965
  145.2393  141.0003  143.3945 LP  0  0  0  0  0  0  0  0  0  0  0  0  # atno 17321 bound_to 7965
  140.7124  143.2516  151.4539 LP  0  0  0  0  0  0  0  0  0  0  0  0  # atno 17342 bound_to 10162
  139.5835  144.1657  152.1999 LP  0  0  0  0  0  0  0  0  0  0  0  0  # atno 17343 bound_to 10162
  156.6631  130.4518  149.5681 LP  0  0  0  0  0  0  0  0  0  0  0  0  # atno 17370 bound_to 10713
  156.2052  130.6644  151.1210 LP  0  0  0  0  0  0  0  0  0  0  0  0  # atno 17371 bound_to 10713
  140.9980  133.7168  156.0916 LP  0  0  0  0  0  0  0  0  0  0  0  0  # atno 17394 bound_to 11000
  140.7536  134.4017  157.5537 LP  0  0  0  0  0  0  0  0  0  0  0  0  # atno 17395 bound_to 11000

$$$$
