#       Name:                AV-unprocessed.smi:799
#       Creating user name   scv26
#       Creation time:       Fri Mar 27 01:22:04 2020


#       File generated by GOLD software.
#

@<TRIPOS>MOLECULE
AV-unprocessed.smi:799
    52    53     1
SMALL
NO_CHARGES


@<TRIPOS>ATOM
      1 ****        -5.1552   3.7404  -0.7517 C.3            1 S1                 0.0000
      2 ****        -4.5018   2.3901  -0.7393 C.2            1 S1                 0.0000
      3 ****        -3.1089   2.0887  -0.7593 C.2            1 S1                 0.0000
      4 ****        -3.0966   0.7209  -0.7318 C.2            1 S1                 0.0000
      5 ****        -2.0328  -0.1254  -0.7254 N.am           1 S1                 0.0000
      6 ****        -0.7231   0.1689  -0.7925 C.2            1 S1                 0.0000
      7 ****        -0.2546   1.3023  -0.8969 O.2            1 S1                 0.0000
      8 ****         0.0202  -0.9496  -0.7296 N.am           1 S1                 0.0000
      9 ****         1.4861  -1.0851  -0.7785 C.3            1 S1                 0.0000
     10 ****         1.7803  -2.6031  -0.7458 C.3            1 S1                 0.0000
     11 ****         2.0210  -0.5006  -2.1192 C.3            1 S1                 0.0000
     12 ****         1.3458  -1.0268  -3.2463 O.3            1 S1                 0.0000
     13 ****         2.1418  -0.3557   0.4509 C.3            1 S1                 0.0000
     14 ****         3.6843  -0.4953   0.5305 C.3            1 S1                 0.0000
     15 ****         4.2780   0.3296   1.6847 C.3            1 S1                 0.0000
     16 ****         3.6436  -0.0508   3.0292 C.3            1 S1                 0.0000
     17 ****         2.1169   0.0911   2.9715 C.3            1 S1                 0.0000
     18 ****         1.5238  -0.7399   1.8228 C.3            1 S1                 0.0000
     19 ****        -4.3954   0.2648  -0.6985 N.pl3          1 S1                 0.0000
     20 ****        -4.8928  -1.0963  -0.6581 C.3            1 S1                 0.0000
     21 ****        -5.2616   1.3011  -0.7035 N.2            1 S1                 0.0000
     22 ****        -4.4117   4.5377  -0.7549 H              1 S1                 0.0000
     23 ****        -5.7863   3.8795   0.1263 H              1 S1                 0.0000
     24 ****        -5.7801   3.8661  -1.6363 H              1 S1                 0.0000
     25 ****        -2.2769   2.7760  -0.7857 H              1 S1                 0.0000
     26 ****        -2.2642  -1.1055  -0.6591 H              1 S1                 0.0000
     27 ****        -0.4852  -1.8193  -0.6480 H              1 S1                 0.0000
     28 ****         2.8441  -2.8150  -0.8496 H              1 S1                 0.0000
     29 ****         1.2765  -3.1231  -1.5614 H              1 S1                 0.0000
     30 ****         1.4380  -3.0681   0.1781 H              1 S1                 0.0000
     31 ****         1.9347   0.5858  -2.1414 H              1 S1                 0.0000
     32 ****         3.0787  -0.7268  -2.2484 H              1 S1                 0.0000
     33 ****         1.6974  -0.6199  -4.0233 H              1 S1                 0.0000
     34 ****         1.9519   0.7102   0.3211 H              1 S1                 0.0000
     35 ****         3.9641  -1.5398   0.6674 H              1 S1                 0.0000
     36 ****         4.1536  -0.1672  -0.3957 H              1 S1                 0.0000
     37 ****         5.3571   0.1803   1.7301 H              1 S1                 0.0000
     38 ****         4.1213   1.3920   1.4936 H              1 S1                 0.0000
     39 ****         3.9072  -1.0784   3.2822 H              1 S1                 0.0000
     40 ****         4.0472   0.5780   3.8234 H              1 S1                 0.0000
     41 ****         1.6794  -0.2213   3.9200 H              1 S1                 0.0000
     42 ****         1.8501   1.1406   2.8391 H              1 S1                 0.0000
     43 ****         0.4439  -0.5965   1.8226 H              1 S1                 0.0000
     44 ****         1.6923  -1.7963   2.0307 H              1 S1                 0.0000
     45 ****        -4.4419  -1.6761  -1.4638 H              1 S1                 0.0000
     46 ****        -5.9770  -1.1126  -0.7773 H              1 S1                 0.0000
     47 ****        -4.6338  -1.5514   0.2980 H              1 S1                 0.0000
     48 ****        -0.8646   2.0937  -0.9383 LP             1 S1                 0.0000
     49 ****         0.7360   1.4318  -0.9404 LP             1 S1                 0.0000
     50 ****         0.3678  -0.8304  -3.1758 LP             1 S1                 0.0000
     51 ****         1.4847  -2.0160  -3.2913 LP             1 S1                 0.0000
     52 ****        -6.2605   1.2579  -0.6844 LP             1 S1                 0.0000
@<TRIPOS>BOND
    1    1    2 1     
    2    1   22 1     
    3    1   23 1     
    4    1   24 1     
    5    2   21 2     
    6    2    3 1     
    7    3    4 2     
    8    3   25 1     
    9    4    5 1     
   10    4   19 1     
   11    5    6 am    
   12    5   26 1     
   13    6    7 2     
   14    6    8 am    
   15    8    9 1     
   16    8   27 1     
   17    9   10 1     
   18    9   11 1     
   19    9   13 1     
   20   10   28 1     
   21   10   29 1     
   22   10   30 1     
   23   11   12 1     
   24   11   31 1     
   25   11   32 1     
   26   12   33 1     
   27   13   18 1     
   28   13   14 1     
   29   13   34 1     
   30   14   15 1     
   31   14   35 1     
   32   14   36 1     
   33   15   16 1     
   34   15   37 1     
   35   15   38 1     
   36   16   17 1     
   37   16   39 1     
   38   16   40 1     
   39   17   18 1     
   40   17   41 1     
   41   17   42 1     
   42   18   43 1     
   43   18   44 1     
   44   19   20 1     
   45   19   21 1     
   46   20   45 1     
   47   20   46 1     
   48   20   47 1     
   49    7   48 1     
   50    7   49 1     
   51   12   50 1     
   52   12   51 1     
   53   21   52 1     
@<TRIPOS>SUBSTRUCTURE
      1 S1             1
@<TRIPOS>SET
LONE_PAIRS      STATIC     ATOMS    <user>   **** ""
5 48 49 50 51 52
DONOR_HYDROGENS      STATIC     ATOMS    <user>   **** ""
3 26 27 33
ATOM$BLUE        STATIC     ATOMS    COLORGROUP SYSTEM
5 48 49 50 51 52
ATOM$RED        STATIC     ATOMS    COLORGROUP SYSTEM
3 26 27 33
