#       Name:                AV-unprocessed.smi:1224
#       Creating user name   scv26
#       Creation time:       Fri Mar 27 04:19:42 2020


#       File generated by GOLD software.
#

@<TRIPOS>MOLECULE
AV-unprocessed.smi:1224
    47    49     1
SMALL
NO_CHARGES


@<TRIPOS>ATOM
      1 ****        -2.0351   4.7657  -2.9606 C.3            1 S1                 0.0000
      2 ****        -1.6045   3.7776  -1.8899 C.ar           1 S1                 0.0000
      3 ****        -1.6770   4.1764  -0.5359 C.ar           1 S1                 0.0000
      4 ****        -1.2787   3.2499   0.4205 C.ar           1 S1                 0.0000
      5 ****        -1.2335   3.3329   1.8141 N.pl3          1 S1                 1.0000
      6 ****        -0.7696   2.1585   2.3246 C.2            1 S1                 0.0000
      7 ****        -0.5125   1.3300   1.2764 N.pl3          1 S1                 0.0000
      8 ****         0.0015  -0.0459   1.2610 C.3            1 S1                 0.0000
      9 ****         1.5026  -0.1218   0.9100 C.3            1 S1                 0.0000
     10 ****         2.2335   0.6299   1.8574 O.3            1 S1                 0.0000
     11 ****         2.0409  -1.5607   0.9260 C.3            1 S1                 0.0000
     12 ****         1.5067  -2.3420  -0.1883 N.3            1 S1                 0.0000
     13 ****         1.9762  -3.7245  -0.2248 C.3            1 S1                 0.0000
     14 ****         1.3552  -4.5752   0.8350 C.2            1 S1                 0.0000
     15 ****         0.0294  -4.8931   0.9885 C.2            1 S1                 0.0000
     16 ****        -0.2202  -5.7263   2.1181 C.2            1 S1                 0.0000
     17 ****         0.9194  -6.0337   2.8128 C.2            1 S1                 0.0000
     18 ****         2.3261  -5.3029   2.0901 S.3            1 S1                 0.0000
     19 ****        -0.8197   1.9659   0.0696 C.ar           1 S1                 0.0000
     20 ****        -0.7420   1.5559  -1.2588 C.ar           1 S1                 0.0000
     21 ****        -1.1422   2.4840  -2.2467 C.ar           1 S1                 0.0000
     22 ****        -1.0686   2.0660  -3.7055 C.3            1 S1                 0.0000
     23 ****        -2.3709   5.7066  -2.5236 H              1 S1                 0.0000
     24 ****        -2.8583   4.3589  -3.5482 H              1 S1                 0.0000
     25 ****        -1.2059   4.9878  -3.6327 H              1 S1                 0.0000
     26 ****        -2.0281   5.1591  -0.2567 H              1 S1                 0.0000
     27 ****        -0.6276   1.9276   3.3707 H              1 S1                 0.0000
     28 ****        -0.1786  -0.4743   2.2481 H              1 S1                 0.0000
     29 ****        -0.5988  -0.6263   0.5592 H              1 S1                 0.0000
     30 ****         1.6838   0.3219  -0.0699 H              1 S1                 0.0000
     31 ****         1.9483   1.5294   1.8097 H              1 S1                 0.0000
     32 ****         3.1294  -1.5381   0.8579 H              1 S1                 0.0000
     33 ****         1.8000  -2.0350   1.8783 H              1 S1                 0.0000
     34 ****         1.7214  -1.8845  -1.0683 H              1 S1                 0.0000
     35 ****         1.7320  -4.1556  -1.1959 H              1 S1                 0.0000
     36 ****         3.0638  -3.7565  -0.1499 H              1 S1                 0.0000
     37 ****        -0.7624  -4.5574   0.3354 H              1 S1                 0.0000
     38 ****        -1.2120  -6.0657   2.3776 H              1 S1                 0.0000
     39 ****         1.0187  -6.6414   3.7000 H              1 S1                 0.0000
     40 ****        -0.3909   0.5703  -1.5275 H              1 S1                 0.0000
     41 ****        -0.6635   1.0591  -3.8121 H              1 S1                 0.0000
     42 ****        -0.4255   2.7437  -4.2674 H              1 S1                 0.0000
     43 ****        -2.0611   2.0759  -4.1564 H              1 S1                 0.0000
     44 ****        -1.5014   4.1298   2.3776 H              1 S1                 0.0000
     45 ****         3.2104   0.5741   1.6514 LP             1 S1                 0.0000
     46 ****         2.0655   0.2707   2.7754 LP             1 S1                 0.0000
     47 ****         0.5179  -2.3846  -0.0452 LP             1 S1                 0.0000
@<TRIPOS>BOND
    1    1    2 1     
    2    1   23 1     
    3    1   24 1     
    4    1   25 1     
    5    2   21 ar    
    6    2    3 ar    
    7    3    4 ar    
    8    3   26 1     
    9    4   19 ar    
   10    4    5 1     
   11    5    6 2     
   12    5   44 1     
   13    6    7 1     
   14    6   27 1     
   15    7    8 1     
   16    7   19 1     
   17    8    9 1     
   18    8   28 1     
   19    8   29 1     
   20    9   10 1     
   21    9   11 1     
   22    9   30 1     
   23   10   31 1     
   24   11   12 1     
   25   11   32 1     
   26   11   33 1     
   27   12   13 1     
   28   12   34 1     
   29   13   14 1     
   30   13   35 1     
   31   13   36 1     
   32   14   18 1     
   33   14   15 2     
   34   15   16 1     
   35   15   37 1     
   36   16   17 2     
   37   16   38 1     
   38   17   18 1     
   39   17   39 1     
   40   19   20 ar    
   41   20   21 ar    
   42   20   40 1     
   43   21   22 1     
   44   22   41 1     
   45   22   42 1     
   46   22   43 1     
   47   10   45 1     
   48   10   46 1     
   49   12   47 1     
@<TRIPOS>SUBSTRUCTURE
      1 S1             1
@<TRIPOS>SET
LONE_PAIRS      STATIC     ATOMS    <user>   **** ""
3 45 46 47
DONOR_HYDROGENS      STATIC     ATOMS    <user>   **** ""
3 44 31 34
ATOM$BLUE        STATIC     ATOMS    COLORGROUP SYSTEM
3 45 46 47
ATOM$RED        STATIC     ATOMS    COLORGROUP SYSTEM
3 44 31 34
