#       Name:                AV-unprocessed.smi:3159
#       Creating user name   scv26
#       Creation time:       Fri Mar 27 17:47:51 2020


#       File generated by GOLD software.
#

@<TRIPOS>MOLECULE
AV-unprocessed.smi:3159
    40    41     1
SMALL
NO_CHARGES


@<TRIPOS>ATOM
      1 ****        -5.6306  -0.4387  -0.5481 C.3            1 S1                 0.0000
      2 ****        -4.2931   0.1995  -0.7816 C.2            1 S1                 0.0000
      3 ****        -3.0019  -0.3712  -0.5850 C.2            1 S1                 0.0000
      4 ****        -2.1639   0.6461  -0.9525 C.2            1 S1                 0.0000
      5 ****        -0.8046   0.6719  -0.9671 N.am           1 S1                 0.0000
      6 ****         0.0582  -0.3104  -0.6537 C.2            1 S1                 0.0000
      7 ****        -0.2527  -1.4401  -0.2758 O.2            1 S1                 0.0000
      8 ****         1.3273   0.0964  -0.8028 N.am           1 S1                 0.0000
      9 ****         2.5132  -0.7172  -0.5522 C.3            1 S1                 0.0000
     10 ****         3.0955  -0.4661   0.8514 C.3            1 S1                 0.0000
     11 ****         4.3613  -1.2481   1.1368 C.3            1 S1                 0.0000
     12 ****         4.4403  -1.1830   2.6595 C.3            1 S1                 0.0000
     13 ****         3.0937  -1.1033   3.1187 O.3            1 S1                 0.0000
     14 ****         2.2119  -0.9179   2.0157 C.3            1 S1                 0.0000
     15 ****        -2.9218   1.7305  -1.3352 N.pl3          1 S1                 0.0000
     16 ****        -2.4941   3.0353  -1.8010 C.3            1 S1                 0.0000
     17 ****        -4.2385   1.4497  -1.2272 N.2            1 S1                 0.0000
     18 ****        -5.5214  -1.4524  -0.1620 H              1 S1                 0.0000
     19 ****        -6.2046  -0.4963  -1.4732 H              1 S1                 0.0000
     20 ****        -6.2168   0.1297   0.1746 H              1 S1                 0.0000
     21 ****        -2.7560  -1.3615  -0.2326 H              1 S1                 0.0000
     22 ****        -0.3951   1.5458  -1.2622 H              1 S1                 0.0000
     23 ****         1.4873   1.0425  -1.1167 H              1 S1                 0.0000
     24 ****         2.2972  -1.7773  -0.6966 H              1 S1                 0.0000
     25 ****         3.2567  -0.4547  -1.3051 H              1 S1                 0.0000
     26 ****         3.3140   0.5969   0.9689 H              1 S1                 0.0000
     27 ****         4.2495  -2.2844   0.8141 H              1 S1                 0.0000
     28 ****         5.2430  -0.8319   0.6488 H              1 S1                 0.0000
     29 ****         4.9567  -2.0437   3.0853 H              1 S1                 0.0000
     30 ****         4.9671  -0.2817   2.9755 H              1 S1                 0.0000
     31 ****         1.4274  -0.1984   2.2510 H              1 S1                 0.0000
     32 ****         1.7373  -1.8743   1.7915 H              1 S1                 0.0000
     33 ****        -1.7737   2.9186  -2.6110 H              1 S1                 0.0000
     34 ****        -2.0251   3.5797  -0.9812 H              1 S1                 0.0000
     35 ****        -3.3453   3.6105  -2.1677 H              1 S1                 0.0000
     36 ****        -1.2168  -1.6879  -0.1809 LP             1 S1                 0.0000
     37 ****         0.4590  -2.1099  -0.0638 LP             1 S1                 0.0000
     38 ****         3.0037  -0.3312   3.7478 LP             1 S1                 0.0000
     39 ****         2.8555  -1.9502   3.5941 LP             1 S1                 0.0000
     40 ****        -5.0073   2.0535  -1.4376 LP             1 S1                 0.0000
@<TRIPOS>BOND
    1    1    2 1     
    2    1   18 1     
    3    1   19 1     
    4    1   20 1     
    5    2   17 2     
    6    2    3 1     
    7    3    4 2     
    8    3   21 1     
    9    4    5 1     
   10    4   15 1     
   11    5    6 am    
   12    5   22 1     
   13    6    7 2     
   14    6    8 am    
   15    8    9 1     
   16    8   23 1     
   17    9   10 1     
   18    9   24 1     
   19    9   25 1     
   20   10   14 1     
   21   10   11 1     
   22   10   26 1     
   23   11   12 1     
   24   11   27 1     
   25   11   28 1     
   26   12   13 1     
   27   12   29 1     
   28   12   30 1     
   29   13   14 1     
   30   14   31 1     
   31   14   32 1     
   32   15   16 1     
   33   15   17 1     
   34   16   33 1     
   35   16   34 1     
   36   16   35 1     
   37    7   36 1     
   38    7   37 1     
   39   13   38 1     
   40   13   39 1     
   41   17   40 1     
@<TRIPOS>SUBSTRUCTURE
      1 S1             1
@<TRIPOS>SET
LONE_PAIRS      STATIC     ATOMS    <user>   **** ""
5 36 37 38 39 40
DONOR_HYDROGENS      STATIC     ATOMS    <user>   **** ""
2 22 23
ATOM$BLUE        STATIC     ATOMS    COLORGROUP SYSTEM
5 36 37 38 39 40
ATOM$RED        STATIC     ATOMS    COLORGROUP SYSTEM
2 22 23
