AV-unprocessed.smi:1227|AV-procd|sdf|5146|dock7
  -GOLD-   22720 4213D 1   1.00000     0.00000
 Structure written by MMmdl.
 44 45  0  0  0  0  0  0  0  0  1 V2000
  144.5182  135.4909  150.7163 C   0  0  0  0  0  0  0  0  0  0  0  0
  145.6042  134.8575  151.3838 O   0  0  0  0  0  0  0  0  0  0  0  0
  145.6125  133.4781  151.4698 C   0  0  0  0  0  0  0  0  0  0  0  0
  144.6028  132.7905  150.8797 N   0  0  0  0  0  0  0  0  0  0  0  0
  144.6052  131.4449  150.9649 C   0  0  0  0  0  0  0  0  0  0  0  0
  145.6028  130.7188  151.6399 C   0  0  0  0  0  0  0  0  0  0  0  0
  146.6511  131.4289  152.2536 C   0  0  0  0  0  0  0  0  0  0  0  0
  146.6686  132.8432  152.1658 C   0  0  0  0  0  0  0  0  0  0  0  0
  147.6655  133.6717  152.7553 N   0  0  0  0  0  0  0  0  0  0  0  0
  148.4235  133.4578  153.8446 C   0  0  0  0  0  0  0  0  0  0  0  0
  148.3941  132.4531  154.5546 O   0  0  0  0  0  0  0  0  0  0  0  0
  149.2462  134.4923  154.0667 N   0  0  0  0  0  0  0  0  0  0  0  0
  150.1931  134.5874  155.1710 C   0  0  0  0  0  0  0  0  0  0  0  0
  149.5663  135.2682  156.4026 C   0  0  0  0  0  0  0  0  0  0  0  0
  150.0135  136.6636  156.5238 N   0  0  0  0  0  0  0  0  0  0  0  0
  149.8641  137.4876  155.3143 C   0  0  0  0  0  0  0  0  0  0  0  0
  151.2171  137.9513  154.7403 C   0  0  0  0  0  0  0  0  0  0  0  0
  151.8082  139.1807  155.4463 C   0  0  0  0  0  0  0  0  0  0  0  0
  152.1566  138.9549  156.9245 C   0  0  0  0  0  0  0  0  0  0  0  0
  150.9336  138.6059  157.7887 C   0  0  0  0  0  0  0  0  0  0  0  0
  150.5389  137.1273  157.6832 C   0  0  0  0  0  0  0  0  0  0  0  0
  150.7008  136.4110  158.6721 O   0  0  0  0  0  0  0  0  0  0  0  0
  144.6616  136.5711  150.7395 H   0  0  0  0  0  0  0  0  0  0  0  0
  143.5681  135.2735  151.2062 H   0  0  0  0  0  0  0  0  0  0  0  0
  144.4599  135.1874  149.6701 H   0  0  0  0  0  0  0  0  0  0  0  0
  143.7850  130.9321  150.4846 H   0  0  0  0  0  0  0  0  0  0  0  0
  145.5627  129.6407  151.6900 H   0  0  0  0  0  0  0  0  0  0  0  0
  147.4059  130.8707  152.7832 H   0  0  0  0  0  0  0  0  0  0  0  0
  147.8483  134.5313  152.2585 H   0  0  0  0  0  0  0  0  0  0  0  0
  149.2101  135.2750  153.4301 H   0  0  0  0  0  0  0  0  0  0  0  0
  150.5137  133.5757  155.4205 H   0  0  0  0  0  0  0  0  0  0  0  0
  151.0872  135.1250  154.8505 H   0  0  0  0  0  0  0  0  0  0  0  0
  148.4784  135.2154  156.3495 H   0  0  0  0  0  0  0  0  0  0  0  0
  149.8243  134.7105  157.3047 H   0  0  0  0  0  0  0  0  0  0  0  0
  149.3540  136.9211  154.5348 H   0  0  0  0  0  0  0  0  0  0  0  0
  149.2147  138.3403  155.5168 H   0  0  0  0  0  0  0  0  0  0  0  0
  151.9332  137.1283  154.7482 H   0  0  0  0  0  0  0  0  0  0  0  0
  151.0731  138.2087  153.6905 H   0  0  0  0  0  0  0  0  0  0  0  0
  152.7112  139.4874  154.9174 H   0  0  0  0  0  0  0  0  0  0  0  0
  151.1143  140.0179  155.3601 H   0  0  0  0  0  0  0  0  0  0  0  0
  152.9189  138.1792  157.0127 H   0  0  0  0  0  0  0  0  0  0  0  0
  152.6130  139.8647  157.3156 H   0  0  0  0  0  0  0  0  0  0  0  0
  151.1727  138.8142  158.8325 H   0  0  0  0  0  0  0  0  0  0  0  0
  150.0838  139.2454  157.5477 H   0  0  0  0  0  0  0  0  0  0  0  0
  1  2  1  0  0  0  0
  1 23  1  0  0  0  0
  1 24  1  0  0  0  0
  1 25  1  0  0  0  0
  2  3  1  0  0  0  0
  3  8  1  0  0  0  0
  3  4  2  0  0  0  0
  4  5  1  0  0  0  0
  5  6  2  0  0  0  0
  5 26  1  0  0  0  0
  6  7  1  0  0  0  0
  6 27  1  0  0  0  0
  7  8  2  0  0  0  0
  7 28  1  0  0  0  0
  8  9  1  0  0  0  0
  9 10  1  0  0  0  0
  9 29  1  0  0  0  0
 10 11  2  0  0  0  0
 10 12  1  0  0  0  0
 12 13  1  0  0  0  0
 12 30  1  0  0  0  0
 13 14  1  0  0  0  0
 13 31  1  0  0  0  0
 13 32  1  0  0  0  0
 14 15  1  0  0  0  0
 14 33  1  0  0  0  0
 14 34  1  0  0  0  0
 15 21  1  0  0  0  0
 15 16  1  0  0  0  0
 16 17  1  0  0  0  0
 16 35  1  0  0  0  0
 16 36  1  0  0  0  0
 17 18  1  0  0  0  0
 17 37  1  0  0  0  0
 17 38  1  0  0  0  0
 18 19  1  0  0  0  0
 18 39  1  0  0  0  0
 18 40  1  0  0  0  0
 19 20  1  0  0  0  0
 19 41  1  0  0  0  0
 19 42  1  0  0  0  0
 20 21  1  0  0  0  0
 20 43  1  0  0  0  0
 20 44  1  0  0  0  0
 21 22  2  0  0  0  0
M  END
> <s_m_source_file>
AV-unprocessed.smi

> <i_m_source_file_index>
1227

> <i_lp_mmshare_version>
43012

> <i_f3d_flags>
0

> <s_epik_input>
W0NIM11PYzFuW2NIXVtjSF1bY0hdYzFbTkhdQyg9TylbTkhdW0NIMl1bQ0gyXU4yW0NIMl1bQ0gyXVtDSDJdW0NIMl1bQ0gyXUMyPU8=

> <s_epik_cmdline>
J2VwaWtfcHl0aG9uJywgJy1waCcsICc3LjAnLCAnLXRuJywgJzgnLCAnLW1hJywgJzIwMCcsICctbWV0YWxfYmluZGluZycsICctaW1hZScsICc8aW5maWxlLm1hZT4nLCAnLW9tYWUnLCAnPG91dGZpbGUubWFlPic=

> <r_lp_tautomer_probability>
1

> <r_epik_Ionization_Penalty>
8.86757e-05

> <r_epik_Ionization_Penalty_Charging>
0

> <r_epik_Ionization_Penalty_Neutral>
8.86757e-05

> <r_epik_State_Penalty>
-0

> <r_epik_Charging_Adjusted_Penalty>
0

> <i_epik_Tot_Q>
0

> <i_epik_Tot_abs_Q>
0

> <r_epik_Metal_State_Penalty>
-0

> <b_epik_Metal_Only>
0

> <s_lp_Force_Field>
OPLS_2005

> <r_lp_Energy>
20.5681

> <b_lp_Chiralities_Consistent>
1

> <s_lp_Variant>
AV-unprocessed.smi:1227-1

> <Gold.Version>
5.8.1

> <Gold.Id.Protein>
6NUR|6NUR_protein|mol2

> <Gold.PLP.Fitness>
41.5500

> <Gold.PLP.PLP>
-34.1700

> <Gold.PLP.part.hbond>
-3.0000

> <Gold.PLP.part.metal>
0.0000

> <Gold.PLP.part.buried>
-5.6646

> <Gold.PLP.part.nonpolar>
-26.0926

> <Gold.PLP.part.repulsive>
0.3624

> <Gold.PLP.ligand.clash>
0.0000

> <Gold.PLP.ligand.torsion>
0.7346

> <Gold.PLP.Chemscore.Hbond>
2.9420

> <Gold.PLP.Chemscore.CHOScore>
0.0000

> <Gold.PLP.Chemscore.Metal>
0.0000

> <Gold.Chemscore.Hbonds>
donor molecule, donor type, donor heavy atom, donor atom, acceptor molecule, acceptor atom, score
      L1  H     9    29       P1  7948  1.00
      L1  H    12    30       P1  7948  1.00
      P1  H  6896  6907       L1    22  0.93

> <Gold.PLP.Chemscore.Internal.Correction>
0.0232

> <Gold.Rescore>
     Score         DG    S(hbond)    S(metal)    S(lipo)     H(rot)  DE(clash)    DE(int)     intcor
     16.19     -17.09       2.35        0.00      71.33       1.79       0.00       0.90       ----

> <Gold.Chemscore.Fitness>
16.1909

> <Gold.Chemscore.DG>
-17.0872

> <Gold.Chemscore.ZeroCoef>
-5.4800

> <Gold.Chemscore.Hbond>
2.3476

> <Gold.Chemscore.Metal>
0.0000

> <Gold.Chemscore.Lipo>
71.3349

> <Gold.Chemscore.Internal_Hbond>
0.0000

> <Gold.Chemscore.DEClash>
0.0000

> <Gold.Chemscore.DEInternal>
0.8963

> <Gold.Chemscore.Rot>
1.7890

> <Gold.Chemscore.Internal.Correction>
   9.000000E+99

> <Gold.Chemscore.Hbonds>
donor molecule, donor type, donor heavy atom, donor atom, acceptor molecule, acceptor atom, score
      L1  H     9    29       P1  7948  0.41
      L1  H    12    30       P1  7948  0.25
      P1  H  6896  6907       L1    22  0.90

> <Gold.Chemscore.Hbond.Weighted>
-7.8409

> <Gold.Chemscore.Metal.Weighted>
-0.0000

> <Gold.Chemscore.Lipo.Weighted>
-8.3462

> <Gold.Chemscore.Internal_Hbond.Weighted>
0.0000

> <Gold.Chemscore.DEClash.Weighted>
0.0000

> <Gold.Chemscore.DEInternal.Weighted>
0.8963

> <Gold.Chemscore.Rot.Weighted>
4.5799

> <Gold.Chemscore.Internal.Correction.Weighted>
   9.000000E+99

> <Gold.Protein.RotatedTorsions>
[ 6907 6896 6895 6894 ] final  -40.49 input  -60.11 | X-H torsion
[ 7974 7965 7964 7962 ] final  -55.32 input  175.53 | X-H torsion
[ 8008 7997 7996 7995 ] final  113.93 input   59.86 | X-H torsion
[ 10167 10162 10161 10158 ] final  135.08 input  -65.29 | X-H torsion
[ 10718 10713 10712 10709 ] final  158.43 input   66.30 | X-H torsion
[ 10763 10752 10751 10750 ] final   90.09 input  -60.55 | X-H torsion
[ 11005 11000 10999 10996 ] final   58.17 input  -57.11 | X-H torsion

> <Gold.Protein.ActiveResidues>
 VAL166  LYS551  ARG553  GLY616  TRP617  ASP618  TYR619  PRO620  LYS621  CYS622 
 ASP623  PHE694  ASN695  SER759  ASP760  ASP761  ALA762  ILE779  LEU786  VAL792 
 PHE793  MET794  SER795  GLU796  ALA797  LYS798  CYS799  TRP800  GLU811  SER814 

> <Gold.Protein.RotatedAtoms>
  150.9778  134.9139  159.7826 H   0  0  0  0  0  0  0  0  0  0  0  0  # atno 6907 bound_to 6896
  152.5212  134.3452  159.9241 H   0  0  0  0  0  0  0  0  0  0  0  0  # atno 6908 bound_to 6896
  151.3460  133.3903  159.2710 H   0  0  0  0  0  0  0  0  0  0  0  0  # atno 6909 bound_to 6896
  145.8756  140.8183  142.9866 H   0  0  0  0  0  0  0  0  0  0  0  0  # atno 7974 bound_to 7965
  156.2289  140.2969  156.0138 H   0  0  0  0  0  0  0  0  0  0  0  0  # atno 8008 bound_to 7997
  155.2279  140.0418  157.2975 H   0  0  0  0  0  0  0  0  0  0  0  0  # atno 8009 bound_to 7997
  154.5962  140.2415  155.7861 H   0  0  0  0  0  0  0  0  0  0  0  0  # atno 8010 bound_to 7997
  139.5231  144.6535  151.5231 H   0  0  0  0  0  0  0  0  0  0  0  0  # atno 10167 bound_to 10162
  157.1780  131.0626  151.2147 H   0  0  0  0  0  0  0  0  0  0  0  0  # atno 10718 bound_to 10713
  153.1939  135.4446  155.0183 H   0  0  0  0  0  0  0  0  0  0  0  0  # atno 10763 bound_to 10752
  154.8107  135.3293  154.7315 H   0  0  0  0  0  0  0  0  0  0  0  0  # atno 10764 bound_to 10752
  153.7767  135.6980  153.4951 H   0  0  0  0  0  0  0  0  0  0  0  0  # atno 10765 bound_to 10752
  140.0397  134.5891  155.9397 H   0  0  0  0  0  0  0  0  0  0  0  0  # atno 11005 bound_to 11000
  144.6726  140.1305  143.7444 LP  0  0  0  0  0  0  0  0  0  0  0  0  # atno 17320 bound_to 7965
  145.9085  139.2473  143.1451 LP  0  0  0  0  0  0  0  0  0  0  0  0  # atno 17321 bound_to 7965
  140.6350  143.9001  150.6639 LP  0  0  0  0  0  0  0  0  0  0  0  0  # atno 17342 bound_to 10162
  140.2317  143.3730  152.1560 LP  0  0  0  0  0  0  0  0  0  0  0  0  # atno 17343 bound_to 10162
  157.3979  130.7317  149.6745 LP  0  0  0  0  0  0  0  0  0  0  0  0  # atno 17370 bound_to 10713
  155.9728  130.4128  150.4053 LP  0  0  0  0  0  0  0  0  0  0  0  0  # atno 17371 bound_to 10713
  141.1876  133.6560  156.5291 LP  0  0  0  0  0  0  0  0  0  0  0  0  # atno 17394 bound_to 11000
  140.4089  134.7290  157.4824 LP  0  0  0  0  0  0  0  0  0  0  0  0  # atno 17395 bound_to 11000

$$$$
