AV-unprocessed.smi:72|AV-procd|sdf|723|dock3
  -GOLD-   2262017 53D 1   1.00000     0.00000
 Structure written by MMmdl.
 28 29  0  0  0  0  0  0  0  0  2 V2000
  153.9158  137.7304  154.4369 N   0  0  0  0  0  0  0  0  0  0  0  0
  152.7729  138.2268  154.6278 C   0  0  0  0  0  0  0  0  0  0  0  0
  151.6212  137.6837  153.9407 N   0  0  0  0  0  0  0  0  0  0  0  0
  150.4658  138.2245  154.1778 C   0  0  0  0  0  0  0  0  0  0  0  0
  150.3131  139.3348  155.1077 N   0  0  0  0  0  0  0  0  0  0  0  0
  148.9549  139.9579  155.3649 C   0  0  2  0  0  0  0  0  0  0  0  0
  148.0084  138.9433  155.5312 O   0  0  0  0  0  0  0  0  0  0  0  0
  146.7959  139.3129  154.8834 C   0  0  2  0  0  0  0  0  0  0  0  0
  145.9274  138.0779  154.5861 C   0  0  0  0  0  0  0  0  0  0  0  0
  144.5752  138.4601  154.4528 O   0  0  0  0  0  0  0  0  0  0  0  0
  147.2797  140.0945  153.6541 C   0  0  2  0  0  0  0  0  0  0  0  0
  147.6454  139.2100  152.6078 O   0  0  0  0  0  0  0  0  0  0  0  0
  148.4742  140.8633  154.2102 C   0  0  2  0  0  0  0  0  0  0  0  0
  149.4405  141.1800  153.2215 O   0  0  0  0  0  0  0  0  0  0  0  0
  151.4644  139.8634  155.7502 C   0  0  0  0  0  0  0  0  0  0  0  0
  151.3215  140.8305  156.4986 O   0  0  0  0  0  0  0  0  0  0  0  0
  152.6743  139.2891  155.4995 N   0  5  0  0  0  0  0  0  0  0  0  0
  149.0332  140.4914  156.3131 H   0  0  0  0  0  0  0  0  0  0  0  0
  146.2552  140.0047  155.5328 H   0  0  0  0  0  0  0  0  0  0  0  0
  146.5114  140.7689  153.2746 H   0  0  0  0  0  0  0  0  0  0  0  0
  148.1239  141.7933  154.6597 H   0  0  0  0  0  0  0  0  0  0  0  0
  153.8948  136.9591  153.7857 H   0  0  0  0  0  0  0  0  0  0  0  0
  149.5457  137.8884  153.6985 H   0  0  0  0  0  0  0  0  0  0  0  0
  146.2324  137.6220  153.6439 H   0  0  0  0  0  0  0  0  0  0  0  0
  146.0309  137.3209  155.3640 H   0  0  0  0  0  0  0  0  0  0  0  0
  144.5028  139.0400  153.7098 H   0  0  0  0  0  0  0  0  0  0  0  0
  148.1355  139.7003  151.9651 H   0  0  0  0  0  0  0  0  0  0  0  0
  149.4458  140.4880  152.5771 H   0  0  0  0  0  0  0  0  0  0  0  0
  1  2  2  0  0  0  0
  1 22  1  0  0  0  0
  2 17  1  0  0  0  0
  2  3  1  0  0  0  0
  3  4  2  0  0  0  0
  4  5  1  0  0  0  0
  4 23  1  0  0  0  0
  5  6  1  0  0  0  0
  5 15  1  0  0  0  0
  6 18  1  0  0  0  0
  6 13  1  0  0  0  0
  6  7  1  0  0  0  0
  7  8  1  0  0  0  0
  8 19  1  0  0  0  0
  8  9  1  0  0  0  0
  8 11  1  0  0  0  0
  9 10  1  0  0  0  0
  9 24  1  0  0  0  0
  9 25  1  0  0  0  0
 10 26  1  0  0  0  0
 11 20  1  0  0  0  0
 11 12  1  0  0  0  0
 11 13  1  0  0  0  0
 12 27  1  0  0  0  0
 13 21  1  0  0  0  0
 13 14  1  0  0  0  0
 14 28  1  0  0  0  0
 15 16  2  0  0  0  0
 15 17  1  0  0  0  0
M  CHG  1  17  -1
M  END
> <s_m_source_file>
AV-unprocessed.smi

> <i_m_source_file_index>
72

> <i_lp_mmshare_version>
43012

> <i_f3d_flags>
0

> <s_epik_input>
W05IMl1jMW5bY0hdbihjKD1PKW4xKVtDQEBIXTJPW0NASF0oW0NIMl1bT0hdKVtDQEBIXShbT0hdKVtDQEhdMltPSF0=

> <s_epik_cmdline>
J2VwaWtfcHl0aG9uJywgJy1waCcsICc3LjAnLCAnLXRuJywgJzgnLCAnLW1hJywgJzIwMCcsICctbWV0YWxfYmluZGluZycsICctaW1hZScsICc8aW5maWxlLm1hZT4nLCAnLW9tYWUnLCAnPG91dGZpbGUubWFlPic=

> <r_lp_tautomer_probability>
7.17554e-07

> <r_epik_Ionization_Penalty>
12.8705

> <r_epik_Ionization_Penalty_Charging>
5.64144

> <r_epik_Ionization_Penalty_Neutral>
7.22905

> <r_epik_State_Penalty>
3.30104

> <r_epik_Charging_Adjusted_Penalty>
8.94249

> <i_epik_Tot_Q>
-1

> <i_epik_Tot_abs_Q>
1

> <r_epik_Metal_State_Penalty>
0.529074

> <b_epik_Metal_Only>
1

> <s_epik_Chemistry_Notes>
This compound contains an acetal/aminal-like group ( X-CH(R)-Y where X, Y are N, S, or O) that may be acid/base labile, releasing an aldehyde.

> <s_lp_Force_Field>
OPLS_2005

> <r_lp_Energy>
42.0282

> <b_lp_Chiralities_Consistent>
1

> <s_lp_Variant>
AV-unprocessed.smi:72-61

> <Gold.Version>
5.8.1

> <Gold.Id.Protein>
6NUR|6NUR_protein|mol2

> <Gold.PLP.Fitness>
46.0437

> <Gold.PLP.PLP>
-27.1250

> <Gold.PLP.part.hbond>
-6.3970

> <Gold.PLP.part.metal>
0.0000

> <Gold.PLP.part.buried>
-5.2906

> <Gold.PLP.part.nonpolar>
-16.1963

> <Gold.PLP.part.repulsive>
0.2505

> <Gold.PLP.ligand.clash>
0.0000

> <Gold.PLP.ligand.torsion>
0.6914

> <Gold.PLP.Chemscore.Hbond>
5.9269

> <Gold.PLP.Chemscore.CHOScore>
0.8368

> <Gold.PLP.Chemscore.Metal>
0.0000

> <Gold.Chemscore.Hbonds>
donor molecule, donor type, donor heavy atom, donor atom, acceptor molecule, acceptor atom, score
      L1  H    10    26       P1 10175  0.94
      L1  H    12    27       P1  7957  1.00
      L1  H    14    28       P1  7957  0.89
      P1  H  7989  7998       L1    14  0.02
      P1  H  7997  8009       L1    17  2.00
      P1  H  8011  8017       L1    14  1.00
      L1  C     4    23       P1  7948  1.00

> <Gold.PLP.Chemscore.Internal.Correction>
0.0107

> <Gold.Rescore>
     Score         DG    S(hbond)    S(metal)    S(lipo)     H(rot)  DE(clash)    DE(int)     intcor
     10.94     -11.72       4.32        0.00      18.41       4.04       0.05       0.73       ----

> <Gold.Chemscore.Fitness>
10.9354

> <Gold.Chemscore.DG>
-11.7153

> <Gold.Chemscore.ZeroCoef>
-5.4800

> <Gold.Chemscore.Hbond>
4.3186

> <Gold.Chemscore.Metal>
0.0000

> <Gold.Chemscore.Lipo>
18.4132

> <Gold.Chemscore.Internal_Hbond>
0.0000

> <Gold.Chemscore.DEClash>
0.0524

> <Gold.Chemscore.DEInternal>
0.7275

> <Gold.Chemscore.Rot>
4.0403

> <Gold.Chemscore.Internal.Correction>
   9.000000E+99

> <Gold.Chemscore.Hbonds>
donor molecule, donor type, donor heavy atom, donor atom, acceptor molecule, acceptor atom, score
      L1  H    10    26       P1 10175  0.89
      L1  H    12    27       P1  7957  0.95
      L1  H    14    28       P1  7957  0.81
      P1  H  7997  8009       L1    17  0.91
      P1  H  8011  8017       L1    14  0.24

> <Gold.Chemscore.Hbond.Weighted>
-14.4240

> <Gold.Chemscore.Metal.Weighted>
-0.0000

> <Gold.Chemscore.Lipo.Weighted>
-2.1543

> <Gold.Chemscore.Internal_Hbond.Weighted>
0.0000

> <Gold.Chemscore.DEClash.Weighted>
0.0524

> <Gold.Chemscore.DEInternal.Weighted>
0.7275

> <Gold.Chemscore.Rot.Weighted>
10.3431

> <Gold.Chemscore.Internal.Correction.Weighted>
   9.000000E+99

> <Gold.Protein.RotatedTorsions>
[ 6907 6896 6895 6894 ] final    0.53 input  -60.11 | X-H torsion
[ 7974 7965 7964 7962 ] final -155.95 input  175.53 | X-H torsion
[ 8008 7997 7996 7995 ] final -158.19 input   59.86 | X-H torsion
[ 10167 10162 10161 10158 ] final -116.12 input  -65.29 | X-H torsion
[ 10718 10713 10712 10709 ] final   18.42 input   66.30 | X-H torsion
[ 10763 10752 10751 10750 ] final  127.08 input  -60.55 | X-H torsion
[ 11005 11000 10999 10996 ] final   49.95 input  -57.11 | X-H torsion

> <Gold.Protein.ActiveResidues>
 VAL166  LYS551  ARG553  GLY616  TRP617  ASP618  TYR619  PRO620  LYS621  CYS622 
 ASP623  PHE694  ASN695  SER759  ASP760  ASP761  ALA762  ILE779  LEU786  VAL792 
 PHE793  MET794  SER795  GLU796  ALA797  LYS798  CYS799  TRP800  GLU811  SER814 

> <Gold.Protein.RotatedAtoms>
  151.5779  135.1060  160.0010 H   0  0  0  0  0  0  0  0  0  0  0  0  # atno 6907 bound_to 6896
  152.4369  133.7372  159.6631 H   0  0  0  0  0  0  0  0  0  0  0  0  # atno 6908 bound_to 6896
  150.8268  133.8089  159.3138 H   0  0  0  0  0  0  0  0  0  0  0  0  # atno 6909 bound_to 6896
  144.7616  140.4178  143.5972 H   0  0  0  0  0  0  0  0  0  0  0  0  # atno 7974 bound_to 7965
  155.7439  140.0817  157.2233 H   0  0  0  0  0  0  0  0  0  0  0  0  # atno 8008 bound_to 7997
  154.4019  140.1573  156.2702 H   0  0  0  0  0  0  0  0  0  0  0  0  # atno 8009 bound_to 7997
  155.8995  140.3410  155.6018 H   0  0  0  0  0  0  0  0  0  0  0  0  # atno 8010 bound_to 7997
  140.0827  143.4773  152.1916 H   0  0  0  0  0  0  0  0  0  0  0  0  # atno 10167 bound_to 10162
  157.0960  130.6448  149.5860 H   0  0  0  0  0  0  0  0  0  0  0  0  # atno 10718 bound_to 10713
  153.7037  135.3279  155.3230 H   0  0  0  0  0  0  0  0  0  0  0  0  # atno 10763 bound_to 10752
  154.8405  135.4460  154.1384 H   0  0  0  0  0  0  0  0  0  0  0  0  # atno 10764 bound_to 10752
  153.2459  135.6976  153.7811 H   0  0  0  0  0  0  0  0  0  0  0  0  # atno 10765 bound_to 10752
  140.1059  134.5019  155.8720 H   0  0  0  0  0  0  0  0  0  0  0  0  # atno 11005 bound_to 11000
  145.6602  139.1580  143.2813 LP  0  0  0  0  0  0  0  0  0  0  0  0  # atno 17320 bound_to 7965
  146.1684  140.6683  142.9244 LP  0  0  0  0  0  0  0  0  0  0  0  0  # atno 17321 bound_to 7965
  139.5770  144.7492  151.3738 LP  0  0  0  0  0  0  0  0  0  0  0  0  # atno 17342 bound_to 10162
  140.7070  143.7489  150.7498 LP  0  0  0  0  0  0  0  0  0  0  0  0  # atno 17343 bound_to 10162
  155.9886  130.4929  150.7176 LP  0  0  0  0  0  0  0  0  0  0  0  0  # atno 17370 bound_to 10713
  157.4681  131.0890  151.0672 LP  0  0  0  0  0  0  0  0  0  0  0  0  # atno 17371 bound_to 10713
  141.2118  133.6711  156.6610 LP  0  0  0  0  0  0  0  0  0  0  0  0  # atno 17394 bound_to 11000
  140.3156  134.8050  157.4212 LP  0  0  0  0  0  0  0  0  0  0  0  0  # atno 17395 bound_to 11000

$$$$
