#       Name:                AV-unprocessed.smi:694
#       Creating user name   scv26
#       Creation time:       Fri Mar 27 00:36:16 2020


#       File generated by GOLD software.
#

@<TRIPOS>MOLECULE
AV-unprocessed.smi:694
    47    48     1
SMALL
NO_CHARGES


@<TRIPOS>ATOM
      1 ****        -6.4377   0.1495  -0.9475 C.3            1 S1                 0.0000
      2 ****        -5.7177  -1.0094  -0.4291 N.pl3          1 S1                 0.0000
      3 ****        -6.4562  -2.1309   0.1380 C.3            1 S1                 0.0000
      4 ****        -4.3047  -1.0323  -0.4657 C.ar           1 S1                 0.0000
      5 ****        -3.5678  -2.1244   0.0555 C.ar           1 S1                 0.0000
      6 ****        -2.1614  -2.0950  -0.0032 C.ar           1 S1                 0.0000
      7 ****        -1.5151  -0.9818  -0.5738 C.ar           1 S1                 0.0000
      8 ****        -0.0942  -0.9957  -0.6320 N.am           1 S1                 0.0000
      9 ****         0.7508   0.0211  -0.8761 C.2            1 S1                 0.0000
     10 ****         0.4250   1.1945  -1.0528 O.2            1 S1                 0.0000
     11 ****         2.0237  -0.3991  -0.8860 N.am           1 S1                 0.0000
     12 ****         3.1846   0.4534  -1.1233 C.3            1 S1                 0.0000
     13 ****         3.5655   1.2866   0.1195 C.3            1 S1                 0.0000
     14 ****         4.7858   2.1926  -0.0802 C.3            1 S1                 0.0000
     15 ****         5.3205   2.4878   1.3295 C.3            1 S1                 0.0000
     16 ****         4.5919   1.5299   2.2857 C.3            1 S1                 0.0000
     17 ****         3.8905   0.4967   1.3975 C.3            1 S1                 0.0000
     18 ****         4.7867  -0.5678   1.1361 O.3            1 S1                 0.0000
     19 ****        -2.3316   0.0572  -1.0796 C.ar           1 S1                 0.0000
     20 ****        -3.6798   0.0331  -1.0236 N.ar           1 S1                 0.0000
     21 ****        -6.2140   0.2982  -2.0044 H              1 S1                 0.0000
     22 ****        -6.1533   1.0509  -0.4032 H              1 S1                 0.0000
     23 ****        -7.5163   0.0269  -0.8486 H              1 S1                 0.0000
     24 ****        -6.1965  -2.2700   1.1878 H              1 S1                 0.0000
     25 ****        -6.2322  -3.0506  -0.4032 H              1 S1                 0.0000
     26 ****        -7.5323  -1.9672   0.0811 H              1 S1                 0.0000
     27 ****        -4.0511  -2.9821   0.4982 H              1 S1                 0.0000
     28 ****        -1.5876  -2.9214   0.3898 H              1 S1                 0.0000
     29 ****         0.3344  -1.8881  -0.4354 H              1 S1                 0.0000
     30 ****         2.2030  -1.3800  -0.7288 H              1 S1                 0.0000
     31 ****         4.0165  -0.1831  -1.4254 H              1 S1                 0.0000
     32 ****         2.9876   1.1136  -1.9697 H              1 S1                 0.0000
     33 ****         2.7250   1.9415   0.3562 H              1 S1                 0.0000
     34 ****         5.5504   1.6685  -0.6551 H              1 S1                 0.0000
     35 ****         4.5346   3.1027  -0.6259 H              1 S1                 0.0000
     36 ****         6.3989   2.3296   1.3647 H              1 S1                 0.0000
     37 ****         5.1352   3.5244   1.6129 H              1 S1                 0.0000
     38 ****         5.2609   1.0788   3.0197 H              1 S1                 0.0000
     39 ****         3.8390   2.0900   2.8419 H              1 S1                 0.0000
     40 ****         2.9939   0.0957   1.8715 H              1 S1                 0.0000
     41 ****         4.3665  -1.1762   0.5480 H              1 S1                 0.0000
     42 ****        -1.9224   0.9307  -1.5614 H              1 S1                 0.0000
     43 ****        -0.5397   1.4559  -1.0202 LP             1 S1                 0.0000
     44 ****         1.1249   1.8867  -1.2290 LP             1 S1                 0.0000
     45 ****         5.0187  -1.0311   1.9914 LP             1 S1                 0.0000
     46 ****         5.6199  -0.2111   0.7136 LP             1 S1                 0.0000
     47 ****        -4.2133   0.7951  -1.3907 LP             1 S1                 0.0000
@<TRIPOS>BOND
    1    1    2 1     
    2    1   21 1     
    3    1   22 1     
    4    1   23 1     
    5    2    3 1     
    6    2    4 1     
    7    3   24 1     
    8    3   25 1     
    9    3   26 1     
   10    4   20 ar    
   11    4    5 ar    
   12    5    6 ar    
   13    5   27 1     
   14    6    7 ar    
   15    6   28 1     
   16    7    8 1     
   17    7   19 ar    
   18    8    9 am    
   19    8   29 1     
   20    9   10 2     
   21    9   11 am    
   22   11   12 1     
   23   11   30 1     
   24   12   13 1     
   25   12   31 1     
   26   12   32 1     
   27   13   17 1     
   28   13   14 1     
   29   13   33 1     
   30   14   15 1     
   31   14   34 1     
   32   14   35 1     
   33   15   16 1     
   34   15   36 1     
   35   15   37 1     
   36   16   17 1     
   37   16   38 1     
   38   16   39 1     
   39   17   18 1     
   40   17   40 1     
   41   18   41 1     
   42   19   20 ar    
   43   19   42 1     
   44   10   43 1     
   45   10   44 1     
   46   18   45 1     
   47   18   46 1     
   48   20   47 1     
@<TRIPOS>SUBSTRUCTURE
      1 S1             1
@<TRIPOS>SET
LONE_PAIRS      STATIC     ATOMS    <user>   **** ""
5 43 44 45 46 47
DONOR_HYDROGENS      STATIC     ATOMS    <user>   **** ""
3 29 30 41
ATOM$BLUE        STATIC     ATOMS    COLORGROUP SYSTEM
5 43 44 45 46 47
ATOM$RED        STATIC     ATOMS    COLORGROUP SYSTEM
3 29 30 41
