AV-unprocessed.smi:1675|AV-procd|sdf|6716|dock8
  -GOLD-   22720 7463D 1   1.00000     0.00000
 Structure written by MMmdl.
 40 42  0  0  0  0  0  0  0  0  1 V2000
  145.6724  138.4768  151.4299 N   0  0  0  0  0  0  0  0  0  0  0  0
  146.9227  138.8821  151.1936 C   0  0  0  0  0  0  0  0  0  0  0  0
  147.7715  138.1360  150.7086 O   0  0  0  0  0  0  0  0  0  0  0  0
  147.2633  140.3303  151.5602 C   0  0  0  0  0  0  0  0  0  0  0  0
  147.6621  140.4582  152.9520 N   0  0  0  0  0  0  0  0  0  0  0  0
  148.8982  140.8138  153.4573 C   0  0  0  0  0  0  0  0  0  0  0  0
  148.7631  140.7926  154.8166 C   0  0  0  0  0  0  0  0  0  0  0  0
  149.7234  141.0710  155.8220 N   0  0  0  0  0  0  0  0  0  0  0  0
  149.5044  141.2621  157.1350 C   0  0  0  0  0  0  0  0  0  0  0  0
  148.3940  141.2354  157.6649 O   0  0  0  0  0  0  0  0  0  0  0  0
  150.7451  141.5543  157.9852 C   0  0  0  0  0  0  0  0  0  0  0  0
  151.2776  142.9963  157.8189 C   0  0  1  0  0  0  0  0  0  0  0  0
  150.3083  144.0849  158.3290 C   0  0  0  0  0  0  0  0  0  0  0  0
  151.2127  144.9721  159.2051 C   0  0  1  0  0  0  0  0  0  0  0  0
  151.5237  144.2324  160.5187 C   0  0  0  0  0  0  0  0  0  0  0  0
  152.5026  143.1350  160.0634 C   0  0  0  0  0  0  0  0  0  0  0  0
  152.5976  143.3688  158.5414 C   0  0  2  0  0  0  0  0  0  0  0  0
  152.5485  144.8920  158.4749 C   0  0  0  0  0  0  0  0  0  0  0  0
  147.4167  140.4202  155.0656 C   0  0  0  0  0  0  0  0  0  0  0  0
  146.7565  140.2231  153.9348 N   0  0  0  0  0  0  0  0  0  0  0  0
  145.4032  137.5296  151.2058 H   0  0  0  0  0  0  0  0  0  0  0  0
  145.0016  139.1149  151.8323 H   0  0  0  0  0  0  0  0  0  0  0  0
  148.0760  140.7029  150.9352 H   0  0  0  0  0  0  0  0  0  0  0  0
  146.3945  140.9618  151.3688 H   0  0  0  0  0  0  0  0  0  0  0  0
  149.7361  141.0387  152.8142 H   0  0  0  0  0  0  0  0  0  0  0  0
  150.6824  141.1276  155.5108 H   0  0  0  0  0  0  0  0  0  0  0  0
  150.5092  141.3816  159.0364 H   0  0  0  0  0  0  0  0  0  0  0  0
  151.5152  140.8240  157.7376 H   0  0  0  0  0  0  0  0  0  0  0  0
  151.4297  143.1645  156.7509 H   0  0  0  0  0  0  0  0  0  0  0  0
  149.8972  144.6523  157.4930 H   0  0  0  0  0  0  0  0  0  0  0  0
  149.4693  143.6782  158.8949 H   0  0  0  0  0  0  0  0  0  0  0  0
  150.8261  145.9808  159.3527 H   0  0  0  0  0  0  0  0  0  0  0  0
  152.0021  144.8988  161.2376 H   0  0  0  0  0  0  0  0  0  0  0  0
  150.6273  143.8231  160.9862 H   0  0  0  0  0  0  0  0  0  0  0  0
  153.4769  143.2830  160.5302 H   0  0  0  0  0  0  0  0  0  0  0  0
  152.1680  142.1329  160.3282 H   0  0  0  0  0  0  0  0  0  0  0  0
  153.4860  142.9296  158.0869 H   0  0  0  0  0  0  0  0  0  0  0  0
  152.5094  145.2826  157.4565 H   0  0  0  0  0  0  0  0  0  0  0  0
  153.3656  145.3769  159.0125 H   0  0  0  0  0  0  0  0  0  0  0  0
  146.9066  140.2894  156.0086 H   0  0  0  0  0  0  0  0  0  0  0  0
  1  2  1  0  0  0  0
  1 21  1  0  0  0  0
  1 22  1  0  0  0  0
  2  3  2  0  0  0  0
  2  4  1  0  0  0  0
  4  5  1  0  0  0  0
  4 23  1  0  0  0  0
  4 24  1  0  0  0  0
  5 20  1  0  0  0  0
  5  6  1  0  0  0  0
  6  7  2  0  0  0  0
  6 25  1  0  0  0  0
  7  8  1  0  0  0  0
  7 19  1  0  0  0  0
  8  9  1  0  0  0  0
  8 26  1  0  0  0  0
  9 10  2  0  0  0  0
  9 11  1  0  0  0  0
 11 12  1  0  0  0  0
 11 27  1  0  0  0  0
 11 28  1  0  0  0  0
 12 17  1  0  0  0  0
 12 13  1  0  0  0  0
 12 29  1  0  0  0  0
 13 14  1  0  0  0  0
 13 30  1  0  0  0  0
 13 31  1  0  0  0  0
 14 18  1  0  0  0  0
 14 15  1  0  0  0  0
 14 32  1  0  0  0  0
 15 16  1  0  0  0  0
 15 33  1  0  0  0  0
 15 34  1  0  0  0  0
 16 17  1  0  0  0  0
 16 35  1  0  0  0  0
 16 36  1  0  0  0  0
 17 18  1  0  0  0  0
 17 37  1  0  0  0  0
 18 38  1  0  0  0  0
 18 39  1  0  0  0  0
 19 20  2  0  0  0  0
 19 40  1  0  0  0  0
M  END
> <s_m_source_file>
AV-unprocessed.smi

> <i_m_source_file_index>
1675

> <i_lp_mmshare_version>
43012

> <i_f3d_flags>
0

> <s_epik_input>
W05IMl1DKD1PKVtDSDJdbjFbY0hdYyhbY0hdbjEpW05IXUMoPU8pW0NIMl1bQ0BIXShbQ0gyXVtDQEBIXTIzKVtDQEBIXShbQ0gyXTMpW0NIMl1bQ0gyXTI=

> <s_epik_cmdline>
J2VwaWtfcHl0aG9uJywgJy1waCcsICc3LjAnLCAnLXRuJywgJzgnLCAnLW1hJywgJzIwMCcsICctbWV0YWxfYmluZGluZycsICctaW1hZScsICc8aW5maWxlLm1hZT4nLCAnLW9tYWUnLCAnPG91dGZpbGUubWFlPic=

> <r_lp_tautomer_probability>
1

> <r_epik_Ionization_Penalty>
2.17494e-05

> <r_epik_Ionization_Penalty_Charging>
0

> <r_epik_Ionization_Penalty_Neutral>
2.17494e-05

> <r_epik_State_Penalty>
-0

> <r_epik_Charging_Adjusted_Penalty>
0

> <i_epik_Tot_Q>
0

> <i_epik_Tot_abs_Q>
0

> <r_epik_Metal_State_Penalty>
-0

> <b_epik_Metal_Only>
0

> <s_lp_Force_Field>
OPLS_2005

> <r_lp_Energy>
53.8381

> <b_lp_Chiralities_Consistent>
1

> <s_lp_Variant>
AV-unprocessed.smi:1675-2

> <Gold.Version>
5.8.1

> <Gold.Id.Protein>
6NUR|6NUR_protein|mol2

> <Gold.PLP.Fitness>
45.4108

> <Gold.PLP.PLP>
-38.4034

> <Gold.PLP.part.hbond>
-3.3592

> <Gold.PLP.part.metal>
0.0000

> <Gold.PLP.part.buried>
-2.1075

> <Gold.PLP.part.nonpolar>
-38.6338

> <Gold.PLP.part.repulsive>
5.5952

> <Gold.PLP.ligand.clash>
0.0000

> <Gold.PLP.ligand.torsion>
0.6573

> <Gold.PLP.Chemscore.Hbond>
1.8800

> <Gold.PLP.Chemscore.CHOScore>
0.8834

> <Gold.PLP.Chemscore.Metal>
0.0000

> <Gold.Chemscore.Hbonds>
donor molecule, donor type, donor heavy atom, donor atom, acceptor molecule, acceptor atom, score
      L1  H     1    22       P1 10175  1.00
      L1  C     6    25       P1  7957  0.46

> <Gold.PLP.Chemscore.Internal.Correction>
0.0318

> <Gold.Rescore>
     Score         DG    S(hbond)    S(metal)    S(lipo)     H(rot)  DE(clash)    DE(int)     intcor
     15.00     -19.78       1.97        0.00     113.04       2.15       2.94       1.84       ----

> <Gold.Chemscore.Fitness>
15.0014

> <Gold.Chemscore.DG>
-19.7828

> <Gold.Chemscore.ZeroCoef>
-5.4800

> <Gold.Chemscore.Hbond>
1.9693

> <Gold.Chemscore.Metal>
0.0000

> <Gold.Chemscore.Lipo>
113.0397

> <Gold.Chemscore.Internal_Hbond>
0.0000

> <Gold.Chemscore.DEClash>
2.9439

> <Gold.Chemscore.DEInternal>
1.8375

> <Gold.Chemscore.Rot>
2.1486

> <Gold.Chemscore.Internal.Correction>
   9.000000E+99

> <Gold.Chemscore.Hbonds>
donor molecule, donor type, donor heavy atom, donor atom, acceptor molecule, acceptor atom, score
      L1  H     1    22       P1 10175  0.96

> <Gold.Chemscore.Hbond.Weighted>
-6.5775

> <Gold.Chemscore.Metal.Weighted>
-0.0000

> <Gold.Chemscore.Lipo.Weighted>
-13.2256

> <Gold.Chemscore.Internal_Hbond.Weighted>
0.0000

> <Gold.Chemscore.DEClash.Weighted>
2.9439

> <Gold.Chemscore.DEInternal.Weighted>
1.8375

> <Gold.Chemscore.Rot.Weighted>
5.5004

> <Gold.Chemscore.Internal.Correction.Weighted>
   9.000000E+99

> <Gold.Protein.RotatedTorsions>
[ 6907 6896 6895 6894 ] final   31.17 input  -60.11 | X-H torsion
[ 7974 7965 7964 7962 ] final  106.28 input  175.53 | X-H torsion
[ 8008 7997 7996 7995 ] final  101.26 input   59.86 | X-H torsion
[ 10167 10162 10161 10158 ] final  150.49 input  -65.29 | X-H torsion
[ 10718 10713 10712 10709 ] final  149.88 input   66.30 | X-H torsion
[ 10763 10752 10751 10750 ] final  100.67 input  -60.55 | X-H torsion
[ 11005 11000 10999 10996 ] final -109.62 input  -57.11 | X-H torsion

> <Gold.Protein.ActiveResidues>
 VAL166  LYS551  ARG553  GLY616  TRP617  ASP618  TYR619  PRO620  LYS621  CYS622 
 ASP623  PHE694  ASN695  SER759  ASP760  ASP761  ALA762  ILE779  LEU786  VAL792 
 PHE793  MET794  SER795  GLU796  ALA797  LYS798  CYS799  TRP800  GLU811  SER814 

> <Gold.Protein.RotatedAtoms>
  152.0565  134.9621  160.0574 H   0  0  0  0  0  0  0  0  0  0  0  0  # atno 6907 bound_to 6896
  152.1001  133.4240  159.4591 H   0  0  0  0  0  0  0  0  0  0  0  0  # atno 6908 bound_to 6896
  150.6839  134.2689  159.4623 H   0  0  0  0  0  0  0  0  0  0  0  0  # atno 6909 bound_to 6896
  145.3086  139.2547  143.3775 H   0  0  0  0  0  0  0  0  0  0  0  0  # atno 7974 bound_to 7965
  156.1282  140.3200  155.8310 H   0  0  0  0  0  0  0  0  0  0  0  0  # atno 8008 bound_to 7997
  155.4380  140.0523  157.3030 H   0  0  0  0  0  0  0  0  0  0  0  0  # atno 8009 bound_to 7997
  154.4879  140.2080  155.9627 H   0  0  0  0  0  0  0  0  0  0  0  0  # atno 8010 bound_to 7997
  139.4849  144.5518  151.7387 H   0  0  0  0  0  0  0  0  0  0  0  0  # atno 10167 bound_to 10162
  157.2905  131.0852  151.1465 H   0  0  0  0  0  0  0  0  0  0  0  0  # atno 10718 bound_to 10713
  153.3168  135.4071  155.1383 H   0  0  0  0  0  0  0  0  0  0  0  0  # atno 10763 bound_to 10752
  154.8590  135.3578  154.5649 H   0  0  0  0  0  0  0  0  0  0  0  0  # atno 10764 bound_to 10752
  153.6081  135.7069  153.5416 H   0  0  0  0  0  0  0  0  0  0  0  0  # atno 10765 bound_to 10752
  141.0837  133.9175  157.2232 H   0  0  0  0  0  0  0  0  0  0  0  0  # atno 11005 bound_to 11000
  146.3126  140.3617  142.8665 LP  0  0  0  0  0  0  0  0  0  0  0  0  # atno 17320 bound_to 7965
  144.9034  140.7670  143.5853 LP  0  0  0  0  0  0  0  0  0  0  0  0  # atno 17321 bound_to 7965
  140.5073  144.1078  150.5986 LP  0  0  0  0  0  0  0  0  0  0  0  0  # atno 17342 bound_to 10162
  140.3992  143.2712  151.9968 LP  0  0  0  0  0  0  0  0  0  0  0  0  # atno 17343 bound_to 10162
  157.2864  130.6775  149.6091 LP  0  0  0  0  0  0  0  0  0  0  0  0  # atno 17370 bound_to 10713
  155.9667  130.4434  150.5420 LP  0  0  0  0  0  0  0  0  0  0  0  0  # atno 17371 bound_to 10713
  139.9653  135.0143  156.9371 LP  0  0  0  0  0  0  0  0  0  0  0  0  # atno 17394 bound_to 11000
  140.5411  134.0719  155.7342 LP  0  0  0  0  0  0  0  0  0  0  0  0  # atno 17395 bound_to 11000

$$$$
