AV-unprocessed.smi:3043|AV-procd|sdf|11604|dock10
  -GOLD-   2272016583D 1   1.00000     0.00000
 Structure written by MMmdl.
 44 45  0  0  0  0  0  0  0  0  2 V2000
  154.3826  141.3620  160.2531 C   0  0  0  0  0  0  0  0  0  0  0  0
  153.1663  141.3115  159.3259 C   0  0  0  0  0  0  0  0  0  0  0  0
  152.7313  140.2062  159.0028 O   0  0  0  0  0  0  0  0  0  0  0  0
  152.6101  142.4704  158.8972 N   0  0  0  0  0  0  0  0  0  0  0  0
  151.4055  142.5095  158.0600 C   0  0  0  0  0  0  0  0  0  0  0  0
  150.2377  143.0646  158.8949 C   0  0  0  0  0  0  0  0  0  0  0  0
  150.5694  144.4592  159.4710 C   0  0  0  0  0  0  0  0  0  0  0  0
  149.4371  144.9652  160.3830 C   0  0  0  0  0  0  0  0  0  0  0  0
  148.1112  144.7717  159.7572 N   0  3  0  0  0  0  0  0  0  0  0  0
  146.9638  145.3342  160.5042 C   0  0  1  0  0  0  0  0  0  0  0  0
  145.7714  145.4944  159.5455 C   0  0  0  0  0  0  0  0  0  0  0  0
  146.6277  144.4721  161.7433 C   0  0  0  0  0  0  0  0  0  0  0  0
  145.5036  143.5791  161.5251 N   0  0  0  0  0  0  0  0  0  0  0  0
  144.2125  143.6971  161.9953 C   0  0  0  0  0  0  0  0  0  0  0  0
  143.5116  142.6211  161.5312 C   0  0  0  0  0  0  0  0  0  0  0  0
  144.4733  141.8893  160.7800 C   0  0  0  0  0  0  0  0  0  0  0  0
  145.6648  142.4649  160.7791 N   0  0  0  0  0  0  0  0  0  0  0  0
  151.9375  144.4333  160.1936 C   0  0  0  0  0  0  0  0  0  0  0  0
  153.0313  143.8173  159.3024 C   0  0  0  0  0  0  0  0  0  0  0  0
  154.1462  141.8962  161.1739 H   0  0  0  0  0  0  0  0  0  0  0  0
  155.2235  141.8528  159.7626 H   0  0  0  0  0  0  0  0  0  0  0  0
  154.6992  140.3546  160.5257 H   0  0  0  0  0  0  0  0  0  0  0  0
  151.5872  143.1484  157.1946 H   0  0  0  0  0  0  0  0  0  0  0  0
  151.1393  141.5320  157.6554 H   0  0  0  0  0  0  0  0  0  0  0  0
  149.3394  143.1172  158.2791 H   0  0  0  0  0  0  0  0  0  0  0  0
  150.0142  142.3716  159.7076 H   0  0  0  0  0  0  0  0  0  0  0  0
  150.6522  145.1431  158.6246 H   0  0  0  0  0  0  0  0  0  0  0  0
  149.4648  144.4234  161.3280 H   0  0  0  0  0  0  0  0  0  0  0  0
  149.5867  146.0207  160.6149 H   0  0  0  0  0  0  0  0  0  0  0  0
  148.1385  145.2293  158.8573 H   0  0  0  0  0  0  0  0  0  0  0  0
  147.2424  146.3345  160.8396 H   0  0  0  0  0  0  0  0  0  0  0  0
  144.9380  146.0116  160.0215 H   0  0  0  0  0  0  0  0  0  0  0  0
  145.4083  144.5260  159.1993 H   0  0  0  0  0  0  0  0  0  0  0  0
  146.0497  146.0784  158.6677 H   0  0  0  0  0  0  0  0  0  0  0  0
  147.4956  143.8779  162.0351 H   0  0  0  0  0  0  0  0  0  0  0  0
  146.3823  145.1016  162.5986 H   0  0  0  0  0  0  0  0  0  0  0  0
  143.9026  144.5278  162.6122 H   0  0  0  0  0  0  0  0  0  0  0  0
  142.4707  142.3904  161.7032 H   0  0  0  0  0  0  0  0  0  0  0  0
  144.3419  140.9635  160.2393 H   0  0  0  0  0  0  0  0  0  0  0  0
  152.2326  145.4421  160.4836 H   0  0  0  0  0  0  0  0  0  0  0  0
  151.8593  143.8571  161.1169 H   0  0  0  0  0  0  0  0  0  0  0  0
  153.9870  143.8380  159.8239 H   0  0  0  0  0  0  0  0  0  0  0  0
  153.1745  144.4300  158.4112 H   0  0  0  0  0  0  0  0  0  0  0  0
  147.9540  143.7851  159.6079 H   0  0  0  0  0  0  0  0  0  0  0  0
  1  2  1  0  0  0  0
  1 20  1  0  0  0  0
  1 21  1  0  0  0  0
  1 22  1  0  0  0  0
  2  3  2  0  0  0  0
  2  4  1  0  0  0  0
  4 19  1  0  0  0  0
  4  5  1  0  0  0  0
  5  6  1  0  0  0  0
  5 23  1  0  0  0  0
  5 24  1  0  0  0  0
  6  7  1  0  0  0  0
  6 25  1  0  0  0  0
  6 26  1  0  0  0  0
  7  8  1  0  0  0  0
  7 18  1  0  0  0  0
  7 27  1  0  0  0  0
  8  9  1  0  0  0  0
  8 28  1  0  0  0  0
  8 29  1  0  0  0  0
  9 10  1  0  0  0  0
  9 30  1  0  0  0  0
  9 44  1  0  0  0  0
 10 11  1  0  0  0  0
 10 12  1  0  0  0  0
 10 31  1  0  0  0  0
 11 32  1  0  0  0  0
 11 33  1  0  0  0  0
 11 34  1  0  0  0  0
 12 13  1  0  0  0  0
 12 35  1  0  0  0  0
 12 36  1  0  0  0  0
 13 17  1  0  0  0  0
 13 14  1  0  0  0  0
 14 15  2  0  0  0  0
 14 37  1  0  0  0  0
 15 16  1  0  0  0  0
 15 38  1  0  0  0  0
 16 17  2  0  0  0  0
 16 39  1  0  0  0  0
 18 19  1  0  0  0  0
 18 40  1  0  0  0  0
 18 41  1  0  0  0  0
 19 42  1  0  0  0  0
 19 43  1  0  0  0  0
M  CHG  1   9   1
M  END
> <s_m_source_file>
AV-unprocessed.smi

> <i_m_source_file_index>
3043

> <i_lp_mmshare_version>
43012

> <i_f3d_flags>
0

> <s_epik_input>
W0NIM11DKD1PKU4xW0NIMl1bQ0gyXVtDSF0oW0NIMl1bQ0gyXTEpW0NIMl1bTkhdW0NASF0oW0NIM10pW0NIMl1uMltjSF1bY0hdW2NIXW4y

> <s_epik_cmdline>
J2VwaWtfcHl0aG9uJywgJy1waCcsICc3LjAnLCAnLXRuJywgJzgnLCAnLW1hJywgJzIwMCcsICctbWV0YWxfYmluZGluZycsICctaW1hZScsICc8aW5maWxlLm1hZT4nLCAnLW9tYWUnLCAnPG91dGZpbGUubWFlPic=

> <r_lp_tautomer_probability>
1

> <r_epik_Ionization_Penalty>
0.00300549

> <r_epik_Ionization_Penalty_Charging>
0.00299781

> <r_epik_Ionization_Penalty_Neutral>
7.6831e-06

> <r_epik_State_Penalty>
0.00210473

> <r_epik_Charging_Adjusted_Penalty>
0.00510254

> <i_epik_Tot_Q>
1

> <i_epik_Tot_abs_Q>
1

> <r_epik_Metal_State_Penalty>
-0

> <b_epik_Metal_Only>
0

> <s_lp_Force_Field>
OPLS_2005

> <r_lp_Energy>
28.9571

> <b_lp_Chiralities_Consistent>
1

> <s_lp_Variant>
AV-unprocessed.smi:3043-2

> <Gold.Version>
5.8.1

> <Gold.Id.Protein>
6NUR|6NUR_protein|mol2

> <Gold.PLP.Fitness>
50.3596

> <Gold.PLP.PLP>
-43.2451

> <Gold.PLP.part.hbond>
-2.0000

> <Gold.PLP.part.metal>
0.0000

> <Gold.PLP.part.buried>
-6.3640

> <Gold.PLP.part.nonpolar>
-36.2736

> <Gold.PLP.part.repulsive>
0.1469

> <Gold.PLP.ligand.clash>
0.0000

> <Gold.PLP.ligand.torsion>
0.9489

> <Gold.PLP.Chemscore.Hbond>
2.9913

> <Gold.PLP.Chemscore.CHOScore>
0.0000

> <Gold.PLP.Chemscore.Metal>
0.0000

> <Gold.Chemscore.Hbonds>
donor molecule, donor type, donor heavy atom, donor atom, acceptor molecule, acceptor atom, score
      L1  H     9    30       P1  8029  2.00
      P1  H  6934  6946       L1    17  1.00

> <Gold.PLP.Chemscore.Internal.Correction>
0.0386

> <Gold.Rescore>
     Score         DG    S(hbond)    S(metal)    S(lipo)     H(rot)  DE(clash)    DE(int)     intcor
     17.62     -18.90       1.83        0.00     100.56       1.74       0.04       1.24       ----

> <Gold.Chemscore.Fitness>
17.6205

> <Gold.Chemscore.DG>
-18.9038

> <Gold.Chemscore.ZeroCoef>
-5.4800

> <Gold.Chemscore.Hbond>
1.8319

> <Gold.Chemscore.Metal>
0.0000

> <Gold.Chemscore.Lipo>
100.5573

> <Gold.Chemscore.Internal_Hbond>
0.0000

> <Gold.Chemscore.DEClash>
0.0394

> <Gold.Chemscore.DEInternal>
1.2439

> <Gold.Chemscore.Rot>
1.7422

> <Gold.Chemscore.Internal.Correction>
   9.000000E+99

> <Gold.Chemscore.Hbonds>
donor molecule, donor type, donor heavy atom, donor atom, acceptor molecule, acceptor atom, score
      L1  H     9    30       P1  8029  1.00
      P1  H  6934  6946       L1    17  0.32

> <Gold.Chemscore.Hbond.Weighted>
-6.1186

> <Gold.Chemscore.Metal.Weighted>
-0.0000

> <Gold.Chemscore.Lipo.Weighted>
-11.7652

> <Gold.Chemscore.Internal_Hbond.Weighted>
0.0000

> <Gold.Chemscore.DEClash.Weighted>
0.0394

> <Gold.Chemscore.DEInternal.Weighted>
1.2439

> <Gold.Chemscore.Rot.Weighted>
4.4600

> <Gold.Chemscore.Internal.Correction.Weighted>
   9.000000E+99

> <Gold.Protein.RotatedTorsions>
[ 6907 6896 6895 6894 ] final  104.77 input  -60.11 | X-H torsion
[ 7974 7965 7964 7962 ] final  153.42 input  175.53 | X-H torsion
[ 8008 7997 7996 7995 ] final   47.39 input   59.86 | X-H torsion
[ 10167 10162 10161 10158 ] final -170.91 input  -65.29 | X-H torsion
[ 10718 10713 10712 10709 ] final  152.62 input   66.30 | X-H torsion
[ 10763 10752 10751 10750 ] final  -30.96 input  -60.55 | X-H torsion
[ 11005 11000 10999 10996 ] final -122.96 input  -57.11 | X-H torsion

> <Gold.Protein.ActiveResidues>
 VAL166  LYS551  ARG553  GLY616  TRP617  ASP618  TYR619  PRO620  LYS621  CYS622 
 ASP623  PHE694  ASN695  SER759  ASP760  ASP761  ALA762  ILE779  LEU786  VAL792 
 PHE793  MET794  SER795  GLU796  ALA797  LYS798  CYS799  TRP800  GLU811  SER814 

> <Gold.Protein.RotatedAtoms>
  152.5253  133.9627  159.7724 H   0  0  0  0  0  0  0  0  0  0  0  0  # atno 6907 bound_to 6896
  150.9915  133.6137  159.2715 H   0  0  0  0  0  0  0  0  0  0  0  0  # atno 6908 bound_to 6896
  151.3279  135.0840  159.9381 H   0  0  0  0  0  0  0  0  0  0  0  0  # atno 6909 bound_to 6896
  144.8156  139.6798  143.6123 H   0  0  0  0  0  0  0  0  0  0  0  0  # atno 7974 bound_to 7965
  155.3683  140.3422  155.4242 H   0  0  0  0  0  0  0  0  0  0  0  0  # atno 8008 bound_to 7997
  156.1676  140.1621  156.8538 H   0  0  0  0  0  0  0  0  0  0  0  0  # atno 8009 bound_to 7997
  154.5201  140.0769  156.8138 H   0  0  0  0  0  0  0  0  0  0  0  0  # atno 8010 bound_to 7997
  139.5834  144.1373  152.1544 H   0  0  0  0  0  0  0  0  0  0  0  0  # atno 10167 bound_to 10162
  157.2554  131.0787  151.1702 H   0  0  0  0  0  0  0  0  0  0  0  0  # atno 10718 bound_to 10713
  153.7896  135.6899  153.4874 H   0  0  0  0  0  0  0  0  0  0  0  0  # atno 10763 bound_to 10752
  153.1758  135.4525  154.9962 H   0  0  0  0  0  0  0  0  0  0  0  0  # atno 10764 bound_to 10752
  154.8050  135.3353  154.7393 H   0  0  0  0  0  0  0  0  0  0  0  0  # atno 10765 bound_to 10752
  140.9956  134.0477  157.3602 H   0  0  0  0  0  0  0  0  0  0  0  0  # atno 11005 bound_to 11000
  146.2459  139.6096  142.9460 LP  0  0  0  0  0  0  0  0  0  0  0  0  # atno 17320 bound_to 7965
  145.5222  141.0431  143.2429 LP  0  0  0  0  0  0  0  0  0  0  0  0  # atno 17321 bound_to 7965
  140.0931  144.5604  150.7041 LP  0  0  0  0  0  0  0  0  0  0  0  0  # atno 17342 bound_to 10162
  140.7109  143.2504  151.4584 LP  0  0  0  0  0  0  0  0  0  0  0  0  # atno 17343 bound_to 10162
  157.3233  130.6948  149.6281 LP  0  0  0  0  0  0  0  0  0  0  0  0  # atno 17370 bound_to 10713
  155.9665  130.4329  150.4983 LP  0  0  0  0  0  0  0  0  0  0  0  0  # atno 17371 bound_to 10713
  139.9013  135.0165  156.7281 LP  0  0  0  0  0  0  0  0  0  0  0  0  # atno 17394 bound_to 11000
  140.6971  133.9338  155.8002 LP  0  0  0  0  0  0  0  0  0  0  0  0  # atno 17395 bound_to 11000

$$$$
