AV-unprocessed.smi:2856|AV-procd|sdf|10995|dock10
  -GOLD-   2272015453D 1   1.00000     0.00000
 Structure written by MMmdl.
 37 38  0  0  0  0  0  0  0  0  1 V2000
  148.4687  133.7350  154.1013 C   0  0  0  0  0  0  0  0  0  0  0  0
  146.8835  133.7980  154.9782 S   0  0  0  0  0  0  0  0  0  0  0  0
  145.7869  134.4435  153.6744 C   0  0  2  0  0  0  0  0  0  0  0  0
  146.1653  133.8460  152.3050 C   0  0  0  0  0  0  0  0  0  0  0  0
  145.2327  134.3501  151.1923 C   0  0  0  0  0  0  0  0  0  0  0  0
  145.2145  135.8848  151.1321 C   0  0  0  0  0  0  0  0  0  0  0  0
  144.8373  136.4907  152.4949 C   0  0  0  0  0  0  0  0  0  0  0  0
  145.7567  135.9917  153.6308 C   0  0  2  0  0  0  0  0  0  0  0  0
  147.1065  136.5383  153.4851 N   0  0  0  0  0  0  0  0  0  0  0  0
  147.6203  137.5434  154.2077 C   0  0  0  0  0  0  0  0  0  0  0  0
  146.9947  138.1408  155.0840 O   0  0  0  0  0  0  0  0  0  0  0  0
  148.8887  137.8024  153.8475 N   0  0  0  0  0  0  0  0  0  0  0  0
  149.7559  138.7870  154.3852 C   0  0  0  0  0  0  0  0  0  0  0  0
  149.2428  139.8794  155.1340 C   0  0  0  0  0  0  0  0  0  0  0  0
  150.3679  140.5817  155.4643 C   0  0  0  0  0  0  0  0  0  0  0  0
  150.5904  141.8362  156.2372 C   0  0  0  0  0  0  0  0  0  0  0  0
  151.4736  139.9703  154.9587 O   0  0  0  0  0  0  0  0  0  0  0  0
  151.0746  138.8195  154.2687 N   0  0  0  0  0  0  0  0  0  0  0  0
  149.2614  133.4367  154.7870 H   0  0  0  0  0  0  0  0  0  0  0  0
  148.7182  134.7134  153.6909 H   0  0  0  0  0  0  0  0  0  0  0  0
  148.4338  133.0111  153.2876 H   0  0  0  0  0  0  0  0  0  0  0  0
  144.7827  134.0920  153.9154 H   0  0  0  0  0  0  0  0  0  0  0  0
  147.1972  134.1001  152.0589 H   0  0  0  0  0  0  0  0  0  0  0  0
  146.1214  132.7573  152.3505 H   0  0  0  0  0  0  0  0  0  0  0  0
  145.5480  133.9441  150.2307 H   0  0  0  0  0  0  0  0  0  0  0  0
  144.2219  133.9799  151.3678 H   0  0  0  0  0  0  0  0  0  0  0  0
  146.1942  136.2514  150.8230 H   0  0  0  0  0  0  0  0  0  0  0  0
  144.5081  136.2175  150.3710 H   0  0  0  0  0  0  0  0  0  0  0  0
  144.8574  137.5796  152.4374 H   0  0  0  0  0  0  0  0  0  0  0  0
  143.8064  136.2220  152.7287 H   0  0  0  0  0  0  0  0  0  0  0  0
  145.3416  136.3502  154.5733 H   0  0  0  0  0  0  0  0  0  0  0  0
  147.6948  136.1045  152.7891 H   0  0  0  0  0  0  0  0  0  0  0  0
  149.2763  137.2322  153.1105 H   0  0  0  0  0  0  0  0  0  0  0  0
  148.2195  140.1129  155.3881 H   0  0  0  0  0  0  0  0  0  0  0  0
  149.7009  142.1055  156.8068 H   0  0  0  0  0  0  0  0  0  0  0  0
  150.8275  142.6637  155.5685 H   0  0  0  0  0  0  0  0  0  0  0  0
  151.4173  141.7193  156.9379 H   0  0  0  0  0  0  0  0  0  0  0  0
  1  2  1  0  0  0  0
  1 19  1  0  0  0  0
  1 20  1  0  0  0  0
  1 21  1  0  0  0  0
  2  3  1  0  0  0  0
  3  8  1  0  0  0  0
  3  4  1  0  0  0  0
  3 22  1  0  0  0  0
  4  5  1  0  0  0  0
  4 23  1  0  0  0  0
  4 24  1  0  0  0  0
  5  6  1  0  0  0  0
  5 25  1  0  0  0  0
  5 26  1  0  0  0  0
  6  7  1  0  0  0  0
  6 27  1  0  0  0  0
  6 28  1  0  0  0  0
  7  8  1  0  0  0  0
  7 29  1  0  0  0  0
  7 30  1  0  0  0  0
  8  9  1  0  0  0  0
  8 31  1  0  0  0  0
  9 10  1  0  0  0  0
  9 32  1  0  0  0  0
 10 11  2  0  0  0  0
 10 12  1  0  0  0  0
 12 13  1  0  0  0  0
 12 33  1  0  0  0  0
 13 18  2  0  0  0  0
 13 14  1  0  0  0  0
 14 15  2  0  0  0  0
 14 34  1  0  0  0  0
 15 16  1  0  0  0  0
 15 17  1  0  0  0  0
 16 35  1  0  0  0  0
 16 36  1  0  0  0  0
 16 37  1  0  0  0  0
 17 18  1  0  0  0  0
M  END
> <s_m_source_file>
AV-unprocessed.smi

> <i_m_source_file_index>
2856

> <i_lp_mmshare_version>
43012

> <i_f3d_flags>
0

> <s_epik_input>
W0NIM11TW0NAQEhdMVtDSDJdW0NIMl1bQ0gyXVtDSDJdW0NASF0xW05IXUMoPU8pW05IXWMyW2NIXWMoW0NIM10pb24y

> <s_epik_cmdline>
J2VwaWtfcHl0aG9uJywgJy1waCcsICc3LjAnLCAnLXRuJywgJzgnLCAnLW1hJywgJzIwMCcsICctbWV0YWxfYmluZGluZycsICctaW1hZScsICc8aW5maWxlLm1hZT4nLCAnLW9tYWUnLCAnPG91dGZpbGUubWFlPic=

> <r_lp_tautomer_probability>
1

> <r_epik_Ionization_Penalty>
2.20874e-05

> <r_epik_Ionization_Penalty_Charging>
0

> <r_epik_Ionization_Penalty_Neutral>
2.20874e-05

> <r_epik_State_Penalty>
-0

> <r_epik_Charging_Adjusted_Penalty>
0

> <i_epik_Tot_Q>
0

> <i_epik_Tot_abs_Q>
0

> <r_epik_Metal_State_Penalty>
-0

> <b_epik_Metal_Only>
0

> <s_lp_Force_Field>
OPLS_2005

> <r_lp_Energy>
4.88366

> <b_lp_Chiralities_Consistent>
1

> <s_lp_Variant>
AV-unprocessed.smi:2856-3

> <Gold.Version>
5.8.1

> <Gold.Id.Protein>
6NUR|6NUR_protein|mol2

> <Gold.PLP.Fitness>
30.8801

> <Gold.PLP.PLP>
-24.2246

> <Gold.PLP.part.hbond>
-3.2223

> <Gold.PLP.part.metal>
0.0000

> <Gold.PLP.part.buried>
-2.7529

> <Gold.PLP.part.nonpolar>
-19.4312

> <Gold.PLP.part.repulsive>
0.2810

> <Gold.PLP.ligand.clash>
0.0000

> <Gold.PLP.ligand.torsion>
0.5350

> <Gold.PLP.Chemscore.Hbond>
2.5700

> <Gold.PLP.Chemscore.CHOScore>
0.0000

> <Gold.PLP.Chemscore.Metal>
0.0000

> <Gold.Chemscore.Hbonds>
donor molecule, donor type, donor heavy atom, donor atom, acceptor molecule, acceptor atom, score
      L1  H     9    32       P1  7948  0.96
      L1  H    12    33       P1  7948  0.96
      P1  H  7989  7998       L1    17  0.60

> <Gold.PLP.Chemscore.Internal.Correction>
0.0155

> <Gold.Rescore>
     Score         DG    S(hbond)    S(metal)    S(lipo)     H(rot)  DE(clash)    DE(int)     intcor
     12.51     -14.34       1.90        0.00      47.94       1.21       0.01       1.82       ----

> <Gold.Chemscore.Fitness>
12.5097

> <Gold.Chemscore.DG>
-14.3396

> <Gold.Chemscore.ZeroCoef>
-5.4800

> <Gold.Chemscore.Hbond>
1.9013

> <Gold.Chemscore.Metal>
0.0000

> <Gold.Chemscore.Lipo>
47.9415

> <Gold.Chemscore.Internal_Hbond>
0.0000

> <Gold.Chemscore.DEClash>
0.0141

> <Gold.Chemscore.DEInternal>
1.8158

> <Gold.Chemscore.Rot>
1.2109

> <Gold.Chemscore.Internal.Correction>
   9.000000E+99

> <Gold.Chemscore.Hbonds>
donor molecule, donor type, donor heavy atom, donor atom, acceptor molecule, acceptor atom, score
      L1  H     9    32       P1  7948  0.89
      L1  H    12    33       P1  7948  0.89
      P1  H  7989  7998       L1    17  0.01

> <Gold.Chemscore.Hbond.Weighted>
-6.3505

> <Gold.Chemscore.Metal.Weighted>
-0.0000

> <Gold.Chemscore.Lipo.Weighted>
-5.6092

> <Gold.Chemscore.Internal_Hbond.Weighted>
0.0000

> <Gold.Chemscore.DEClash.Weighted>
0.0141

> <Gold.Chemscore.DEInternal.Weighted>
1.8158

> <Gold.Chemscore.Rot.Weighted>
3.1000

> <Gold.Chemscore.Internal.Correction.Weighted>
   9.000000E+99

> <Gold.Protein.RotatedTorsions>
[ 6907 6896 6895 6894 ] final   73.76 input  -60.11 | X-H torsion
[ 7974 7965 7964 7962 ] final  -38.39 input  175.53 | X-H torsion
[ 8008 7997 7996 7995 ] final    4.47 input   59.86 | X-H torsion
[ 10167 10162 10161 10158 ] final -117.47 input  -65.29 | X-H torsion
[ 10718 10713 10712 10709 ] final -102.18 input   66.30 | X-H torsion
[ 10763 10752 10751 10750 ] final  -13.04 input  -60.55 | X-H torsion
[ 11005 11000 10999 10996 ] final   70.78 input  -57.11 | X-H torsion

> <Gold.Protein.ActiveResidues>
 VAL166  LYS551  ARG553  GLY616  TRP617  ASP618  TYR619  PRO620  LYS621  CYS622 
 ASP623  PHE694  ASN695  SER759  ASP760  ASP761  ALA762  ILE779  LEU786  VAL792 
 PHE793  MET794  SER795  GLU796  ALA797  LYS798  CYS799  TRP800  GLU811  SER814 

> <Gold.Protein.RotatedAtoms>
  152.4940  134.4373  159.9531 H   0  0  0  0  0  0  0  0  0  0  0  0  # atno 6907 bound_to 6896
  151.4355  133.3652  159.2782 H   0  0  0  0  0  0  0  0  0  0  0  0  # atno 6908 bound_to 6896
  150.9124  134.8564  159.7494 H   0  0  0  0  0  0  0  0  0  0  0  0  # atno 6909 bound_to 6896
  146.0490  140.6506  142.9051 H   0  0  0  0  0  0  0  0  0  0  0  0  # atno 7974 bound_to 7965
  154.7163  140.2703  155.6583 H   0  0  0  0  0  0  0  0  0  0  0  0  # atno 8008 bound_to 7997
  156.2810  140.2743  156.1745 H   0  0  0  0  0  0  0  0  0  0  0  0  # atno 8009 bound_to 7997
  155.0567  140.0371  157.2552 H   0  0  0  0  0  0  0  0  0  0  0  0  # atno 8010 bound_to 7997
  140.0680  143.4904  152.1995 H   0  0  0  0  0  0  0  0  0  0  0  0  # atno 10167 bound_to 10162
  156.0220  130.5408  150.7070 H   0  0  0  0  0  0  0  0  0  0  0  0  # atno 10718 bound_to 10713
  153.5074  135.7016  153.5799 H   0  0  0  0  0  0  0  0  0  0  0  0  # atno 10763 bound_to 10752
  153.3905  135.3897  155.1919 H   0  0  0  0  0  0  0  0  0  0  0  0  # atno 10764 bound_to 10752
  154.8706  135.3857  154.4550 H   0  0  0  0  0  0  0  0  0  0  0  0  # atno 10765 bound_to 10752
  139.9579  134.7112  156.0712 H   0  0  0  0  0  0  0  0  0  0  0  0  # atno 11005 bound_to 11000
  144.7113  140.4048  143.7078 LP  0  0  0  0  0  0  0  0  0  0  0  0  # atno 17320 bound_to 7965
  145.6756  139.1608  143.2730 LP  0  0  0  0  0  0  0  0  0  0  0  0  # atno 17321 bound_to 7965
  139.5853  144.7528  151.3536 LP  0  0  0  0  0  0  0  0  0  0  0  0  # atno 17342 bound_to 10162
  140.7139  143.7317  150.7619 LP  0  0  0  0  0  0  0  0  0  0  0  0  # atno 17343 bound_to 10162
  157.4717  131.0894  151.0635 LP  0  0  0  0  0  0  0  0  0  0  0  0  # atno 17370 bound_to 10713
  157.1093  130.6015  149.5478 LP  0  0  0  0  0  0  0  0  0  0  0  0  # atno 17371 bound_to 10713
  141.1252  133.6601  156.3319 LP  0  0  0  0  0  0  0  0  0  0  0  0  # atno 17394 bound_to 11000
  140.5568  134.5974  157.5423 LP  0  0  0  0  0  0  0  0  0  0  0  0  # atno 17395 bound_to 11000

$$$$
