AV-unprocessed.smi:2451|AV-procd|sdf|9670|dock2
  -GOLD-   2272013303D 1   1.00000     0.00000
 Structure written by MMmdl.
 38 39  0  0  0  0  0  0  0  0  1 V2000
  152.1919  144.5716  158.0384 C   0  0  0  0  0  0  0  0  0  0  0  0
  152.7682  144.0119  159.3494 C   0  0  1  0  0  0  0  0  0  0  0  0
  151.9216  144.4282  160.5714 C   0  0  0  0  0  0  0  0  0  0  0  0
  152.5535  143.9524  161.8906 C   0  0  0  0  0  0  0  0  0  0  0  0
  152.8258  142.4402  161.8790 C   0  0  0  0  0  0  0  0  0  0  0  0
  153.6684  142.0473  160.6524 C   0  0  1  0  0  0  0  0  0  0  0  0
  153.9565  140.6104  160.6659 N   0  0  0  0  0  0  0  0  0  0  0  0
  155.1081  140.0076  161.7979 S   0  0  0  0  0  0  0  0  0  0  0  0
  156.3041  139.6038  161.0424 O   0  0  0  0  0  0  0  0  0  0  0  0
  155.2231  140.9985  162.8789 O   0  0  0  0  0  0  0  0  0  0  0  0
  154.2805  138.4945  162.4446 C   0  0  0  0  0  0  0  0  0  0  0  0
  154.0955  137.5058  161.3291 C   0  0  0  0  0  0  0  0  0  0  0  0
  155.0444  136.5952  160.7868 C   0  0  0  0  0  0  0  0  0  0  0  0
  154.3441  135.9501  159.8085 C   0  0  0  0  0  0  0  0  0  0  0  0
  153.0733  136.4214  159.7445 O   0  0  0  0  0  0  0  0  0  0  0  0
  152.9246  137.4154  160.7183 N   0  0  0  0  0  0  0  0  0  0  0  0
  153.0093  142.4786  159.3183 C   0  0  1  0  0  0  0  0  0  0  0  0
  151.7364  141.6675  158.9798 C   0  0  0  0  0  0  0  0  0  0  0  0
  151.1664  144.2422  157.8712 H   0  0  0  0  0  0  0  0  0  0  0  0
  152.7902  144.2624  157.1810 H   0  0  0  0  0  0  0  0  0  0  0  0
  152.1827  145.6619  158.0547 H   0  0  0  0  0  0  0  0  0  0  0  0
  153.7467  144.4803  159.4685 H   0  0  0  0  0  0  0  0  0  0  0  0
  151.8160  145.5133  160.5957 H   0  0  0  0  0  0  0  0  0  0  0  0
  150.9107  144.0291  160.4833 H   0  0  0  0  0  0  0  0  0  0  0  0
  153.4904  144.4860  162.0552 H   0  0  0  0  0  0  0  0  0  0  0  0
  151.9031  144.2071  162.7278 H   0  0  0  0  0  0  0  0  0  0  0  0
  153.3459  142.1573  162.7949 H   0  0  0  0  0  0  0  0  0  0  0  0
  151.8817  141.8950  161.8822 H   0  0  0  0  0  0  0  0  0  0  0  0
  154.6195  142.5761  160.7346 H   0  0  0  0  0  0  0  0  0  0  0  0
  153.0975  140.0611  160.6812 H   0  0  0  0  0  0  0  0  0  0  0  0
  154.8966  138.0821  163.2441 H   0  0  0  0  0  0  0  0  0  0  0  0
  153.3229  138.7833  162.8773 H   0  0  0  0  0  0  0  0  0  0  0  0
  156.0732  136.4374  161.0746 H   0  0  0  0  0  0  0  0  0  0  0  0
  154.5971  135.1699  159.1059 H   0  0  0  0  0  0  0  0  0  0  0  0
  153.7286  142.2773  158.5229 H   0  0  0  0  0  0  0  0  0  0  0  0
  150.9431  141.8184  159.7110 H   0  0  0  0  0  0  0  0  0  0  0  0
  151.9434  140.5982  158.9391 H   0  0  0  0  0  0  0  0  0  0  0  0
  151.3391  141.9385  158.0022 H   0  0  0  0  0  0  0  0  0  0  0  0
  1  2  1  0  0  0  0
  1 19  1  0  0  0  0
  1 20  1  0  0  0  0
  1 21  1  0  0  0  0
  2 17  1  0  0  0  0
  2  3  1  0  0  0  0
  2 22  1  0  0  0  0
  3  4  1  0  0  0  0
  3 23  1  0  0  0  0
  3 24  1  0  0  0  0
  4  5  1  0  0  0  0
  4 25  1  0  0  0  0
  4 26  1  0  0  0  0
  5  6  1  0  0  0  0
  5 27  1  0  0  0  0
  5 28  1  0  0  0  0
  6  7  1  0  0  0  0
  6 17  1  0  0  0  0
  6 29  1  0  0  0  0
  7  8  1  0  0  0  0
  7 30  1  0  0  0  0
  8  9  2  0  0  0  0
  8 10  2  0  0  0  0
  8 11  1  0  0  0  0
 11 12  1  0  0  0  0
 11 31  1  0  0  0  0
 11 32  1  0  0  0  0
 12 16  2  0  0  0  0
 12 13  1  0  0  0  0
 13 14  2  0  0  0  0
 13 33  1  0  0  0  0
 14 15  1  0  0  0  0
 14 34  1  0  0  0  0
 15 16  1  0  0  0  0
 17 18  1  0  0  0  0
 17 35  1  0  0  0  0
 18 36  1  0  0  0  0
 18 37  1  0  0  0  0
 18 38  1  0  0  0  0
M  END
> <s_m_source_file>
AV-unprocessed.smi

> <i_m_source_file_index>
2451

> <i_lp_mmshare_version>
43012

> <i_f3d_flags>
0

> <s_epik_input>
W0NIM11bQ0BASF0xW0NIMl1bQ0gyXVtDSDJdW0NASF0oW0NASF0xW0NIM10pW05IXVMoPU8pKD1PKVtDSDJdYzJbY0hdW2NIXW9uMg==

> <s_epik_cmdline>
J2VwaWtfcHl0aG9uJywgJy1waCcsICc3LjAnLCAnLXRuJywgJzgnLCAnLW1hJywgJzIwMCcsICctbWV0YWxfYmluZGluZycsICctaW1hZScsICc8aW5maWxlLm1hZT4nLCAnLW9tYWUnLCAnPG91dGZpbGUubWFlPic=

> <r_lp_tautomer_probability>
1

> <r_epik_Ionization_Penalty>
8.73668e-05

> <r_epik_Ionization_Penalty_Charging>
0

> <r_epik_Ionization_Penalty_Neutral>
8.73668e-05

> <r_epik_State_Penalty>
-0

> <r_epik_Charging_Adjusted_Penalty>
0

> <i_epik_Tot_Q>
0

> <i_epik_Tot_abs_Q>
0

> <r_epik_Metal_State_Penalty>
0.0716439

> <b_epik_Metal_Only>
0

> <s_lp_Force_Field>
OPLS_2005

> <r_lp_Energy>
8.89421

> <b_lp_Chiralities_Consistent>
1

> <s_lp_Variant>
AV-unprocessed.smi:2451-2

> <Gold.Version>
5.8.1

> <Gold.Id.Protein>
6NUR|6NUR_protein|mol2

> <Gold.PLP.Fitness>
43.5101

> <Gold.PLP.PLP>
-41.9244

> <Gold.PLP.part.hbond>
-2.0000

> <Gold.PLP.part.metal>
0.0000

> <Gold.PLP.part.buried>
-5.6804

> <Gold.PLP.part.nonpolar>
-33.2823

> <Gold.PLP.part.repulsive>
0.0000

> <Gold.PLP.ligand.clash>
0.0000

> <Gold.PLP.ligand.torsion>
0.7806

> <Gold.PLP.Chemscore.Hbond>
1.0000

> <Gold.PLP.Chemscore.CHOScore>
0.0000

> <Gold.PLP.Chemscore.Metal>
0.0000

> <Gold.Chemscore.Hbonds>
donor molecule, donor type, donor heavy atom, donor atom, acceptor molecule, acceptor atom, score
      P1  H  6896  6907       L1    15  0.90

> <Gold.PLP.Chemscore.Internal.Correction>
0.1469

> <Gold.Rescore>
     Score         DG    S(hbond)    S(metal)    S(lipo)     H(rot)  DE(clash)    DE(int)     intcor
     14.83     -17.42       0.91        0.00     112.23       1.66       1.61       0.97       ----

> <Gold.Chemscore.Fitness>
14.8301

> <Gold.Chemscore.DG>
-17.4171

> <Gold.Chemscore.ZeroCoef>
-5.4800

> <Gold.Chemscore.Hbond>
0.9142

> <Gold.Chemscore.Metal>
0.0000

> <Gold.Chemscore.Lipo>
112.2260

> <Gold.Chemscore.Internal_Hbond>
0.0000

> <Gold.Chemscore.DEClash>
1.6143

> <Gold.Chemscore.DEInternal>
0.9727

> <Gold.Chemscore.Rot>
1.6588

> <Gold.Chemscore.Internal.Correction>
   9.000000E+99

> <Gold.Chemscore.Hbonds>
donor molecule, donor type, donor heavy atom, donor atom, acceptor molecule, acceptor atom, score
      P1  H  6896  6907       L1    15  0.17

> <Gold.Chemscore.Hbond.Weighted>
-3.0533

> <Gold.Chemscore.Metal.Weighted>
-0.0000

> <Gold.Chemscore.Lipo.Weighted>
-13.1304

> <Gold.Chemscore.Internal_Hbond.Weighted>
0.0000

> <Gold.Chemscore.DEClash.Weighted>
1.6143

> <Gold.Chemscore.DEInternal.Weighted>
0.9727

> <Gold.Chemscore.Rot.Weighted>
4.2466

> <Gold.Chemscore.Internal.Correction.Weighted>
   9.000000E+99

> <Gold.Protein.RotatedTorsions>
[ 6907 6896 6895 6894 ] final   41.43 input  -60.11 | X-H torsion
[ 7974 7965 7964 7962 ] final  -14.81 input  175.53 | X-H torsion
[ 8008 7997 7996 7995 ] final  -64.13 input   59.86 | X-H torsion
[ 10167 10162 10161 10158 ] final   13.48 input  -65.29 | X-H torsion
[ 10718 10713 10712 10709 ] final  145.75 input   66.30 | X-H torsion
[ 10763 10752 10751 10750 ] final  143.80 input  -60.55 | X-H torsion
[ 11005 11000 10999 10996 ] final  177.47 input  -57.11 | X-H torsion

> <Gold.Protein.ActiveResidues>
 VAL166  LYS551  ARG553  GLY616  TRP617  ASP618  TYR619  PRO620  LYS621  CYS622 
 ASP623  PHE694  ASN695  SER759  ASP760  ASP761  ALA762  ILE779  LEU786  VAL792 
 PHE793  MET794  SER795  GLU796  ALA797  LYS798  CYS799  TRP800  GLU811  SER814 

> <Gold.Protein.RotatedAtoms>
  152.1952  134.8637  160.0513 H   0  0  0  0  0  0  0  0  0  0  0  0  # atno 6907 bound_to 6896
  151.9511  133.3661  159.4008 H   0  0  0  0  0  0  0  0  0  0  0  0  # atno 6908 bound_to 6896
  150.6943  134.4263  159.5272 H   0  0  0  0  0  0  0  0  0  0  0  0  # atno 6909 bound_to 6896
  146.2059  140.3402  142.8407 H   0  0  0  0  0  0  0  0  0  0  0  0  # atno 7974 bound_to 7965
  154.4594  140.0960  156.6849 H   0  0  0  0  0  0  0  0  0  0  0  0  # atno 8008 bound_to 7997
  155.5041  140.3474  155.4358 H   0  0  0  0  0  0  0  0  0  0  0  0  # atno 8009 bound_to 7997
  156.0840  140.1380  156.9665 H   0  0  0  0  0  0  0  0  0  0  0  0  # atno 8010 bound_to 7997
  140.6000  143.8624  150.6955 H   0  0  0  0  0  0  0  0  0  0  0  0  # atno 10167 bound_to 10162
  157.3415  131.0936  151.1078 H   0  0  0  0  0  0  0  0  0  0  0  0  # atno 10718 bound_to 10713
  153.9783  135.2944  155.3422 H   0  0  0  0  0  0  0  0  0  0  0  0  # atno 10763 bound_to 10752
  154.7283  135.5079  153.8926 H   0  0  0  0  0  0  0  0  0  0  0  0  # atno 10764 bound_to 10752
  153.0867  135.6695  154.0049 H   0  0  0  0  0  0  0  0  0  0  0  0  # atno 10765 bound_to 10752
  140.3844  134.6917  157.4470 H   0  0  0  0  0  0  0  0  0  0  0  0  # atno 11005 bound_to 11000
  144.8791  140.7376  143.5998 LP  0  0  0  0  0  0  0  0  0  0  0  0  # atno 17320 bound_to 7965
  145.3322  139.1756  143.4530 LP  0  0  0  0  0  0  0  0  0  0  0  0  # atno 17321 bound_to 7965
  140.2168  143.3840  152.1675 LP  0  0  0  0  0  0  0  0  0  0  0  0  # atno 17342 bound_to 10162
  139.5284  144.7130  151.5144 LP  0  0  0  0  0  0  0  0  0  0  0  0  # atno 17343 bound_to 10162
  157.2288  130.6515  149.5841 LP  0  0  0  0  0  0  0  0  0  0  0  0  # atno 17370 bound_to 10713
  155.9708  130.4605  150.6076 LP  0  0  0  0  0  0  0  0  0  0  0  0  # atno 17371 bound_to 10713
  140.0453  134.6208  155.8928 LP  0  0  0  0  0  0  0  0  0  0  0  0  # atno 17394 bound_to 11000
  141.1912  133.6571  156.5447 LP  0  0  0  0  0  0  0  0  0  0  0  0  # atno 17395 bound_to 11000

$$$$
