AV-unprocessed.smi:1493|AV-procd|sdf|6051|dock1
  -GOLD-   22720 6163D 1   1.00000     0.00000
 Structure written by MMmdl.
 34 34  0  0  0  0  0  0  0  0  1 V2000
  152.4304  143.1887  161.6325 C   0  0  0  0  0  0  0  0  0  0  0  0
  152.8266  143.8231  160.2950 C   0  0  0  0  0  0  0  0  0  0  0  0
  152.2395  143.0705  159.0880 C   0  0  0  0  0  0  0  0  0  0  0  0
  150.8117  143.5150  158.7172 C   0  0  1  0  0  0  0  0  0  0  0  0
  150.7007  145.0423  158.6074 C   0  0  0  0  0  0  0  0  0  0  0  0
  150.4051  142.9089  157.4507 N   0  0  0  0  0  0  0  0  0  0  0  0
  150.6326  141.6416  157.0727 C   0  0  0  0  0  0  0  0  0  0  0  0
  151.2374  140.8240  157.7680 O   0  0  0  0  0  0  0  0  0  0  0  0
  150.1078  141.2572  155.6813 C   0  0  0  0  0  0  0  0  0  0  0  0
  150.1536  139.8123  155.4147 N   0  0  0  0  0  0  0  0  0  0  0  0
  148.9082  139.2295  155.2359 N   0  0  0  0  0  0  0  0  0  0  0  0
  148.8175  137.9676  154.9832 C   0  0  0  0  0  0  0  0  0  0  0  0
  147.5648  137.4323  154.8100 O   0  0  0  0  0  0  0  0  0  0  0  0
  149.9974  137.1369  154.8845 C   0  0  0  0  0  0  0  0  0  0  0  0
  151.2062  137.7129  155.0641 C   0  0  0  0  0  0  0  0  0  0  0  0
  151.3452  139.1417  155.3520 C   0  0  0  0  0  0  0  0  0  0  0  0
  152.4327  139.6925  155.5217 O   0  0  0  0  0  0  0  0  0  0  0  0
  147.6398  136.8567  154.0645 H   0  0  0  0  0  0  0  0  0  0  0  0
  152.8595  143.7428  162.4675 H   0  0  0  0  0  0  0  0  0  0  0  0
  152.7833  142.1593  161.7003 H   0  0  0  0  0  0  0  0  0  0  0  0
  151.3475  143.1819  161.7591 H   0  0  0  0  0  0  0  0  0  0  0  0
  152.4964  144.8622  160.2861 H   0  0  0  0  0  0  0  0  0  0  0  0
  153.9142  143.8456  160.2171 H   0  0  0  0  0  0  0  0  0  0  0  0
  152.8929  143.2243  158.2282 H   0  0  0  0  0  0  0  0  0  0  0  0
  152.2495  141.9978  159.2870 H   0  0  0  0  0  0  0  0  0  0  0  0
  150.1464  143.1943  159.5206 H   0  0  0  0  0  0  0  0  0  0  0  0
  150.9833  145.5247  159.5435 H   0  0  0  0  0  0  0  0  0  0  0  0
  149.6786  145.3455  158.3777 H   0  0  0  0  0  0  0  0  0  0  0  0
  151.3489  145.4330  157.8222 H   0  0  0  0  0  0  0  0  0  0  0  0
  149.9051  143.5058  156.8077 H   0  0  0  0  0  0  0  0  0  0  0  0
  149.0863  141.6244  155.5641 H   0  0  0  0  0  0  0  0  0  0  0  0
  150.6982  141.7958  154.9380 H   0  0  0  0  0  0  0  0  0  0  0  0
  149.9040  136.0820  154.6719 H   0  0  0  0  0  0  0  0  0  0  0  0
  152.0960  137.1047  154.9929 H   0  0  0  0  0  0  0  0  0  0  0  0
  1  2  1  0  0  0  0
  1 19  1  0  0  0  0
  1 20  1  0  0  0  0
  1 21  1  0  0  0  0
  2  3  1  0  0  0  0
  2 22  1  0  0  0  0
  2 23  1  0  0  0  0
  3  4  1  0  0  0  0
  3 24  1  0  0  0  0
  3 25  1  0  0  0  0
  4  5  1  0  0  0  0
  4  6  1  0  0  0  0
  4 26  1  0  0  0  0
  5 27  1  0  0  0  0
  5 28  1  0  0  0  0
  5 29  1  0  0  0  0
  6  7  1  0  0  0  0
  6 30  1  0  0  0  0
  7  8  2  0  0  0  0
  7  9  1  0  0  0  0
  9 31  1  0  0  0  0
  9 32  1  0  0  0  0
  9 10  1  0  0  0  0
 10 11  1  0  0  0  0
 10 16  1  0  0  0  0
 11 12  2  0  0  0  0
 12 13  1  0  0  0  0
 12 14  1  0  0  0  0
 13 18  1  0  0  0  0
 14 33  1  0  0  0  0
 14 15  2  0  0  0  0
 15 34  1  0  0  0  0
 15 16  1  0  0  0  0
 16 17  2  0  0  0  0
M  END
> <s_m_source_file>
AV-unprocessed.smi

> <i_m_source_file_index>
1493

> <i_lp_mmshare_version>
43012

> <i_f3d_flags>
0

> <s_epik_input>
W0NIM11bQ0gyXVtDSDJdW0NASF0oW0NIM10pW05IXUMoPU8pW0NIMl1uMVtuSF1jKD1PKVtjSF1bY0hdYzE9Tw==

> <s_epik_cmdline>
J2VwaWtfcHl0aG9uJywgJy1waCcsICc3LjAnLCAnLXRuJywgJzgnLCAnLW1hJywgJzIwMCcsICctbWV0YWxfYmluZGluZycsICctaW1hZScsICc8aW5maWxlLm1hZT4nLCAnLW9tYWUnLCAnPG91dGZpbGUubWFlPic=

> <r_lp_tautomer_probability>
0.9996

> <r_epik_Ionization_Penalty>
2.12047

> <r_epik_Ionization_Penalty_Charging>
3.81971e-08

> <r_epik_Ionization_Penalty_Neutral>
2.12047

> <r_epik_State_Penalty>
1.69728

> <r_epik_Charging_Adjusted_Penalty>
1.69728

> <i_epik_Tot_Q>
0

> <i_epik_Tot_abs_Q>
0

> <r_epik_Metal_State_Penalty>
1.69728

> <b_epik_Metal_Only>
0

> <s_lp_Force_Field>
OPLS_2005

> <r_lp_Energy>
15.6532

> <b_lp_Chiralities_Consistent>
1

> <s_lp_Variant>
AV-unprocessed.smi:1493-4

> <Gold.Version>
5.8.1

> <Gold.Id.Protein>
6NUR|6NUR_protein|mol2

> <Gold.PLP.Fitness>
42.6709

> <Gold.PLP.PLP>
-34.7300

> <Gold.PLP.part.hbond>
-3.9489

> <Gold.PLP.part.metal>
0.0000

> <Gold.PLP.part.buried>
-0.7391

> <Gold.PLP.part.nonpolar>
-29.8797

> <Gold.PLP.part.repulsive>
0.1087

> <Gold.PLP.ligand.clash>
0.0000

> <Gold.PLP.ligand.torsion>
0.5414

> <Gold.PLP.Chemscore.Hbond>
2.9913

> <Gold.PLP.Chemscore.CHOScore>
0.0000

> <Gold.PLP.Chemscore.Metal>
0.0000

> <Gold.Chemscore.Hbonds>
donor molecule, donor type, donor heavy atom, donor atom, acceptor molecule, acceptor atom, score
      L1  H     6    30       P1  8028  1.00
      P1  H  7997  8008       L1    17  0.86

> <Gold.PLP.Chemscore.Internal.Correction>
0.0499

> <Gold.Rescore>
     Score         DG    S(hbond)    S(metal)    S(lipo)     H(rot)  DE(clash)    DE(int)     intcor
     12.44     -17.20       2.97        0.00      76.28       2.78       0.18       4.58       ----

> <Gold.Chemscore.Fitness>
12.4377

> <Gold.Chemscore.DG>
-17.1952

> <Gold.Chemscore.ZeroCoef>
-5.4800

> <Gold.Chemscore.Hbond>
2.9652

> <Gold.Chemscore.Metal>
0.0000

> <Gold.Chemscore.Lipo>
76.2758

> <Gold.Chemscore.Internal_Hbond>
0.0000

> <Gold.Chemscore.DEClash>
0.1780

> <Gold.Chemscore.DEInternal>
4.5795

> <Gold.Chemscore.Rot>
2.7785

> <Gold.Chemscore.Internal.Correction>
   9.000000E+99

> <Gold.Chemscore.Hbonds>
donor molecule, donor type, donor heavy atom, donor atom, acceptor molecule, acceptor atom, score
      L1  H     6    30       P1  8028  0.99
      P1  H  7997  8008       L1    17  0.84

> <Gold.Chemscore.Hbond.Weighted>
-9.9039

> <Gold.Chemscore.Metal.Weighted>
-0.0000

> <Gold.Chemscore.Lipo.Weighted>
-8.9243

> <Gold.Chemscore.Internal_Hbond.Weighted>
0.0000

> <Gold.Chemscore.DEClash.Weighted>
0.1780

> <Gold.Chemscore.DEInternal.Weighted>
4.5795

> <Gold.Chemscore.Rot.Weighted>
7.1129

> <Gold.Chemscore.Internal.Correction.Weighted>
   9.000000E+99

> <Gold.Protein.RotatedTorsions>
[ 6907 6896 6895 6894 ] final  -93.56 input  -60.11 | X-H torsion
[ 7974 7965 7964 7962 ] final -179.35 input  175.53 | X-H torsion
[ 8008 7997 7996 7995 ] final  -22.03 input   59.86 | X-H torsion
[ 10167 10162 10161 10158 ] final  151.30 input  -65.29 | X-H torsion
[ 10718 10713 10712 10709 ] final  -24.56 input   66.30 | X-H torsion
[ 10763 10752 10751 10750 ] final  174.93 input  -60.55 | X-H torsion
[ 11005 11000 10999 10996 ] final   51.71 input  -57.11 | X-H torsion

> <Gold.Protein.ActiveResidues>
 VAL166  LYS551  ARG553  GLY616  TRP617  ASP618  TYR619  PRO620  LYS621  CYS622 
 ASP623  PHE694  ASN695  SER759  ASP760  ASP761  ALA762  ILE779  LEU786  VAL792 
 PHE793  MET794  SER795  GLU796  ALA797  LYS798  CYS799  TRP800  GLU811  SER814 

> <Gold.Protein.RotatedAtoms>
  150.6925  134.1948  159.4299 H   0  0  0  0  0  0  0  0  0  0  0  0  # atno 6907 bound_to 6896
  151.9918  134.9973  160.0571 H   0  0  0  0  0  0  0  0  0  0  0  0  # atno 6908 bound_to 6896
  152.1661  133.4578  159.4922 H   0  0  0  0  0  0  0  0  0  0  0  0  # atno 6909 bound_to 6896
  144.7136  140.0731  143.6428 H   0  0  0  0  0  0  0  0  0  0  0  0  # atno 7974 bound_to 7965
  154.4669  140.2019  156.0095 H   0  0  0  0  0  0  0  0  0  0  0  0  # atno 8008 bound_to 7997
  156.0942  140.3253  155.7827 H   0  0  0  0  0  0  0  0  0  0  0  0  # atno 8009 bound_to 7997
  155.4905  140.0546  157.2945 H   0  0  0  0  0  0  0  0  0  0  0  0  # atno 8010 bound_to 7997
  139.4842  144.5452  151.7497 H   0  0  0  0  0  0  0  0  0  0  0  0  # atno 10167 bound_to 10162
  156.4760  130.4535  149.6840 H   0  0  0  0  0  0  0  0  0  0  0  0  # atno 10718 bound_to 10713
  154.4606  135.2767  155.1715 H   0  0  0  0  0  0  0  0  0  0  0  0  # atno 10763 bound_to 10752
  154.3505  135.6151  153.5644 H   0  0  0  0  0  0  0  0  0  0  0  0  # atno 10764 bound_to 10752
  152.9854  135.5810  154.4968 H   0  0  0  0  0  0  0  0  0  0  0  0  # atno 10765 bound_to 10752
  140.0910  134.5209  155.8852 H   0  0  0  0  0  0  0  0  0  0  0  0  # atno 11005 bound_to 11000
  145.9766  139.2910  143.1067 LP  0  0  0  0  0  0  0  0  0  0  0  0  # atno 17320 bound_to 7965
  145.9057  140.9214  143.0480 LP  0  0  0  0  0  0  0  0  0  0  0  0  # atno 17321 bound_to 7965
  140.4997  144.1187  150.5968 LP  0  0  0  0  0  0  0  0  0  0  0  0  # atno 17342 bound_to 10162
  140.4076  143.2672  151.9872 LP  0  0  0  0  0  0  0  0  0  0  0  0  # atno 17343 bound_to 10162
  156.3570  130.7461  151.2428 LP  0  0  0  0  0  0  0  0  0  0  0  0  # atno 17370 bound_to 10713
  157.7487  131.0361  150.4394 LP  0  0  0  0  0  0  0  0  0  0  0  0  # atno 17371 bound_to 10713
  141.2078  133.6667  156.6327 LP  0  0  0  0  0  0  0  0  0  0  0  0  # atno 17394 bound_to 11000
  140.3352  134.7895  157.4356 LP  0  0  0  0  0  0  0  0  0  0  0  0  # atno 17395 bound_to 11000

$$$$
