AV-unprocessed.smi:907|AV-procd|sdf|4106|dock2
  -GOLD-   22720 2 03D 1   1.00000     0.00000
 Structure written by MMmdl.
 53 56  0  0  0  0  0  0  0  0  2 V2000
  152.2501  140.3576  155.5524 O   0  0  0  0  0  0  0  0  0  0  0  0
  151.1251  139.8563  155.5525 C   0  0  0  0  0  0  0  0  0  0  0  0
  150.2193  140.1316  156.5065 N   0  0  0  0  0  0  0  0  0  0  0  0
  150.4296  141.0502  157.6200 C   0  0  0  0  0  0  0  0  0  0  0  0
  151.0510  142.3763  157.1504 C   0  0  0  0  0  0  0  0  0  0  0  0
  151.2949  143.3345  158.3005 C   0  0  0  0  0  0  0  0  0  0  0  0
  152.2789  143.0538  159.2723 C   0  0  0  0  0  0  0  0  0  0  0  0
  152.4726  143.9776  160.3173 C   0  0  0  0  0  0  0  0  0  0  0  0
  151.6803  145.1412  160.3489 C   0  0  0  0  0  0  0  0  0  0  0  0
  150.7255  145.3299  159.3296 C   0  0  0  0  0  0  0  0  0  0  0  0
  150.5314  144.4503  158.3232 N   0  0  0  0  0  0  0  0  0  0  0  0
  150.7235  138.9410  154.6355 N   0  0  0  0  0  0  0  0  0  0  0  0
  151.5833  137.9661  153.9522 C   0  0  0  0  0  0  0  0  0  0  0  0
  151.3536  136.5767  154.5761 C   0  0  0  0  0  0  0  0  0  0  0  0
  149.9166  136.1780  154.5304 N   0  3  0  0  0  0  0  0  0  0  0  0
  149.6763  134.8353  155.1332 C   0  0  2  0  0  0  0  0  0  0  0  0
  150.5910  133.7147  154.5803 C   0  0  0  0  0  0  0  0  0  0  0  0
  149.5970  132.5901  154.2330 C   0  0  2  0  0  0  0  0  0  0  0  0
  148.8613  132.9626  152.9346 C   0  0  0  0  0  0  0  0  0  0  0  0
  147.9489  134.1161  153.3879 C   0  0  0  0  0  0  0  0  0  0  0  0
  148.2659  134.2391  154.8946 C   0  0  1  0  0  0  0  0  0  0  0  0
  148.5014  132.7811  155.2751 C   0  0  0  0  0  0  0  0  0  0  0  0
  149.0217  137.2382  155.0781 C   0  0  0  0  0  0  0  0  0  0  0  0
  149.3106  138.6089  154.4406 C   0  0  0  0  0  0  0  0  0  0  0  0
  149.3246  139.6658  156.4630 H   0  0  0  0  0  0  0  0  0  0  0  0
  149.4855  141.2328  158.1361 H   0  0  0  0  0  0  0  0  0  0  0  0
  151.0877  140.5649  158.3414 H   0  0  0  0  0  0  0  0  0  0  0  0
  151.9965  142.1870  156.6402 H   0  0  0  0  0  0  0  0  0  0  0  0
  150.4018  142.8610  156.4201 H   0  0  0  0  0  0  0  0  0  0  0  0
  152.8734  142.1534  159.2192 H   0  0  0  0  0  0  0  0  0  0  0  0
  153.2157  143.7969  161.0797 H   0  0  0  0  0  0  0  0  0  0  0  0
  151.8017  145.8720  161.1346 H   0  0  0  0  0  0  0  0  0  0  0  0
  150.1010  146.2108  159.3229 H   0  0  0  0  0  0  0  0  0  0  0  0
  151.3268  137.9454  152.8920 H   0  0  0  0  0  0  0  0  0  0  0  0
  152.6445  138.2120  153.9888 H   0  0  0  0  0  0  0  0  0  0  0  0
  151.9700  135.8488  154.0502 H   0  0  0  0  0  0  0  0  0  0  0  0
  151.6924  136.5818  155.6135 H   0  0  0  0  0  0  0  0  0  0  0  0
  149.8316  134.9204  156.2106 H   0  0  0  0  0  0  0  0  0  0  0  0
  151.1620  134.0120  153.7001 H   0  0  0  0  0  0  0  0  0  0  0  0
  151.3009  133.3910  155.3425 H   0  0  0  0  0  0  0  0  0  0  0  0
  150.0469  131.5971  154.2098 H   0  0  0  0  0  0  0  0  0  0  0  0
  149.5436  133.2575  152.1364 H   0  0  0  0  0  0  0  0  0  0  0  0
  148.2665  132.1233  152.5715 H   0  0  0  0  0  0  0  0  0  0  0  0
  148.1382  135.0366  152.8358 H   0  0  0  0  0  0  0  0  0  0  0  0
  146.9015  133.8519  153.2361 H   0  0  0  0  0  0  0  0  0  0  0  0
  147.4779  134.7239  155.4715 H   0  0  0  0  0  0  0  0  0  0  0  0
  147.6313  132.1428  155.1099 H   0  0  0  0  0  0  0  0  0  0  0  0
  148.8514  132.6487  156.3005 H   0  0  0  0  0  0  0  0  0  0  0  0
  147.9770  136.9877  154.8969 H   0  0  0  0  0  0  0  0  0  0  0  0
  149.1514  137.2979  156.1599 H   0  0  0  0  0  0  0  0  0  0  0  0
  148.6404  139.3641  154.8542 H   0  0  0  0  0  0  0  0  0  0  0  0
  149.0923  138.5781  153.3719 H   0  0  0  0  0  0  0  0  0  0  0  0
  149.6784  136.0957  153.5523 H   0  0  0  0  0  0  0  0  0  0  0  0
  1  2  2  0  0  0  0
  2  3  1  0  0  0  0
  2 12  1  0  0  0  0
  3  4  1  0  0  0  0
  3 25  1  0  0  0  0
  4  5  1  0  0  0  0
  4 26  1  0  0  0  0
  4 27  1  0  0  0  0
  5  6  1  0  0  0  0
  5 28  1  0  0  0  0
  5 29  1  0  0  0  0
  6 11  1  0  0  0  0
  6  7  2  0  0  0  0
  7  8  1  0  0  0  0
  7 30  1  0  0  0  0
  8  9  2  0  0  0  0
  8 31  1  0  0  0  0
  9 10  1  0  0  0  0
  9 32  1  0  0  0  0
 10 11  2  0  0  0  0
 10 33  1  0  0  0  0
 12 24  1  0  0  0  0
 12 13  1  0  0  0  0
 13 14  1  0  0  0  0
 13 34  1  0  0  0  0
 13 35  1  0  0  0  0
 14 15  1  0  0  0  0
 14 36  1  0  0  0  0
 14 37  1  0  0  0  0
 15 16  1  0  0  0  0
 15 23  1  0  0  0  0
 15 53  1  0  0  0  0
 16 21  1  0  0  0  0
 16 17  1  0  0  0  0
 16 38  1  0  0  0  0
 17 18  1  0  0  0  0
 17 39  1  0  0  0  0
 17 40  1  0  0  0  0
 18 22  1  0  0  0  0
 18 19  1  0  0  0  0
 18 41  1  0  0  0  0
 19 20  1  0  0  0  0
 19 42  1  0  0  0  0
 19 43  1  0  0  0  0
 20 21  1  0  0  0  0
 20 44  1  0  0  0  0
 20 45  1  0  0  0  0
 21 22  1  0  0  0  0
 21 46  1  0  0  0  0
 22 47  1  0  0  0  0
 22 48  1  0  0  0  0
 23 24  1  0  0  0  0
 23 49  1  0  0  0  0
 23 50  1  0  0  0  0
 24 51  1  0  0  0  0
 24 52  1  0  0  0  0
M  CHG  1  15   1
M  END
> <s_m_source_file>
AV-unprocessed.smi

> <i_m_source_file_index>
907

> <i_lp_mmshare_version>
43012

> <i_f3d_flags>
0

> <s_epik_input>
W0NIMl0xW0NIMl1bQ0BASF0oW0NIMl0yKVtDQEBIXShbQ0gyXVtDQEhdMTIpTihbQ0gyXVtDSDJdMylbQ0gyXVtDSDJdTjNDKD1PKVtOSF1bQ0gyXVtDSDJdYzRbY0hdW2NIXVtjSF1bY0hdbjQ=

> <s_epik_cmdline>
J2VwaWtfcHl0aG9uJywgJy1waCcsICc3LjAnLCAnLXRuJywgJzgnLCAnLW1hJywgJzIwMCcsICctbWV0YWxfYmluZGluZycsICctaW1hZScsICc8aW5maWxlLm1hZT4nLCAnLW9tYWUnLCAnPG91dGZpbGUubWFlPic=

> <r_epik_Ionization_Penalty>
0.0419258

> <r_epik_Ionization_Penalty_Charging>
0.00262064

> <r_epik_Ionization_Penalty_Neutral>
0.0393052

> <r_epik_State_Penalty>
0.0329887

> <r_epik_Charging_Adjusted_Penalty>
0.0356093

> <i_epik_Tot_Q>
1

> <i_epik_Tot_abs_Q>
1

> <r_epik_Metal_State_Penalty>
0.0309172

> <b_epik_Metal_Only>
0

> <s_lp_Force_Field>
OPLS_2005

> <r_lp_Energy>
94.5265

> <b_lp_Chiralities_Consistent>
1

> <s_lp_Variant>
AV-unprocessed.smi:907-1

> <Gold.Version>
5.8.1

> <Gold.Id.Protein>
6NUR|6NUR_protein|mol2

> <Gold.PLP.Fitness>
51.2120

> <Gold.PLP.PLP>
-44.0075

> <Gold.PLP.part.hbond>
-2.2063

> <Gold.PLP.part.metal>
0.0000

> <Gold.PLP.part.buried>
-0.3042

> <Gold.PLP.part.nonpolar>
-41.7547

> <Gold.PLP.part.repulsive>
0.2403

> <Gold.PLP.ligand.clash>
0.9912

> <Gold.PLP.ligand.torsion>
0.4639

> <Gold.PLP.Chemscore.Hbond>
2.9913

> <Gold.PLP.Chemscore.CHOScore>
0.0000

> <Gold.PLP.Chemscore.Metal>
0.0000

> <Gold.Chemscore.Hbonds>
donor molecule, donor type, donor heavy atom, donor atom, acceptor molecule, acceptor atom, score
      L1  H    15    53       P1  7948  2.00
      P1  H  7989  7998       L1     1  0.04
      P1  H  7997  8010       L1     1  0.57

> <Gold.PLP.Chemscore.Internal.Correction>
0.1498

> <Gold.Rescore>
     Score         DG    S(hbond)    S(metal)    S(lipo)     H(rot)  DE(clash)    DE(int)     intcor
     19.33     -22.64       1.92        0.00     122.01       1.37       1.51       1.80       ----

> <Gold.Chemscore.Fitness>
19.3313

> <Gold.Chemscore.DG>
-22.6428

> <Gold.Chemscore.ZeroCoef>
-5.4800

> <Gold.Chemscore.Hbond>
1.9170

> <Gold.Chemscore.Metal>
0.0000

> <Gold.Chemscore.Lipo>
122.0108

> <Gold.Chemscore.Internal_Hbond>
0.0000

> <Gold.Chemscore.DEClash>
1.5081

> <Gold.Chemscore.DEInternal>
1.8035

> <Gold.Chemscore.Rot>
1.3731

> <Gold.Chemscore.Internal.Correction>
   9.000000E+99

> <Gold.Chemscore.Hbonds>
donor molecule, donor type, donor heavy atom, donor atom, acceptor molecule, acceptor atom, score
      L1  H    15    53       P1  7948  0.26
      P1  H  7997  8010       L1     1  0.55

> <Gold.Chemscore.Hbond.Weighted>
-6.4028

> <Gold.Chemscore.Metal.Weighted>
-0.0000

> <Gold.Chemscore.Lipo.Weighted>
-14.2753

> <Gold.Chemscore.Internal_Hbond.Weighted>
0.0000

> <Gold.Chemscore.DEClash.Weighted>
1.5081

> <Gold.Chemscore.DEInternal.Weighted>
1.8035

> <Gold.Chemscore.Rot.Weighted>
3.5152

> <Gold.Chemscore.Internal.Correction.Weighted>
   9.000000E+99

> <Gold.Protein.RotatedTorsions>
[ 6907 6896 6895 6894 ] final -130.30 input  -60.11 | X-H torsion
[ 7974 7965 7964 7962 ] final  -91.48 input  175.53 | X-H torsion
[ 8008 7997 7996 7995 ] final   82.91 input   59.86 | X-H torsion
[ 10167 10162 10161 10158 ] final  100.88 input  -65.29 | X-H torsion
[ 10718 10713 10712 10709 ] final   59.18 input   66.30 | X-H torsion
[ 10763 10752 10751 10750 ] final   54.65 input  -60.55 | X-H torsion
[ 11005 11000 10999 10996 ] final  -19.37 input  -57.11 | X-H torsion

> <Gold.Protein.ActiveResidues>
 VAL166  LYS551  ARG553  GLY616  TRP617  ASP618  TYR619  PRO620  LYS621  CYS622 
 ASP623  PHE694  ASN695  SER759  ASP760  ASP761  ALA762  ILE779  LEU786  VAL792 
 PHE793  MET794  SER795  GLU796  ALA797  LYS798  CYS799  TRP800  GLU811  SER814 

> <Gold.Protein.RotatedAtoms>
  150.9382  133.6687  159.2795 H   0  0  0  0  0  0  0  0  0  0  0  0  # atno 6907 bound_to 6896
  151.4085  135.0980  159.9587 H   0  0  0  0  0  0  0  0  0  0  0  0  # atno 6908 bound_to 6896
  152.5057  133.8860  159.7425 H   0  0  0  0  0  0  0  0  0  0  0  0  # atno 6909 bound_to 6896
  145.4126  140.9546  143.2225 H   0  0  0  0  0  0  0  0  0  0  0  0  # atno 7974 bound_to 7965
  155.9169  140.3424  155.6142 H   0  0  0  0  0  0  0  0  0  0  0  0  # atno 8008 bound_to 7997
  155.7320  140.0796  157.2303 H   0  0  0  0  0  0  0  0  0  0  0  0  # atno 8009 bound_to 7997
  154.4064  140.1586  156.2507 H   0  0  0  0  0  0  0  0  0  0  0  0  # atno 8010 bound_to 7997
  139.7487  144.6990  151.0465 H   0  0  0  0  0  0  0  0  0  0  0  0  # atno 10167 bound_to 10162
  157.5656  130.8868  149.9181 H   0  0  0  0  0  0  0  0  0  0  0  0  # atno 10718 bound_to 10713
  152.9807  135.5737  154.4939 H   0  0  0  0  0  0  0  0  0  0  0  0  # atno 10763 bound_to 10752
  154.4469  135.2777  155.1810 H   0  0  0  0  0  0  0  0  0  0  0  0  # atno 10764 bound_to 10752
  154.3454  135.6220  153.5670 H   0  0  0  0  0  0  0  0  0  0  0  0  # atno 10765 bound_to 10752
  140.8360  133.7962  155.9809 H   0  0  0  0  0  0  0  0  0  0  0  0  # atno 11005 bound_to 11000
  144.8299  139.5647  143.6948 LP  0  0  0  0  0  0  0  0  0  0  0  0  # atno 17320 bound_to 7965
  146.2697  139.6605  142.9304 LP  0  0  0  0  0  0  0  0  0  0  0  0  # atno 17321 bound_to 7965
  140.7795  143.4835  150.9987 LP  0  0  0  0  0  0  0  0  0  0  0  0  # atno 17342 bound_to 10162
  139.8523  143.7422  152.3177 LP  0  0  0  0  0  0  0  0  0  0  0  0  # atno 17343 bound_to 10162
  156.0704  130.3686  150.0788 LP  0  0  0  0  0  0  0  0  0  0  0  0  # atno 17370 bound_to 10713
  156.8947  130.9600  151.3584 LP  0  0  0  0  0  0  0  0  0  0  0  0  # atno 17371 bound_to 10713
  140.8947  134.2452  157.5075 LP  0  0  0  0  0  0  0  0  0  0  0  0  # atno 17394 bound_to 11000
  139.8704  134.9678  156.4610 LP  0  0  0  0  0  0  0  0  0  0  0  0  # atno 17395 bound_to 11000

$$$$
