#       Name:                AV-unprocessed.smi:2439
#       Creating user name   scv26
#       Creation time:       Fri Mar 27 13:24:26 2020


#       File generated by GOLD software.
#

@<TRIPOS>MOLECULE
AV-unprocessed.smi:2439
    45    47     1
SMALL
NO_CHARGES


@<TRIPOS>ATOM
      1 ****        -1.7809  -5.4285   2.2863 N.1            1 S1                 0.0000
      2 ****        -2.2710  -4.3831   2.2127 C.1            1 S1                 0.0000
      3 ****        -2.8874  -3.0651   2.1194 C.ar           1 S1                 0.0000
      4 ****        -4.2892  -2.9743   1.9910 C.ar           1 S1                 0.0000
      5 ****        -4.8883  -1.7051   1.8964 C.ar           1 S1                 0.0000
      6 ****        -4.0566  -0.5716   1.9359 C.ar           1 S1                 0.0000
      7 ****        -2.7147  -0.6440   2.0581 N.ar           1 S1                 0.0000
      8 ****        -2.1292  -1.8636   2.1496 C.ar           1 S1                 0.0000
      9 ****        -0.7284  -1.9088   2.2798 N.pl3          1 S1                 0.0000
     10 ****         0.0984  -0.7117   2.1820 C.3            1 S1                 0.0000
     11 ****         0.2827  -0.2414   0.7293 C.3            1 S1                 0.0000
     12 ****         0.9912   1.1232   0.6622 C.3            1 S1                 0.0000
     13 ****         1.2190   1.5218  -0.7460 N.4            1 S1                 1.0000
     14 ****         1.8611   2.8556  -0.8598 C.3            1 S1                 0.0000
     15 ****         1.9962   3.2800  -2.3309 C.3            1 S1                 0.0000
     16 ****         2.7680   2.2254  -3.1342 C.3            1 S1                 0.0000
     17 ****         2.1005   0.8525  -2.9774 C.3            1 S1                 0.0000
     18 ****         1.9574   0.4664  -1.4917 C.3            1 S1                 0.0000
     19 ****         1.2408  -0.8889  -1.3311 C.3            1 S1                 0.0000
     20 ****         1.0903  -1.1963   0.0490 O.3            1 S1                 0.0000
     21 ****        -4.9029  -3.8636   1.9645 H              1 S1                 0.0000
     22 ****        -5.9588  -1.6032   1.7968 H              1 S1                 0.0000
     23 ****        -4.4790   0.4198   1.8662 H              1 S1                 0.0000
     24 ****        -0.2670  -2.8057   2.3371 H              1 S1                 0.0000
     25 ****        -0.3423   0.0819   2.7866 H              1 S1                 0.0000
     26 ****         1.0701  -0.9257   2.6277 H              1 S1                 0.0000
     27 ****        -0.6894  -0.1650   0.2394 H              1 S1                 0.0000
     28 ****         0.3840   1.8803   1.1602 H              1 S1                 0.0000
     29 ****         1.9458   1.0788   1.1893 H              1 S1                 0.0000
     30 ****         1.2659   3.5938  -0.3207 H              1 S1                 0.0000
     31 ****         2.8432   2.8312  -0.3846 H              1 S1                 0.0000
     32 ****         1.0054   3.4207  -2.7650 H              1 S1                 0.0000
     33 ****         2.5031   4.2431  -2.3961 H              1 S1                 0.0000
     34 ****         2.8071   2.5075  -4.1868 H              1 S1                 0.0000
     35 ****         3.8000   2.1765  -2.7844 H              1 S1                 0.0000
     36 ****         1.1179   0.8709  -3.4513 H              1 S1                 0.0000
     37 ****         2.6837   0.0978  -3.5062 H              1 S1                 0.0000
     38 ****         2.9547   0.3798  -1.0561 H              1 S1                 0.0000
     39 ****         0.2649  -0.8798  -1.8195 H              1 S1                 0.0000
     40 ****         1.8231  -1.6811  -1.8022 H              1 S1                 0.0000
     41 ****         0.3088   1.5989  -1.1770 H              1 S1                 0.0000
     42 ****        -1.3572  -6.3321   2.3500 LP             1 S1                 0.0000
     43 ****        -2.1609   0.1884   2.0808 LP             1 S1                 0.0000
     44 ****         0.6639  -2.0968   0.1335 LP             1 S1                 0.0000
     45 ****         1.9948  -1.2146   0.4751 LP             1 S1                 0.0000
@<TRIPOS>BOND
    1    1    2 3     
    2    2    3 1     
    3    3    8 ar    
    4    3    4 ar    
    5    4    5 ar    
    6    4   21 1     
    7    5    6 ar    
    8    5   22 1     
    9    6    7 ar    
   10    6   23 1     
   11    7    8 ar    
   12    8    9 1     
   13    9   10 1     
   14    9   24 1     
   15   10   11 1     
   16   10   25 1     
   17   10   26 1     
   18   11   20 1     
   19   11   12 1     
   20   11   27 1     
   21   12   13 1     
   22   12   28 1     
   23   12   29 1     
   24   13   18 1     
   25   13   14 1     
   26   13   41 1     
   27   14   15 1     
   28   14   30 1     
   29   14   31 1     
   30   15   16 1     
   31   15   32 1     
   32   15   33 1     
   33   16   17 1     
   34   16   34 1     
   35   16   35 1     
   36   17   18 1     
   37   17   36 1     
   38   17   37 1     
   39   18   19 1     
   40   18   38 1     
   41   19   20 1     
   42   19   39 1     
   43   19   40 1     
   44    1   42 1     
   45    7   43 1     
   46   20   44 1     
   47   20   45 1     
@<TRIPOS>SUBSTRUCTURE
      1 S1             1
@<TRIPOS>SET
LONE_PAIRS      STATIC     ATOMS    <user>   **** ""
4 42 43 44 45
DONOR_HYDROGENS      STATIC     ATOMS    <user>   **** ""
2 24 41
ATOM$BLUE        STATIC     ATOMS    COLORGROUP SYSTEM
4 42 43 44 45
ATOM$RED        STATIC     ATOMS    COLORGROUP SYSTEM
2 24 41
