AV-unprocessed.smi:3245|AV-procd|sdf|12402|dock6
  -GOLD-   2272018283D 1   1.00000     0.00000
 Structure written by MMmdl.
 36 37  0  0  0  0  0  0  0  0  2 V2000
  152.2092  144.1317  157.7575 C   0  0  0  0  0  0  0  0  0  0  0  0
  151.1072  143.3147  158.4452 C   0  0  2  0  0  0  0  0  0  0  0  0
  151.6215  141.9043  158.8077 C   0  0  0  0  0  0  0  0  0  0  0  0
  152.1931  141.8339  160.1407 N   0  0  0  0  0  0  0  0  0  0  0  0
  153.0922  140.9161  160.6413 C   0  0  0  0  0  0  0  0  0  0  0  0
  153.3532  141.2680  161.9345 C   0  0  0  0  0  0  0  0  0  0  0  0
  152.5524  142.4259  162.1394 C   0  0  0  0  0  0  0  0  0  0  0  0
  151.8594  142.7627  161.0634 N   0  0  0  0  0  0  0  0  0  0  0  0
  149.9235  143.2411  157.5587 N   0  3  0  0  0  0  0  0  0  0  0  0
  149.9337  142.1205  156.5962 C   0  0  0  0  0  0  0  0  0  0  0  0
  149.5961  142.6106  155.1808 C   0  0  0  0  0  0  0  0  0  0  0  0
  148.6917  141.6812  154.4997 N   0  0  0  0  0  0  0  0  0  0  0  0
  149.0267  140.4353  154.1399 C   0  0  0  0  0  0  0  0  0  0  0  0
  150.1093  139.8746  154.3066 O   0  0  0  0  0  0  0  0  0  0  0  0
  147.8262  139.7864  153.4861 C   0  0  0  0  0  0  0  0  0  0  0  0
  146.8822  140.8782  153.5942 N   0  0  0  0  0  0  0  0  0  0  0  0
  147.4116  141.9548  154.1894 C   0  0  0  0  0  0  0  0  0  0  0  0
  146.8153  143.0069  154.4140 O   0  0  0  0  0  0  0  0  0  0  0  0
  153.0810  144.2370  158.4041 H   0  0  0  0  0  0  0  0  0  0  0  0
  151.8610  145.1356  157.5124 H   0  0  0  0  0  0  0  0  0  0  0  0
  152.5378  143.6575  156.8318 H   0  0  0  0  0  0  0  0  0  0  0  0
  150.8369  143.8429  159.3614 H   0  0  0  0  0  0  0  0  0  0  0  0
  150.8175  141.1704  158.7271 H   0  0  0  0  0  0  0  0  0  0  0  0
  152.3915  141.5953  158.0996 H   0  0  0  0  0  0  0  0  0  0  0  0
  153.4706  140.1017  160.0413 H   0  0  0  0  0  0  0  0  0  0  0  0
  154.0147  140.7728  162.6299 H   0  0  0  0  0  0  0  0  0  0  0  0
  152.4570  143.0286  163.0305 H   0  0  0  0  0  0  0  0  0  0  0  0
  149.0986  143.1428  158.1329 H   0  0  0  0  0  0  0  0  0  0  0  0
  150.9130  141.6425  156.5915 H   0  0  0  0  0  0  0  0  0  0  0  0
  149.2157  141.3664  156.9213 H   0  0  0  0  0  0  0  0  0  0  0  0
  149.1506  143.6059  155.2260 H   0  0  0  0  0  0  0  0  0  0  0  0
  150.5118  142.7225  154.5975 H   0  0  0  0  0  0  0  0  0  0  0  0
  148.0242  139.5261  152.4460 H   0  0  0  0  0  0  0  0  0  0  0  0
  147.4909  138.9084  154.0389 H   0  0  0  0  0  0  0  0  0  0  0  0
  145.9313  140.8184  153.2596 H   0  0  0  0  0  0  0  0  0  0  0  0
  149.8587  144.1112  157.0493 H   0  0  0  0  0  0  0  0  0  0  0  0
  1  2  1  0  0  0  0
  1 19  1  0  0  0  0
  1 20  1  0  0  0  0
  1 21  1  0  0  0  0
  2  3  1  0  0  0  0
  2  9  1  0  0  0  0
  2 22  1  0  0  0  0
  3  4  1  0  0  0  0
  3 23  1  0  0  0  0
  3 24  1  0  0  0  0
  4  8  1  0  0  0  0
  4  5  1  0  0  0  0
  5  6  2  0  0  0  0
  5 25  1  0  0  0  0
  6  7  1  0  0  0  0
  6 26  1  0  0  0  0
  7  8  2  0  0  0  0
  7 27  1  0  0  0  0
  9 10  1  0  0  0  0
  9 28  1  0  0  0  0
  9 36  1  0  0  0  0
 10 11  1  0  0  0  0
 10 29  1  0  0  0  0
 10 30  1  0  0  0  0
 11 12  1  0  0  0  0
 11 31  1  0  0  0  0
 11 32  1  0  0  0  0
 12 17  1  0  0  0  0
 12 13  1  0  0  0  0
 13 14  2  0  0  0  0
 13 15  1  0  0  0  0
 15 16  1  0  0  0  0
 15 33  1  0  0  0  0
 15 34  1  0  0  0  0
 16 17  1  0  0  0  0
 16 35  1  0  0  0  0
 17 18  2  0  0  0  0
M  CHG  1   9   1
M  END
> <s_m_source_file>
AV-unprocessed.smi

> <i_m_source_file_index>
3245

> <i_lp_mmshare_version>
43012

> <i_f3d_flags>
0

> <s_epik_input>
bjFbY0hdW2NIXVtjSF1uMVtDSDJdW0NAQEhdKFtDSDNdKVtOSF1bQ0gyXVtDSDJdTjJDKD1PKVtDSDJdW05IXUMyPU8=

> <s_epik_cmdline>
J2VwaWtfcHl0aG9uJywgJy1waCcsICc3LjAnLCAnLXRuJywgJzgnLCAnLW1hJywgJzIwMCcsICctbWV0YWxfYmluZGluZycsICctaW1hZScsICc8aW5maWxlLm1hZT4nLCAnLW9tYWUnLCAnPG91dGZpbGUubWFlPic=

> <r_lp_tautomer_probability>
1

> <r_epik_Ionization_Penalty>
0.0160742

> <r_epik_Ionization_Penalty_Charging>
0.0159586

> <r_epik_Ionization_Penalty_Neutral>
0.000115543

> <r_epik_State_Penalty>
0.0125702

> <r_epik_Charging_Adjusted_Penalty>
0.0285288

> <i_epik_Tot_Q>
1

> <i_epik_Tot_abs_Q>
1

> <r_epik_Metal_State_Penalty>
0.0881892

> <b_epik_Metal_Only>
0

> <s_lp_Force_Field>
OPLS_2005

> <r_lp_Energy>
19.7378

> <b_lp_Chiralities_Consistent>
1

> <s_lp_Variant>
AV-unprocessed.smi:3245-1

> <Gold.Version>
5.8.1

> <Gold.Id.Protein>
6NUR|6NUR_protein|mol2

> <Gold.PLP.Fitness>
45.6690

> <Gold.PLP.PLP>
-40.0330

> <Gold.PLP.part.hbond>
-2.0858

> <Gold.PLP.part.metal>
0.0000

> <Gold.PLP.part.buried>
-0.3009

> <Gold.PLP.part.nonpolar>
-36.8580

> <Gold.PLP.part.repulsive>
0.3999

> <Gold.PLP.ligand.clash>
0.0000

> <Gold.PLP.ligand.torsion>
1.7231

> <Gold.PLP.Chemscore.Hbond>
3.0000

> <Gold.PLP.Chemscore.CHOScore>
0.0000

> <Gold.PLP.Chemscore.Metal>
0.0000

> <Gold.Chemscore.Hbonds>
donor molecule, donor type, donor heavy atom, donor atom, acceptor molecule, acceptor atom, score
      L1  H     9    36       P1  8028  1.47
      L1  H    16    35       P1 10175  0.08
      P1  H  6933  6945       L1     8  0.01
      P1  H  7989  7998       L1    14  1.00

> <Gold.PLP.Chemscore.Internal.Correction>
0.0823

> <Gold.Rescore>
     Score         DG    S(hbond)    S(metal)    S(lipo)     H(rot)  DE(clash)    DE(int)     intcor
     10.15     -11.76       0.96        0.00      86.19       2.74       0.11       1.50       ----

> <Gold.Chemscore.Fitness>
10.1499

> <Gold.Chemscore.DG>
-11.7562

> <Gold.Chemscore.ZeroCoef>
-5.4800

> <Gold.Chemscore.Hbond>
0.9578

> <Gold.Chemscore.Metal>
0.0000

> <Gold.Chemscore.Lipo>
86.1864

> <Gold.Chemscore.Internal_Hbond>
0.0000

> <Gold.Chemscore.DEClash>
0.1083

> <Gold.Chemscore.DEInternal>
1.4980

> <Gold.Chemscore.Rot>
2.7369

> <Gold.Chemscore.Internal.Correction>
   9.000000E+99

> <Gold.Chemscore.Hbonds>
donor molecule, donor type, donor heavy atom, donor atom, acceptor molecule, acceptor atom, score
      L1  H     9    36       P1  8028  0.58
      L1  H    16    35       P1 10175  0.07
      P1  H  7989  7998       L1    14  0.78

> <Gold.Chemscore.Hbond.Weighted>
-3.1989

> <Gold.Chemscore.Metal.Weighted>
-0.0000

> <Gold.Chemscore.Lipo.Weighted>
-10.0838

> <Gold.Chemscore.Internal_Hbond.Weighted>
0.0000

> <Gold.Chemscore.DEClash.Weighted>
0.1083

> <Gold.Chemscore.DEInternal.Weighted>
1.4980

> <Gold.Chemscore.Rot.Weighted>
7.0065

> <Gold.Chemscore.Internal.Correction.Weighted>
   9.000000E+99

> <Gold.Protein.RotatedTorsions>
[ 6907 6896 6895 6894 ] final  -37.83 input  -60.11 | X-H torsion
[ 7974 7965 7964 7962 ] final -152.34 input  175.53 | X-H torsion
[ 8008 7997 7996 7995 ] final   61.02 input   59.86 | X-H torsion
[ 10167 10162 10161 10158 ] final   45.33 input  -65.29 | X-H torsion
[ 10718 10713 10712 10709 ] final  -99.02 input   66.30 | X-H torsion
[ 10763 10752 10751 10750 ] final  148.13 input  -60.55 | X-H torsion
[ 11005 11000 10999 10996 ] final  -69.94 input  -57.11 | X-H torsion

> <Gold.Protein.ActiveResidues>
 VAL166  LYS551  ARG553  GLY616  TRP617  ASP618  TYR619  PRO620  LYS621  CYS622 
 ASP623  PHE694  ASN695  SER759  ASP760  ASP761  ALA762  ILE779  LEU786  VAL792 
 PHE793  MET794  SER795  GLU796  ALA797  LYS798  CYS799  TRP800  GLU811  SER814 

> <Gold.Protein.RotatedAtoms>
  151.0099  134.9388  159.8000 H   0  0  0  0  0  0  0  0  0  0  0  0  # atno 6907 bound_to 6896
  152.5300  134.3042  159.9099 H   0  0  0  0  0  0  0  0  0  0  0  0  # atno 6908 bound_to 6896
  151.3048  133.4064  159.2676 H   0  0  0  0  0  0  0  0  0  0  0  0  # atno 6909 bound_to 6896
  144.7799  140.4675  143.5846 H   0  0  0  0  0  0  0  0  0  0  0  0  # atno 7974 bound_to 7965
  155.5917  140.3493  155.4568 H   0  0  0  0  0  0  0  0  0  0  0  0  # atno 8008 bound_to 7997
  156.0296  140.1271  157.0297 H   0  0  0  0  0  0  0  0  0  0  0  0  # atno 8009 bound_to 7997
  154.4347  140.1046  156.6066 H   0  0  0  0  0  0  0  0  0  0  0  0  # atno 8010 bound_to 7997
  140.3253  144.2656  150.6176 H   0  0  0  0  0  0  0  0  0  0  0  0  # atno 10167 bound_to 10162
  156.0122  130.5264  150.6608 H   0  0  0  0  0  0  0  0  0  0  0  0  # atno 10718 bound_to 10713
  154.0496  135.2883  155.3342 H   0  0  0  0  0  0  0  0  0  0  0  0  # atno 10763 bound_to 10752
  154.6877  135.5238  153.8353 H   0  0  0  0  0  0  0  0  0  0  0  0  # atno 10764 bound_to 10752
  153.0566  135.6597  154.0694 H   0  0  0  0  0  0  0  0  0  0  0  0  # atno 10765 bound_to 10752
  141.1564  133.6777  156.6677 H   0  0  0  0  0  0  0  0  0  0  0  0  # atno 11005 bound_to 11000
  145.6079  139.1510  143.3092 LP  0  0  0  0  0  0  0  0  0  0  0  0  # atno 17320 bound_to 7965
  146.2002  140.6196  142.9106 LP  0  0  0  0  0  0  0  0  0  0  0  0  # atno 17321 bound_to 7965
  140.5447  143.2217  151.8027 LP  0  0  0  0  0  0  0  0  0  0  0  0  # atno 17342 bound_to 10162
  139.4866  144.4555  151.9603 LP  0  0  0  0  0  0  0  0  0  0  0  0  # atno 17343 bound_to 10162
  157.4351  131.0854  151.1000 LP  0  0  0  0  0  0  0  0  0  0  0  0  # atno 17370 bound_to 10713
  157.1561  130.6205  149.5597 LP  0  0  0  0  0  0  0  0  0  0  0  0  # atno 17371 bound_to 10713
  140.3199  134.8016  157.4244 LP  0  0  0  0  0  0  0  0  0  0  0  0  # atno 17394 bound_to 11000
  140.1106  134.5351  155.8270 LP  0  0  0  0  0  0  0  0  0  0  0  0  # atno 17395 bound_to 11000

$$$$
