AV-unprocessed.smi:1978|AV-procd|sdf|8000|dock8
  -GOLD-   2272010183D 1   1.00000     0.00000
 Structure written by MMmdl.
 44 45  0  0  0  0  0  0  0  0  3 V2000
  152.4103  145.1167  158.5265 C   0  0  0  0  0  0  0  0  0  0  0  0
  151.7254  143.7992  158.3961 C   0  0  0  0  0  0  0  0  0  0  0  0
  151.2302  143.1131  157.3236 C   0  0  0  0  0  0  0  0  0  0  0  0
  150.7170  141.9230  157.9083 C   0  0  0  0  0  0  0  0  0  0  0  0
  150.1107  140.9195  157.2553 N   0  5  0  0  0  0  0  0  0  0  0  0
  149.9583  140.9753  155.9130 C   0  0  0  0  0  0  0  0  0  0  0  0
  150.7463  140.5448  155.0675 O   0  0  0  0  0  0  0  0  0  0  0  0
  148.8223  141.5721  155.5239 N   0  0  0  0  0  0  0  0  0  0  0  0
  148.4038  141.7844  154.1415 C   0  0  0  0  0  0  0  0  0  0  0  0
  146.8567  141.7917  153.9661 C   0  0  2  0  0  0  0  0  0  0  0  0
  146.1918  142.2900  155.2738 C   0  0  0  0  0  0  0  0  0  0  0  0
  146.3067  140.4552  153.5482 N   0  3  1  0  0  0  0  0  0  0  0  0
  147.1780  139.7269  152.5753 C   0  0  0  0  0  0  0  0  0  0  0  0
  146.4884  138.4760  152.0068 C   0  0  0  0  0  0  0  0  0  0  0  0
  146.0444  137.5289  153.1222 C   0  0  0  0  0  0  0  0  0  0  0  0
  145.1612  138.2920  154.1140 C   0  0  0  0  0  0  0  0  0  0  0  0
  145.8553  139.5562  154.6637 C   0  0  1  0  0  0  0  0  0  0  0  0
  146.9786  139.2099  155.6673 C   0  0  0  0  0  0  0  0  0  0  0  0
  150.8703  141.8980  159.2215 N   0  0  0  0  0  0  0  0  0  0  0  0
  151.5217  143.0950  159.5420 O   0  0  0  0  0  0  0  0  0  0  0  0
  151.7654  145.9219  158.1746 H   0  0  0  0  0  0  0  0  0  0  0  0
  153.3271  145.1343  157.9374 H   0  0  0  0  0  0  0  0  0  0  0  0
  152.6717  145.3234  159.5645 H   0  0  0  0  0  0  0  0  0  0  0  0
  151.2375  143.4117  156.2862 H   0  0  0  0  0  0  0  0  0  0  0  0
  148.2018  141.9043  156.2480 H   0  0  0  0  0  0  0  0  0  0  0  0
  148.8638  142.7187  153.8225 H   0  0  0  0  0  0  0  0  0  0  0  0
  148.8453  140.9971  153.5300 H   0  0  0  0  0  0  0  0  0  0  0  0
  146.6084  142.5055  153.1797 H   0  0  0  0  0  0  0  0  0  0  0  0
  146.6478  143.2075  155.6439 H   0  0  0  0  0  0  0  0  0  0  0  0
  146.2728  141.5457  156.0665 H   0  0  0  0  0  0  0  0  0  0  0  0
  145.1396  142.5358  155.1432 H   0  0  0  0  0  0  0  0  0  0  0  0
  147.4277  140.3522  151.7220 H   0  0  0  0  0  0  0  0  0  0  0  0
  148.1239  139.4597  153.0474 H   0  0  0  0  0  0  0  0  0  0  0  0
  145.6228  138.7747  151.4136 H   0  0  0  0  0  0  0  0  0  0  0  0
  147.1636  137.9561  151.3262 H   0  0  0  0  0  0  0  0  0  0  0  0
  145.4964  136.6846  152.7028 H   0  0  0  0  0  0  0  0  0  0  0  0
  146.9149  137.1125  153.6297 H   0  0  0  0  0  0  0  0  0  0  0  0
  144.2348  138.5808  153.6151 H   0  0  0  0  0  0  0  0  0  0  0  0
  144.8682  137.6346  154.9335 H   0  0  0  0  0  0  0  0  0  0  0  0
  145.0683  140.0657  155.2168 H   0  0  0  0  0  0  0  0  0  0  0  0
  146.5945  138.5806  156.4705 H   0  0  0  0  0  0  0  0  0  0  0  0
  147.3971  140.0985  156.1387 H   0  0  0  0  0  0  0  0  0  0  0  0
  147.8011  138.6701  155.2000 H   0  0  0  0  0  0  0  0  0  0  0  0
  145.4627  140.6728  153.0382 H   0  0  0  0  0  0  0  0  0  0  0  0
  1  2  1  0  0  0  0
  1 21  1  0  0  0  0
  1 22  1  0  0  0  0
  1 23  1  0  0  0  0
  2 20  1  0  0  0  0
  2  3  2  0  0  0  0
  3  4  1  0  0  0  0
  3 24  1  0  0  0  0
  4  5  1  0  0  0  0
  4 19  2  0  0  0  0
  5  6  1  0  0  0  0
  6  7  2  0  0  0  0
  6  8  1  0  0  0  0
  8  9  1  0  0  0  0
  8 25  1  0  0  0  0
  9 10  1  0  0  0  0
  9 26  1  0  0  0  0
  9 27  1  0  0  0  0
 10 11  1  0  0  0  0
 10 12  1  0  0  0  0
 10 28  1  0  0  0  0
 11 29  1  0  0  0  0
 11 30  1  0  0  0  0
 11 31  1  0  0  0  0
 12 17  1  0  0  0  0
 12 13  1  0  0  0  0
 12 44  1  0  0  0  0
 13 14  1  0  0  0  0
 13 32  1  0  0  0  0
 13 33  1  0  0  0  0
 14 15  1  0  0  0  0
 14 34  1  0  0  0  0
 14 35  1  0  0  0  0
 15 16  1  0  0  0  0
 15 36  1  0  0  0  0
 15 37  1  0  0  0  0
 16 17  1  0  0  0  0
 16 38  1  0  0  0  0
 16 39  1  0  0  0  0
 17 18  1  0  0  0  0
 17 40  1  0  0  0  0
 18 41  1  0  0  0  0
 18 42  1  0  0  0  0
 18 43  1  0  0  0  0
 19 20  1  0  0  0  0
M  CHG  1   5  -1
M  CHG  1  12   1
M  END
> <s_m_source_file>
AV-unprocessed.smi

> <i_m_source_file_index>
1978

> <i_lp_mmshare_version>
43012

> <i_f3d_flags>
0

> <s_epik_input>
W0NIM11jMVtjSF1jKG5vMSlbTkhdQyg9TylbTkhdW0NIMl1bQ0BIXShbQ0gzXSlOMltDSDJdW0NIMl1bQ0gyXVtDSDJdW0NASF0yW0NIM10=

> <s_epik_cmdline>
J2VwaWtfcHl0aG9uJywgJy1waCcsICc3LjAnLCAnLXRuJywgJzgnLCAnLW1hJywgJzIwMCcsICctbWV0YWxfYmluZGluZycsICctaW1hZScsICc8aW5maWxlLm1hZT4nLCAnLW9tYWUnLCAnPG91dGZpbGUubWFlPic=

> <r_epik_Ionization_Penalty>
6.22372

> <r_epik_Ionization_Penalty_Charging>
6.22362

> <r_epik_Ionization_Penalty_Neutral>
9.65074e-05

> <r_epik_State_Penalty>
6.22363

> <r_epik_Charging_Adjusted_Penalty>
12.4472

> <i_epik_Tot_Q>
0

> <i_epik_Tot_abs_Q>
2

> <r_epik_Metal_State_Penalty>
2.16675

> <b_epik_Metal_Only>
1

> <s_lp_Force_Field>
OPLS_2005

> <r_lp_Energy>
12.8084

> <b_lp_Chiralities_Consistent>
1

> <s_lp_Variant>
AV-unprocessed.smi:1978-9

> <Gold.Version>
5.8.1

> <Gold.Id.Protein>
6NUR|6NUR_protein|mol2

> <Gold.PLP.Fitness>
39.6982

> <Gold.PLP.PLP>
-34.9635

> <Gold.PLP.part.hbond>
-2.7699

> <Gold.PLP.part.metal>
0.0000

> <Gold.PLP.part.buried>
-2.1278

> <Gold.PLP.part.nonpolar>
-29.9892

> <Gold.PLP.part.repulsive>
0.1839

> <Gold.PLP.ligand.clash>
0.4280

> <Gold.PLP.ligand.torsion>
1.9660

> <Gold.PLP.Chemscore.Hbond>
3.0000

> <Gold.PLP.Chemscore.CHOScore>
0.0000

> <Gold.PLP.Chemscore.Metal>
0.0000

> <Gold.Chemscore.Hbonds>
donor molecule, donor type, donor heavy atom, donor atom, acceptor molecule, acceptor atom, score
      L1  H    12    44       P1 10175  2.00
      P1  H  7989  7998       L1     7  0.99

> <Gold.PLP.Chemscore.Internal.Correction>
0.0948

> <Gold.Rescore>
     Score         DG    S(hbond)    S(metal)    S(lipo)     H(rot)  DE(clash)    DE(int)     intcor
     15.11     -17.52       1.96        0.00      80.13       1.52       0.19       2.22       ----

> <Gold.Chemscore.Fitness>
15.1143

> <Gold.Chemscore.DG>
-17.5206

> <Gold.Chemscore.ZeroCoef>
-5.4800

> <Gold.Chemscore.Hbond>
1.9623

> <Gold.Chemscore.Metal>
0.0000

> <Gold.Chemscore.Lipo>
80.1284

> <Gold.Chemscore.Internal_Hbond>
0.0000

> <Gold.Chemscore.DEClash>
0.1889

> <Gold.Chemscore.DEInternal>
2.2174

> <Gold.Chemscore.Rot>
1.5190

> <Gold.Chemscore.Internal.Correction>
   9.000000E+99

> <Gold.Chemscore.Hbonds>
donor molecule, donor type, donor heavy atom, donor atom, acceptor molecule, acceptor atom, score
      L1  H    12    44       P1 10175  0.74
      P1  H  7989  7998       L1     7  0.94

> <Gold.Chemscore.Hbond.Weighted>
-6.5542

> <Gold.Chemscore.Metal.Weighted>
-0.0000

> <Gold.Chemscore.Lipo.Weighted>
-9.3750

> <Gold.Chemscore.Internal_Hbond.Weighted>
0.0000

> <Gold.Chemscore.DEClash.Weighted>
0.1889

> <Gold.Chemscore.DEInternal.Weighted>
2.2174

> <Gold.Chemscore.Rot.Weighted>
3.8886

> <Gold.Chemscore.Internal.Correction.Weighted>
   9.000000E+99

> <Gold.Protein.RotatedTorsions>
[ 6907 6896 6895 6894 ] final -113.19 input  -60.11 | X-H torsion
[ 7974 7965 7964 7962 ] final -119.63 input  175.53 | X-H torsion
[ 8008 7997 7996 7995 ] final   36.89 input   59.86 | X-H torsion
[ 10167 10162 10161 10158 ] final  -74.30 input  -65.29 | X-H torsion
[ 10718 10713 10712 10709 ] final  -47.20 input   66.30 | X-H torsion
[ 10763 10752 10751 10750 ] final -168.24 input  -60.55 | X-H torsion
[ 11005 11000 10999 10996 ] final   21.28 input  -57.11 | X-H torsion

> <Gold.Protein.ActiveResidues>
 VAL166  LYS551  ARG553  GLY616  TRP617  ASP618  TYR619  PRO620  LYS621  CYS622 
 ASP623  PHE694  ASN695  SER759  ASP760  ASP761  ALA762  ILE779  LEU786  VAL792 
 PHE793  MET794  SER795  GLU796  ALA797  LYS798  CYS799  TRP800  GLU811  SER814 

> <Gold.Protein.RotatedAtoms>
  150.7811  133.8980  159.3332 H   0  0  0  0  0  0  0  0  0  0  0  0  # atno 6907 bound_to 6896
  151.6843  135.0955  160.0231 H   0  0  0  0  0  0  0  0  0  0  0  0  # atno 6908 bound_to 6896
  152.3863  133.6577  159.6237 H   0  0  0  0  0  0  0  0  0  0  0  0  # atno 6909 bound_to 6896
  145.0604  140.8285  143.4156 H   0  0  0  0  0  0  0  0  0  0  0  0  # atno 7974 bound_to 7965
  155.1948  140.3311  155.4352 H   0  0  0  0  0  0  0  0  0  0  0  0  # atno 8008 bound_to 7997
  156.2429  140.1904  156.6989 H   0  0  0  0  0  0  0  0  0  0  0  0  # atno 8009 bound_to 7997
  154.6181  140.0599  156.9566 H   0  0  0  0  0  0  0  0  0  0  0  0  # atno 8010 bound_to 7997
  140.5039  143.2356  151.7707 H   0  0  0  0  0  0  0  0  0  0  0  0  # atno 10167 bound_to 10162
  156.2107  130.4160  149.9118 H   0  0  0  0  0  0  0  0  0  0  0  0  # atno 10718 bound_to 10713
  154.6649  135.2930  154.9818 H   0  0  0  0  0  0  0  0  0  0  0  0  # atno 10763 bound_to 10752
  154.0865  135.6597  153.4850 H   0  0  0  0  0  0  0  0  0  0  0  0  # atno 10764 bound_to 10752
  153.0451  135.5210  154.7617 H   0  0  0  0  0  0  0  0  0  0  0  0  # atno 10765 bound_to 10752
  140.3933  134.1796  155.7663 H   0  0  0  0  0  0  0  0  0  0  0  0  # atno 11005 bound_to 11000
  145.1416  139.2568  143.5487 LP  0  0  0  0  0  0  0  0  0  0  0  0  # atno 17320 bound_to 7965
  146.3524  140.1095  142.8604 LP  0  0  0  0  0  0  0  0  0  0  0  0  # atno 17321 bound_to 7965
  139.4879  144.4484  151.9682 LP  0  0  0  0  0  0  0  0  0  0  0  0  # atno 17342 bound_to 10162
  140.3574  144.3014  150.5939 LP  0  0  0  0  0  0  0  0  0  0  0  0  # atno 17343 bound_to 10162
  156.6797  130.8853  151.3574 LP  0  0  0  0  0  0  0  0  0  0  0  0  # atno 17370 bound_to 10713
  157.7037  130.9361  150.0864 LP  0  0  0  0  0  0  0  0  0  0  0  0  # atno 17371 bound_to 10713
  141.1883  133.8263  157.0999 LP  0  0  0  0  0  0  0  0  0  0  0  0  # atno 17394 bound_to 11000
  140.0390  134.9863  157.0927 LP  0  0  0  0  0  0  0  0  0  0  0  0  # atno 17395 bound_to 11000

$$$$
