AV-unprocessed.smi:99|AV-procd|sdf|867|dock3
  -GOLD-   2262017323D 1   1.00000     0.00000
 Structure written by MMmdl.
 53 56  0  0  0  0  0  0  0  0  1 V2000
  155.8896  139.5998  154.0788 O   0  0  0  0  0  0  0  0  0  0  0  0
  155.6793  138.3901  153.9731 C   0  0  0  0  0  0  0  0  0  0  0  0
  154.5218  137.7982  154.3257 O   0  0  0  0  0  0  0  0  0  0  0  0
  153.4776  138.5462  154.9287 C   0  0  0  0  0  0  0  0  0  0  0  0
  153.1097  137.8870  156.2639 C   0  0  2  0  0  0  0  0  0  0  0  0
  152.9661  136.4790  156.0986 O   0  0  0  0  0  0  0  0  0  0  0  0
  152.0261  135.9779  157.0085 C   0  0  2  0  0  0  0  0  0  0  0  0
  150.9434  135.2443  156.2481 N   0  0  0  0  0  0  0  0  0  0  0  0
  150.1347  135.8916  155.3221 C   0  0  0  0  0  0  0  0  0  0  0  0
  149.1480  135.2654  154.6383 C   0  0  0  0  0  0  0  0  0  0  0  0
  148.8808  133.8473  154.8554 C   0  0  0  0  0  0  0  0  0  0  0  0
  148.0132  133.1934  154.2809 O   0  0  0  0  0  0  0  0  0  0  0  0
  149.7064  133.2406  155.8062 N   0  0  0  0  0  0  0  0  0  0  0  0
  150.7227  133.8763  156.5208 C   0  0  0  0  0  0  0  0  0  0  0  0
  151.3763  133.2482  157.3527 O   0  0  0  0  0  0  0  0  0  0  0  0
  151.4216  137.1681  157.7713 C   0  0  1  0  0  0  0  0  0  0  0  0
  152.0422  137.3075  159.0365 O   0  0  0  0  0  0  0  0  0  0  0  0
  151.7567  138.3131  156.8311 C   0  0  1  0  0  0  0  0  0  0  0  0
  151.7619  139.5715  157.4994 O   0  0  0  0  0  0  0  0  0  0  0  0
  151.5470  140.7232  156.8254 C   0  0  0  0  0  0  0  0  0  0  0  0
  151.2872  140.7765  155.6218 O   0  0  0  0  0  0  0  0  0  0  0  0
  151.6972  141.9320  157.6844 C   0  0  0  0  0  0  0  0  0  0  0  0
  151.1976  143.1731  157.2252 C   0  0  0  0  0  0  0  0  0  0  0  0
  151.3491  144.3383  158.0014 C   0  0  0  0  0  0  0  0  0  0  0  0
  152.0000  144.2761  159.2471 C   0  0  0  0  0  0  0  0  0  0  0  0
  152.4990  143.0470  159.7162 C   0  0  0  0  0  0  0  0  0  0  0  0
  152.3495  141.8806  158.9410 C   0  0  0  0  0  0  0  0  0  0  0  0
  156.6896  137.4179  153.4640 C   0  0  0  0  0  0  0  0  0  0  0  0
  156.3874  136.6346  152.3260 C   0  0  0  0  0  0  0  0  0  0  0  0
  157.3309  135.7246  151.8105 C   0  0  0  0  0  0  0  0  0  0  0  0
  158.5880  135.5865  152.4269 C   0  0  0  0  0  0  0  0  0  0  0  0
  158.8996  136.3569  153.5621 C   0  0  0  0  0  0  0  0  0  0  0  0
  157.9568  137.2657  154.0800 C   0  0  0  0  0  0  0  0  0  0  0  0
  149.5508  132.2609  155.9953 H   0  0  0  0  0  0  0  0  0  0  0  0
  153.7710  139.5836  155.0956 H   0  0  0  0  0  0  0  0  0  0  0  0
  152.6179  138.5511  154.2580 H   0  0  0  0  0  0  0  0  0  0  0  0
  153.8976  138.0543  157.0003 H   0  0  0  0  0  0  0  0  0  0  0  0
  152.5114  135.2351  157.6449 H   0  0  0  0  0  0  0  0  0  0  0  0
  150.2800  136.9439  155.1270 H   0  0  0  0  0  0  0  0  0  0  0  0
  148.5505  135.8175  153.9272 H   0  0  0  0  0  0  0  0  0  0  0  0
  150.3467  137.0504  157.9149 H   0  0  0  0  0  0  0  0  0  0  0  0
  151.6371  136.6997  159.6363 H   0  0  0  0  0  0  0  0  0  0  0  0
  151.0225  138.2952  156.0245 H   0  0  0  0  0  0  0  0  0  0  0  0
  150.7015  143.2474  156.2682 H   0  0  0  0  0  0  0  0  0  0  0  0
  150.9689  145.2814  157.6377 H   0  0  0  0  0  0  0  0  0  0  0  0
  152.1174  145.1701  159.8416 H   0  0  0  0  0  0  0  0  0  0  0  0
  153.0003  142.9986  160.6716 H   0  0  0  0  0  0  0  0  0  0  0  0
  152.7493  140.9546  159.3279 H   0  0  0  0  0  0  0  0  0  0  0  0
  155.4308  136.7274  151.8323 H   0  0  0  0  0  0  0  0  0  0  0  0
  157.0897  135.1336  150.9392 H   0  0  0  0  0  0  0  0  0  0  0  0
  159.3124  134.8910  152.0292 H   0  0  0  0  0  0  0  0  0  0  0  0
  159.8656  136.2552  154.0346 H   0  0  0  0  0  0  0  0  0  0  0  0
  158.2320  137.8463  154.9484 H   0  0  0  0  0  0  0  0  0  0  0  0
  1  2  2  0  0  0  0
  2  3  1  0  0  0  0
  2 28  1  0  0  0  0
  3  4  1  0  0  0  0
  4  5  1  0  0  0  0
  4 35  1  0  0  0  0
  4 36  1  0  0  0  0
  5 18  1  0  0  0  0
  5  6  1  0  0  0  0
  5 37  1  0  0  0  0
  6  7  1  0  0  0  0
  7  8  1  0  0  0  0
  7 16  1  0  0  0  0
  7 38  1  0  0  0  0
  8 14  1  0  0  0  0
  8  9  1  0  0  0  0
  9 10  2  0  0  0  0
  9 39  1  0  0  0  0
 10 11  1  0  0  0  0
 10 40  1  0  0  0  0
 11 12  2  0  0  0  0
 11 13  1  0  0  0  0
 13 34  1  0  0  0  0
 13 14  1  0  0  0  0
 14 15  2  0  0  0  0
 16 17  1  0  0  0  0
 16 18  1  0  0  0  0
 16 41  1  0  0  0  0
 17 42  1  0  0  0  0
 18 19  1  0  0  0  0
 18 43  1  0  0  0  0
 19 20  1  0  0  0  0
 20 21  2  0  0  0  0
 20 22  1  0  0  0  0
 22 27  1  0  0  0  0
 22 23  2  0  0  0  0
 23 24  1  0  0  0  0
 23 44  1  0  0  0  0
 24 25  2  0  0  0  0
 24 45  1  0  0  0  0
 25 26  1  0  0  0  0
 25 46  1  0  0  0  0
 26 27  2  0  0  0  0
 26 47  1  0  0  0  0
 27 48  1  0  0  0  0
 28 33  1  0  0  0  0
 28 29  2  0  0  0  0
 29 30  1  0  0  0  0
 29 49  1  0  0  0  0
 30 31  2  0  0  0  0
 30 50  1  0  0  0  0
 31 32  1  0  0  0  0
 31 51  1  0  0  0  0
 32 33  2  0  0  0  0
 32 52  1  0  0  0  0
 33 53  1  0  0  0  0
M  END
> <s_m_source_file>
AV-unprocessed.smi

> <i_m_source_file_index>
99

> <i_lp_mmshare_version>
43012

> <i_f3d_flags>
0

> <s_epik_input>
W2NIXTFbY0hdW2NIXVtjSF1bY0hdYzFDKD1PKU9bQ0gyXVtDQEBIXTJPW0NAQEhdKG4zW2NIXVtjSF1jKD1PKVtuSF1jMz1PKVtDQEBIXShbT0hdKVtDQEhdMk9DKD1PKWM0W2NIXVtjSF1bY0hdW2NIXVtjSF00

> <s_epik_cmdline>
J2VwaWtfcHl0aG9uJywgJy1waCcsICc3LjAnLCAnLXRuJywgJzgnLCAnLW1hJywgJzIwMCcsICctbWV0YWxfYmluZGluZycsICctaW1hZScsICc8aW5maWxlLm1hZT4nLCAnLW9tYWUnLCAnPG91dGZpbGUubWFlPic=

> <r_lp_tautomer_probability>
1

> <r_epik_Ionization_Penalty>
0.00454555

> <r_epik_Ionization_Penalty_Charging>
0.0045191

> <r_epik_Ionization_Penalty_Neutral>
2.64449e-05

> <r_epik_State_Penalty>
-0

> <r_epik_Charging_Adjusted_Penalty>
0.0045191

> <i_epik_Tot_Q>
0

> <i_epik_Tot_abs_Q>
0

> <r_epik_Metal_State_Penalty>
1.27877

> <b_epik_Metal_Only>
0

> <s_epik_Chemistry_Notes>
This compound has an ester and may undergo hydrolysis at high or low pH. This compound contains an acetal/aminal-like group ( X-CH(R)-Y where X, Y are N, S, or O) that may be acid/base labile, releasing an aldehyde.

> <s_lp_Force_Field>
OPLS_2005

> <r_lp_Energy>
37.3594

> <b_lp_Chiralities_Consistent>
1

> <s_lp_Variant>
AV-unprocessed.smi:99-3

> <Gold.Version>
5.8.1

> <Gold.Id.Protein>
6NUR|6NUR_protein|mol2

> <Gold.PLP.Fitness>
60.2718

> <Gold.PLP.PLP>
-55.4872

> <Gold.PLP.part.hbond>
-4.0758

> <Gold.PLP.part.metal>
0.0000

> <Gold.PLP.part.buried>
-1.3773

> <Gold.PLP.part.nonpolar>
-48.7979

> <Gold.PLP.part.repulsive>
0.1465

> <Gold.PLP.ligand.clash>
0.0000

> <Gold.PLP.ligand.torsion>
2.0466

> <Gold.PLP.Chemscore.Hbond>
2.8124

> <Gold.PLP.Chemscore.CHOScore>
0.0000

> <Gold.PLP.Chemscore.Metal>
0.0000

> <Gold.Chemscore.Hbonds>
donor molecule, donor type, donor heavy atom, donor atom, acceptor molecule, acceptor atom, score
      P1  H  6896  6908       L1    15  0.75
      P1  H  7989  7998       L1    21  0.53
      P1  H  7997  8008       L1     1  0.99
      P1  H 10752 10765       L1     6  0.63

> <Gold.PLP.Chemscore.Internal.Correction>
0.4406

> <Gold.Rescore>
     Score         DG    S(hbond)    S(metal)    S(lipo)     H(rot)  DE(clash)    DE(int)     intcor
     21.98     -25.91       2.81        0.00     164.20       3.19       1.86       2.06       ----

> <Gold.Chemscore.Fitness>
21.9818

> <Gold.Chemscore.DG>
-25.9099

> <Gold.Chemscore.ZeroCoef>
-5.4800

> <Gold.Chemscore.Hbond>
2.8101

> <Gold.Chemscore.Metal>
0.0000

> <Gold.Chemscore.Lipo>
164.1994

> <Gold.Chemscore.Internal_Hbond>
0.0000

> <Gold.Chemscore.DEClash>
1.8650

> <Gold.Chemscore.DEInternal>
2.0630

> <Gold.Chemscore.Rot>
3.1903

> <Gold.Chemscore.Internal.Correction>
   9.000000E+99

> <Gold.Chemscore.Hbonds>
donor molecule, donor type, donor heavy atom, donor atom, acceptor molecule, acceptor atom, score
      P1  H  6896  6908       L1    15  0.76
      P1  H  7989  7998       L1    21  0.54
      P1  H  7997  8008       L1     1  0.90
      P1  H 10752 10765       L1     6  0.43

> <Gold.Chemscore.Hbond.Weighted>
-9.3856

> <Gold.Chemscore.Metal.Weighted>
-0.0000

> <Gold.Chemscore.Lipo.Weighted>
-19.2113

> <Gold.Chemscore.Internal_Hbond.Weighted>
0.0000

> <Gold.Chemscore.DEClash.Weighted>
1.8650

> <Gold.Chemscore.DEInternal.Weighted>
2.0630

> <Gold.Chemscore.Rot.Weighted>
8.1671

> <Gold.Chemscore.Internal.Correction.Weighted>
   9.000000E+99

> <Gold.Protein.RotatedTorsions>
[ 6907 6896 6895 6894 ] final   79.14 input  -60.11 | X-H torsion
[ 7974 7965 7964 7962 ] final  -65.04 input  175.53 | X-H torsion
[ 8008 7997 7996 7995 ] final   59.14 input   59.86 | X-H torsion
[ 10167 10162 10161 10158 ] final  -37.41 input  -65.29 | X-H torsion
[ 10718 10713 10712 10709 ] final   -5.42 input   66.30 | X-H torsion
[ 10763 10752 10751 10750 ] final -155.55 input  -60.55 | X-H torsion
[ 11005 11000 10999 10996 ] final  146.91 input  -57.11 | X-H torsion

> <Gold.Protein.ActiveResidues>
 VAL166  LYS551  ARG553  GLY616  TRP617  ASP618  TYR619  PRO620  LYS621  CYS622 
 ASP623  PHE694  ASN695  SER759  ASP760  ASP761  ALA762  ILE779  LEU786  VAL792 
 PHE793  MET794  SER795  GLU796  ALA797  LYS798  CYS799  TRP800  GLU811  SER814 

> <Gold.Protein.RotatedAtoms>
  152.5187  134.3557  159.9266 H   0  0  0  0  0  0  0  0  0  0  0  0  # atno 6907 bound_to 6896
  151.3509  133.3919  159.2688 H   0  0  0  0  0  0  0  0  0  0  0  0  # atno 6908 bound_to 6896
  150.9728  134.9116  159.7856 H   0  0  0  0  0  0  0  0  0  0  0  0  # atno 6909 bound_to 6896
  145.7593  140.8869  143.0438 H   0  0  0  0  0  0  0  0  0  0  0  0  # atno 7974 bound_to 7965
  155.5615  140.3488  155.4492 H   0  0  0  0  0  0  0  0  0  0  0  0  # atno 8008 bound_to 7997
  156.0511  140.1318  157.0075 H   0  0  0  0  0  0  0  0  0  0  0  0  # atno 8009 bound_to 7997
  154.4435  140.1004  156.6362 H   0  0  0  0  0  0  0  0  0  0  0  0  # atno 8010 bound_to 7997
  140.7119  143.3344  151.2497 H   0  0  0  0  0  0  0  0  0  0  0  0  # atno 10167 bound_to 10162
  156.7469  130.5227  149.5812 H   0  0  0  0  0  0  0  0  0  0  0  0  # atno 10718 bound_to 10713
  154.7779  135.3165  154.8053 H   0  0  0  0  0  0  0  0  0  0  0  0  # atno 10763 bound_to 10752
  153.8771  135.6838  153.4774 H   0  0  0  0  0  0  0  0  0  0  0  0  # atno 10764 bound_to 10752
  153.1407  135.4740  154.9428 H   0  0  0  0  0  0  0  0  0  0  0  0  # atno 10765 bound_to 10752
  140.0832  134.9085  157.1534 H   0  0  0  0  0  0  0  0  0  0  0  0  # atno 11005 bound_to 11000
  144.6834  139.9700  143.7482 LP  0  0  0  0  0  0  0  0  0  0  0  0  # atno 17320 bound_to 7965
  146.0280  139.3309  143.0772 LP  0  0  0  0  0  0  0  0  0  0  0  0  # atno 17321 bound_to 7965
  139.6834  143.9815  152.2821 LP  0  0  0  0  0  0  0  0  0  0  0  0  # atno 17342 bound_to 10162
  139.9452  144.6656  150.8226 LP  0  0  0  0  0  0  0  0  0  0  0  0  # atno 17343 bound_to 10162
  156.1427  130.6256  151.0489 LP  0  0  0  0  0  0  0  0  0  0  0  0  # atno 17370 bound_to 10713
  157.6794  131.0842  150.7409 LP  0  0  0  0  0  0  0  0  0  0  0  0  # atno 17371 bound_to 10713
  140.3457  134.2654  155.7205 LP  0  0  0  0  0  0  0  0  0  0  0  0  # atno 17394 bound_to 11000
  141.2054  133.7861  157.0236 LP  0  0  0  0  0  0  0  0  0  0  0  0  # atno 17395 bound_to 11000

$$$$
