AV-unprocessed.smi:1410|AV-procd|sdf|5734|dock6
  -GOLD-   22720 5363D 1   1.00000     0.00000
 Structure written by MMmdl.
 41 42  0  0  0  0  0  0  0  0  3 V2000
  142.8020  132.3874  150.5057 N   0  0  0  0  0  0  0  0  0  0  0  0
  143.7539  132.6020  149.5948 C   0  0  0  0  0  0  0  0  0  0  0  0
  143.7260  132.0795  148.4817 O   0  0  0  0  0  0  0  0  0  0  0  0
  144.8872  133.5546  149.9900 C   0  0  0  0  0  0  0  0  0  0  0  0
  144.9692  133.7814  151.4559 N   0  3  2  0  0  0  0  0  0  0  0  0
  144.4731  135.1214  151.8686 C   0  0  0  0  0  0  0  0  0  0  0  0
  144.4366  135.2497  153.4014 C   0  0  0  0  0  0  0  0  0  0  0  0
  145.8091  134.9572  154.0409 C   0  0  2  0  0  0  0  0  0  0  0  0
  146.7778  136.0219  153.7771 N   0  0  0  0  0  0  0  0  0  0  0  0
  146.6562  137.2959  154.1793 C   0  0  0  0  0  0  0  0  0  0  0  0
  145.6803  137.7195  154.7971 O   0  0  0  0  0  0  0  0  0  0  0  0
  147.7193  138.0294  153.8052 N   0  0  0  0  0  0  0  0  0  0  0  0
  147.9687  139.4123  154.0265 C   0  0  0  0  0  0  0  0  0  0  0  0
  146.8791  140.3008  153.8863 C   0  0  0  0  0  0  0  0  0  0  0  0
  147.0766  141.6826  154.0840 C   0  0  0  0  0  0  0  0  0  0  0  0
  148.3047  142.1481  154.3967 N   0  3  0  0  0  0  0  0  0  0  0  0
  149.3792  141.3411  154.5278 C   0  0  0  0  0  0  0  0  0  0  0  0
  149.2432  139.9502  154.3410 C   0  0  0  0  0  0  0  0  0  0  0  0
  146.3411  133.6050  153.5344 C   0  0  0  0  0  0  0  0  0  0  0  0
  146.3255  133.5123  151.9974 C   0  0  0  0  0  0  0  0  0  0  0  0
  142.0322  131.7697  150.2895 H   0  0  0  0  0  0  0  0  0  0  0  0
  142.8474  132.8424  151.4061 H   0  0  0  0  0  0  0  0  0  0  0  0
  145.8125  133.0976  149.6367 H   0  0  0  0  0  0  0  0  0  0  0  0
  144.7893  134.5077  149.4672 H   0  0  0  0  0  0  0  0  0  0  0  0
  145.1093  135.8968  151.4393 H   0  0  0  0  0  0  0  0  0  0  0  0
  143.4699  135.2875  151.4750 H   0  0  0  0  0  0  0  0  0  0  0  0
  144.0802  136.2405  153.6858 H   0  0  0  0  0  0  0  0  0  0  0  0
  143.7035  134.5450  153.7964 H   0  0  0  0  0  0  0  0  0  0  0  0
  145.6826  134.8841  155.1227 H   0  0  0  0  0  0  0  0  0  0  0  0
  147.6139  135.7617  153.2745 H   0  0  0  0  0  0  0  0  0  0  0  0
  148.4099  137.5517  153.2449 H   0  0  0  0  0  0  0  0  0  0  0  0
  145.8959  139.9301  153.6347 H   0  0  0  0  0  0  0  0  0  0  0  0
  146.2953  142.4238  154.0005 H   0  0  0  0  0  0  0  0  0  0  0  0
  150.3116  141.8292  154.7716 H   0  0  0  0  0  0  0  0  0  0  0  0
  150.1215  139.3302  154.4321 H   0  0  0  0  0  0  0  0  0  0  0  0
  147.3494  133.4284  153.9112 H   0  0  0  0  0  0  0  0  0  0  0  0
  145.7227  132.8043  153.9425 H   0  0  0  0  0  0  0  0  0  0  0  0
  146.6489  132.5141  151.6995 H   0  0  0  0  0  0  0  0  0  0  0  0
  147.0376  134.2166  151.5646 H   0  0  0  0  0  0  0  0  0  0  0  0
  144.3547  133.0981  151.8763 H   0  0  0  0  0  0  0  0  0  0  0  0
  148.4269  143.1516  154.5353 H   0  0  0  0  0  0  0  0  0  0  0  0
  1  2  1  0  0  0  0
  1 21  1  0  0  0  0
  1 22  1  0  0  0  0
  2  3  2  0  0  0  0
  2  4  1  0  0  0  0
  4  5  1  0  0  0  0
  4 23  1  0  0  0  0
  4 24  1  0  0  0  0
  5 20  1  0  0  0  0
  5  6  1  0  0  0  0
  5 40  1  0  0  0  0
  6  7  1  0  0  0  0
  6 25  1  0  0  0  0
  6 26  1  0  0  0  0
  7  8  1  0  0  0  0
  7 27  1  0  0  0  0
  7 28  1  0  0  0  0
  8  9  1  0  0  0  0
  8 19  1  0  0  0  0
  8 29  1  0  0  0  0
  9 10  1  0  0  0  0
  9 30  1  0  0  0  0
 10 11  2  0  0  0  0
 10 12  1  0  0  0  0
 12 13  1  0  0  0  0
 12 31  1  0  0  0  0
 13 18  1  0  0  0  0
 13 14  2  0  0  0  0
 14 15  1  0  0  0  0
 14 32  1  0  0  0  0
 15 16  2  0  0  0  0
 15 33  1  0  0  0  0
 16 17  1  0  0  0  0
 16 41  1  0  0  0  0
 17 18  2  0  0  0  0
 17 34  1  0  0  0  0
 18 35  1  0  0  0  0
 19 20  1  0  0  0  0
 19 36  1  0  0  0  0
 19 37  1  0  0  0  0
 20 38  1  0  0  0  0
 20 39  1  0  0  0  0
M  CHG  1   5   1
M  CHG  1  16   1
M  END
> <s_m_source_file>
AV-unprocessed.smi

> <i_m_source_file_index>
1410

> <i_lp_mmshare_version>
43012

> <i_f3d_flags>
0

> <s_epik_input>
W05IMl1DKD1PKVtDSDJdTjFbQ0gyXVtDSDJdW0NIXShbQ0gyXVtDSDJdMSlbTkhdQyg9TylbTkhdYzJbY0hdW2NIXW5bY0hdW2NIXTI=

> <s_epik_cmdline>
J2VwaWtfcHl0aG9uJywgJy1waCcsICc3LjAnLCAnLXRuJywgJzgnLCAnLW1hJywgJzIwMCcsICctbWV0YWxfYmluZGluZycsICctaW1hZScsICc8aW5maWxlLm1hZT4nLCAnLW9tYWUnLCAnPG91dGZpbGUubWFlPic=

> <r_epik_Ionization_Penalty>
1.97414

> <r_epik_Ionization_Penalty_Charging>
1.97408

> <r_epik_Ionization_Penalty_Neutral>
5.94508e-05

> <r_epik_State_Penalty>
2.00676

> <r_epik_Charging_Adjusted_Penalty>
3.98084

> <i_epik_Tot_Q>
2

> <i_epik_Tot_abs_Q>
2

> <r_epik_Metal_State_Penalty>
2.12108

> <b_epik_Metal_Only>
0

> <s_lp_Force_Field>
OPLS_2005

> <r_lp_Energy>
26.1476

> <b_lp_Chiralities_Consistent>
1

> <s_lp_Variant>
AV-unprocessed.smi:1410-6

> <Gold.Version>
5.8.1

> <Gold.Id.Protein>
6NUR|6NUR_protein|mol2

> <Gold.PLP.Fitness>
44.9088

> <Gold.PLP.PLP>
-30.5403

> <Gold.PLP.part.hbond>
-6.0000

> <Gold.PLP.part.metal>
0.0000

> <Gold.PLP.part.buried>
-3.5845

> <Gold.PLP.part.nonpolar>
-21.5228

> <Gold.PLP.part.repulsive>
0.7146

> <Gold.PLP.ligand.clash>
0.0000

> <Gold.PLP.ligand.torsion>
1.2285

> <Gold.PLP.Chemscore.Hbond>
5.6000

> <Gold.PLP.Chemscore.CHOScore>
0.0000

> <Gold.PLP.Chemscore.Metal>
0.0000

> <Gold.Chemscore.Hbonds>
donor molecule, donor type, donor heavy atom, donor atom, acceptor molecule, acceptor atom, score
      L1  H     1    21       P1 10952  1.00
      L1  H     9    30       P1  7948  0.96
      L1  H    12    31       P1  7948  1.00
      L1  H    16    41       P1  8028  2.00
      P1  H 10785 10796       L1     3  0.61

> <Gold.PLP.Chemscore.Internal.Correction>
0.0255

> <Gold.Rescore>
     Score         DG    S(hbond)    S(metal)    S(lipo)     H(rot)  DE(clash)    DE(int)     intcor
     16.70     -19.12       3.69        0.00      54.68       1.99       0.10       2.32       ----

> <Gold.Chemscore.Fitness>
16.6955

> <Gold.Chemscore.DG>
-19.1194

> <Gold.Chemscore.ZeroCoef>
-5.4800

> <Gold.Chemscore.Hbond>
3.6930

> <Gold.Chemscore.Metal>
0.0000

> <Gold.Chemscore.Lipo>
54.6797

> <Gold.Chemscore.Internal_Hbond>
0.0000

> <Gold.Chemscore.DEClash>
0.1007

> <Gold.Chemscore.DEInternal>
2.3232

> <Gold.Chemscore.Rot>
1.9894

> <Gold.Chemscore.Internal.Correction>
   9.000000E+99

> <Gold.Chemscore.Hbonds>
donor molecule, donor type, donor heavy atom, donor atom, acceptor molecule, acceptor atom, score
      L1  H     1    21       P1 10952  0.58
      L1  H     9    30       P1  7948  0.89
      L1  H    12    31       P1  7948  0.95
      L1  H    16    41       P1  8028  0.96
      P1  H 10785 10796       L1     3  0.39

> <Gold.Chemscore.Hbond.Weighted>
-12.3346

> <Gold.Chemscore.Metal.Weighted>
-0.0000

> <Gold.Chemscore.Lipo.Weighted>
-6.3975

> <Gold.Chemscore.Internal_Hbond.Weighted>
0.0000

> <Gold.Chemscore.DEClash.Weighted>
0.1007

> <Gold.Chemscore.DEInternal.Weighted>
2.3232

> <Gold.Chemscore.Rot.Weighted>
5.0927

> <Gold.Chemscore.Internal.Correction.Weighted>
   9.000000E+99

> <Gold.Protein.RotatedTorsions>
[ 6907 6896 6895 6894 ] final -129.86 input  -60.11 | X-H torsion
[ 7974 7965 7964 7962 ] final  124.81 input  175.53 | X-H torsion
[ 8008 7997 7996 7995 ] final  -97.73 input   59.86 | X-H torsion
[ 10167 10162 10161 10158 ] final   94.83 input  -65.29 | X-H torsion
[ 10718 10713 10712 10709 ] final  138.99 input   66.30 | X-H torsion
[ 10763 10752 10751 10750 ] final   10.68 input  -60.55 | X-H torsion
[ 11005 11000 10999 10996 ] final -109.44 input  -57.11 | X-H torsion

> <Gold.Protein.ActiveResidues>
 VAL166  LYS551  ARG553  GLY616  TRP617  ASP618  TYR619  PRO620  LYS621  CYS622 
 ASP623  PHE694  ASN695  SER759  ASP760  ASP761  ALA762  ILE779  LEU786  VAL792 
 PHE793  MET794  SER795  GLU796  ALA797  LYS798  CYS799  TRP800  GLU811  SER814 

> <Gold.Protein.RotatedAtoms>
  150.9333  133.6741  159.2805 H   0  0  0  0  0  0  0  0  0  0  0  0  # atno 6907 bound_to 6896
  151.4155  135.0989  159.9608 H   0  0  0  0  0  0  0  0  0  0  0  0  # atno 6908 bound_to 6896
  152.5036  133.8797  159.7395 H   0  0  0  0  0  0  0  0  0  0  0  0  # atno 6909 bound_to 6896
  145.0802  139.3663  143.4913 H   0  0  0  0  0  0  0  0  0  0  0  0  # atno 7974 bound_to 7965
  154.7917  140.0461  157.1206 H   0  0  0  0  0  0  0  0  0  0  0  0  # atno 8008 bound_to 7997
  154.9583  140.3074  155.5023 H   0  0  0  0  0  0  0  0  0  0  0  0  # atno 8009 bound_to 7997
  156.2950  140.2275  156.4666 H   0  0  0  0  0  0  0  0  0  0  0  0  # atno 8010 bound_to 7997
  139.8046  144.6799  150.9720 H   0  0  0  0  0  0  0  0  0  0  0  0  # atno 10167 bound_to 10162
  157.4193  131.1037  151.0371 H   0  0  0  0  0  0  0  0  0  0  0  0  # atno 10718 bound_to 10713
  153.2007  135.6855  153.8235 H   0  0  0  0  0  0  0  0  0  0  0  0  # atno 10763 bound_to 10752
  153.7503  135.3225  155.3321 H   0  0  0  0  0  0  0  0  0  0  0  0  # atno 10764 bound_to 10752
  154.8169  135.4679  154.0771 H   0  0  0  0  0  0  0  0  0  0  0  0  # atno 10765 bound_to 10752
  141.0847  133.9158  157.2211 H   0  0  0  0  0  0  0  0  0  0  0  0  # atno 11005 bound_to 11000
  146.3531  140.0588  142.8631 LP  0  0  0  0  0  0  0  0  0  0  0  0  # atno 17320 bound_to 7965
  145.1187  140.9449  143.4613 LP  0  0  0  0  0  0  0  0  0  0  0  0  # atno 17321 bound_to 7965
  140.7819  143.4246  151.0787 LP  0  0  0  0  0  0  0  0  0  0  0  0  # atno 17342 bound_to 10162
  139.7917  143.8210  152.3152 LP  0  0  0  0  0  0  0  0  0  0  0  0  # atno 17343 bound_to 10162
  157.1307  130.6101  149.5528 LP  0  0  0  0  0  0  0  0  0  0  0  0  # atno 17370 bound_to 10713
  155.9875  130.4915  150.7129 LP  0  0  0  0  0  0  0  0  0  0  0  0  # atno 17371 bound_to 10713
  139.9665  135.0140  156.9399 LP  0  0  0  0  0  0  0  0  0  0  0  0  # atno 17394 bound_to 11000
  140.5389  134.0740  155.7336 LP  0  0  0  0  0  0  0  0  0  0  0  0  # atno 17395 bound_to 11000

$$$$
