#       Name:                AV-unprocessed.smi:49
#       Creating user name   scv26
#       Creation time:       Thu Mar 26 16:34:01 2020


#       File generated by GOLD software.
#

@<TRIPOS>MOLECULE
AV-unprocessed.smi:49
    32    33     1
SMALL
NO_CHARGES


@<TRIPOS>ATOM
      1 ****        -4.2325   1.6232   0.5362 C.3            1 S1                 0.0000
      2 ****        -3.6864   0.1961   0.6530 C.3            1 S1                 0.0000
      3 ****        -2.1937   0.1525   0.6634 C.2            1 S1                 0.0000
      4 ****        -1.4188   0.2279  -0.4132 N.2            1 S1                 0.0000
      5 ****        -0.1836   0.1659   0.1698 C.2            1 S1                 0.0000
      6 ****         1.0771   0.1638  -0.6397 C.3            1 S1                 0.0000
      7 ****         1.5469  -1.2533  -0.9925 C.3            1 S1                 0.0000
      8 ****         3.0479  -1.0700  -1.1576 C.3            1 S1                 0.0000
      9 ****         3.7691  -2.2745  -1.0109 O.3            1 S1                 0.0000
     10 ****         3.3676  -0.0608  -0.0582 C.3            1 S1                 0.0000
     11 ****         2.2129   0.8321   0.0103 N.3            1 S1                 0.0000
     12 ****        -0.1731   0.0387   1.4980 N.2            1 S1                 0.0000
     13 ****        -1.4900   0.0471   1.7922 N.pl3          1 S1                 0.0000
     14 ****         0.8744   0.6876  -1.5747 H              1 S1                 0.0000
     15 ****         3.2632  -0.6363  -2.1354 H              1 S1                 0.0000
     16 ****        -1.8456  -0.0267   2.7347 H              1 S1                 0.0000
     17 ****        -5.3225   1.6230   0.5310 H              1 S1                 0.0000
     18 ****        -3.8953   2.0989  -0.3852 H              1 S1                 0.0000
     19 ****        -3.9028   2.2398   1.3728 H              1 S1                 0.0000
     20 ****        -4.0635  -0.2727   1.5629 H              1 S1                 0.0000
     21 ****        -4.0470  -0.4078  -0.1803 H              1 S1                 0.0000
     22 ****         1.3533  -1.9309  -0.1587 H              1 S1                 0.0000
     23 ****         1.0552  -1.6603  -1.8766 H              1 S1                 0.0000
     24 ****         4.6916  -2.0830  -1.0820 H              1 S1                 0.0000
     25 ****         3.4756  -0.5788   0.8958 H              1 S1                 0.0000
     26 ****         4.2935   0.4835  -0.2445 H              1 S1                 0.0000
     27 ****         2.4272   1.6762  -0.5107 H              1 S1                 0.0000
     28 ****        -1.6686   0.3075  -1.3782 LP             1 S1                 0.0000
     29 ****         3.5018  -2.9171  -1.7290 LP             1 S1                 0.0000
     30 ****         3.5761  -2.6761  -0.1156 LP             1 S1                 0.0000
     31 ****         1.9963   1.0540   0.9610 LP             1 S1                 0.0000
     32 ****         0.6089  -0.0421   2.1160 LP             1 S1                 0.0000
@<TRIPOS>BOND
    1    1    2 1     
    2    1   17 1     
    3    1   18 1     
    4    1   19 1     
    5    2    3 1     
    6    2   20 1     
    7    2   21 1     
    8    3   13 1     
    9    3    4 2     
   10    4    5 1     
   11    5    6 1     
   12    5   12 2     
   13    6   14 1     
   14    6   11 1     
   15    6    7 1     
   16    7    8 1     
   17    7   22 1     
   18    7   23 1     
   19    8   15 1     
   20    8    9 1     
   21    8   10 1     
   22    9   24 1     
   23   10   11 1     
   24   10   25 1     
   25   10   26 1     
   26   11   27 1     
   27   12   13 1     
   28   13   16 1     
   29    4   28 1     
   30    9   29 1     
   31    9   30 1     
   32   11   31 1     
   33   12   32 1     
@<TRIPOS>SUBSTRUCTURE
      1 S1             1
@<TRIPOS>SET
LONE_PAIRS      STATIC     ATOMS    <user>   **** ""
5 28 29 30 31 32
DONOR_HYDROGENS      STATIC     ATOMS    <user>   **** ""
3 24 27 16
ATOM$BLUE        STATIC     ATOMS    COLORGROUP SYSTEM
5 28 29 30 31 32
ATOM$RED        STATIC     ATOMS    COLORGROUP SYSTEM
3 24 27 16
