AV-unprocessed.smi:3306|AV-procd|sdf|12701|dock10
  -GOLD-   2272019 33D 1   1.00000     0.00000
 Structure written by MMmdl.
 45 46  0  0  0  0  0  0  0  0  3 V2000
  145.5061  134.9117  150.6327 C   0  0  0  0  0  0  0  0  0  0  0  0
  145.4356  135.4132  152.0846 C   0  0  0  0  0  0  0  0  0  0  0  0
  143.9793  135.5424  152.5721 C   0  0  0  0  0  0  0  0  0  0  0  0
  146.2384  136.6584  152.2660 N   0  3  2  0  0  0  0  0  0  0  0  0
  146.3693  137.0753  153.6872 C   0  0  0  0  0  0  0  0  0  0  0  0
  147.3979  138.2099  153.8345 C   0  0  0  0  0  0  0  0  0  0  0  0
  147.0278  139.4183  152.9583 C   0  0  1  0  0  0  0  0  0  0  0  0
  148.0536  140.4780  153.0927 N   0  3  0  0  0  0  0  0  0  0  0  0
  148.5494  140.7038  154.4664 C   0  0  0  0  0  0  0  0  0  0  0  0
  149.9329  140.0693  154.6634 C   0  0  0  0  0  0  0  0  0  0  0  0
  150.5620  140.4667  155.9852 C   0  0  0  0  0  0  0  0  0  0  0  0
  150.7665  141.8248  156.3087 C   0  0  0  0  0  0  0  0  0  0  0  0
  151.3543  142.1370  157.5503 C   0  0  0  0  0  0  0  0  0  0  0  0
  151.7097  141.0846  158.4161 C   0  0  0  0  0  0  0  0  0  0  0  0
  151.4607  139.7613  158.0008 C   0  0  0  0  0  0  0  0  0  0  0  0
  150.8987  139.4513  156.8120 N   0  0  0  0  0  0  0  0  0  0  0  0
  146.8670  138.9490  151.4987 C   0  0  0  0  0  0  0  0  0  0  0  0
  145.8483  137.8000  151.3934 C   0  0  0  0  0  0  0  0  0  0  0  0
  145.0385  133.9310  150.5389 H   0  0  0  0  0  0  0  0  0  0  0  0
  146.5396  134.8129  150.2989 H   0  0  0  0  0  0  0  0  0  0  0  0
  144.9927  135.5802  149.9419 H   0  0  0  0  0  0  0  0  0  0  0  0
  145.9108  134.6385  152.6883 H   0  0  0  0  0  0  0  0  0  0  0  0
  143.4713  134.5788  152.5214 H   0  0  0  0  0  0  0  0  0  0  0  0
  143.4050  136.2386  151.9606 H   0  0  0  0  0  0  0  0  0  0  0  0
  143.9256  135.8792  153.6070 H   0  0  0  0  0  0  0  0  0  0  0  0
  145.4011  137.3988  154.0713 H   0  0  0  0  0  0  0  0  0  0  0  0
  146.6851  136.2279  154.2968 H   0  0  0  0  0  0  0  0  0  0  0  0
  147.4613  138.5123  154.8806 H   0  0  0  0  0  0  0  0  0  0  0  0
  148.3870  137.8393  153.5598 H   0  0  0  0  0  0  0  0  0  0  0  0
  146.0763  139.8169  153.3149 H   0  0  0  0  0  0  0  0  0  0  0  0
  148.8490  140.2052  152.5326 H   0  0  0  0  0  0  0  0  0  0  0  0
  148.6052  141.7735  154.6688 H   0  0  0  0  0  0  0  0  0  0  0  0
  147.8420  140.2755  155.1779 H   0  0  0  0  0  0  0  0  0  0  0  0
  149.8564  138.9816  154.6243 H   0  0  0  0  0  0  0  0  0  0  0  0
  150.5970  140.3601  153.8480 H   0  0  0  0  0  0  0  0  0  0  0  0
  150.4832  142.6114  155.6246 H   0  0  0  0  0  0  0  0  0  0  0  0
  151.5298  143.1644  157.8330 H   0  0  0  0  0  0  0  0  0  0  0  0
  152.1626  141.2869  159.3755 H   0  0  0  0  0  0  0  0  0  0  0  0
  151.7187  138.9302  158.6403 H   0  0  0  0  0  0  0  0  0  0  0  0
  146.5381  139.7718  150.8639 H   0  0  0  0  0  0  0  0  0  0  0  0
  147.8297  138.6202  151.1042 H   0  0  0  0  0  0  0  0  0  0  0  0
  145.7825  137.4787  150.3545 H   0  0  0  0  0  0  0  0  0  0  0  0
  144.8603  138.1660  151.6761 H   0  0  0  0  0  0  0  0  0  0  0  0
  147.1730  136.4015  151.9816 H   0  0  0  0  0  0  0  0  0  0  0  0
  147.6877  141.3445  152.7243 H   0  0  0  0  0  0  0  0  0  0  0  0
  1  2  1  0  0  0  0
  1 19  1  0  0  0  0
  1 20  1  0  0  0  0
  1 21  1  0  0  0  0
  2  3  1  0  0  0  0
  2  4  1  0  0  0  0
  2 22  1  0  0  0  0
  3 23  1  0  0  0  0
  3 24  1  0  0  0  0
  3 25  1  0  0  0  0
  4 18  1  0  0  0  0
  4  5  1  0  0  0  0
  4 44  1  0  0  0  0
  5  6  1  0  0  0  0
  5 26  1  0  0  0  0
  5 27  1  0  0  0  0
  6  7  1  0  0  0  0
  6 28  1  0  0  0  0
  6 29  1  0  0  0  0
  7  8  1  0  0  0  0
  7 17  1  0  0  0  0
  7 30  1  0  0  0  0
  8  9  1  0  0  0  0
  8 31  1  0  0  0  0
  8 45  1  0  0  0  0
  9 10  1  0  0  0  0
  9 32  1  0  0  0  0
  9 33  1  0  0  0  0
 10 11  1  0  0  0  0
 10 34  1  0  0  0  0
 10 35  1  0  0  0  0
 11 16  1  0  0  0  0
 11 12  2  0  0  0  0
 12 13  1  0  0  0  0
 12 36  1  0  0  0  0
 13 14  2  0  0  0  0
 13 37  1  0  0  0  0
 14 15  1  0  0  0  0
 14 38  1  0  0  0  0
 15 16  2  0  0  0  0
 15 39  1  0  0  0  0
 17 18  1  0  0  0  0
 17 40  1  0  0  0  0
 17 41  1  0  0  0  0
 18 42  1  0  0  0  0
 18 43  1  0  0  0  0
M  CHG  1   4   1
M  CHG  1   8   1
M  END
> <s_m_source_file>
AV-unprocessed.smi

> <i_m_source_file_index>
3306

> <i_lp_mmshare_version>
43012

> <i_f3d_flags>
0

> <s_epik_input>
W0NIM11bQ0hdKFtDSDNdKU4xW0NIMl1bQ0gyXVtDSF0oW0NIMl1bQ0gyXTEpW05IXVtDSDJdW0NIMl1jMltjSF1bY0hdW2NIXVtjSF1uMg==

> <s_epik_cmdline>
J2VwaWtfcHl0aG9uJywgJy1waCcsICc3LjAnLCAnLXRuJywgJzgnLCAnLW1hJywgJzIwMCcsICctbWV0YWxfYmluZGluZycsICctaW1hZScsICc8aW5maWxlLm1hZT4nLCAnLW9tYWUnLCAnPG91dGZpbGUubWFlPic=

> <r_epik_Ionization_Penalty>
0.0800465

> <r_epik_Ionization_Penalty_Charging>
0.0790817

> <r_epik_Ionization_Penalty_Neutral>
0.000964829

> <r_epik_State_Penalty>
0.0665964

> <r_epik_Charging_Adjusted_Penalty>
0.145678

> <i_epik_Tot_Q>
2

> <i_epik_Tot_abs_Q>
2

> <r_epik_Metal_State_Penalty>
0.0683331

> <b_epik_Metal_Only>
0

> <s_lp_Force_Field>
OPLS_2005

> <r_lp_Energy>
27.4923

> <b_lp_Chiralities_Consistent>
1

> <s_lp_Variant>
AV-unprocessed.smi:3306-1

> <Gold.Version>
5.8.1

> <Gold.Id.Protein>
6NUR|6NUR_protein|mol2

> <Gold.PLP.Fitness>
40.7401

> <Gold.PLP.PLP>
-32.6810

> <Gold.PLP.part.hbond>
-2.0000

> <Gold.PLP.part.metal>
0.0000

> <Gold.PLP.part.buried>
2.2711

> <Gold.PLP.part.nonpolar>
-32.4316

> <Gold.PLP.part.repulsive>
0.1512

> <Gold.PLP.ligand.clash>
0.0000

> <Gold.PLP.ligand.torsion>
0.5219

> <Gold.PLP.Chemscore.Hbond>
3.0000

> <Gold.PLP.Chemscore.CHOScore>
0.0000

> <Gold.PLP.Chemscore.Metal>
0.0000

> <Gold.Chemscore.Hbonds>
donor molecule, donor type, donor heavy atom, donor atom, acceptor molecule, acceptor atom, score
      L1  H     4    44       P1  7948  2.00
      L1  H     8    31       P1  7957  1.00

> <Gold.PLP.Chemscore.Internal.Correction>
0.1029

> <Gold.Rescore>
     Score         DG    S(hbond)    S(metal)    S(lipo)     H(rot)  DE(clash)    DE(int)     intcor
     17.33     -18.64       1.98        0.00      87.93       1.47       0.68       0.62       ----

> <Gold.Chemscore.Fitness>
17.3331

> <Gold.Chemscore.DG>
-18.6384

> <Gold.Chemscore.ZeroCoef>
-5.4800

> <Gold.Chemscore.Hbond>
1.9846

> <Gold.Chemscore.Metal>
0.0000

> <Gold.Chemscore.Lipo>
87.9296

> <Gold.Chemscore.Internal_Hbond>
0.0000

> <Gold.Chemscore.DEClash>
0.6837

> <Gold.Chemscore.DEInternal>
0.6216

> <Gold.Chemscore.Rot>
1.4679

> <Gold.Chemscore.Internal.Correction>
   9.000000E+99

> <Gold.Chemscore.Hbonds>
donor molecule, donor type, donor heavy atom, donor atom, acceptor molecule, acceptor atom, score
      L1  H     4    44       P1  7948  1.00
      L1  H     8    31       P1  7957  0.94

> <Gold.Chemscore.Hbond.Weighted>
-6.6285

> <Gold.Chemscore.Metal.Weighted>
-0.0000

> <Gold.Chemscore.Lipo.Weighted>
-10.2878

> <Gold.Chemscore.Internal_Hbond.Weighted>
0.0000

> <Gold.Chemscore.DEClash.Weighted>
0.6837

> <Gold.Chemscore.DEInternal.Weighted>
0.6216

> <Gold.Chemscore.Rot.Weighted>
3.7579

> <Gold.Chemscore.Internal.Correction.Weighted>
   9.000000E+99

> <Gold.Protein.RotatedTorsions>
[ 6907 6896 6895 6894 ] final  -57.63 input  -60.11 | X-H torsion
[ 7974 7965 7964 7962 ] final  -36.18 input  175.53 | X-H torsion
[ 8008 7997 7996 7995 ] final   60.82 input   59.86 | X-H torsion
[ 10167 10162 10161 10158 ] final -152.07 input  -65.29 | X-H torsion
[ 10718 10713 10712 10709 ] final -135.64 input   66.30 | X-H torsion
[ 10763 10752 10751 10750 ] final -149.43 input  -60.55 | X-H torsion
[ 11005 11000 10999 10996 ] final  -23.83 input  -57.11 | X-H torsion

> <Gold.Protein.ActiveResidues>
 VAL166  LYS551  ARG553  GLY616  TRP617  ASP618  TYR619  PRO620  LYS621  CYS622 
 ASP623  PHE694  ASN695  SER759  ASP760  ASP761  ALA762  ILE779  LEU786  VAL792 
 PHE793  MET794  SER795  GLU796  ALA797  LYS798  CYS799  TRP800  GLU811  SER814 

> <Gold.Protein.RotatedAtoms>
  150.8071  134.7202  159.6653 H   0  0  0  0  0  0  0  0  0  0  0  0  # atno 6907 bound_to 6896
  152.4190  134.5986  160.0003 H   0  0  0  0  0  0  0  0  0  0  0  0  # atno 6908 bound_to 6896
  151.6206  133.3302  159.3123 H   0  0  0  0  0  0  0  0  0  0  0  0  # atno 6909 bound_to 6896
  146.0683  140.6248  142.8964 H   0  0  0  0  0  0  0  0  0  0  0  0  # atno 7974 bound_to 7965
  155.5884  140.3492  155.4559 H   0  0  0  0  0  0  0  0  0  0  0  0  # atno 8008 bound_to 7997
  156.0320  140.1276  157.0273 H   0  0  0  0  0  0  0  0  0  0  0  0  # atno 8009 bound_to 7997
  154.4356  140.1041  156.6099 H   0  0  0  0  0  0  0  0  0  0  0  0  # atno 8010 bound_to 7997
  139.7213  143.8953  152.2504 H   0  0  0  0  0  0  0  0  0  0  0  0  # atno 10167 bound_to 10162
  156.2684  130.7251  151.1209 H   0  0  0  0  0  0  0  0  0  0  0  0  # atno 10718 bound_to 10713
  154.8178  135.3309  154.7127 H   0  0  0  0  0  0  0  0  0  0  0  0  # atno 10763 bound_to 10752
  153.7765  135.6921  153.4901 H   0  0  0  0  0  0  0  0  0  0  0  0  # atno 10764 bound_to 10752
  153.2009  135.4516  155.0213 H   0  0  0  0  0  0  0  0  0  0  0  0  # atno 10765 bound_to 10752
  140.8788  133.7668  156.0277 H   0  0  0  0  0  0  0  0  0  0  0  0  # atno 11005 bound_to 11000
  144.7216  140.4391  143.7004 LP  0  0  0  0  0  0  0  0  0  0  0  0  # atno 17320 bound_to 7965
  145.6437  139.1554  143.2901 LP  0  0  0  0  0  0  0  0  0  0  0  0  # atno 17321 bound_to 7965
  139.8850  144.6997  150.8835 LP  0  0  0  0  0  0  0  0  0  0  0  0  # atno 17342 bound_to 10162
  140.7754  143.3631  151.1790 LP  0  0  0  0  0  0  0  0  0  0  0  0  # atno 17343 bound_to 10162
  157.7275  131.0638  150.5861 LP  0  0  0  0  0  0  0  0  0  0  0  0  # atno 17370 bound_to 10713
  156.5955  130.4340  149.5919 LP  0  0  0  0  0  0  0  0  0  0  0  0  # atno 17371 bound_to 10713
  140.8486  134.2981  157.5285 LP  0  0  0  0  0  0  0  0  0  0  0  0  # atno 17394 bound_to 11000
  139.8718  134.9455  156.3912 LP  0  0  0  0  0  0  0  0  0  0  0  0  # atno 17395 bound_to 11000

$$$$
