AV-unprocessed.smi:828|AV-procd|sdf|3859|dock2
  -GOLD-   22720 1313D 1   1.00000     0.00000
 Structure written by MMmdl.
 35 36  0  0  0  0  0  0  0  0  2 V2000
  151.3919  131.6989  156.5435 C   0  0  0  0  0  0  0  0  0  0  0  0
  150.4973  132.7481  155.9770 C   0  0  0  0  0  0  0  0  0  0  0  0
  150.2259  133.8919  156.6172 N   0  0  0  0  0  0  0  0  0  0  0  0
  149.3704  134.7102  155.8929 N   0  0  0  0  0  0  0  0  0  0  0  0
  149.0195  134.1563  154.7242 C   0  0  0  0  0  0  0  0  0  0  0  0
  148.1523  134.7765  153.7859 N   0  0  0  0  0  0  0  0  0  0  0  0
  146.8204  134.6373  153.6643 C   0  0  0  0  0  0  0  0  0  0  0  0
  146.1108  133.9241  154.3740 O   0  0  0  0  0  0  0  0  0  0  0  0
  146.3441  135.3810  152.6547 N   0  0  0  0  0  0  0  0  0  0  0  0
  144.9414  135.4727  152.2576 C   0  0  0  0  0  0  0  0  0  0  0  0
  144.6170  134.5490  151.0568 C   0  0  1  0  0  0  0  0  0  0  0  0
  145.6918  133.4889  150.7686 C   0  0  0  0  0  0  0  0  0  0  0  0
  144.9282  132.3853  150.0517 C   0  0  0  0  0  0  0  0  0  0  0  0
  143.5899  132.3902  150.7829 C   0  0  0  0  0  0  0  0  0  0  0  0
  143.3232  133.8046  151.1300 N   0  3  1  0  0  0  0  0  0  0  0  0
  142.5005  133.9585  152.3530 C   0  0  0  0  0  0  0  0  0  0  0  0
  149.7101  132.5728  154.4131 S   0  0  0  0  0  0  0  0  0  0  0  0
  152.0644  132.1295  157.2861 H   0  0  0  0  0  0  0  0  0  0  0  0
  151.9912  131.2493  155.7517 H   0  0  0  0  0  0  0  0  0  0  0  0
  150.7966  130.9194  157.0188 H   0  0  0  0  0  0  0  0  0  0  0  0
  148.6002  135.4034  153.1339 H   0  0  0  0  0  0  0  0  0  0  0  0
  147.0011  135.9368  152.1266 H   0  0  0  0  0  0  0  0  0  0  0  0
  144.2934  135.2529  153.1078 H   0  0  0  0  0  0  0  0  0  0  0  0
  144.7606  136.5136  151.9899 H   0  0  0  0  0  0  0  0  0  0  0  0
  144.5313  135.1770  150.1687 H   0  0  0  0  0  0  0  0  0  0  0  0
  146.5237  133.8774  150.1804 H   0  0  0  0  0  0  0  0  0  0  0  0
  146.0958  133.0958  151.7025 H   0  0  0  0  0  0  0  0  0  0  0  0
  144.7862  132.6472  149.0022 H   0  0  0  0  0  0  0  0  0  0  0  0
  145.4330  131.4199  150.0968 H   0  0  0  0  0  0  0  0  0  0  0  0
  142.7838  131.9655  150.1840 H   0  0  0  0  0  0  0  0  0  0  0  0
  143.6786  131.7959  151.6942 H   0  0  0  0  0  0  0  0  0  0  0  0
  143.0281  133.6020  153.2384 H   0  0  0  0  0  0  0  0  0  0  0  0
  141.5807  133.3805  152.2578 H   0  0  0  0  0  0  0  0  0  0  0  0
  142.2130  134.9984  152.5072 H   0  0  0  0  0  0  0  0  0  0  0  0
  142.7658  134.1748  150.3733 H   0  0  0  0  0  0  0  0  0  0  0  0
  1  2  1  0  0  0  0
  1 18  1  0  0  0  0
  1 19  1  0  0  0  0
  1 20  1  0  0  0  0
  2 17  1  0  0  0  0
  2  3  2  0  0  0  0
  3  4  1  0  0  0  0
  4  5  2  0  0  0  0
  5  6  1  0  0  0  0
  5 17  1  0  0  0  0
  6  7  1  0  0  0  0
  6 21  1  0  0  0  0
  7  8  2  0  0  0  0
  7  9  1  0  0  0  0
  9 10  1  0  0  0  0
  9 22  1  0  0  0  0
 10 11  1  0  0  0  0
 10 23  1  0  0  0  0
 10 24  1  0  0  0  0
 11 15  1  0  0  0  0
 11 12  1  0  0  0  0
 11 25  1  0  0  0  0
 12 13  1  0  0  0  0
 12 26  1  0  0  0  0
 12 27  1  0  0  0  0
 13 14  1  0  0  0  0
 13 28  1  0  0  0  0
 13 29  1  0  0  0  0
 14 15  1  0  0  0  0
 14 30  1  0  0  0  0
 14 31  1  0  0  0  0
 15 16  1  0  0  0  0
 15 35  1  0  0  0  0
 16 32  1  0  0  0  0
 16 33  1  0  0  0  0
 16 34  1  0  0  0  0
M  CHG  1  15   1
M  END
> <s_m_source_file>
AV-unprocessed.smi

> <i_m_source_file_index>
828

> <i_lp_mmshare_version>
43012

> <i_f3d_flags>
0

> <s_epik_input>
W0NIM11jMW5uYyhzMSlbTkhdQyg9TylbTkhdW0NIMl1bQ0BASF0yW0NIMl1bQ0gyXVtDSDJdTjJbQ0gzXQ==

> <s_epik_cmdline>
J2VwaWtfcHl0aG9uJywgJy1waCcsICc3LjAnLCAnLXRuJywgJzgnLCAnLW1hJywgJzIwMCcsICctbWV0YWxfYmluZGluZycsICctaW1hZScsICc8aW5maWxlLm1hZT4nLCAnLW9tYWUnLCAnPG91dGZpbGUubWFlPic=

> <r_lp_tautomer_probability>
1

> <r_epik_Ionization_Penalty>
0.00466477

> <r_epik_Ionization_Penalty_Charging>
0.00372199

> <r_epik_Ionization_Penalty_Neutral>
0.000942783

> <r_epik_State_Penalty>
-0

> <r_epik_Charging_Adjusted_Penalty>
0.00372199

> <i_epik_Tot_Q>
1

> <i_epik_Tot_abs_Q>
1

> <r_epik_Metal_State_Penalty>
0.28212

> <b_epik_Metal_Only>
0

> <s_lp_Force_Field>
OPLS_2005

> <r_lp_Energy>
28.4237

> <b_lp_Chiralities_Consistent>
1

> <s_lp_Variant>
AV-unprocessed.smi:828-2

> <Gold.Version>
5.8.1

> <Gold.Id.Protein>
6NUR|6NUR_protein|mol2

> <Gold.PLP.Fitness>
35.3168

> <Gold.PLP.PLP>
-26.8543

> <Gold.PLP.part.hbond>
-2.9509

> <Gold.PLP.part.metal>
0.0000

> <Gold.PLP.part.buried>
-3.3379

> <Gold.PLP.part.nonpolar>
-20.7590

> <Gold.PLP.part.repulsive>
0.1125

> <Gold.PLP.ligand.clash>
0.0000

> <Gold.PLP.ligand.torsion>
1.5184

> <Gold.PLP.Chemscore.Hbond>
3.8320

> <Gold.PLP.Chemscore.CHOScore>
0.0000

> <Gold.PLP.Chemscore.Metal>
0.0000

> <Gold.Chemscore.Hbonds>
donor molecule, donor type, donor heavy atom, donor atom, acceptor molecule, acceptor atom, score
      L1  H     6    21       P1  7948  1.00
      L1  H     9    22       P1  7948  0.85
      L1  H    15    35       P1 10186  1.95

> <Gold.PLP.Chemscore.Internal.Correction>
0.0034

> <Gold.Rescore>
     Score         DG    S(hbond)    S(metal)    S(lipo)     H(rot)  DE(clash)    DE(int)     intcor
     16.18     -17.71       2.61        0.00      59.08       1.33       0.06       1.47       ----

> <Gold.Chemscore.Fitness>
16.1823

> <Gold.Chemscore.DG>
-17.7072

> <Gold.Chemscore.ZeroCoef>
-5.4800

> <Gold.Chemscore.Hbond>
2.6103

> <Gold.Chemscore.Metal>
0.0000

> <Gold.Chemscore.Lipo>
59.0761

> <Gold.Chemscore.Internal_Hbond>
0.0000

> <Gold.Chemscore.DEClash>
0.0551

> <Gold.Chemscore.DEInternal>
1.4698

> <Gold.Chemscore.Rot>
1.3294

> <Gold.Chemscore.Internal.Correction>
   9.000000E+99

> <Gold.Chemscore.Hbonds>
donor molecule, donor type, donor heavy atom, donor atom, acceptor molecule, acceptor atom, score
      L1  H     6    21       P1  7948  0.86
      L1  H     9    22       P1  7948  0.83
      L1  H    15    35       P1 10186  0.79

> <Gold.Chemscore.Hbond.Weighted>
-8.7186

> <Gold.Chemscore.Metal.Weighted>
-0.0000

> <Gold.Chemscore.Lipo.Weighted>
-6.9119

> <Gold.Chemscore.Internal_Hbond.Weighted>
0.0000

> <Gold.Chemscore.DEClash.Weighted>
0.0551

> <Gold.Chemscore.DEInternal.Weighted>
1.4698

> <Gold.Chemscore.Rot.Weighted>
3.4033

> <Gold.Chemscore.Internal.Correction.Weighted>
   9.000000E+99

> <Gold.Protein.RotatedTorsions>
[ 6907 6896 6895 6894 ] final -123.29 input  -60.11 | X-H torsion
[ 7974 7965 7964 7962 ] final   46.34 input  175.53 | X-H torsion
[ 8008 7997 7996 7995 ] final   -4.82 input   59.86 | X-H torsion
[ 10167 10162 10161 10158 ] final  113.47 input  -65.29 | X-H torsion
[ 10718 10713 10712 10709 ] final  -14.75 input   66.30 | X-H torsion
[ 10763 10752 10751 10750 ] final  108.63 input  -60.55 | X-H torsion
[ 11005 11000 10999 10996 ] final -150.55 input  -57.11 | X-H torsion

> <Gold.Protein.ActiveResidues>
 VAL166  LYS551  ARG553  GLY616  TRP617  ASP618  TYR619  PRO620  LYS621  CYS622 
 ASP623  PHE694  ASN695  SER759  ASP760  ASP761  ALA762  ILE779  LEU786  VAL792 
 PHE793  MET794  SER795  GLU796  ALA797  LYS798  CYS799  TRP800  GLU811  SER814 

> <Gold.Protein.RotatedAtoms>
  150.8656  133.7579  159.2977 H   0  0  0  0  0  0  0  0  0  0  0  0  # atno 6907 bound_to 6896
  151.5207  135.1065  159.9887 H   0  0  0  0  0  0  0  0  0  0  0  0  # atno 6908 bound_to 6896
  152.4658  133.7876  159.6940 H   0  0  0  0  0  0  0  0  0  0  0  0  # atno 6909 bound_to 6896
  146.0399  139.4867  142.9785 H   0  0  0  0  0  0  0  0  0  0  0  0  # atno 7974 bound_to 7965
  154.6104  140.2474  155.7677 H   0  0  0  0  0  0  0  0  0  0  0  0  # atno 8008 bound_to 7997
  156.2367  140.2948  156.0281 H   0  0  0  0  0  0  0  0  0  0  0  0  # atno 8009 bound_to 7997
  155.2062  140.0396  157.2916 H   0  0  0  0  0  0  0  0  0  0  0  0  # atno 8010 bound_to 7997
  139.6459  144.7126  151.2143 H   0  0  0  0  0  0  0  0  0  0  0  0  # atno 10167 bound_to 10162
  156.6115  130.4851  149.6200 H   0  0  0  0  0  0  0  0  0  0  0  0  # atno 10718 bound_to 10713
  153.4233  135.3806  155.2125 H   0  0  0  0  0  0  0  0  0  0  0  0  # atno 10763 bound_to 10752
  154.8746  135.3822  154.4357 H   0  0  0  0  0  0  0  0  0  0  0  0  # atno 10764 bound_to 10752
  153.4880  135.7088  153.5963 H   0  0  0  0  0  0  0  0  0  0  0  0  # atno 10765 bound_to 10752
  140.7390  134.3536  157.5151 H   0  0  0  0  0  0  0  0  0  0  0  0  # atno 11005 bound_to 11000
  145.6902  141.0166  143.1559 LP  0  0  0  0  0  0  0  0  0  0  0  0  # atno 17320 bound_to 7965
  144.7069  139.8524  143.7427 LP  0  0  0  0  0  0  0  0  0  0  0  0  # atno 17321 bound_to 7965
  140.7514  143.6232  150.8494 LP  0  0  0  0  0  0  0  0  0  0  0  0  # atno 17342 bound_to 10162
  139.9874  143.5884  152.2922 LP  0  0  0  0  0  0  0  0  0  0  0  0  # atno 17343 bound_to 10162
  156.2386  130.6837  151.1534 LP  0  0  0  0  0  0  0  0  0  0  0  0  # atno 17370 bound_to 10713
  157.7253  131.0654  150.5959 LP  0  0  0  0  0  0  0  0  0  0  0  0  # atno 17371 bound_to 10713
  139.8810  134.9068  156.2931 LP  0  0  0  0  0  0  0  0  0  0  0  0  # atno 17394 bound_to 11000
  140.9854  133.7241  156.0733 LP  0  0  0  0  0  0  0  0  0  0  0  0  # atno 17395 bound_to 11000

$$$$
