AV-unprocessed.smi:16|AV-procd|sdf|88|dock8
  -GOLD-   2262015223D 1   1.00000     0.00000
 Structure written by MMmdl.
 60 64  0  0  0  0  0  0  0  0  2 V2000
  143.7780  139.6198  156.9794 C   0  0  0  0  0  0  0  0  0  0  0  0
  142.5452  140.1225  157.7453 C   0  0  0  0  0  0  0  0  0  0  0  0
  141.2735  139.6584  157.1359 N   0  3  2  0  0  0  0  0  0  0  0  0
  140.0787  140.1600  157.8627 C   0  0  0  0  0  0  0  0  0  0  0  0
  138.7865  139.7990  157.1130 C   0  0  0  0  0  0  0  0  0  0  0  0
  138.6920  138.2779  156.8663 C   0  0  1  0  0  0  0  0  0  0  0  0
  137.5208  137.9051  156.1370 O   0  0  0  0  0  0  0  0  0  0  0  0
  137.5150  138.3056  154.7678 C   0  0  0  0  0  0  0  0  0  0  0  0
  138.7623  137.7662  154.0519 C   0  0  0  0  0  0  0  0  0  0  0  0
  139.9677  138.1703  154.7649 N   0  0  0  0  0  0  0  0  0  0  0  0
  141.0945  137.8953  154.0734 C   0  0  0  0  0  0  0  0  0  0  0  0
  141.9079  138.9014  153.6595 N   0  0  0  0  0  0  0  0  0  0  0  0
  143.0016  138.6180  152.9445 C   0  0  0  0  0  0  0  0  0  0  0  0
  143.4456  137.4270  152.5339 N   0  0  0  0  0  0  0  0  0  0  0  0
  142.6243  136.4194  152.9481 C   0  0  0  0  0  0  0  0  0  0  0  0
  141.4427  136.5662  153.7247 C   0  0  0  0  0  0  0  0  0  0  0  0
  140.8680  135.3263  153.9679 N   0  0  0  0  0  0  0  0  0  0  0  0
  141.6733  134.4875  153.3738 C   0  0  0  0  0  0  0  0  0  0  0  0
  142.7320  135.0615  152.7050 N   0  0  0  0  0  0  0  0  0  0  0  0
  143.7699  134.3755  151.9938 C   0  0  0  0  0  0  0  0  0  0  0  0
  144.0200  134.6443  150.5081 C   0  0  0  0  0  0  0  0  0  0  0  0
  144.4497  133.1713  150.3214 C   0  0  0  0  0  0  0  0  0  0  0  0
  143.9318  132.4839  149.0476 C   0  0  0  0  0  0  0  0  0  0  0  0
  143.9217  133.3799  147.9551 O   0  0  0  0  0  0  0  0  0  0  0  0
  145.9618  132.9029  150.4623 C   0  0  0  0  0  0  0  0  0  0  0  0
  146.2150  131.5775  150.8824 O   0  0  0  0  0  0  0  0  0  0  0  0
  143.6146  132.9068  151.5934 C   0  0  0  0  0  0  0  0  0  0  0  0
  139.9623  137.7435  156.1675 C   0  0  1  0  0  0  0  0  0  0  0  0
  141.2161  138.1822  156.9660 C   0  0  0  0  0  0  0  0  0  0  0  0
  138.6111  137.7921  157.8394 H   0  0  0  0  0  0  0  0  0  0  0  0
  139.9206  136.6531  156.1748 H   0  0  0  0  0  0  0  0  0  0  0  0
  144.6927  139.9956  157.4379 H   0  0  0  0  0  0  0  0  0  0  0  0
  143.7656  139.9673  155.9466 H   0  0  0  0  0  0  0  0  0  0  0  0
  143.8442  138.5322  156.9667 H   0  0  0  0  0  0  0  0  0  0  0  0
  142.5907  139.8197  158.7925 H   0  0  0  0  0  0  0  0  0  0  0  0
  142.5758  141.2129  157.7401 H   0  0  0  0  0  0  0  0  0  0  0  0
  140.0609  139.7445  158.8716 H   0  0  0  0  0  0  0  0  0  0  0  0
  140.1371  141.2441  157.9662 H   0  0  0  0  0  0  0  0  0  0  0  0
  137.9193  140.1381  157.6799 H   0  0  0  0  0  0  0  0  0  0  0  0
  138.7740  140.3502  156.1731 H   0  0  0  0  0  0  0  0  0  0  0  0
  136.6159  137.9122  154.2936 H   0  0  0  0  0  0  0  0  0  0  0  0
  137.4556  139.3902  154.6820 H   0  0  0  0  0  0  0  0  0  0  0  0
  138.7153  136.6774  153.9987 H   0  0  0  0  0  0  0  0  0  0  0  0
  138.7905  138.1374  153.0263 H   0  0  0  0  0  0  0  0  0  0  0  0
  143.6041  139.4663  152.6543 H   0  0  0  0  0  0  0  0  0  0  0  0
  141.5072  133.4201  153.3962 H   0  0  0  0  0  0  0  0  0  0  0  0
  144.6829  134.5253  152.5724 H   0  0  0  0  0  0  0  0  0  0  0  0
  143.1027  134.8940  149.9714 H   0  0  0  0  0  0  0  0  0  0  0  0
  144.7968  135.3839  150.3118 H   0  0  0  0  0  0  0  0  0  0  0  0
  144.5662  131.6390  148.7782 H   0  0  0  0  0  0  0  0  0  0  0  0
  142.9287  132.0800  149.1856 H   0  0  0  0  0  0  0  0  0  0  0  0
  143.7726  134.2532  148.2841 H   0  0  0  0  0  0  0  0  0  0  0  0
  146.4794  133.0543  149.5151 H   0  0  0  0  0  0  0  0  0  0  0  0
  146.4245  133.5895  151.1715 H   0  0  0  0  0  0  0  0  0  0  0  0
  146.8966  131.2149  150.3375 H   0  0  0  0  0  0  0  0  0  0  0  0
  144.0574  132.1976  152.2935 H   0  0  0  0  0  0  0  0  0  0  0  0
  142.5791  132.6411  151.3712 H   0  0  0  0  0  0  0  0  0  0  0  0
  142.1227  137.8114  156.4898 H   0  0  0  0  0  0  0  0  0  0  0  0
  141.1949  137.7174  157.9530 H   0  0  0  0  0  0  0  0  0  0  0  0
  141.2345  140.0664  156.2124 H   0  0  0  0  0  0  0  0  0  0  0  0
  1  2  1  0  0  0  0
  1 32  1  0  0  0  0
  1 33  1  0  0  0  0
  1 34  1  0  0  0  0
  2  3  1  0  0  0  0
  2 35  1  0  0  0  0
  2 36  1  0  0  0  0
  3 29  1  0  0  0  0
  3  4  1  0  0  0  0
  3 60  1  0  0  0  0
  4  5  1  0  0  0  0
  4 37  1  0  0  0  0
  4 38  1  0  0  0  0
  5  6  1  0  0  0  0
  5 39  1  0  0  0  0
  5 40  1  0  0  0  0
  6 30  1  0  0  0  0
  6 28  1  0  0  0  0
  6  7  1  0  0  0  0
  7  8  1  0  0  0  0
  8  9  1  0  0  0  0
  8 41  1  0  0  0  0
  8 42  1  0  0  0  0
  9 10  1  0  0  0  0
  9 43  1  0  0  0  0
  9 44  1  0  0  0  0
 10 11  1  0  0  0  0
 10 28  1  0  0  0  0
 11 16  1  0  0  0  0
 11 12  2  0  0  0  0
 12 13  1  0  0  0  0
 13 14  2  0  0  0  0
 13 45  1  0  0  0  0
 14 15  1  0  0  0  0
 15 19  1  0  0  0  0
 15 16  2  0  0  0  0
 16 17  1  0  0  0  0
 17 18  2  0  0  0  0
 18 19  1  0  0  0  0
 18 46  1  0  0  0  0
 19 20  1  0  0  0  0
 20 27  1  0  0  0  0
 20 21  1  0  0  0  0
 20 47  1  0  0  0  0
 21 22  1  0  0  0  0
 21 48  1  0  0  0  0
 21 49  1  0  0  0  0
 22 23  1  0  0  0  0
 22 25  1  0  0  0  0
 22 27  1  0  0  0  0
 23 24  1  0  0  0  0
 23 50  1  0  0  0  0
 23 51  1  0  0  0  0
 24 52  1  0  0  0  0
 25 26  1  0  0  0  0
 25 53  1  0  0  0  0
 25 54  1  0  0  0  0
 26 55  1  0  0  0  0
 27 56  1  0  0  0  0
 27 57  1  0  0  0  0
 28 31  1  0  0  0  0
 28 29  1  0  0  0  0
 29 58  1  0  0  0  0
 29 59  1  0  0  0  0
M  CHG  1   3   1
M  END
> <s_m_source_file>
AV-unprocessed.smi

> <i_m_source_file_index>
16

> <i_lp_mmshare_version>
43012

> <i_f3d_flags>
0

> <s_epik_input>
W0NIM11bQ0gyXU4oW0NIMl1bQ0gyXTEpW0NIMl1bQ0BASF0oW0NAQEhdMTIpTihbQ0gyXVtDSDJdTzIpYyhuW2NIXW4zKWMoYzM0KW5bY0hdbjRbQ0hdKFtDSDJdNSlbQ0gyXUM1KFtDSDJdW09IXSlbQ0gyXVtPSF0=

> <s_epik_cmdline>
J2VwaWtfcHl0aG9uJywgJy1waCcsICc3LjAnLCAnLXRuJywgJzgnLCAnLW1hJywgJzIwMCcsICctbWV0YWxfYmluZGluZycsICctaW1hZScsICc8aW5maWxlLm1hZT4nLCAnLW9tYWUnLCAnPG91dGZpbGUubWFlPic=

> <r_lp_tautomer_probability>
1

> <r_epik_Ionization_Penalty>
0.0135603

> <r_epik_Ionization_Penalty_Charging>
0.0131385

> <r_epik_Ionization_Penalty_Neutral>
0.000421734

> <r_epik_State_Penalty>
0.0102091

> <r_epik_Charging_Adjusted_Penalty>
0.0233476

> <i_epik_Tot_Q>
1

> <i_epik_Tot_abs_Q>
1

> <r_epik_Metal_State_Penalty>
0.0103746

> <b_epik_Metal_Only>
0

> <s_lp_Force_Field>
OPLS_2005

> <r_lp_Energy>
60.5416

> <b_lp_Chiralities_Consistent>
1

> <s_lp_Variant>
AV-unprocessed.smi:16-2

> <Gold.Version>
5.8.1

> <Gold.Id.Protein>
6NUR|6NUR_protein|mol2

> <Gold.PLP.Fitness>
47.2076

> <Gold.PLP.PLP>
-38.9617

> <Gold.PLP.part.hbond>
-4.5168

> <Gold.PLP.part.metal>
0.0000

> <Gold.PLP.part.buried>
-1.8281

> <Gold.PLP.part.nonpolar>
-33.1844

> <Gold.PLP.part.repulsive>
0.7915

> <Gold.PLP.ligand.clash>
0.0000

> <Gold.PLP.ligand.torsion>
1.1499

> <Gold.PLP.Chemscore.Hbond>
2.4704

> <Gold.PLP.Chemscore.CHOScore>
0.8159

> <Gold.PLP.Chemscore.Metal>
0.0000

> <Gold.Chemscore.Hbonds>
donor molecule, donor type, donor heavy atom, donor atom, acceptor molecule, acceptor atom, score
      L1  H    26    55       P1 10747  0.70
      P1  H  7918  7932       L1    24  0.29
      P1  H 11000 11005       L1    17  0.83
      L1  C    18    46       P1 10957  0.97

> <Gold.PLP.Chemscore.Internal.Correction>
0.6867

> <Gold.Rescore>
     Score         DG    S(hbond)    S(metal)    S(lipo)     H(rot)  DE(clash)    DE(int)     intcor
      9.71     -13.02       2.14        0.00      76.06       3.33       2.15       1.15       ----

> <Gold.Chemscore.Fitness>
9.7139

> <Gold.Chemscore.DG>
-13.0190

> <Gold.Chemscore.ZeroCoef>
-5.4800

> <Gold.Chemscore.Hbond>
2.1414

> <Gold.Chemscore.Metal>
0.0000

> <Gold.Chemscore.Lipo>
76.0584

> <Gold.Chemscore.Internal_Hbond>
0.0000

> <Gold.Chemscore.DEClash>
2.1532

> <Gold.Chemscore.DEInternal>
1.1520

> <Gold.Chemscore.Rot>
3.3251

> <Gold.Chemscore.Internal.Correction>
   9.000000E+99

> <Gold.Chemscore.Hbonds>
donor molecule, donor type, donor heavy atom, donor atom, acceptor molecule, acceptor atom, score
      L1  H    26    55       P1 10747  0.68
      P1  H  7918  7932       L1    24  0.26
      P1  H 11000 11005       L1    17  0.36

> <Gold.Chemscore.Hbond.Weighted>
-7.1523

> <Gold.Chemscore.Metal.Weighted>
-0.0000

> <Gold.Chemscore.Lipo.Weighted>
-8.8988

> <Gold.Chemscore.Internal_Hbond.Weighted>
0.0000

> <Gold.Chemscore.DEClash.Weighted>
2.1532

> <Gold.Chemscore.DEInternal.Weighted>
1.1520

> <Gold.Chemscore.Rot.Weighted>
8.5122

> <Gold.Chemscore.Internal.Correction.Weighted>
   9.000000E+99

> <Gold.Protein.RotatedTorsions>
[ 6907 6896 6895 6894 ] final -109.41 input  -60.11 | X-H torsion
[ 7974 7965 7964 7962 ] final  -68.34 input  175.53 | X-H torsion
[ 8008 7997 7996 7995 ] final -161.86 input   59.86 | X-H torsion
[ 10167 10162 10161 10158 ] final  -41.13 input  -65.29 | X-H torsion
[ 10718 10713 10712 10709 ] final  -93.23 input   66.30 | X-H torsion
[ 10763 10752 10751 10750 ] final  102.44 input  -60.55 | X-H torsion
[ 11005 11000 10999 10996 ] final   30.66 input  -57.11 | X-H torsion

> <Gold.Protein.ActiveResidues>
 VAL166  LYS551  ARG553  GLY616  TRP617  ASP618  TYR619  PRO620  LYS621  CYS622 
 ASP623  PHE694  ASN695  SER759  ASP760  ASP761  ALA762  ILE779  LEU786  VAL792 
 PHE793  MET794  SER795  GLU796  ALA797  LYS798  CYS799  TRP800  GLU811  SER814 

> <Gold.Protein.RotatedAtoms>
  150.7560  133.9534  159.3492 H   0  0  0  0  0  0  0  0  0  0  0  0  # atno 6907 bound_to 6896
  151.7453  135.0843  160.0331 H   0  0  0  0  0  0  0  0  0  0  0  0  # atno 6908 bound_to 6896
  152.3502  133.6133  159.5975 H   0  0  0  0  0  0  0  0  0  0  0  0  # atno 6909 bound_to 6896
  145.7178  140.9051  143.0646 H   0  0  0  0  0  0  0  0  0  0  0  0  # atno 7974 bound_to 7965
  155.7983  140.0888  157.1971 H   0  0  0  0  0  0  0  0  0  0  0  0  # atno 8008 bound_to 7997
  154.3983  140.1477  156.3303 H   0  0  0  0  0  0  0  0  0  0  0  0  # atno 8009 bound_to 7997
  155.8488  140.3435  155.5682 H   0  0  0  0  0  0  0  0  0  0  0  0  # atno 8010 bound_to 7997
  140.7012  143.3112  151.3023 H   0  0  0  0  0  0  0  0  0  0  0  0  # atno 10167 bound_to 10162
  156.0011  130.5019  150.5745 H   0  0  0  0  0  0  0  0  0  0  0  0  # atno 10718 bound_to 10713
  153.3397  135.4010  155.1561 H   0  0  0  0  0  0  0  0  0  0  0  0  # atno 10763 bound_to 10752
  154.8641  135.3630  154.5362 H   0  0  0  0  0  0  0  0  0  0  0  0  # atno 10764 bound_to 10752
  153.5806  135.7076  153.5524 H   0  0  0  0  0  0  0  0  0  0  0  0  # atno 10765 bound_to 10752
  140.2920  134.2853  155.7773 H   0  0  0  0  0  0  0  0  0  0  0  0  # atno 11005 bound_to 11000
  144.6924  139.9161  143.7466 LP  0  0  0  0  0  0  0  0  0  0  0  0  # atno 17320 bound_to 7965
  146.0654  139.3645  143.0556 LP  0  0  0  0  0  0  0  0  0  0  0  0  # atno 17321 bound_to 7965
  139.6536  144.0318  152.2643 LP  0  0  0  0  0  0  0  0  0  0  0  0  # atno 17342 bound_to 10162
  139.9862  144.6394  150.7856 LP  0  0  0  0  0  0  0  0  0  0  0  0  # atno 17343 bound_to 10162
  157.3635  131.0754  151.1617 LP  0  0  0  0  0  0  0  0  0  0  0  0  # atno 17370 bound_to 10713
  157.2394  130.6562  149.5883 LP  0  0  0  0  0  0  0  0  0  0  0  0  # atno 17371 bound_to 10713
  141.2144  133.7591  156.9639 LP  0  0  0  0  0  0  0  0  0  0  0  0  # atno 17394 bound_to 11000
  140.1186  134.9431  157.2171 LP  0  0  0  0  0  0  0  0  0  0  0  0  # atno 17395 bound_to 11000

$$$$
