#       Name:                AV-unprocessed.smi:2082
#       Creating user name   scv26
#       Creation time:       Fri Mar 27 11:19:39 2020


#       File generated by GOLD software.
#

@<TRIPOS>MOLECULE
AV-unprocessed.smi:2082
    48    49     1
SMALL
NO_CHARGES


@<TRIPOS>ATOM
      1 ****        -3.8865   6.8317   0.6278 C.3            1 S1                 0.0000
      2 ****        -3.3823   5.5164   0.7780 O.3            1 S1                 0.0000
      3 ****        -3.8046   4.6504  -0.2624 C.3            1 S1                 0.0000
      4 ****        -3.1919   3.2646  -0.0408 C.3            1 S1                 0.0000
      5 ****        -1.8052   3.3222  -0.3615 O.3            1 S1                 0.0000
      6 ****        -1.0484   2.1767  -0.2269 C.ar           1 S1                 0.0000
      7 ****         0.3245   2.2369  -0.5383 C.ar           1 S1                 0.0000
      8 ****         1.1054   1.0729  -0.4050 C.ar           1 S1                 0.0000
      9 ****         0.4826  -0.1215   0.0289 C.ar           1 S1                 0.0000
     10 ****         1.1633  -1.3527   0.2260 N.am           1 S1                 0.0000
     11 ****         2.3159  -1.7800  -0.3271 C.2            1 S1                 0.0000
     12 ****         2.9291  -1.1380  -1.1804 O.2            1 S1                 0.0000
     13 ****         2.7196  -3.0057   0.0988 N.am           1 S1                 0.0000
     14 ****         2.0607  -3.8121   1.1376 C.3            1 S1                 0.0000
     15 ****         1.4058  -5.0275   0.4589 C.3            1 S1                 0.0000
     16 ****         2.3120  -5.6847  -0.4846 N.am           1 S1                 0.0000
     17 ****         3.4406  -5.1457  -0.9827 C.2            1 S1                 0.0000
     18 ****         4.1602  -5.7644  -1.7631 O.2            1 S1                 0.0000
     19 ****         3.8303  -3.7167  -0.5563 C.3            1 S1                 0.0000
     20 ****        -0.8943  -0.0727   0.3290 C.ar           1 S1                 0.0000
     21 ****        -1.6486   1.0391   0.2025 N.ar           1 S1                 0.0000
     22 ****        -3.5375   7.4540   1.4518 H              1 S1                 0.0000
     23 ****        -4.9772   6.8408   0.6372 H              1 S1                 0.0000
     24 ****        -3.5403   7.2819  -0.3035 H              1 S1                 0.0000
     25 ****        -4.8928   4.5748  -0.2454 H              1 S1                 0.0000
     26 ****        -3.5178   5.0413  -1.2400 H              1 S1                 0.0000
     27 ****        -3.3505   2.9429   0.9900 H              1 S1                 0.0000
     28 ****        -3.6857   2.5459  -0.6968 H              1 S1                 0.0000
     29 ****         0.7727   3.1622  -0.8687 H              1 S1                 0.0000
     30 ****         2.1610   1.1236  -0.6221 H              1 S1                 0.0000
     31 ****         0.6953  -2.0132   0.8293 H              1 S1                 0.0000
     32 ****         2.8241  -4.1529   1.8391 H              1 S1                 0.0000
     33 ****         1.3328  -3.2758   1.7465 H              1 S1                 0.0000
     34 ****         1.0798  -5.7500   1.2073 H              1 S1                 0.0000
     35 ****         0.5158  -4.7135  -0.0876 H              1 S1                 0.0000
     36 ****         2.0675  -6.6198  -0.7773 H              1 S1                 0.0000
     37 ****         4.2103  -3.1988  -1.4382 H              1 S1                 0.0000
     38 ****         4.6645  -3.7795   0.1432 H              1 S1                 0.0000
     39 ****        -1.4110  -0.9549   0.6779 H              1 S1                 0.0000
     40 ****        -3.7019   5.1483   1.6511 LP             1 S1                 0.0000
     41 ****        -2.3830   5.5542   0.7779 LP             1 S1                 0.0000
     42 ****        -1.3948   4.0177   0.2283 LP             1 S1                 0.0000
     43 ****        -1.7351   3.6114  -1.3163 LP             1 S1                 0.0000
     44 ****         2.5752  -0.2565  -1.4931 LP             1 S1                 0.0000
     45 ****         3.7810  -1.4981  -1.5607 LP             1 S1                 0.0000
     46 ****         3.9128  -6.6919  -2.0431 LP             1 S1                 0.0000
     47 ****         4.9933  -5.3404  -2.1183 LP             1 S1                 0.0000
     48 ****        -2.6246   1.0245   0.4197 LP             1 S1                 0.0000
@<TRIPOS>BOND
    1    1    2 1     
    2    1   22 1     
    3    1   23 1     
    4    1   24 1     
    5    2    3 1     
    6    3    4 1     
    7    3   25 1     
    8    3   26 1     
    9    4    5 1     
   10    4   27 1     
   11    4   28 1     
   12    5    6 1     
   13    6   21 ar    
   14    6    7 ar    
   15    7    8 ar    
   16    7   29 1     
   17    8    9 ar    
   18    8   30 1     
   19    9   10 1     
   20    9   20 ar    
   21   10   11 am    
   22   10   31 1     
   23   11   12 2     
   24   11   13 am    
   25   13   19 1     
   26   13   14 1     
   27   14   15 1     
   28   14   32 1     
   29   14   33 1     
   30   15   16 1     
   31   15   34 1     
   32   15   35 1     
   33   16   17 am    
   34   16   36 1     
   35   17   18 2     
   36   17   19 1     
   37   19   37 1     
   38   19   38 1     
   39   20   21 ar    
   40   20   39 1     
   41    2   40 1     
   42    2   41 1     
   43    5   42 1     
   44    5   43 1     
   45   12   44 1     
   46   12   45 1     
   47   18   46 1     
   48   18   47 1     
   49   21   48 1     
@<TRIPOS>SUBSTRUCTURE
      1 S1             1
@<TRIPOS>SET
LONE_PAIRS      STATIC     ATOMS    <user>   **** ""
9 40 41 42 43 44 45 46 47 48
DONOR_HYDROGENS      STATIC     ATOMS    <user>   **** ""
2 31 36
ATOM$BLUE        STATIC     ATOMS    COLORGROUP SYSTEM
9 40 41 42 43 44 45 46 47 48
ATOM$RED        STATIC     ATOMS    COLORGROUP SYSTEM
2 31 36
