#       Name:                AV-unprocessed.smi:72
#       Creating user name   scv26
#       Creation time:       Thu Mar 26 16:59:14 2020


#       File generated by GOLD software.
#

@<TRIPOS>MOLECULE
AV-unprocessed.smi:72
    41    42     1
SMALL
NO_CHARGES


@<TRIPOS>ATOM
      1 ****        -3.9249   2.6289  -2.0224 N.2            1 S1                 0.0000
      2 ****        -2.8973   2.1322  -1.4328 C.2            1 S1                 0.0000
      3 ****        -1.6499   1.9017  -2.0311 N.2            1 S1                 0.0000
      4 ****        -0.7035   1.3770  -1.3149 C.2            1 S1                 0.0000
      5 ****        -0.9000   1.0017   0.0806 N.am           1 S1                 0.0000
      6 ****         0.2022   0.3954   0.9345 C.3            1 S1                 0.0000
      7 ****         1.4007   0.3612   0.2135 O.3            1 S1                 0.0000
      8 ****         1.5933  -0.9365  -0.3424 C.3            1 S1                 0.0000
      9 ****         3.0550  -1.1504  -0.7718 C.3            1 S1                 0.0000
     10 ****         3.2626  -0.6089  -2.0589 O.3            1 S1                 0.0000
     11 ****         1.0902  -1.8387   0.7881 C.3            1 S1                 0.0000
     12 ****         2.0939  -1.9981   1.7780 O.3            1 S1                 0.0000
     13 ****        -0.1265  -1.0689   1.3022 C.3            1 S1                 0.0000
     14 ****        -0.3472  -1.2668   2.6864 O.3            1 S1                 0.0000
     15 ****        -2.1437   1.2677   0.7061 C.2            1 S1                 0.0000
     16 ****        -2.3522   1.0141   1.8926 O.2            1 S1                 0.0000
     17 ****        -3.0923   1.8153  -0.0833 N.am           1 S1                 0.0000
     18 ****         0.3069   1.0668   1.7888 H              1 S1                 0.0000
     19 ****         0.9311  -1.0684  -1.2001 H              1 S1                 0.0000
     20 ****         0.8132  -2.8283   0.4235 H              1 S1                 0.0000
     21 ****        -1.0107  -1.3919   0.7501 H              1 S1                 0.0000
     22 ****        -4.6972   2.6953  -1.3748 H              1 S1                 0.0000
     23 ****         0.2908   1.1901  -1.7206 H              1 S1                 0.0000
     24 ****         3.7502  -0.7063  -0.0584 H              1 S1                 0.0000
     25 ****         3.2787  -2.2162  -0.8258 H              1 S1                 0.0000
     26 ****         4.1636  -0.7546  -2.3037 H              1 S1                 0.0000
     27 ****         1.7025  -2.4156   2.5304 H              1 S1                 0.0000
     28 ****        -1.0881  -0.7405   2.9478 H              1 S1                 0.0000
     29 ****        -3.9926   2.0087   0.3304 H              1 S1                 0.0000
     30 ****        -3.9557   2.9087  -2.9819 LP             1 S1                 0.0000
     31 ****        -1.4930   2.1369  -2.9903 LP             1 S1                 0.0000
     32 ****         2.1621   0.5766   0.8249 LP             1 S1                 0.0000
     33 ****         1.3639   1.0359  -0.5236 LP             1 S1                 0.0000
     34 ****         3.0708   0.3724  -2.0469 LP             1 S1                 0.0000
     35 ****         2.6576  -1.0589  -2.7157 LP             1 S1                 0.0000
     36 ****         2.4580  -1.1038   2.0382 LP             1 S1                 0.0000
     37 ****         2.8339  -2.5683   1.4212 LP             1 S1                 0.0000
     38 ****         0.4637  -0.9883   3.2012 LP             1 S1                 0.0000
     39 ****        -0.5391  -2.2322   2.8635 LP             1 S1                 0.0000
     40 ****        -1.6301   0.6056   2.4510 LP             1 S1                 0.0000
     41 ****        -3.2436   1.2165   2.2981 LP             1 S1                 0.0000
@<TRIPOS>BOND
    1    1    2 2     
    2    1   22 1     
    3    2   17 1     
    4    2    3 1     
    5    3    4 2     
    6    4    5 1     
    7    4   23 1     
    8    5    6 1     
    9    5   15 am    
   10    6   18 1     
   11    6   13 1     
   12    6    7 1     
   13    7    8 1     
   14    8   19 1     
   15    8    9 1     
   16    8   11 1     
   17    9   10 1     
   18    9   24 1     
   19    9   25 1     
   20   10   26 1     
   21   11   20 1     
   22   11   12 1     
   23   11   13 1     
   24   12   27 1     
   25   13   21 1     
   26   13   14 1     
   27   14   28 1     
   28   15   16 2     
   29   15   17 am    
   30   17   29 1     
   31    1   30 1     
   32    3   31 1     
   33    7   32 1     
   34    7   33 1     
   35   10   34 1     
   36   10   35 1     
   37   12   36 1     
   38   12   37 1     
   39   14   38 1     
   40   14   39 1     
   41   16   40 1     
   42   16   41 1     
@<TRIPOS>SUBSTRUCTURE
      1 S1             1
@<TRIPOS>SET
LONE_PAIRS      STATIC     ATOMS    <user>   **** ""
12 30 31 32 33 34 35 36 37 38 39 40 41
DONOR_HYDROGENS      STATIC     ATOMS    <user>   **** ""
5 22 26 27 28 29
ATOM$BLUE        STATIC     ATOMS    COLORGROUP SYSTEM
12 30 31 32 33 34 35 36 37 38 39 40 41
ATOM$RED        STATIC     ATOMS    COLORGROUP SYSTEM
5 22 26 27 28 29
