AV-unprocessed.smi:730|AV-procd|sdf|3523|dock8
  -GOLD-   22720 0513D 1   1.00000     0.00000
 Structure written by MMmdl.
 40 41  0  0  0  0  0  0  0  0  1 V2000
  146.7306  142.3965  154.0573 C   0  0  0  0  0  0  0  0  0  0  0  0
  147.5231  141.2563  154.7276 C   0  0  0  0  0  0  0  0  0  0  0  0
  148.9922  141.3549  154.2752 C   0  0  0  0  0  0  0  0  0  0  0  0
  147.4486  141.4456  156.2541 C   0  0  0  0  0  0  0  0  0  0  0  0
  146.9574  139.9165  154.3471 C   0  0  0  0  0  0  0  0  0  0  0  0
  147.4528  138.8490  153.6483 C   0  0  0  0  0  0  0  0  0  0  0  0
  146.3820  137.9171  153.6745 C   0  0  0  0  0  0  0  0  0  0  0  0
  146.5048  136.6510  153.0483 N   0  0  0  0  0  0  0  0  0  0  0  0
  145.5692  135.6916  152.9503 C   0  0  0  0  0  0  0  0  0  0  0  0
  144.4254  135.7654  153.4002 O   0  0  0  0  0  0  0  0  0  0  0  0
  146.0415  134.6165  152.3032 N   0  0  0  0  0  0  0  0  0  0  0  0
  145.2852  133.3898  152.0454 C   0  0  1  0  0  0  0  0  0  0  0  0
  144.0700  133.6955  151.1511 C   0  0  0  0  0  0  0  0  0  0  0  0
  144.4053  133.1158  149.7781 C   0  0  0  0  0  0  0  0  0  0  0  0
  145.2480  131.8838  150.0938 C   0  0  0  0  0  0  0  0  0  0  0  0
  146.0969  132.2893  151.3056 C   0  0  1  0  0  0  0  0  0  0  0  0
  147.3610  132.7366  150.8466 O   0  0  0  0  0  0  0  0  0  0  0  0
  145.3229  138.3708  154.3255 N   0  0  0  0  0  0  0  0  0  0  0  0
  145.6851  139.6511  154.7581 O   0  0  0  0  0  0  0  0  0  0  0  0
  147.1318  143.3736  154.3289 H   0  0  0  0  0  0  0  0  0  0  0  0
  145.6811  142.3814  154.3547 H   0  0  0  0  0  0  0  0  0  0  0  0
  146.7662  142.3204  152.9698 H   0  0  0  0  0  0  0  0  0  0  0  0
  149.0825  141.2300  153.1955 H   0  0  0  0  0  0  0  0  0  0  0  0
  149.6083  140.5879  154.7462 H   0  0  0  0  0  0  0  0  0  0  0  0
  149.4247  142.3226  154.5316 H   0  0  0  0  0  0  0  0  0  0  0  0
  147.8465  142.4156  156.5549 H   0  0  0  0  0  0  0  0  0  0  0  0
  148.0211  140.6811  156.7804 H   0  0  0  0  0  0  0  0  0  0  0  0
  146.4195  141.3876  156.6102 H   0  0  0  0  0  0  0  0  0  0  0  0
  148.4276  138.7501  153.1943 H   0  0  0  0  0  0  0  0  0  0  0  0
  147.4057  136.4495  152.6406 H   0  0  0  0  0  0  0  0  0  0  0  0
  146.9957  134.6376  151.9745 H   0  0  0  0  0  0  0  0  0  0  0  0
  144.9146  132.9961  152.9939 H   0  0  0  0  0  0  0  0  0  0  0  0
  143.1934  133.1828  151.5492 H   0  0  0  0  0  0  0  0  0  0  0  0
  143.8231  134.7570  151.1005 H   0  0  0  0  0  0  0  0  0  0  0  0
  143.5162  132.8794  149.1928 H   0  0  0  0  0  0  0  0  0  0  0  0
  144.9995  133.8326  149.2097 H   0  0  0  0  0  0  0  0  0  0  0  0
  144.5862  131.0637  150.3756 H   0  0  0  0  0  0  0  0  0  0  0  0
  145.8390  131.5447  149.2417 H   0  0  0  0  0  0  0  0  0  0  0  0
  146.2688  131.4313  151.9565 H   0  0  0  0  0  0  0  0  0  0  0  0
  147.9216  131.9831  150.7395 H   0  0  0  0  0  0  0  0  0  0  0  0
  1  2  1  0  0  0  0
  1 20  1  0  0  0  0
  1 21  1  0  0  0  0
  1 22  1  0  0  0  0
  2  3  1  0  0  0  0
  2  4  1  0  0  0  0
  2  5  1  0  0  0  0
  3 23  1  0  0  0  0
  3 24  1  0  0  0  0
  3 25  1  0  0  0  0
  4 26  1  0  0  0  0
  4 27  1  0  0  0  0
  4 28  1  0  0  0  0
  5 19  1  0  0  0  0
  5  6  2  0  0  0  0
  6  7  1  0  0  0  0
  6 29  1  0  0  0  0
  7  8  1  0  0  0  0
  7 18  2  0  0  0  0
  8  9  1  0  0  0  0
  8 30  1  0  0  0  0
  9 10  2  0  0  0  0
  9 11  1  0  0  0  0
 11 12  1  0  0  0  0
 11 31  1  0  0  0  0
 12 16  1  0  0  0  0
 12 13  1  0  0  0  0
 12 32  1  0  0  0  0
 13 14  1  0  0  0  0
 13 33  1  0  0  0  0
 13 34  1  0  0  0  0
 14 15  1  0  0  0  0
 14 35  1  0  0  0  0
 14 36  1  0  0  0  0
 15 16  1  0  0  0  0
 15 37  1  0  0  0  0
 15 38  1  0  0  0  0
 16 17  1  0  0  0  0
 16 39  1  0  0  0  0
 17 40  1  0  0  0  0
 18 19  1  0  0  0  0
M  END
> <s_m_source_file>
AV-unprocessed.smi

> <i_m_source_file_index>
730

> <i_lp_mmshare_version>
43012

> <i_f3d_flags>
0

> <s_epik_input>
W0NIM11DKFtDSDNdKShbQ0gzXSljMVtjSF1jKG5vMSlbTkhdQyg9TylbTkhdW0NAQEhdMltDSDJdW0NIMl1bQ0gyXVtDQEhdMltPSF0=

> <s_epik_cmdline>
J2VwaWtfcHl0aG9uJywgJy1waCcsICc3LjAnLCAnLXRuJywgJzgnLCAnLW1hJywgJzIwMCcsICctbWV0YWxfYmluZGluZycsICctaW1hZScsICc8aW5maWxlLm1hZT4nLCAnLW9tYWUnLCAnPG91dGZpbGUubWFlPic=

> <r_lp_tautomer_probability>
1

> <r_epik_Ionization_Penalty>
2.23071e-05

> <r_epik_Ionization_Penalty_Charging>
0

> <r_epik_Ionization_Penalty_Neutral>
2.23071e-05

> <r_epik_State_Penalty>
-0

> <r_epik_Charging_Adjusted_Penalty>
0

> <i_epik_Tot_Q>
0

> <i_epik_Tot_abs_Q>
0

> <r_epik_Metal_State_Penalty>
-0

> <b_epik_Metal_Only>
0

> <s_lp_Force_Field>
OPLS_2005

> <r_lp_Energy>
21.0344

> <b_lp_Chiralities_Consistent>
1

> <s_lp_Variant>
AV-unprocessed.smi:730-2

> <Gold.Version>
5.8.1

> <Gold.Id.Protein>
6NUR|6NUR_protein|mol2

> <Gold.PLP.Fitness>
34.3037

> <Gold.PLP.PLP>
-28.4132

> <Gold.PLP.part.hbond>
-2.0122

> <Gold.PLP.part.metal>
0.0000

> <Gold.PLP.part.buried>
-4.7344

> <Gold.PLP.part.nonpolar>
-22.2082

> <Gold.PLP.part.repulsive>
0.2701

> <Gold.PLP.ligand.clash>
0.0000

> <Gold.PLP.ligand.torsion>
0.0560

> <Gold.PLP.Chemscore.Hbond>
2.0000

> <Gold.PLP.Chemscore.CHOScore>
0.0000

> <Gold.PLP.Chemscore.Metal>
0.0000

> <Gold.Chemscore.Hbonds>
donor molecule, donor type, donor heavy atom, donor atom, acceptor molecule, acceptor atom, score
      L1  H     8    30       P1  7948  1.00
      L1  H    17    40       P1 10747  1.00

> <Gold.PLP.Chemscore.Internal.Correction>
0.0024

> <Gold.Rescore>
     Score         DG    S(hbond)    S(metal)    S(lipo)     H(rot)  DE(clash)    DE(int)     intcor
     15.49     -17.10       2.27        0.00      71.91       1.71       0.23       1.38       ----

> <Gold.Chemscore.Fitness>
15.4900

> <Gold.Chemscore.DG>
-17.0995

> <Gold.Chemscore.ZeroCoef>
-5.4800

> <Gold.Chemscore.Hbond>
2.2725

> <Gold.Chemscore.Metal>
0.0000

> <Gold.Chemscore.Lipo>
71.9101

> <Gold.Chemscore.Internal_Hbond>
0.0000

> <Gold.Chemscore.DEClash>
0.2324

> <Gold.Chemscore.DEInternal>
1.3771

> <Gold.Chemscore.Rot>
1.7125

> <Gold.Chemscore.Internal.Correction>
   9.000000E+99

> <Gold.Chemscore.Hbonds>
donor molecule, donor type, donor heavy atom, donor atom, acceptor molecule, acceptor atom, score
      L1  H     8    30       P1  7948  1.00
      L1  H    11    31       P1  7948  0.02
      L1  H    17    40       P1 10747  0.99

> <Gold.Chemscore.Hbond.Weighted>
-7.5901

> <Gold.Chemscore.Metal.Weighted>
-0.0000

> <Gold.Chemscore.Lipo.Weighted>
-8.4135

> <Gold.Chemscore.Internal_Hbond.Weighted>
0.0000

> <Gold.Chemscore.DEClash.Weighted>
0.2324

> <Gold.Chemscore.DEInternal.Weighted>
1.3771

> <Gold.Chemscore.Rot.Weighted>
4.3841

> <Gold.Chemscore.Internal.Correction.Weighted>
   9.000000E+99

> <Gold.Protein.RotatedTorsions>
[ 6907 6896 6895 6894 ] final  134.70 input  -60.11 | X-H torsion
[ 7974 7965 7964 7962 ] final   21.30 input  175.53 | X-H torsion
[ 8008 7997 7996 7995 ] final  125.39 input   59.86 | X-H torsion
[ 10167 10162 10161 10158 ] final  -41.27 input  -65.29 | X-H torsion
[ 10718 10713 10712 10709 ] final   -8.56 input   66.30 | X-H torsion
[ 10763 10752 10751 10750 ] final  141.07 input  -60.55 | X-H torsion
[ 11005 11000 10999 10996 ] final   75.11 input  -57.11 | X-H torsion

> <Gold.Protein.ActiveResidues>
 VAL166  LYS551  ARG553  GLY616  TRP617  ASP618  TYR619  PRO620  LYS621  CYS622 
 ASP623  PHE694  ASN695  SER759  ASP760  ASP761  ALA762  ILE779  LEU786  VAL792 
 PHE793  MET794  SER795  GLU796  ALA797  LYS798  CYS799  TRP800  GLU811  SER814 

> <Gold.Protein.RotatedAtoms>
  152.3085  133.5728  159.5664 H   0  0  0  0  0  0  0  0  0  0  0  0  # atno 6907 bound_to 6896
  150.7311  134.0187  159.3703 H   0  0  0  0  0  0  0  0  0  0  0  0  # atno 6908 bound_to 6896
  151.8082  135.0689  160.0460 H   0  0  0  0  0  0  0  0  0  0  0  0  # atno 6909 bound_to 6896
  146.2077  139.8046  142.8713 H   0  0  0  0  0  0  0  0  0  0  0  0  # atno 7974 bound_to 7965
  156.2832  140.2717  156.1941 H   0  0  0  0  0  0  0  0  0  0  0  0  # atno 8008 bound_to 7997
  155.0428  140.0386  157.2533 H   0  0  0  0  0  0  0  0  0  0  0  0  # atno 8009 bound_to 7997
  154.7260  140.2697  155.6504 H   0  0  0  0  0  0  0  0  0  0  0  0  # atno 8010 bound_to 7997
  140.7008  143.3104  151.3042 H   0  0  0  0  0  0  0  0  0  0  0  0  # atno 10167 bound_to 10162
  156.7008  130.5093  149.5918 H   0  0  0  0  0  0  0  0  0  0  0  0  # atno 10718 bound_to 10713
  153.9331  135.2988  155.3445 H   0  0  0  0  0  0  0  0  0  0  0  0  # atno 10763 bound_to 10752
  154.7516  135.4977  153.9302 H   0  0  0  0  0  0  0  0  0  0  0  0  # atno 10764 bound_to 10752
  153.1081  135.6752  153.9655 H   0  0  0  0  0  0  0  0  0  0  0  0  # atno 10765 bound_to 10752
  139.9359  134.7490  156.1231 H   0  0  0  0  0  0  0  0  0  0  0  0  # atno 11005 bound_to 11000
  145.3260  141.0255  143.3473 LP  0  0  0  0  0  0  0  0  0  0  0  0  # atno 17320 bound_to 7965
  144.8833  139.4874  143.6713 LP  0  0  0  0  0  0  0  0  0  0  0  0  # atno 17321 bound_to 7965
  139.6525  144.0336  152.2636 LP  0  0  0  0  0  0  0  0  0  0  0  0  # atno 17342 bound_to 10162
  139.9877  144.6384  150.7843 LP  0  0  0  0  0  0  0  0  0  0  0  0  # atno 17343 bound_to 10162
  156.1730  130.6449  151.0860 LP  0  0  0  0  0  0  0  0  0  0  0  0  # atno 17370 bound_to 10713
  157.6974  131.0789  150.6928 LP  0  0  0  0  0  0  0  0  0  0  0  0  # atno 17371 bound_to 10713
  141.0972  133.6691  156.2672 LP  0  0  0  0  0  0  0  0  0  0  0  0  # atno 17394 bound_to 11000
  140.6078  134.5490  157.5528 LP  0  0  0  0  0  0  0  0  0  0  0  0  # atno 17395 bound_to 11000

$$$$
