AV-unprocessed.smi:1196|AV-procd|sdf|5000|dock10
  -GOLD-   22720 4 13D 1   1.00000     0.00000
 Structure written by MMmdl.
 36 37  0  0  0  0  0  0  0  0  2 V2000
  150.0393  140.8307  155.4397 C   0  0  0  0  0  0  0  0  0  0  0  0
  149.9649  141.8538  156.5837 C   0  0  2  0  0  0  0  0  0  0  0  0
  150.6652  141.3306  157.8531 C   0  0  0  0  0  0  0  0  0  0  0  0
  151.3967  142.3723  158.5521 N   0  0  0  0  0  0  0  0  0  0  0  0
  151.4241  143.7256  158.2884 C   0  0  0  0  0  0  0  0  0  0  0  0
  152.2557  144.3014  159.2055 C   0  0  0  0  0  0  0  0  0  0  0  0
  152.6940  143.2047  159.9989 C   0  0  0  0  0  0  0  0  0  0  0  0
  152.1764  142.0517  159.6072 N   0  0  0  0  0  0  0  0  0  0  0  0
  148.5685  142.1712  156.8768 N   0  0  0  0  0  0  0  0  0  0  0  0
  147.6794  141.3373  157.4378 C   0  0  0  0  0  0  0  0  0  0  0  0
  147.9529  140.1869  157.7810 O   0  0  0  0  0  0  0  0  0  0  0  0
  146.2642  141.8861  157.6328 C   0  0  0  0  0  0  0  0  0  0  0  0
  146.2241  143.0791  158.6068 C   0  0  0  0  0  0  0  0  0  0  0  0
  146.3716  142.6550  160.0833 C   0  0  2  0  0  0  0  0  0  0  0  0
  145.5188  141.5222  160.4007 N   0  5  0  0  0  0  0  0  0  0  0  0
  144.6832  141.8816  161.4038 C   0  0  0  0  0  0  0  0  0  0  0  0
  143.8250  141.1925  161.9506 O   0  0  0  0  0  0  0  0  0  0  0  0
  144.8958  143.1514  161.7646 N   0  0  0  0  0  0  0  0  0  0  0  0
  145.8597  143.7130  161.0422 C   0  0  0  0  0  0  0  0  0  0  0  0
  146.2758  144.8681  161.1201 O   0  0  0  0  0  0  0  0  0  0  0  0
  151.0747  140.5911  155.1957 H   0  0  0  0  0  0  0  0  0  0  0  0
  149.5710  141.2162  154.5334 H   0  0  0  0  0  0  0  0  0  0  0  0
  149.5358  139.9008  155.7055 H   0  0  0  0  0  0  0  0  0  0  0  0
  150.4812  142.7598  156.2607 H   0  0  0  0  0  0  0  0  0  0  0  0
  149.9395  140.8910  158.5392 H   0  0  0  0  0  0  0  0  0  0  0  0
  151.3686  140.5374  157.5956 H   0  0  0  0  0  0  0  0  0  0  0  0
  150.8589  144.1604  157.4774 H   0  0  0  0  0  0  0  0  0  0  0  0
  152.5129  145.3464  159.2948 H   0  0  0  0  0  0  0  0  0  0  0  0
  153.3679  143.2123  160.8427 H   0  0  0  0  0  0  0  0  0  0  0  0
  148.2510  143.0981  156.6324 H   0  0  0  0  0  0  0  0  0  0  0  0
  145.8523  142.1814  156.6667 H   0  0  0  0  0  0  0  0  0  0  0  0
  145.6318  141.0802  158.0061 H   0  0  0  0  0  0  0  0  0  0  0  0
  147.0313  143.7685  158.3533 H   0  0  0  0  0  0  0  0  0  0  0  0
  145.2966  143.6389  158.4693 H   0  0  0  0  0  0  0  0  0  0  0  0
  147.4209  142.4650  160.3137 H   0  0  0  0  0  0  0  0  0  0  0  0
  144.3792  143.6272  162.4889 H   0  0  0  0  0  0  0  0  0  0  0  0
  1  2  1  0  0  0  0
  1 21  1  0  0  0  0
  1 22  1  0  0  0  0
  1 23  1  0  0  0  0
  2  3  1  0  0  0  0
  2  9  1  0  0  0  0
  2 24  1  0  0  0  0
  3  4  1  0  0  0  0
  3 25  1  0  0  0  0
  3 26  1  0  0  0  0
  4  8  1  0  0  0  0
  4  5  1  0  0  0  0
  5  6  2  0  0  0  0
  5 27  1  0  0  0  0
  6  7  1  0  0  0  0
  6 28  1  0  0  0  0
  7  8  2  0  0  0  0
  7 29  1  0  0  0  0
  9 10  1  0  0  0  0
  9 30  1  0  0  0  0
 10 11  2  0  0  0  0
 10 12  1  0  0  0  0
 12 13  1  0  0  0  0
 12 31  1  0  0  0  0
 12 32  1  0  0  0  0
 13 14  1  0  0  0  0
 13 33  1  0  0  0  0
 13 34  1  0  0  0  0
 14 19  1  0  0  0  0
 14 15  1  0  0  0  0
 14 35  1  0  0  0  0
 15 16  1  0  0  0  0
 16 17  2  0  0  0  0
 16 18  1  0  0  0  0
 18 19  1  0  0  0  0
 18 36  1  0  0  0  0
 19 20  2  0  0  0  0
M  CHG  1  15  -1
M  END
> <s_m_source_file>
AV-unprocessed.smi

> <i_m_source_file_index>
1196

> <i_lp_mmshare_version>
43012

> <i_f3d_flags>
0

> <s_epik_input>
bjFbY0hdW2NIXVtjSF1uMVtDSDJdW0NAQEhdKFtDSDNdKVtOSF1DKD1PKVtDSDJdW0NIMl1bQ0BASF0yW05IXUMoPU8pW05IXUMyPU8=

> <s_epik_cmdline>
J2VwaWtfcHl0aG9uJywgJy1waCcsICc3LjAnLCAnLXRuJywgJzgnLCAnLW1hJywgJzIwMCcsICctbWV0YWxfYmluZGluZycsICctaW1hZScsICc8aW5maWxlLm1hZT4nLCAnLW9tYWUnLCAnPG91dGZpbGUubWFlPic=

> <r_lp_tautomer_probability>
1

> <r_epik_Ionization_Penalty>
5.79547

> <r_epik_Ionization_Penalty_Charging>
5.79516

> <r_epik_Ionization_Penalty_Neutral>
0.000313087

> <r_epik_State_Penalty>
5.80096

> <r_epik_Charging_Adjusted_Penalty>
11.5961

> <i_epik_Tot_Q>
-1

> <i_epik_Tot_abs_Q>
1

> <r_epik_Metal_State_Penalty>
2.14443

> <b_epik_Metal_Only>
1

> <s_lp_Force_Field>
OPLS_2005

> <r_lp_Energy>
13.4847

> <b_lp_Chiralities_Consistent>
1

> <s_lp_Variant>
AV-unprocessed.smi:1196-5

> <Gold.Version>
5.8.1

> <Gold.Id.Protein>
6NUR|6NUR_protein|mol2

> <Gold.PLP.Fitness>
47.6951

> <Gold.PLP.PLP>
-37.6229

> <Gold.PLP.part.hbond>
-5.3042

> <Gold.PLP.part.metal>
0.0000

> <Gold.PLP.part.buried>
-5.5990

> <Gold.PLP.part.nonpolar>
-27.6164

> <Gold.PLP.part.repulsive>
0.3246

> <Gold.PLP.ligand.clash>
0.0000

> <Gold.PLP.ligand.torsion>
0.8374

> <Gold.PLP.Chemscore.Hbond>
2.8960

> <Gold.PLP.Chemscore.CHOScore>
1.0000

> <Gold.PLP.Chemscore.Metal>
0.0000

> <Gold.Chemscore.Hbonds>
donor molecule, donor type, donor heavy atom, donor atom, acceptor molecule, acceptor atom, score
      L1  H     9    30       P1  8028  0.82
      P1  H  6934  6946       L1    15  0.30
      L1  C     5    27       P1  8028  0.55

> <Gold.PLP.Chemscore.Internal.Correction>
0.0589

> <Gold.Rescore>
     Score         DG    S(hbond)    S(metal)    S(lipo)     H(rot)  DE(clash)    DE(int)     intcor
      8.47     -11.35       1.69        0.00      65.16       2.89       0.63       2.25       ----

> <Gold.Chemscore.Fitness>
8.4746

> <Gold.Chemscore.DG>
-11.3524

> <Gold.Chemscore.ZeroCoef>
-5.4800

> <Gold.Chemscore.Hbond>
1.6943

> <Gold.Chemscore.Metal>
0.0000

> <Gold.Chemscore.Lipo>
65.1576

> <Gold.Chemscore.Internal_Hbond>
0.0000

> <Gold.Chemscore.DEClash>
0.6327

> <Gold.Chemscore.DEInternal>
2.2451

> <Gold.Chemscore.Rot>
2.8946

> <Gold.Chemscore.Internal.Correction>
   9.000000E+99

> <Gold.Chemscore.Hbonds>
donor molecule, donor type, donor heavy atom, donor atom, acceptor molecule, acceptor atom, score
      L1  H     9    30       P1  8028  0.36

> <Gold.Chemscore.Hbond.Weighted>
-5.6591

> <Gold.Chemscore.Metal.Weighted>
-0.0000

> <Gold.Chemscore.Lipo.Weighted>
-7.6234

> <Gold.Chemscore.Internal_Hbond.Weighted>
0.0000

> <Gold.Chemscore.DEClash.Weighted>
0.6327

> <Gold.Chemscore.DEInternal.Weighted>
2.2451

> <Gold.Chemscore.Rot.Weighted>
7.4101

> <Gold.Chemscore.Internal.Correction.Weighted>
   9.000000E+99

> <Gold.Protein.RotatedTorsions>
[ 6907 6896 6895 6894 ] final  159.36 input  -60.11 | X-H torsion
[ 7974 7965 7964 7962 ] final   73.90 input  175.53 | X-H torsion
[ 8008 7997 7996 7995 ] final -152.34 input   59.86 | X-H torsion
[ 10167 10162 10161 10158 ] final    7.80 input  -65.29 | X-H torsion
[ 10718 10713 10712 10709 ] final  167.76 input   66.30 | X-H torsion
[ 10763 10752 10751 10750 ] final  -48.42 input  -60.55 | X-H torsion
[ 11005 11000 10999 10996 ] final   67.54 input  -57.11 | X-H torsion

> <Gold.Protein.ActiveResidues>
 VAL166  LYS551  ARG553  GLY616  TRP617  ASP618  TYR619  PRO620  LYS621  CYS622 
 ASP623  PHE694  ASN695  SER759  ASP760  ASP761  ALA762  ILE779  LEU786  VAL792 
 PHE793  MET794  SER795  GLU796  ALA797  LYS798  CYS799  TRP800  GLU811  SER814 

> <Gold.Protein.RotatedAtoms>
  151.9867  133.3776  159.4127 H   0  0  0  0  0  0  0  0  0  0  0  0  # atno 6907 bound_to 6896
  150.6927  134.3981  159.5116 H   0  0  0  0  0  0  0  0  0  0  0  0  # atno 6908 bound_to 6896
  152.1708  134.8835  160.0585 H   0  0  0  0  0  0  0  0  0  0  0  0  # atno 6909 bound_to 6896
  145.7350  139.2698  143.1519 H   0  0  0  0  0  0  0  0  0  0  0  0  # atno 7974 bound_to 7965
  155.6537  140.0715  157.2578 H   0  0  0  0  0  0  0  0  0  0  0  0  # atno 8008 bound_to 7997
  154.4157  140.1729  156.1752 H   0  0  0  0  0  0  0  0  0  0  0  0  # atno 8009 bound_to 7997
  155.9756  140.3358  155.6618 H   0  0  0  0  0  0  0  0  0  0  0  0  # atno 8010 bound_to 7997
  140.6351  143.7905  150.7348 H   0  0  0  0  0  0  0  0  0  0  0  0  # atno 10167 bound_to 10162
  157.0469  131.0302  151.2694 H   0  0  0  0  0  0  0  0  0  0  0  0  # atno 10718 bound_to 10713
  154.0776  135.6596  153.4833 H   0  0  0  0  0  0  0  0  0  0  0  0  # atno 10763 bound_to 10752
  153.0368  135.5172  154.7506 H   0  0  0  0  0  0  0  0  0  0  0  0  # atno 10764 bound_to 10752
  154.6591  135.3012  154.9858 H   0  0  0  0  0  0  0  0  0  0  0  0  # atno 10765 bound_to 10752
  139.9765  134.6814  156.0344 H   0  0  0  0  0  0  0  0  0  0  0  0  # atno 11005 bound_to 11000
  146.0502  140.8077  142.9785 LP  0  0  0  0  0  0  0  0  0  0  0  0  # atno 17320 bound_to 7965
  144.6884  140.3041  143.7258 LP  0  0  0  0  0  0  0  0  0  0  0  0  # atno 17321 bound_to 7965
  140.1525  143.4345  152.2122 LP  0  0  0  0  0  0  0  0  0  0  0  0  # atno 17342 bound_to 10162
  139.5562  144.7374  151.4288 LP  0  0  0  0  0  0  0  0  0  0  0  0  # atno 17343 bound_to 10162
  157.5060  130.7909  149.7655 LP  0  0  0  0  0  0  0  0  0  0  0  0  # atno 17370 bound_to 10713
  156.0020  130.3875  150.2571 LP  0  0  0  0  0  0  0  0  0  0  0  0  # atno 17371 bound_to 10713
  141.1441  133.6559  156.3816 LP  0  0  0  0  0  0  0  0  0  0  0  0  # atno 17394 bound_to 11000
  140.5184  134.6327  157.5309 LP  0  0  0  0  0  0  0  0  0  0  0  0  # atno 17395 bound_to 11000

$$$$
