AV-unprocessed.smi:13|AV-procd|sdf|76|dock8
  -GOLD-   2262015203D 1   1.00000     0.00000
 Structure written by MMmdl.
 54 58  0  0  0  0  0  0  0  0  1 V2000
  151.2732  144.0741  159.9465 C   0  0  0  0  0  0  0  0  0  0  0  0
  151.7523  143.2005  158.7871 C   0  0  0  0  0  0  0  0  0  0  0  0
  152.1470  144.1567  157.6533 C   0  0  0  0  0  0  0  0  0  0  0  0
  152.7952  142.1292  159.1402 C   0  0  0  0  0  0  0  0  0  0  0  0
  152.0606  141.2291  158.2695 N   0  0  0  0  0  0  0  0  0  0  0  0
  152.0696  139.8818  158.7271 C   0  0  0  0  0  0  0  0  0  0  0  0
  150.9365  139.1287  158.7549 N   0  0  0  0  0  0  0  0  0  0  0  0
  150.9626  137.8642  159.1857 C   0  0  0  0  0  0  0  0  0  0  0  0
  152.0016  137.1574  159.6315 N   0  0  0  0  0  0  0  0  0  0  0  0
  153.1443  137.9001  159.6089 C   0  0  0  0  0  0  0  0  0  0  0  0
  153.2603  139.2531  159.1819 C   0  0  0  0  0  0  0  0  0  0  0  0
  154.5762  139.6791  159.3098 N   0  0  0  0  0  0  0  0  0  0  0  0
  155.2029  138.6372  159.7838 C   0  0  0  0  0  0  0  0  0  0  0  0
  154.4220  137.5204  159.9825 N   0  0  0  0  0  0  0  0  0  0  0  0
  154.8573  136.2289  160.4931 C   0  0  0  0  0  0  0  0  0  0  0  0
  155.2528  136.2522  161.9890 C   0  0  2  0  0  0  0  0  0  0  0  0
  155.7888  134.9910  162.3495 O   0  0  0  0  0  0  0  0  0  0  0  0
  154.0725  136.5476  162.9065 C   0  0  0  0  0  0  0  0  0  0  0  0
  154.7314  137.2380  164.0929 C   0  0  0  0  0  0  0  0  0  0  0  0
  155.7136  138.0527  163.4765 O   0  0  0  0  0  0  0  0  0  0  0  0
  156.2723  137.3449  162.3736 C   0  0  0  0  0  0  0  0  0  0  0  0
  150.8356  142.0086  158.4301 C   0  0  2  0  0  0  0  0  0  0  0  0
  149.9783  142.0181  157.1574 C   0  0  1  0  0  0  0  0  0  0  0  0
  150.7857  141.9337  155.8571 C   0  0  0  0  0  0  0  0  0  0  0  0
  150.9511  140.4445  155.6635 C   0  0  0  0  0  0  0  0  0  0  0  0
  149.5980  139.9328  156.1400 C   0  0  0  0  0  0  0  0  0  0  0  0
  149.1933  140.8250  157.1742 O   0  0  0  0  0  0  0  0  0  0  0  0
  152.0527  144.7584  160.2829 H   0  0  0  0  0  0  0  0  0  0  0  0
  150.9808  143.4714  160.8069 H   0  0  0  0  0  0  0  0  0  0  0  0
  150.4065  144.6722  159.6629 H   0  0  0  0  0  0  0  0  0  0  0  0
  152.5419  143.6197  156.7905 H   0  0  0  0  0  0  0  0  0  0  0  0
  152.9201  144.8565  157.9724 H   0  0  0  0  0  0  0  0  0  0  0  0
  151.2951  144.7434  157.3078 H   0  0  0  0  0  0  0  0  0  0  0  0
  153.8065  142.3457  158.7949 H   0  0  0  0  0  0  0  0  0  0  0  0
  152.7722  141.8263  160.1891 H   0  0  0  0  0  0  0  0  0  0  0  0
  150.0160  137.3448  159.1695 H   0  0  0  0  0  0  0  0  0  0  0  0
  156.2610  138.6560  160.0004 H   0  0  0  0  0  0  0  0  0  0  0  0
  154.0515  135.5124  160.3298 H   0  0  0  0  0  0  0  0  0  0  0  0
  155.6972  135.8857  159.8874 H   0  0  0  0  0  0  0  0  0  0  0  0
  155.3479  134.6887  163.1286 H   0  0  0  0  0  0  0  0  0  0  0  0
  153.3849  137.2460  162.4268 H   0  0  0  0  0  0  0  0  0  0  0  0
  153.5017  135.6615  163.1878 H   0  0  0  0  0  0  0  0  0  0  0  0
  154.0300  137.8286  164.6825 H   0  0  0  0  0  0  0  0  0  0  0  0
  155.2144  136.5135  164.7506 H   0  0  0  0  0  0  0  0  0  0  0  0
  157.2424  136.9273  162.6486 H   0  0  0  0  0  0  0  0  0  0  0  0
  156.4411  138.0585  161.5680 H   0  0  0  0  0  0  0  0  0  0  0  0
  150.2694  141.7182  159.3164 H   0  0  0  0  0  0  0  0  0  0  0  0
  149.3189  142.8864  157.1364 H   0  0  0  0  0  0  0  0  0  0  0  0
  150.2001  142.3448  155.0338 H   0  0  0  0  0  0  0  0  0  0  0  0
  151.7325  142.4718  155.8855 H   0  0  0  0  0  0  0  0  0  0  0  0
  151.1750  140.1665  154.6333 H   0  0  0  0  0  0  0  0  0  0  0  0
  151.7496  140.0659  156.3030 H   0  0  0  0  0  0  0  0  0  0  0  0
  148.8666  139.9825  155.3325 H   0  0  0  0  0  0  0  0  0  0  0  0
  149.6418  138.9033  156.4961 H   0  0  0  0  0  0  0  0  0  0  0  0
  1  2  1  0  0  0  0
  1 28  1  0  0  0  0
  1 29  1  0  0  0  0
  1 30  1  0  0  0  0
  2 22  1  0  0  0  0
  2  3  1  0  0  0  0
  2  4  1  0  0  0  0
  3 31  1  0  0  0  0
  3 32  1  0  0  0  0
  3 33  1  0  0  0  0
  4  5  1  0  0  0  0
  4 34  1  0  0  0  0
  4 35  1  0  0  0  0
  5  6  1  0  0  0  0
  5 22  1  0  0  0  0
  6 11  1  0  0  0  0
  6  7  2  0  0  0  0
  7  8  1  0  0  0  0
  8  9  2  0  0  0  0
  8 36  1  0  0  0  0
  9 10  1  0  0  0  0
 10 14  1  0  0  0  0
 10 11  2  0  0  0  0
 11 12  1  0  0  0  0
 12 13  2  0  0  0  0
 13 14  1  0  0  0  0
 13 37  1  0  0  0  0
 14 15  1  0  0  0  0
 15 16  1  0  0  0  0
 15 38  1  0  0  0  0
 15 39  1  0  0  0  0
 16 21  1  0  0  0  0
 16 17  1  0  0  0  0
 16 18  1  0  0  0  0
 17 40  1  0  0  0  0
 18 19  1  0  0  0  0
 18 41  1  0  0  0  0
 18 42  1  0  0  0  0
 19 20  1  0  0  0  0
 19 43  1  0  0  0  0
 19 44  1  0  0  0  0
 20 21  1  0  0  0  0
 21 45  1  0  0  0  0
 21 46  1  0  0  0  0
 22 23  1  0  0  0  0
 22 47  1  0  0  0  0
 23 27  1  0  0  0  0
 23 24  1  0  0  0  0
 23 48  1  0  0  0  0
 24 25  1  0  0  0  0
 24 49  1  0  0  0  0
 24 50  1  0  0  0  0
 25 26  1  0  0  0  0
 25 51  1  0  0  0  0
 25 52  1  0  0  0  0
 26 27  1  0  0  0  0
 26 53  1  0  0  0  0
 26 54  1  0  0  0  0
M  END
> <s_m_source_file>
AV-unprocessed.smi

> <i_m_source_file_index>
13

> <i_lp_mmshare_version>
43012

> <i_f3d_flags>
0

> <s_epik_input>
TzFbQ0gyXVtDSDJdW0NIMl1bQ0BIXTFbQ0BASF0yTihbQ0gyXUMyKFtDSDNdKVtDSDNdKWMobltjSF1uMyljKGMzNCluW2NIXW40W0NIMl1bQ0BAXTUoW09IXSlbQ0gyXVtDSDJdT1tDSDJdNQ==

> <s_epik_cmdline>
J2VwaWtfcHl0aG9uJywgJy1waCcsICc3LjAnLCAnLXRuJywgJzgnLCAnLW1hJywgJzIwMCcsICctbWV0YWxfYmluZGluZycsICctaW1hZScsICc8aW5maWxlLm1hZT4nLCAnLW9tYWUnLCAnPG91dGZpbGUubWFlPic=

> <r_lp_tautomer_probability>
1

> <r_epik_Ionization_Penalty>
0.00202764

> <r_epik_Ionization_Penalty_Charging>
0

> <r_epik_Ionization_Penalty_Neutral>
0.00202764

> <r_epik_State_Penalty>
0.00134017

> <r_epik_Charging_Adjusted_Penalty>
0.00134017

> <i_epik_Tot_Q>
0

> <i_epik_Tot_abs_Q>
0

> <r_epik_Metal_State_Penalty>
-0

> <b_epik_Metal_Only>
0

> <s_lp_Force_Field>
OPLS_2005

> <r_lp_Energy>
64.8662

> <b_lp_Chiralities_Consistent>
1

> <s_lp_Variant>
AV-unprocessed.smi:13-8

> <Gold.Version>
5.8.1

> <Gold.Id.Protein>
6NUR|6NUR_protein|mol2

> <Gold.PLP.Fitness>
44.9739

> <Gold.PLP.PLP>
-40.8211

> <Gold.PLP.part.hbond>
-1.9651

> <Gold.PLP.part.metal>
0.0000

> <Gold.PLP.part.buried>
-5.7514

> <Gold.PLP.part.nonpolar>
-32.6112

> <Gold.PLP.part.repulsive>
0.0446

> <Gold.PLP.ligand.clash>
0.0000

> <Gold.PLP.ligand.torsion>
0.9933

> <Gold.PLP.Chemscore.Hbond>
1.9013

> <Gold.PLP.Chemscore.CHOScore>
0.0000

> <Gold.PLP.Chemscore.Metal>
0.0000

> <Gold.Chemscore.Hbonds>
donor molecule, donor type, donor heavy atom, donor atom, acceptor molecule, acceptor atom, score
      P1  H  6896  6907       L1     9  0.91
      P1  H  7997  8010       L1    12  0.89

> <Gold.PLP.Chemscore.Internal.Correction>
0.4356

> <Gold.Rescore>
     Score         DG    S(hbond)    S(metal)    S(lipo)     H(rot)  DE(clash)    DE(int)     intcor
     14.24     -17.65       1.80        0.00     102.86       2.30       0.13       3.27       ----

> <Gold.Chemscore.Fitness>
14.2446

> <Gold.Chemscore.DG>
-17.6502

> <Gold.Chemscore.ZeroCoef>
-5.4800

> <Gold.Chemscore.Hbond>
1.8031

> <Gold.Chemscore.Metal>
0.0000

> <Gold.Chemscore.Lipo>
102.8602

> <Gold.Chemscore.Internal_Hbond>
0.0000

> <Gold.Chemscore.DEClash>
0.1336

> <Gold.Chemscore.DEInternal>
3.2720

> <Gold.Chemscore.Rot>
2.2996

> <Gold.Chemscore.Internal.Correction>
   9.000000E+99

> <Gold.Chemscore.Hbonds>
donor molecule, donor type, donor heavy atom, donor atom, acceptor molecule, acceptor atom, score
      P1  H  6896  6907       L1     9  0.74
      P1  H  7997  8010       L1    12  0.18

> <Gold.Chemscore.Hbond.Weighted>
-6.0225

> <Gold.Chemscore.Metal.Weighted>
-0.0000

> <Gold.Chemscore.Lipo.Weighted>
-12.0346

> <Gold.Chemscore.Internal_Hbond.Weighted>
0.0000

> <Gold.Chemscore.DEClash.Weighted>
0.1336

> <Gold.Chemscore.DEInternal.Weighted>
3.2720

> <Gold.Chemscore.Rot.Weighted>
5.8869

> <Gold.Chemscore.Internal.Correction.Weighted>
   9.000000E+99

> <Gold.Protein.RotatedTorsions>
[ 6907 6896 6895 6894 ] final   -3.23 input  -60.11 | X-H torsion
[ 7974 7965 7964 7962 ] final  -75.24 input  175.53 | X-H torsion
[ 8008 7997 7996 7995 ] final    4.68 input   59.86 | X-H torsion
[ 10167 10162 10161 10158 ] final   45.72 input  -65.29 | X-H torsion
[ 10718 10713 10712 10709 ] final   27.65 input   66.30 | X-H torsion
[ 10763 10752 10751 10750 ] final  -32.23 input  -60.55 | X-H torsion
[ 11005 11000 10999 10996 ] final  -41.41 input  -57.11 | X-H torsion

> <Gold.Protein.ActiveResidues>
 VAL166  LYS551  ARG553  GLY616  TRP617  ASP618  TYR619  PRO620  LYS621  CYS622 
 ASP623  PHE694  ASN695  SER759  ASP760  ASP761  ALA762  ILE779  LEU786  VAL792 
 PHE793  MET794  SER795  GLU796  ALA797  LYS798  CYS799  TRP800  GLU811  SER814 

> <Gold.Protein.RotatedAtoms>
  151.5171  135.1066  159.9868 H   0  0  0  0  0  0  0  0  0  0  0  0  # atno 6907 bound_to 6896
  152.4636  133.7872  159.6893 H   0  0  0  0  0  0  0  0  0  0  0  0  # atno 6908 bound_to 6896
  150.8610  133.7580  159.3018 H   0  0  0  0  0  0  0  0  0  0  0  0  # atno 6909 bound_to 6896
  145.6286  140.9344  143.1099 H   0  0  0  0  0  0  0  0  0  0  0  0  # atno 7974 bound_to 7965
  154.7189  140.2707  155.6560 H   0  0  0  0  0  0  0  0  0  0  0  0  # atno 8008 bound_to 7997
  156.2818  140.2738  156.1778 H   0  0  0  0  0  0  0  0  0  0  0  0  # atno 8009 bound_to 7997
  155.0534  140.0371  157.2541 H   0  0  0  0  0  0  0  0  0  0  0  0  # atno 8010 bound_to 7997
  140.3213  144.2702  150.6182 H   0  0  0  0  0  0  0  0  0  0  0  0  # atno 10167 bound_to 10162
  157.2230  130.6988  149.6279 H   0  0  0  0  0  0  0  0  0  0  0  0  # atno 10718 bound_to 10713
  153.8104  135.6883  153.4842 H   0  0  0  0  0  0  0  0  0  0  0  0  # atno 10763 bound_to 10752
  153.1632  135.4571  154.9799 H   0  0  0  0  0  0  0  0  0  0  0  0  # atno 10764 bound_to 10752
  154.7970  135.3323  154.7585 H   0  0  0  0  0  0  0  0  0  0  0  0  # atno 10765 bound_to 10752
  141.0244  133.6848  156.2454 H   0  0  0  0  0  0  0  0  0  0  0  0  # atno 11005 bound_to 11000
  144.7202  139.8055  143.7384 LP  0  0  0  0  0  0  0  0  0  0  0  0  # atno 17320 bound_to 7965
  146.1374  139.4423  143.0130 LP  0  0  0  0  0  0  0  0  0  0  0  0  # atno 17321 bound_to 7965
  140.5481  143.2211  151.7973 LP  0  0  0  0  0  0  0  0  0  0  0  0  # atno 17342 bound_to 10162
  139.4874  144.4512  151.9651 LP  0  0  0  0  0  0  0  0  0  0  0  0  # atno 17343 bound_to 10162
  155.9681  130.4513  150.5732 LP  0  0  0  0  0  0  0  0  0  0  0  0  # atno 17370 bound_to 10713
  157.3556  131.0741  151.1678 LP  0  0  0  0  0  0  0  0  0  0  0  0  # atno 17371 bound_to 10713
  140.6517  134.5060  157.5578 LP  0  0  0  0  0  0  0  0  0  0  0  0  # atno 17394 bound_to 11000
  139.9166  134.8233  156.1345 LP  0  0  0  0  0  0  0  0  0  0  0  0  # atno 17395 bound_to 11000

$$$$
