AV-unprocessed.smi:39|AV-procd|sdf|357|dock3
  -GOLD-   2262016193D 1   1.00000     0.00000
 Structure written by MMmdl.
 32 33  0  0  0  0  0  0  0  0  3 V2000
  150.8972  145.0624  159.2253 C   0  0  0  0  0  0  0  0  0  0  0  0
  151.4630  143.6781  158.9546 C   0  0  0  0  0  0  0  0  0  0  0  0
  151.1381  142.9627  157.8473 C   0  0  0  0  0  0  0  0  0  0  0  0
  151.6386  141.6976  157.5719 N   0  0  0  0  0  0  0  0  0  0  0  0
  151.2356  140.9478  156.3219 C   0  0  1  0  0  0  0  0  0  0  0  0
  150.6568  139.5755  156.6709 C   0  0  0  0  0  0  0  0  0  0  0  0
  149.5287  139.4628  155.6629 C   0  0  1  0  0  0  0  0  0  0  0  0
  148.4814  138.5293  156.0836 N   0  0  0  0  0  0  0  0  0  0  0  0
  147.9835  138.7251  157.2002 N   0  3  0  0  0  0  0  0  0  0  0  0
  147.5308  139.0274  158.1995 N   0  5  0  0  0  0  0  0  0  0  0  0
  149.0343  140.9106  155.6014 C   0  0  2  0  0  0  0  0  0  0  0  0
  148.2689  141.2421  154.3110 C   0  0  0  0  0  0  0  0  0  0  0  0
  149.1672  141.3338  153.2263 O   0  0  0  0  0  0  0  0  0  0  0  0
  150.2425  141.6683  155.6520 O   0  0  0  0  0  0  0  0  0  0  0  0
  152.5228  141.0908  158.4884 C   0  0  0  0  0  0  0  0  0  0  0  0
  152.9871  139.9627  158.3282 O   0  0  0  0  0  0  0  0  0  0  0  0
  152.8596  141.8259  159.6233 N   0  0  0  0  0  0  0  0  0  0  0  0
  152.3895  143.1040  159.9344 C   0  0  0  0  0  0  0  0  0  0  0  0
  152.7606  143.6522  160.9710 O   0  0  0  0  0  0  0  0  0  0  0  0
  152.1023  140.8990  155.6612 H   0  0  0  0  0  0  0  0  0  0  0  0
  149.9410  139.1850  154.6899 H   0  0  0  0  0  0  0  0  0  0  0  0
  148.4265  141.1251  156.4823 H   0  0  0  0  0  0  0  0  0  0  0  0
  153.4953  141.3964  160.2795 H   0  0  0  0  0  0  0  0  0  0  0  0
  150.2285  145.3893  158.4285 H   0  0  0  0  0  0  0  0  0  0  0  0
  151.7021  145.7936  159.3066 H   0  0  0  0  0  0  0  0  0  0  0  0
  150.3334  145.0678  160.1588 H   0  0  0  0  0  0  0  0  0  0  0  0
  150.4479  143.4067  157.1466 H   0  0  0  0  0  0  0  0  0  0  0  0
  151.4111  138.7934  156.5803 H   0  0  0  0  0  0  0  0  0  0  0  0
  150.2690  139.5824  157.6913 H   0  0  0  0  0  0  0  0  0  0  0  0
  147.4974  140.4997  154.1050 H   0  0  0  0  0  0  0  0  0  0  0  0
  147.7718  142.2079  154.4059 H   0  0  0  0  0  0  0  0  0  0  0  0
  149.0169  140.6014  152.6483 H   0  0  0  0  0  0  0  0  0  0  0  0
  1  2  1  0  0  0  0
  1 24  1  0  0  0  0
  1 25  1  0  0  0  0
  1 26  1  0  0  0  0
  2 18  1  0  0  0  0
  2  3  2  0  0  0  0
  3  4  1  0  0  0  0
  3 27  1  0  0  0  0
  4  5  1  0  0  0  0
  4 15  1  0  0  0  0
  5 20  1  0  0  0  0
  5 14  1  0  0  0  0
  5  6  1  0  0  0  0
  6  7  1  0  0  0  0
  6 28  1  0  0  0  0
  6 29  1  0  0  0  0
  7 21  1  0  0  0  0
  7  8  1  0  0  0  0
  7 11  1  0  0  0  0
  8  9  2  0  0  0  0
  9 10  2  0  0  0  0
 11 22  1  0  0  0  0
 11 12  1  0  0  0  0
 11 14  1  0  0  0  0
 12 13  1  0  0  0  0
 12 30  1  0  0  0  0
 12 31  1  0  0  0  0
 13 32  1  0  0  0  0
 15 16  2  0  0  0  0
 15 17  1  0  0  0  0
 17 23  1  0  0  0  0
 17 18  1  0  0  0  0
 18 19  2  0  0  0  0
M  CHG  1   9   1
M  CHG  1  10  -1
M  END
> <s_m_source_file>
AV-unprocessed.smi

> <i_m_source_file_index>
39

> <i_lp_mmshare_version>
43012

> <i_f3d_flags>
0

> <s_epik_input>
Tz1jMVtuSF1jKD1PKW4oW2NIXWMxW0NIM10pW0NASF0yW0NIMl1bQ0BIXShOPVtOK109W04tXSlbQ0BIXShPMilbQ0gyXVtPSF0=

> <s_epik_cmdline>
J2VwaWtfcHl0aG9uJywgJy1waCcsICc3LjAnLCAnLXRuJywgJzgnLCAnLW1hJywgJzIwMCcsICctbWV0YWxfYmluZGluZycsICctaW1hZScsICc8aW5maWxlLm1hZT4nLCAnLW9tYWUnLCAnPG91dGZpbGUubWFlPic=

> <r_lp_tautomer_probability>
0.999537

> <r_epik_Ionization_Penalty>
0.00127512

> <r_epik_Ionization_Penalty_Charging>
0.00127507

> <r_epik_Ionization_Penalty_Neutral>
5.43433e-08

> <r_epik_State_Penalty>
0.000844892

> <r_epik_Charging_Adjusted_Penalty>
0.00211996

> <i_epik_Tot_Q>
0

> <i_epik_Tot_abs_Q>
2

> <r_epik_Metal_State_Penalty>
0.680636

> <b_epik_Metal_Only>
0

> <s_epik_Chemistry_Notes>
This compound contains an acetal/aminal-like group ( X-CH(R)-Y where X, Y are N, S, or O) that may be acid/base labile, releasing an aldehyde.

> <s_lp_Force_Field>
OPLS_2005

> <r_lp_Energy>
25.0808

> <b_lp_Chiralities_Consistent>
1

> <s_lp_Variant>
AV-unprocessed.smi:39-7

> <Gold.Version>
5.8.1

> <Gold.Id.Protein>
6NUR|6NUR_protein|mol2

> <Gold.PLP.Fitness>
40.8011

> <Gold.PLP.PLP>
-29.8526

> <Gold.PLP.part.hbond>
-4.6414

> <Gold.PLP.part.metal>
0.0000

> <Gold.PLP.part.buried>
-3.7126

> <Gold.PLP.part.nonpolar>
-20.5469

> <Gold.PLP.part.repulsive>
0.2603

> <Gold.PLP.ligand.clash>
0.0000

> <Gold.PLP.ligand.torsion>
0.2050

> <Gold.PLP.Chemscore.Hbond>
2.7750

> <Gold.PLP.Chemscore.CHOScore>
1.0000

> <Gold.PLP.Chemscore.Metal>
0.0000

> <Gold.Chemscore.Hbonds>
donor molecule, donor type, donor heavy atom, donor atom, acceptor molecule, acceptor atom, score
      L1  H    13    32       P1  7957  0.74
      P1  H  7997  8010       L1    16  0.91
      P1  H  8011  8017       L1    13  1.00
      L1  C     3    27       P1  8028  1.00

> <Gold.PLP.Chemscore.Internal.Correction>
0.0334

> <Gold.Rescore>
     Score         DG    S(hbond)    S(metal)    S(lipo)     H(rot)  DE(clash)    DE(int)     intcor
     10.92     -12.31       2.38        0.00      50.76       2.75       0.04       1.35       ----

> <Gold.Chemscore.Fitness>
10.9196

> <Gold.Chemscore.DG>
-12.3065

> <Gold.Chemscore.ZeroCoef>
-5.4800

> <Gold.Chemscore.Hbond>
2.3752

> <Gold.Chemscore.Metal>
0.0000

> <Gold.Chemscore.Lipo>
50.7635

> <Gold.Chemscore.Internal_Hbond>
0.0000

> <Gold.Chemscore.DEClash>
0.0413

> <Gold.Chemscore.DEInternal>
1.3455

> <Gold.Chemscore.Rot>
2.7524

> <Gold.Chemscore.Internal.Correction>
   9.000000E+99

> <Gold.Chemscore.Hbonds>
donor molecule, donor type, donor heavy atom, donor atom, acceptor molecule, acceptor atom, score
      L1  H    13    32       P1  7957  0.74
      P1  H  7997  8010       L1    16  0.59
      P1  H  8011  8017       L1    13  0.41

> <Gold.Chemscore.Hbond.Weighted>
-7.9333

> <Gold.Chemscore.Metal.Weighted>
-0.0000

> <Gold.Chemscore.Lipo.Weighted>
-5.9393

> <Gold.Chemscore.Internal_Hbond.Weighted>
0.0000

> <Gold.Chemscore.DEClash.Weighted>
0.0413

> <Gold.Chemscore.DEInternal.Weighted>
1.3455

> <Gold.Chemscore.Rot.Weighted>
7.0461

> <Gold.Chemscore.Internal.Correction.Weighted>
   9.000000E+99

> <Gold.Protein.RotatedTorsions>
[ 6907 6896 6895 6894 ] final -153.42 input  -60.11 | X-H torsion
[ 7974 7965 7964 7962 ] final  158.22 input  175.53 | X-H torsion
[ 8008 7997 7996 7995 ] final   40.66 input   59.86 | X-H torsion
[ 10167 10162 10161 10158 ] final  -59.04 input  -65.29 | X-H torsion
[ 10718 10713 10712 10709 ] final   13.05 input   66.30 | X-H torsion
[ 10763 10752 10751 10750 ] final   63.61 input  -60.55 | X-H torsion
[ 11005 11000 10999 10996 ] final  -23.87 input  -57.11 | X-H torsion

> <Gold.Protein.ActiveResidues>
 VAL166  LYS551  ARG553  GLY616  TRP617  ASP618  TYR619  PRO620  LYS621  CYS622 
 ASP623  PHE694  ASN695  SER759  ASP760  ASP761  ALA762  ILE779  LEU786  VAL792 
 PHE793  MET794  SER795  GLU796  ALA797  LYS798  CYS799  TRP800  GLU811  SER814 

> <Gold.Protein.RotatedAtoms>
  151.2423  133.4393  159.2607 H   0  0  0  0  0  0  0  0  0  0  0  0  # atno 6907 bound_to 6896
  151.0693  134.9788  159.8311 H   0  0  0  0  0  0  0  0  0  0  0  0  # atno 6908 bound_to 6896
  152.5410  134.2369  159.8900 H   0  0  0  0  0  0  0  0  0  0  0  0  # atno 6909 bound_to 6896
  144.7858  139.7448  143.6241 H   0  0  0  0  0  0  0  0  0  0  0  0  # atno 7974 bound_to 7965
  155.2568  140.3356  155.4277 H   0  0  0  0  0  0  0  0  0  0  0  0  # atno 8008 bound_to 7997
  156.2192  140.1801  156.7561 H   0  0  0  0  0  0  0  0  0  0  0  0  # atno 8009 bound_to 7997
  154.5799  140.0655  156.9073 H   0  0  0  0  0  0  0  0  0  0  0  0  # atno 8010 bound_to 7997
  140.6159  143.2402  151.5597 H   0  0  0  0  0  0  0  0  0  0  0  0  # atno 10167 bound_to 10162
  157.0190  130.6147  149.5718 H   0  0  0  0  0  0  0  0  0  0  0  0  # atno 10718 bound_to 10713
  153.0024  135.5423  154.6379 H   0  0  0  0  0  0  0  0  0  0  0  0  # atno 10763 bound_to 10752
  154.5641  135.2836  155.0893 H   0  0  0  0  0  0  0  0  0  0  0  0  # atno 10764 bound_to 10752
  154.2084  135.6472  153.5160 H   0  0  0  0  0  0  0  0  0  0  0  0  # atno 10765 bound_to 10752
  140.8792  133.7666  156.0281 H   0  0  0  0  0  0  0  0  0  0  0  0  # atno 11005 bound_to 11000
  146.2089  139.5432  142.9694 LP  0  0  0  0  0  0  0  0  0  0  0  0  # atno 17320 bound_to 7965
  145.5925  141.0367  143.2062 LP  0  0  0  0  0  0  0  0  0  0  0  0  # atno 17321 bound_to 7965
  139.5399  144.2678  152.1328 LP  0  0  0  0  0  0  0  0  0  0  0  0  # atno 17342 bound_to 10162
  140.1887  144.4773  150.6490 LP  0  0  0  0  0  0  0  0  0  0  0  0  # atno 17343 bound_to 10162
  156.0109  130.5200  150.7984 LP  0  0  0  0  0  0  0  0  0  0  0  0  # atno 17370 bound_to 10713
  157.5264  131.0934  151.0012 LP  0  0  0  0  0  0  0  0  0  0  0  0  # atno 17371 bound_to 10713
  140.8482  134.2986  157.5286 LP  0  0  0  0  0  0  0  0  0  0  0  0  # atno 17394 bound_to 11000
  139.8718  134.9453  156.3906 LP  0  0  0  0  0  0  0  0  0  0  0  0  # atno 17395 bound_to 11000

$$$$
