#       Name:                AV-unprocessed.smi:3149
#       Creating user name   scv26
#       Creation time:       Fri Mar 27 17:40:32 2020


#       File generated by GOLD software.
#

@<TRIPOS>MOLECULE
AV-unprocessed.smi:3149
    41    42     1
SMALL
NO_CHARGES


@<TRIPOS>ATOM
      1 ****        -0.5868  -1.7790   1.4500 C.3            1 S1                 0.0000
      2 ****         0.0198  -1.0785   0.2203 C.3            1 S1                 0.0000
      3 ****         1.4955  -1.0683   0.3624 N.4            1 S1                 1.0000
      4 ****         2.1462   0.2483   0.1887 C.3            1 S1                 0.0000
      5 ****         1.9559   1.1385   1.4223 C.2            1 S1                 0.0000
      6 ****         2.4962   0.8355   2.4854 O.2            1 S1                 0.0000
      7 ****         1.2035   2.3072   1.2818 N.am           1 S1                 0.0000
      8 ****         1.3156   3.1544   0.1037 C.3            1 S1                 0.0000
      9 ****         0.9639   4.3164   1.0376 C.3            1 S1                 0.0000
     10 ****         1.3583   3.4156   2.2122 C.3            1 S1                 0.0000
     11 ****        -0.3980  -1.7385  -1.1224 C.3            1 S1                 0.0000
     12 ****         0.0974  -0.9623  -2.3576 C.3            1 S1                 0.0000
     13 ****        -1.8397  -1.9356  -1.2087 N.pl3          1 S1                 0.0000
     14 ****        -2.5348  -3.1211  -1.3334 C.2            1 S1                 0.0000
     15 ****        -3.8640  -2.8125  -1.3782 C.2            1 S1                 0.0000
     16 ****        -3.8858  -1.3939  -1.2765 C.2            1 S1                 0.0000
     17 ****        -2.6742  -0.8719  -1.1767 N.2            1 S1                 0.0000
     18 ****        -1.6754  -1.7191   1.4569 H              1 S1                 0.0000
     19 ****        -0.2388  -1.3157   2.3739 H              1 S1                 0.0000
     20 ****        -0.3106  -2.8335   1.4825 H              1 S1                 0.0000
     21 ****        -0.3500  -0.0518   0.2284 H              1 S1                 0.0000
     22 ****         1.7304  -1.4035   1.2861 H              1 S1                 0.0000
     23 ****         3.2157   0.0834   0.0567 H              1 S1                 0.0000
     24 ****         1.7909   0.7207  -0.7264 H              1 S1                 0.0000
     25 ****         2.3302   3.2152  -0.2953 H              1 S1                 0.0000
     26 ****         0.5697   2.9494  -0.6650 H              1 S1                 0.0000
     27 ****         1.5964   5.1963   0.9161 H              1 S1                 0.0000
     28 ****        -0.0966   4.5748   1.0274 H              1 S1                 0.0000
     29 ****         0.6456   3.4052   3.0374 H              1 S1                 0.0000
     30 ****         2.3870   3.5707   2.5445 H              1 S1                 0.0000
     31 ****         0.0523  -2.7319  -1.1598 H              1 S1                 0.0000
     32 ****         1.1858  -0.9368  -2.4055 H              1 S1                 0.0000
     33 ****        -0.2605   0.0678  -2.3536 H              1 S1                 0.0000
     34 ****        -0.2518  -1.4305  -3.2786 H              1 S1                 0.0000
     35 ****        -2.0324  -4.0762  -1.3782 H              1 S1                 0.0000
     36 ****        -4.6951  -3.4960  -1.4709 H              1 S1                 0.0000
     37 ****        -4.7398  -0.7326  -1.2723 H              1 S1                 0.0000
     38 ****         1.8780  -1.7105  -0.3164 H              1 S1                 0.0000
     39 ****         3.0579   0.0102   2.5434 LP             1 S1                 0.0000
     40 ****         2.3736   1.4145   3.2915 LP             1 S1                 0.0000
     41 ****        -2.4298   0.0944  -1.0956 LP             1 S1                 0.0000
@<TRIPOS>BOND
    1    1    2 1     
    2    1   18 1     
    3    1   19 1     
    4    1   20 1     
    5    2    3 1     
    6    2   11 1     
    7    2   21 1     
    8    3    4 1     
    9    3   22 1     
   10    3   38 1     
   11    4    5 1     
   12    4   23 1     
   13    4   24 1     
   14    5    6 2     
   15    5    7 am    
   16    7   10 1     
   17    7    8 1     
   18    8    9 1     
   19    8   25 1     
   20    8   26 1     
   21    9   10 1     
   22    9   27 1     
   23    9   28 1     
   24   10   29 1     
   25   10   30 1     
   26   11   12 1     
   27   11   13 1     
   28   11   31 1     
   29   12   32 1     
   30   12   33 1     
   31   12   34 1     
   32   13   17 1     
   33   13   14 1     
   34   14   15 2     
   35   14   35 1     
   36   15   16 1     
   37   15   36 1     
   38   16   17 2     
   39   16   37 1     
   40    6   39 1     
   41    6   40 1     
   42   17   41 1     
@<TRIPOS>SUBSTRUCTURE
      1 S1             1
@<TRIPOS>SET
LONE_PAIRS      STATIC     ATOMS    <user>   **** ""
3 39 40 41
DONOR_HYDROGENS      STATIC     ATOMS    <user>   **** ""
2 22 38
ATOM$BLUE        STATIC     ATOMS    COLORGROUP SYSTEM
3 39 40 41
ATOM$RED        STATIC     ATOMS    COLORGROUP SYSTEM
2 22 38
