AV-unprocessed.smi:765|AV-procd|sdf|3649|dock1
  -GOLD-   22720 1 53D 1   1.00000     0.00000
 Structure written by MMmdl.
 39 40  0  0  0  0  0  0  0  0  1 V2000
  146.7764  141.9531  153.2477 C   0  0  0  0  0  0  0  0  0  0  0  0
  147.6636  141.1864  154.2386 C   0  0  2  0  0  0  0  0  0  0  0  0
  146.8189  140.3541  155.2196 C   0  0  0  0  0  0  0  0  0  0  0  0
  147.7013  139.6002  156.2241 C   0  0  0  0  0  0  0  0  0  0  0  0
  148.6269  140.5689  156.9774 C   0  0  0  0  0  0  0  0  0  0  0  0
  149.5105  141.4002  156.0210 C   0  0  2  0  0  0  0  0  0  0  0  0
  150.4483  140.5027  155.3163 C   0  0  0  0  0  0  0  0  0  0  0  0
  151.1834  139.8002  154.7635 N   0  0  0  0  0  0  0  0  0  0  0  0
  150.2303  142.3772  156.8400 N   0  0  0  0  0  0  0  0  0  0  0  0
  151.0682  142.1196  157.8587 C   0  0  0  0  0  0  0  0  0  0  0  0
  151.3110  140.9831  158.2652 O   0  0  0  0  0  0  0  0  0  0  0  0
  151.7455  143.3427  158.4952 C   0  0  1  0  0  0  0  0  0  0  0  0
  150.7863  144.5329  158.6800 C   0  0  0  0  0  0  0  0  0  0  0  0
  152.3653  142.9698  159.7602 N   0  0  0  0  0  0  0  0  0  0  0  0
  153.3403  142.0208  160.0019 C   0  0  0  0  0  0  0  0  0  0  0  0
  153.6030  142.0363  161.3415 C   0  0  0  0  0  0  0  0  0  0  0  0
  152.7266  143.0370  161.8456 C   0  0  0  0  0  0  0  0  0  0  0  0
  151.9885  143.5929  160.8987 N   0  0  0  0  0  0  0  0  0  0  0  0
  148.5973  142.1405  155.0109 C   0  0  0  0  0  0  0  0  0  0  0  0
  146.1269  142.6617  153.7627 H   0  0  0  0  0  0  0  0  0  0  0  0
  146.1421  141.2716  152.6803 H   0  0  0  0  0  0  0  0  0  0  0  0
  147.3796  142.5134  152.5326 H   0  0  0  0  0  0  0  0  0  0  0  0
  148.2811  140.4996  153.6584 H   0  0  0  0  0  0  0  0  0  0  0  0
  146.1319  141.0069  155.7600 H   0  0  0  0  0  0  0  0  0  0  0  0
  146.2002  139.6432  154.6709 H   0  0  0  0  0  0  0  0  0  0  0  0
  147.0744  139.0602  156.9340 H   0  0  0  0  0  0  0  0  0  0  0  0
  148.2932  138.8473  155.7028 H   0  0  0  0  0  0  0  0  0  0  0  0
  148.0161  141.2345  157.5897 H   0  0  0  0  0  0  0  0  0  0  0  0
  149.2532  140.0069  157.6718 H   0  0  0  0  0  0  0  0  0  0  0  0
  150.1000  143.3464  156.5882 H   0  0  0  0  0  0  0  0  0  0  0  0
  152.5343  143.6642  157.8119 H   0  0  0  0  0  0  0  0  0  0  0  0
  150.3325  144.8252  157.7326 H   0  0  0  0  0  0  0  0  0  0  0  0
  151.3184  145.4016  159.0686 H   0  0  0  0  0  0  0  0  0  0  0  0
  149.9811  144.3012  159.3786 H   0  0  0  0  0  0  0  0  0  0  0  0
  153.7626  141.4225  159.2077 H   0  0  0  0  0  0  0  0  0  0  0  0
  154.3126  141.4254  161.8793 H   0  0  0  0  0  0  0  0  0  0  0  0
  152.6056  143.3741  162.8646 H   0  0  0  0  0  0  0  0  0  0  0  0
  149.2043  142.6992  154.2975 H   0  0  0  0  0  0  0  0  0  0  0  0
  147.9944  142.8813  155.5391 H   0  0  0  0  0  0  0  0  0  0  0  0
  1  2  1  0  0  0  0
  1 20  1  0  0  0  0
  1 21  1  0  0  0  0
  1 22  1  0  0  0  0
  2 19  1  0  0  0  0
  2  3  1  0  0  0  0
  2 23  1  0  0  0  0
  3  4  1  0  0  0  0
  3 24  1  0  0  0  0
  3 25  1  0  0  0  0
  4  5  1  0  0  0  0
  4 26  1  0  0  0  0
  4 27  1  0  0  0  0
  5  6  1  0  0  0  0
  5 28  1  0  0  0  0
  5 29  1  0  0  0  0
  6  7  1  0  0  0  0
  6  9  1  0  0  0  0
  6 19  1  0  0  0  0
  7  8  3  0  0  0  0
  9 10  1  0  0  0  0
  9 30  1  0  0  0  0
 10 11  2  0  0  0  0
 10 12  1  0  0  0  0
 12 13  1  0  0  0  0
 12 14  1  0  0  0  0
 12 31  1  0  0  0  0
 13 32  1  0  0  0  0
 13 33  1  0  0  0  0
 13 34  1  0  0  0  0
 14 18  1  0  0  0  0
 14 15  1  0  0  0  0
 15 16  2  0  0  0  0
 15 35  1  0  0  0  0
 16 17  1  0  0  0  0
 16 36  1  0  0  0  0
 17 18  2  0  0  0  0
 17 37  1  0  0  0  0
 19 38  1  0  0  0  0
 19 39  1  0  0  0  0
M  END
> <s_m_source_file>
AV-unprocessed.smi

> <i_m_source_file_index>
765

> <i_lp_mmshare_version>
43012

> <i_f3d_flags>
0

> <s_epik_input>
W0NIM11bQ0BASF0oW0NIMl0xKVtDSDJdW0NIMl1bQ0gyXVtDQEBdMShDI04pW05IXUMoPU8pW0NASF0oW0NIM10pbjJbY0hdW2NIXVtjSF1uMg==

> <s_epik_cmdline>
J2VwaWtfcHl0aG9uJywgJy1waCcsICc3LjAnLCAnLXRuJywgJzgnLCAnLW1hJywgJzIwMCcsICctbWV0YWxfYmluZGluZycsICctaW1hZScsICc8aW5maWxlLm1hZT4nLCAnLW9tYWUnLCAnPG91dGZpbGUubWFlPic=

> <r_lp_tautomer_probability>
1

> <r_epik_Ionization_Penalty>
2.71142e-05

> <r_epik_Ionization_Penalty_Charging>
0

> <r_epik_Ionization_Penalty_Neutral>
2.71142e-05

> <r_epik_State_Penalty>
-0

> <r_epik_Charging_Adjusted_Penalty>
0

> <i_epik_Tot_Q>
0

> <i_epik_Tot_abs_Q>
0

> <r_epik_Metal_State_Penalty>
-0

> <b_epik_Metal_Only>
0

> <s_lp_Force_Field>
OPLS_2005

> <r_lp_Energy>
10.7608

> <b_lp_Chiralities_Consistent>
1

> <s_lp_Variant>
AV-unprocessed.smi:765-7

> <Gold.Version>
5.8.1

> <Gold.Id.Protein>
6NUR|6NUR_protein|mol2

> <Gold.PLP.Fitness>
41.7362

> <Gold.PLP.PLP>
-36.7152

> <Gold.PLP.part.hbond>
-2.0000

> <Gold.PLP.part.metal>
0.0000

> <Gold.PLP.part.buried>
-3.2246

> <Gold.PLP.part.nonpolar>
-31.9534

> <Gold.PLP.part.repulsive>
0.2064

> <Gold.PLP.ligand.clash>
0.0000

> <Gold.PLP.ligand.torsion>
0.4497

> <Gold.PLP.Chemscore.Hbond>
1.9516

> <Gold.PLP.Chemscore.CHOScore>
0.0000

> <Gold.PLP.Chemscore.Metal>
0.0000

> <Gold.Chemscore.Hbonds>
donor molecule, donor type, donor heavy atom, donor atom, acceptor molecule, acceptor atom, score
      L1  H     9    30       P1  8028  0.91
      P1  H  7989  7998       L1     8  0.95

> <Gold.PLP.Chemscore.Internal.Correction>
0.0656

> <Gold.Rescore>
     Score         DG    S(hbond)    S(metal)    S(lipo)     H(rot)  DE(clash)    DE(int)     intcor
     12.96     -17.64       1.79        0.00      83.83       1.42       1.56       3.13       ----

> <Gold.Chemscore.Fitness>
12.9557

> <Gold.Chemscore.DG>
-17.6446

> <Gold.Chemscore.ZeroCoef>
-5.4800

> <Gold.Chemscore.Hbond>
1.7927

> <Gold.Chemscore.Metal>
0.0000

> <Gold.Chemscore.Lipo>
83.8267

> <Gold.Chemscore.Internal_Hbond>
0.0000

> <Gold.Chemscore.DEClash>
1.5594

> <Gold.Chemscore.DEInternal>
3.1294

> <Gold.Chemscore.Rot>
1.4183

> <Gold.Chemscore.Internal.Correction>
   9.000000E+99

> <Gold.Chemscore.Hbonds>
donor molecule, donor type, donor heavy atom, donor atom, acceptor molecule, acceptor atom, score
      L1  H     9    30       P1  8028  0.82
      P1  H  7989  7998       L1     8  0.22

> <Gold.Chemscore.Hbond.Weighted>
-5.9878

> <Gold.Chemscore.Metal.Weighted>
-0.0000

> <Gold.Chemscore.Lipo.Weighted>
-9.8077

> <Gold.Chemscore.Internal_Hbond.Weighted>
0.0000

> <Gold.Chemscore.DEClash.Weighted>
1.5594

> <Gold.Chemscore.DEInternal.Weighted>
3.1294

> <Gold.Chemscore.Rot.Weighted>
3.6309

> <Gold.Chemscore.Internal.Correction.Weighted>
   9.000000E+99

> <Gold.Protein.RotatedTorsions>
[ 6907 6896 6895 6894 ] final -140.75 input  -60.11 | X-H torsion
[ 7974 7965 7964 7962 ] final  -66.21 input  175.53 | X-H torsion
[ 8008 7997 7996 7995 ] final   91.49 input   59.86 | X-H torsion
[ 10167 10162 10161 10158 ] final   40.59 input  -65.29 | X-H torsion
[ 10718 10713 10712 10709 ] final   70.31 input   66.30 | X-H torsion
[ 10763 10752 10751 10750 ] final -151.65 input  -60.55 | X-H torsion
[ 11005 11000 10999 10996 ] final  175.67 input  -57.11 | X-H torsion

> <Gold.Protein.ActiveResidues>
 VAL166  LYS551  ARG553  GLY616  TRP617  ASP618  TYR619  PRO620  LYS621  CYS622 
 ASP623  PHE694  ASN695  SER759  ASP760  ASP761  ALA762  ILE779  LEU786  VAL792 
 PHE793  MET794  SER795  GLU796  ALA797  LYS798  CYS799  TRP800  GLU811  SER814 

> <Gold.Protein.RotatedAtoms>
  151.0648  133.5514  159.2631 H   0  0  0  0  0  0  0  0  0  0  0  0  # atno 6907 bound_to 6896
  151.2476  135.0610  159.9059 H   0  0  0  0  0  0  0  0  0  0  0  0  # atno 6908 bound_to 6896
  152.5403  134.0414  159.8123 H   0  0  0  0  0  0  0  0  0  0  0  0  # atno 6909 bound_to 6896
  145.7447  140.8937  143.0511 H   0  0  0  0  0  0  0  0  0  0  0  0  # atno 7974 bound_to 7965
  156.0244  140.3337  155.7073 H   0  0  0  0  0  0  0  0  0  0  0  0  # atno 8008 bound_to 7997
  155.5975  140.0652  157.2759 H   0  0  0  0  0  0  0  0  0  0  0  0  # atno 8009 bound_to 7997
  154.4328  140.1816  156.1127 H   0  0  0  0  0  0  0  0  0  0  0  0  # atno 8010 bound_to 7997
  140.3727  144.2084  150.6132 H   0  0  0  0  0  0  0  0  0  0  0  0  # atno 10167 bound_to 10162
  157.6393  130.9471  150.0633 H   0  0  0  0  0  0  0  0  0  0  0  0  # atno 10718 bound_to 10713
  154.8044  135.3255  154.7468 H   0  0  0  0  0  0  0  0  0  0  0  0  # atno 10763 bound_to 10752
  153.8129  135.6894  153.4842 H   0  0  0  0  0  0  0  0  0  0  0  0  # atno 10764 bound_to 10752
  153.1781  135.4597  154.9936 H   0  0  0  0  0  0  0  0  0  0  0  0  # atno 10765 bound_to 10752
  140.3647  134.7082  157.4354 H   0  0  0  0  0  0  0  0  0  0  0  0  # atno 11005 bound_to 11000
  144.6863  139.9508  143.7478 LP  0  0  0  0  0  0  0  0  0  0  0  0  # atno 17320 bound_to 7965
  146.0415  139.3426  143.0695 LP  0  0  0  0  0  0  0  0  0  0  0  0  # atno 17321 bound_to 7965
  140.5017  143.2316  151.8668 LP  0  0  0  0  0  0  0  0  0  0  0  0  # atno 17342 bound_to 10162
  139.4802  144.5052  151.9008 LP  0  0  0  0  0  0  0  0  0  0  0  0  # atno 17343 bound_to 10162
  156.1659  130.3645  149.9232 LP  0  0  0  0  0  0  0  0  0  0  0  0  # atno 17370 bound_to 10713
  156.7219  130.9010  151.3619 LP  0  0  0  0  0  0  0  0  0  0  0  0  # atno 17371 bound_to 10713
  140.0598  134.6011  155.8762 LP  0  0  0  0  0  0  0  0  0  0  0  0  # atno 17394 bound_to 11000
  141.1973  133.6596  156.5735 LP  0  0  0  0  0  0  0  0  0  0  0  0  # atno 17395 bound_to 11000

$$$$
