AV-unprocessed.smi:527|AV-procd|sdf|2818|dock2
  -GOLD-   2262023303D 1   1.00000     0.00000
 Structure written by MMmdl.
 42 43  0  0  0  0  0  0  0  0  1 V2000
  149.3373  141.4073  156.6034 C   0  0  0  0  0  0  0  0  0  0  0  0
  150.0691  141.0064  155.3060 C   0  0  1  0  0  0  0  0  0  0  0  0
  151.3615  140.2194  155.6044 C   0  0  0  0  0  0  0  0  0  0  0  0
  151.0728  138.7903  156.0902 C   0  0  0  0  0  0  0  0  0  0  0  0
  150.1969  138.0291  155.0857 C   0  0  0  0  0  0  0  0  0  0  0  0
  148.8910  138.7875  154.7695 C   0  0  2  0  0  0  0  0  0  0  0  0
  148.1354  138.0559  153.7541 N   0  0  0  0  0  0  0  0  0  0  0  0
  146.8129  137.8327  153.7809 C   0  0  0  0  0  0  0  0  0  0  0  0
  146.0772  138.2311  154.6866 O   0  0  0  0  0  0  0  0  0  0  0  0
  146.4199  137.1290  152.7014 N   0  0  0  0  0  0  0  0  0  0  0  0
  145.1573  136.8672  152.3054 C   0  0  0  0  0  0  0  0  0  0  0  0
  144.1412  137.2471  152.8934 O   0  0  0  0  0  0  0  0  0  0  0  0
  145.0483  136.0355  151.0203 C   0  0  0  0  0  0  0  0  0  0  0  0
  145.1509  134.6052  151.2563 N   0  0  0  0  0  0  0  0  0  0  0  0
  144.1680  133.6470  151.0426 C   0  0  0  0  0  0  0  0  0  0  0  0
  144.7154  132.4356  151.3999 C   0  0  0  0  0  0  0  0  0  0  0  0
  146.0253  132.6228  151.8352 N   0  0  0  0  0  0  0  0  0  0  0  0
  146.2128  133.9313  151.7207 C   0  0  0  0  0  0  0  0  0  0  0  0
  149.1862  140.2325  154.2903 C   0  0  1  0  0  0  0  0  0  0  0  0
  147.9124  141.0116  153.9066 C   0  0  0  0  0  0  0  0  0  0  0  0
  148.9405  140.5444  157.1371 H   0  0  0  0  0  0  0  0  0  0  0  0
  148.5058  142.0825  156.4023 H   0  0  0  0  0  0  0  0  0  0  0  0
  150.0111  141.9298  157.2828 H   0  0  0  0  0  0  0  0  0  0  0  0
  150.3735  141.9388  154.8284 H   0  0  0  0  0  0  0  0  0  0  0  0
  151.9684  140.1700  154.6993 H   0  0  0  0  0  0  0  0  0  0  0  0
  151.9653  140.7491  156.3423 H   0  0  0  0  0  0  0  0  0  0  0  0
  152.0107  138.2549  156.2406 H   0  0  0  0  0  0  0  0  0  0  0  0
  150.5793  138.8176  157.0619 H   0  0  0  0  0  0  0  0  0  0  0  0
  150.7625  137.8715  154.1661 H   0  0  0  0  0  0  0  0  0  0  0  0
  149.9704  137.0379  155.4804 H   0  0  0  0  0  0  0  0  0  0  0  0
  148.2903  138.8454  155.6788 H   0  0  0  0  0  0  0  0  0  0  0  0
  148.6626  137.7005  152.9700 H   0  0  0  0  0  0  0  0  0  0  0  0
  147.1550  136.7545  152.1203 H   0  0  0  0  0  0  0  0  0  0  0  0
  144.0940  136.2427  150.5342 H   0  0  0  0  0  0  0  0  0  0  0  0
  145.8361  136.3313  150.3263 H   0  0  0  0  0  0  0  0  0  0  0  0
  143.1886  133.8985  150.6627 H   0  0  0  0  0  0  0  0  0  0  0  0
  144.2712  131.4514  151.3768 H   0  0  0  0  0  0  0  0  0  0  0  0
  147.1458  134.4109  151.9785 H   0  0  0  0  0  0  0  0  0  0  0  0
  149.7753  140.1492  153.3753 H   0  0  0  0  0  0  0  0  0  0  0  0
  147.1957  141.0395  154.7275 H   0  0  0  0  0  0  0  0  0  0  0  0
  147.4100  140.5603  153.0510 H   0  0  0  0  0  0  0  0  0  0  0  0
  148.1486  142.0401  153.6327 H   0  0  0  0  0  0  0  0  0  0  0  0
  1  2  1  0  0  0  0
  1 21  1  0  0  0  0
  1 22  1  0  0  0  0
  1 23  1  0  0  0  0
  2 19  1  0  0  0  0
  2  3  1  0  0  0  0
  2 24  1  0  0  0  0
  3  4  1  0  0  0  0
  3 25  1  0  0  0  0
  3 26  1  0  0  0  0
  4  5  1  0  0  0  0
  4 27  1  0  0  0  0
  4 28  1  0  0  0  0
  5  6  1  0  0  0  0
  5 29  1  0  0  0  0
  5 30  1  0  0  0  0
  6  7  1  0  0  0  0
  6 19  1  0  0  0  0
  6 31  1  0  0  0  0
  7  8  1  0  0  0  0
  7 32  1  0  0  0  0
  8  9  2  0  0  0  0
  8 10  1  0  0  0  0
 10 11  1  0  0  0  0
 10 33  1  0  0  0  0
 11 12  2  0  0  0  0
 11 13  1  0  0  0  0
 13 14  1  0  0  0  0
 13 34  1  0  0  0  0
 13 35  1  0  0  0  0
 14 18  1  0  0  0  0
 14 15  1  0  0  0  0
 15 16  2  0  0  0  0
 15 36  1  0  0  0  0
 16 17  1  0  0  0  0
 16 37  1  0  0  0  0
 17 18  2  0  0  0  0
 18 38  1  0  0  0  0
 19 20  1  0  0  0  0
 19 39  1  0  0  0  0
 20 40  1  0  0  0  0
 20 41  1  0  0  0  0
 20 42  1  0  0  0  0
M  END
> <s_m_source_file>
AV-unprocessed.smi

> <i_m_source_file_index>
527

> <i_lp_mmshare_version>
43012

> <i_f3d_flags>
0

> <s_epik_input>
W0NIM11bQ0BASF0xW0NIMl1bQ0gyXVtDSDJdW0NASF0oW0NASF0xW0NIM10pW05IXUMoPU8pW05IXUMoPU8pW0NIMl1uMltjSF1bY0hdbltjSF0y

> <s_epik_cmdline>
J2VwaWtfcHl0aG9uJywgJy1waCcsICc3LjAnLCAnLXRuJywgJzgnLCAnLW1hJywgJzIwMCcsICctbWV0YWxfYmluZGluZycsICctaW1hZScsICc8aW5maWxlLm1hZT4nLCAnLW9tYWUnLCAnPG91dGZpbGUubWFlPic=

> <r_lp_tautomer_probability>
1

> <r_epik_Ionization_Penalty>
0.172132

> <r_epik_Ionization_Penalty_Charging>
0.172105

> <r_epik_Ionization_Penalty_Neutral>
2.71747e-05

> <r_epik_State_Penalty>
0.161503

> <r_epik_Charging_Adjusted_Penalty>
0.333607

> <i_epik_Tot_Q>
0

> <i_epik_Tot_abs_Q>
0

> <r_epik_Metal_State_Penalty>
0.124763

> <b_epik_Metal_Only>
0

> <s_lp_Force_Field>
OPLS_2005

> <r_lp_Energy>
17.6389

> <b_lp_Chiralities_Consistent>
1

> <s_lp_Variant>
AV-unprocessed.smi:527-4

> <Gold.Version>
5.8.1

> <Gold.Id.Protein>
6NUR|6NUR_protein|mol2

> <Gold.PLP.Fitness>
42.1331

> <Gold.PLP.PLP>
-31.5094

> <Gold.PLP.part.hbond>
-2.0000

> <Gold.PLP.part.metal>
0.0000

> <Gold.PLP.part.buried>
-2.2123

> <Gold.PLP.part.nonpolar>
-27.6087

> <Gold.PLP.part.repulsive>
0.4181

> <Gold.PLP.ligand.clash>
0.0000

> <Gold.PLP.ligand.torsion>
0.6176

> <Gold.PLP.Chemscore.Hbond>
1.9440

> <Gold.PLP.Chemscore.CHOScore>
2.0000

> <Gold.PLP.Chemscore.Metal>
0.0000

> <Gold.Chemscore.Hbonds>
donor molecule, donor type, donor heavy atom, donor atom, acceptor molecule, acceptor atom, score
      L1  H     7    32       P1  7948  0.93
      L1  H    10    33       P1  7948  1.00
      L1  C    15    36       P1 10186  1.00
      L1  C    18    38       P1  7948  1.00

> <Gold.PLP.Chemscore.Internal.Correction>
0.0269

> <Gold.Rescore>
     Score         DG    S(hbond)    S(metal)    S(lipo)     H(rot)  DE(clash)    DE(int)     intcor
     13.49     -15.45       1.89        0.00      67.66       1.66       0.08       1.88       ----

> <Gold.Chemscore.Fitness>
13.4944

> <Gold.Chemscore.DG>
-15.4508

> <Gold.Chemscore.ZeroCoef>
-5.4800

> <Gold.Chemscore.Hbond>
1.8895

> <Gold.Chemscore.Metal>
0.0000

> <Gold.Chemscore.Lipo>
67.6644

> <Gold.Chemscore.Internal_Hbond>
0.0000

> <Gold.Chemscore.DEClash>
0.0799

> <Gold.Chemscore.DEInternal>
1.8765

> <Gold.Chemscore.Rot>
1.6629

> <Gold.Chemscore.Internal.Correction>
   9.000000E+99

> <Gold.Chemscore.Hbonds>
donor molecule, donor type, donor heavy atom, donor atom, acceptor molecule, acceptor atom, score
      L1  H     7    32       P1  7948  0.91
      L1  H    10    33       P1  7948  0.96

> <Gold.Chemscore.Hbond.Weighted>
-6.3110

> <Gold.Chemscore.Metal.Weighted>
-0.0000

> <Gold.Chemscore.Lipo.Weighted>
-7.9167

> <Gold.Chemscore.Internal_Hbond.Weighted>
0.0000

> <Gold.Chemscore.DEClash.Weighted>
0.0799

> <Gold.Chemscore.DEInternal.Weighted>
1.8765

> <Gold.Chemscore.Rot.Weighted>
4.2569

> <Gold.Chemscore.Internal.Correction.Weighted>
   9.000000E+99

> <Gold.Protein.RotatedTorsions>
[ 6907 6896 6895 6894 ] final  -16.29 input  -60.11 | X-H torsion
[ 7974 7965 7964 7962 ] final  173.14 input  175.53 | X-H torsion
[ 8008 7997 7996 7995 ] final -110.06 input   59.86 | X-H torsion
[ 10167 10162 10161 10158 ] final -155.23 input  -65.29 | X-H torsion
[ 10718 10713 10712 10709 ] final   25.42 input   66.30 | X-H torsion
[ 10763 10752 10751 10750 ] final -135.32 input  -60.55 | X-H torsion
[ 11005 11000 10999 10996 ] final  147.85 input  -57.11 | X-H torsion

> <Gold.Protein.ActiveResidues>
 VAL166  LYS551  ARG553  GLY616  TRP617  ASP618  TYR619  PRO620  LYS621  CYS622 
 ASP623  PHE694  ASN695  SER759  ASP760  ASP761  ALA762  ILE779  LEU786  VAL792 
 PHE793  MET794  SER795  GLU796  ALA797  LYS798  CYS799  TRP800  GLU811  SER814 

> <Gold.Protein.RotatedAtoms>
  151.3108  135.0793  159.9271 H   0  0  0  0  0  0  0  0  0  0  0  0  # atno 6907 bound_to 6896
  152.5278  133.9738  159.7785 H   0  0  0  0  0  0  0  0  0  0  0  0  # atno 6908 bound_to 6896
  151.0041  133.5976  159.2721 H   0  0  0  0  0  0  0  0  0  0  0  0  # atno 6909 bound_to 6896
  144.7251  139.9603  143.6434 H   0  0  0  0  0  0  0  0  0  0  0  0  # atno 7974 bound_to 7965
  154.9688  140.0398  157.2224 H   0  0  0  0  0  0  0  0  0  0  0  0  # atno 8008 bound_to 7997
  154.7820  140.2820  155.6034 H   0  0  0  0  0  0  0  0  0  0  0  0  # atno 8009 bound_to 7997
  156.2937  140.2590  156.2648 H   0  0  0  0  0  0  0  0  0  0  0  0  # atno 8010 bound_to 7997
  139.6948  143.9360  152.2402 H   0  0  0  0  0  0  0  0  0  0  0  0  # atno 10167 bound_to 10162
  157.1932  130.6855  149.6158 H   0  0  0  0  0  0  0  0  0  0  0  0  # atno 10718 bound_to 10713
  154.8705  135.3707  154.4878 H   0  0  0  0  0  0  0  0  0  0  0  0  # atno 10763 bound_to 10752
  153.5527  135.7024  153.5588 H   0  0  0  0  0  0  0  0  0  0  0  0  # atno 10764 bound_to 10752
  153.3700  135.4024  155.1745 H   0  0  0  0  0  0  0  0  0  0  0  0  # atno 10765 bound_to 10752
  140.0910  134.9041  157.1650 H   0  0  0  0  0  0  0  0  0  0  0  0  # atno 11005 bound_to 11000
  146.0642  139.3634  143.0562 LP  0  0  0  0  0  0  0  0  0  0  0  0  # atno 17320 bound_to 7965
  145.8052  140.9752  143.0978 LP  0  0  0  0  0  0  0  0  0  0  0  0  # atno 17321 bound_to 7965
  139.9186  144.6813  150.8486 LP  0  0  0  0  0  0  0  0  0  0  0  0  # atno 17342 bound_to 10162
  140.7693  143.3391  151.2245 LP  0  0  0  0  0  0  0  0  0  0  0  0  # atno 17343 bound_to 10162
  155.9709  130.4607  150.6085 LP  0  0  0  0  0  0  0  0  0  0  0  0  # atno 17370 bound_to 10713
  157.3840  131.0785  151.1452 LP  0  0  0  0  0  0  0  0  0  0  0  0  # atno 17371 bound_to 10713
  140.3352  134.2765  155.7221 LP  0  0  0  0  0  0  0  0  0  0  0  0  # atno 17394 bound_to 11000
  141.2078  133.7796  157.0099 LP  0  0  0  0  0  0  0  0  0  0  0  0  # atno 17395 bound_to 11000

$$$$
