AV-unprocessed.smi:2807|AV-procd|sdf|10817|dock7
  -GOLD-   2272015253D 1   1.00000     0.00000
 Structure written by MMmdl.
 32 33  0  0  0  0  0  0  0  0  1 V2000
  151.1846  139.4524  156.0904 O   0  0  0  0  0  0  0  0  0  0  0  0
  150.4506  140.2300  156.7015 C   0  0  0  0  0  0  0  0  0  0  0  0
  149.4774  140.9403  156.1075 N   0  0  0  0  0  0  0  0  0  0  0  0
  149.2014  140.9644  154.6714 C   0  0  1  0  0  0  0  0  0  0  0  0
  148.7419  139.5739  154.1979 C   0  0  0  0  0  0  0  0  0  0  0  0
  147.2397  139.6940  153.9478 C   0  0  0  0  0  0  0  0  0  0  0  0
  147.0617  141.1277  153.4572 C   0  0  0  0  0  0  0  0  0  0  0  0
  148.0674  141.9506  154.2725 C   0  0  1  0  0  0  0  0  0  0  0  0
  147.3955  142.5177  155.3849 O   0  0  0  0  0  0  0  0  0  0  0  0
  150.6402  140.4614  158.2076 C   0  0  0  0  0  0  0  0  0  0  0  0
  149.4710  140.2572  158.8185 F   0  0  0  0  0  0  0  0  0  0  0  0
  151.5152  139.5739  158.6871 F   0  0  0  0  0  0  0  0  0  0  0  0
  151.1460  141.8803  158.4587 C   0  0  0  0  0  0  0  0  0  0  0  0
  151.6118  142.2751  159.7340 C   0  0  0  0  0  0  0  0  0  0  0  0
  152.0344  143.6059  159.9165 C   0  0  0  0  0  0  0  0  0  0  0  0
  151.9779  144.4921  158.8242 C   0  0  0  0  0  0  0  0  0  0  0  0
  151.4984  144.0062  157.5925 C   0  0  0  0  0  0  0  0  0  0  0  0
  151.0888  142.7332  157.4077 N   0  0  0  0  0  0  0  0  0  0  0  0
  148.9248  141.5577  156.6846 H   0  0  0  0  0  0  0  0  0  0  0  0
  150.1162  141.2189  154.1328 H   0  0  0  0  0  0  0  0  0  0  0  0
  149.2405  139.3322  153.2582 H   0  0  0  0  0  0  0  0  0  0  0  0
  148.9806  138.7739  154.9003 H   0  0  0  0  0  0  0  0  0  0  0  0
  146.8722  138.9561  153.2342 H   0  0  0  0  0  0  0  0  0  0  0  0
  146.6968  139.5546  154.8838 H   0  0  0  0  0  0  0  0  0  0  0  0
  147.3281  141.1770  152.4006 H   0  0  0  0  0  0  0  0  0  0  0  0
  146.0338  141.4815  153.5482 H   0  0  0  0  0  0  0  0  0  0  0  0
  148.4621  142.7723  153.6742 H   0  0  0  0  0  0  0  0  0  0  0  0
  147.8508  143.3062  155.6387 H   0  0  0  0  0  0  0  0  0  0  0  0
  151.6374  141.5807  160.5606 H   0  0  0  0  0  0  0  0  0  0  0  0
  152.3923  143.9417  160.8784 H   0  0  0  0  0  0  0  0  0  0  0  0
  152.2927  145.5198  158.9278 H   0  0  0  0  0  0  0  0  0  0  0  0
  151.4395  144.6580  156.7335 H   0  0  0  0  0  0  0  0  0  0  0  0
  1  2  2  0  0  0  0
  2  3  1  0  0  0  0
  2 10  1  0  0  0  0
  3  4  1  0  0  0  0
  3 19  1  0  0  0  0
  4  8  1  0  0  0  0
  4  5  1  0  0  0  0
  4 20  1  0  0  0  0
  5  6  1  0  0  0  0
  5 21  1  0  0  0  0
  5 22  1  0  0  0  0
  6  7  1  0  0  0  0
  6 23  1  0  0  0  0
  6 24  1  0  0  0  0
  7  8  1  0  0  0  0
  7 25  1  0  0  0  0
  7 26  1  0  0  0  0
  8  9  1  0  0  0  0
  8 27  1  0  0  0  0
  9 28  1  0  0  0  0
 10 11  1  0  0  0  0
 10 12  1  0  0  0  0
 10 13  1  0  0  0  0
 13 18  1  0  0  0  0
 13 14  2  0  0  0  0
 14 15  1  0  0  0  0
 14 29  1  0  0  0  0
 15 16  2  0  0  0  0
 15 30  1  0  0  0  0
 16 17  1  0  0  0  0
 16 31  1  0  0  0  0
 17 18  2  0  0  0  0
 17 32  1  0  0  0  0
M  END
> <s_m_source_file>
AV-unprocessed.smi

> <i_m_source_file_index>
2807

> <i_lp_mmshare_version>
43012

> <i_f3d_flags>
0

> <s_epik_input>
bjFbY0hdW2NIXVtjSF1bY0hdYzFDKEYpKEYpQyg9TylbTkhdW0NAQEhdMltDSDJdW0NIMl1bQ0gyXVtDQEhdMltPSF0=

> <s_epik_cmdline>
J2VwaWtfcHl0aG9uJywgJy1waCcsICc3LjAnLCAnLXRuJywgJzgnLCAnLW1hJywgJzIwMCcsICctbWV0YWxfYmluZGluZycsICctaW1hZScsICc8aW5maWxlLm1hZT4nLCAnLW9tYWUnLCAnPG91dGZpbGUubWFlPic=

> <r_lp_tautomer_probability>
1

> <r_epik_Ionization_Penalty>
4.08325e-05

> <r_epik_Ionization_Penalty_Charging>
0

> <r_epik_Ionization_Penalty_Neutral>
4.08325e-05

> <r_epik_State_Penalty>
-0

> <r_epik_Charging_Adjusted_Penalty>
0

> <i_epik_Tot_Q>
0

> <i_epik_Tot_abs_Q>
0

> <r_epik_Metal_State_Penalty>
0.034564

> <b_epik_Metal_Only>
0

> <s_lp_Force_Field>
OPLS_2005

> <r_lp_Energy>
28.4248

> <b_lp_Chiralities_Consistent>
1

> <s_lp_Variant>
AV-unprocessed.smi:2807-2

> <Gold.Version>
5.8.1

> <Gold.Id.Protein>
6NUR|6NUR_protein|mol2

> <Gold.PLP.Fitness>
44.4467

> <Gold.PLP.PLP>
-37.1418

> <Gold.PLP.part.hbond>
-2.0000

> <Gold.PLP.part.metal>
0.0000

> <Gold.PLP.part.buried>
1.4022

> <Gold.PLP.part.nonpolar>
-36.2621

> <Gold.PLP.part.repulsive>
0.2307

> <Gold.PLP.ligand.clash>
0.0000

> <Gold.PLP.ligand.torsion>
0.5561

> <Gold.PLP.Chemscore.Hbond>
2.0000

> <Gold.PLP.Chemscore.CHOScore>
0.8002

> <Gold.PLP.Chemscore.Metal>
0.0000

> <Gold.Chemscore.Hbonds>
donor molecule, donor type, donor heavy atom, donor atom, acceptor molecule, acceptor atom, score
      L1  H     9    28       P1  8028  1.00
      L1  C    17    32       P1  8028  0.33

> <Gold.PLP.Chemscore.Internal.Correction>
0.0167

> <Gold.Rescore>
     Score         DG    S(hbond)    S(metal)    S(lipo)     H(rot)  DE(clash)    DE(int)     intcor
     13.20     -15.67       1.22        0.00      96.96       2.05       0.66       1.80       ----

> <Gold.Chemscore.Fitness>
13.1982

> <Gold.Chemscore.DG>
-15.6663

> <Gold.Chemscore.ZeroCoef>
-5.4800

> <Gold.Chemscore.Hbond>
1.2212

> <Gold.Chemscore.Metal>
0.0000

> <Gold.Chemscore.Lipo>
96.9611

> <Gold.Chemscore.Internal_Hbond>
0.0000

> <Gold.Chemscore.DEClash>
0.6637

> <Gold.Chemscore.DEInternal>
1.8044

> <Gold.Chemscore.Rot>
2.0457

> <Gold.Chemscore.Internal.Correction>
   9.000000E+99

> <Gold.Chemscore.Hbonds>
donor molecule, donor type, donor heavy atom, donor atom, acceptor molecule, acceptor atom, score
      L1  H     9    28       P1  8028  0.35

> <Gold.Chemscore.Hbond.Weighted>
-4.0789

> <Gold.Chemscore.Metal.Weighted>
-0.0000

> <Gold.Chemscore.Lipo.Weighted>
-11.3445

> <Gold.Chemscore.Internal_Hbond.Weighted>
0.0000

> <Gold.Chemscore.DEClash.Weighted>
0.6637

> <Gold.Chemscore.DEInternal.Weighted>
1.8044

> <Gold.Chemscore.Rot.Weighted>
5.2371

> <Gold.Chemscore.Internal.Correction.Weighted>
   9.000000E+99

> <Gold.Protein.RotatedTorsions>
[ 6907 6896 6895 6894 ] final  176.89 input  -60.11 | X-H torsion
[ 7974 7965 7964 7962 ] final  -88.59 input  175.53 | X-H torsion
[ 8008 7997 7996 7995 ] final   10.82 input   59.86 | X-H torsion
[ 10167 10162 10161 10158 ] final   55.95 input  -65.29 | X-H torsion
[ 10718 10713 10712 10709 ] final -142.75 input   66.30 | X-H torsion
[ 10763 10752 10751 10750 ] final -143.83 input  -60.55 | X-H torsion
[ 11005 11000 10999 10996 ] final   50.30 input  -57.11 | X-H torsion

> <Gold.Protein.ActiveResidues>
 VAL166  LYS551  ARG553  GLY616  TRP617  ASP618  TYR619  PRO620  LYS621  CYS622 
 ASP623  PHE694  ASN695  SER759  ASP760  ASP761  ALA762  ILE779  LEU786  VAL792 
 PHE793  MET794  SER795  GLU796  ALA797  LYS798  CYS799  TRP800  GLU811  SER814 

> <Gold.Protein.RotatedAtoms>
  151.7129  133.3312  159.3295 H   0  0  0  0  0  0  0  0  0  0  0  0  # atno 6907 bound_to 6896
  150.7686  134.6516  159.6301 H   0  0  0  0  0  0  0  0  0  0  0  0  # atno 6908 bound_to 6896
  152.3700  134.6750  160.0231 H   0  0  0  0  0  0  0  0  0  0  0  0  # atno 6909 bound_to 6896
  145.4511  140.9560  143.2021 H   0  0  0  0  0  0  0  0  0  0  0  0  # atno 7974 bound_to 7965
  154.7986  140.2848  155.5938 H   0  0  0  0  0  0  0  0  0  0  0  0  # atno 8008 bound_to 7997
  156.2974  140.2591  156.2778 H   0  0  0  0  0  0  0  0  0  0  0  0  # atno 8009 bound_to 7997
  154.9585  140.0378  157.2168 H   0  0  0  0  0  0  0  0  0  0  0  0  # atno 8010 bound_to 7997
  140.2140  144.3859  150.6477 H   0  0  0  0  0  0  0  0  0  0  0  0  # atno 10167 bound_to 10162
  156.3496  130.7681  151.1831 H   0  0  0  0  0  0  0  0  0  0  0  0  # atno 10718 bound_to 10713
  154.8454  135.3457  154.6249 H   0  0  0  0  0  0  0  0  0  0  0  0  # atno 10763 bound_to 10752
  153.6858  135.6977  153.5109 H   0  0  0  0  0  0  0  0  0  0  0  0  # atno 10764 bound_to 10752
  153.2633  135.4316  155.0871 H   0  0  0  0  0  0  0  0  0  0  0  0  # atno 10765 bound_to 10752
  140.1029  134.5057  155.8746 H   0  0  0  0  0  0  0  0  0  0  0  0  # atno 11005 bound_to 11000
  144.8061  139.6049  143.7050 LP  0  0  0  0  0  0  0  0  0  0  0  0  # atno 17320 bound_to 7965
  146.2503  139.6186  142.9431 LP  0  0  0  0  0  0  0  0  0  0  0  0  # atno 17321 bound_to 7965
  140.6303  143.2186  151.6509 LP  0  0  0  0  0  0  0  0  0  0  0  0  # atno 17342 bound_to 10162
  139.5169  144.3332  152.0808 LP  0  0  0  0  0  0  0  0  0  0  0  0  # atno 17343 bound_to 10162
  157.7459  131.0431  150.4728 LP  0  0  0  0  0  0  0  0  0  0  0  0  # atno 17370 bound_to 10713
  156.4921  130.4097  149.6400 LP  0  0  0  0  0  0  0  0  0  0  0  0  # atno 17371 bound_to 10713
  141.2110  133.6702  156.6553 LP  0  0  0  0  0  0  0  0  0  0  0  0  # atno 17394 bound_to 11000
  140.3196  134.8019  157.4241 LP  0  0  0  0  0  0  0  0  0  0  0  0  # atno 17395 bound_to 11000

$$$$
