AV-unprocessed.smi:1995|AV-procd|sdf|8077|dock2
  -GOLD-   2272010293D 1   1.00000     0.00000
 Structure written by MMmdl.
 42 43  0  0  0  0  0  0  0  0  1 V2000
  145.4542  142.9727  156.6671 C   0  0  0  0  0  0  0  0  0  0  0  0
  146.7904  142.2174  156.5527 C   0  0  0  0  0  0  0  0  0  0  0  0
  146.8655  141.1595  155.4039 C   0  0  2  0  0  0  0  0  0  0  0  0
  146.5560  141.9120  154.0827 C   0  0  0  0  0  0  0  0  0  0  0  0
  145.7379  140.0967  155.6339 C   0  0  0  0  0  0  0  0  0  0  0  0
  145.2408  139.4537  154.4159 N   0  0  0  0  0  0  0  0  0  0  0  0
  145.2489  138.1370  154.1600 C   0  0  0  0  0  0  0  0  0  0  0  0
  145.6849  137.2935  154.9438 O   0  0  0  0  0  0  0  0  0  0  0  0
  144.7309  137.8754  152.9468 N   0  0  0  0  0  0  0  0  0  0  0  0
  144.5915  136.6168  152.3046 C   0  0  0  0  0  0  0  0  0  0  0  0
  145.3936  136.1730  151.3294 N   0  0  0  0  0  0  0  0  0  0  0  0
  145.0198  134.9039  150.8796 C   0  0  0  0  0  0  0  0  0  0  0  0
  143.9234  134.3926  151.5281 C   0  0  0  0  0  0  0  0  0  0  0  0
  143.3139  135.4902  152.7379 S   0  0  0  0  0  0  0  0  0  0  0  0
  148.2051  140.4969  155.3693 N   0  0  0  0  0  0  0  0  0  0  0  0
  149.3568  141.4011  155.5036 C   0  0  0  0  0  0  0  0  0  0  0  0
  150.6910  140.6406  155.5864 C   0  0  0  0  0  0  0  0  0  0  0  0
  150.8431  139.8168  154.4383 O   0  0  0  0  0  0  0  0  0  0  0  0
  149.7841  138.8776  154.3069 C   0  0  0  0  0  0  0  0  0  0  0  0
  148.4383  139.6177  154.2153 C   0  0  0  0  0  0  0  0  0  0  0  0
  145.4769  143.6623  157.5108 H   0  0  0  0  0  0  0  0  0  0  0  0
  144.6180  142.2915  156.8252 H   0  0  0  0  0  0  0  0  0  0  0  0
  145.2437  143.5612  155.7748 H   0  0  0  0  0  0  0  0  0  0  0  0
  147.5869  142.9538  156.4438 H   0  0  0  0  0  0  0  0  0  0  0  0
  147.0138  141.7539  157.5128 H   0  0  0  0  0  0  0  0  0  0  0  0
  145.6054  142.4421  154.1357 H   0  0  0  0  0  0  0  0  0  0  0  0
  146.4898  141.2344  153.2317 H   0  0  0  0  0  0  0  0  0  0  0  0
  147.3065  142.6657  153.8486 H   0  0  0  0  0  0  0  0  0  0  0  0
  146.0697  139.3171  156.3196 H   0  0  0  0  0  0  0  0  0  0  0  0
  144.8822  140.5643  156.1216 H   0  0  0  0  0  0  0  0  0  0  0  0
  144.8657  140.0683  153.7085 H   0  0  0  0  0  0  0  0  0  0  0  0
  144.4094  138.6705  152.4148 H   0  0  0  0  0  0  0  0  0  0  0  0
  145.5911  134.4371  150.0907 H   0  0  0  0  0  0  0  0  0  0  0  0
  143.4395  133.4406  151.3673 H   0  0  0  0  0  0  0  0  0  0  0  0
  149.4015  142.0865  154.6575 H   0  0  0  0  0  0  0  0  0  0  0  0
  149.2768  142.0091  156.4018 H   0  0  0  0  0  0  0  0  0  0  0  0
  151.5239  141.3422  155.6330 H   0  0  0  0  0  0  0  0  0  0  0  0
  150.7341  140.0317  156.4909 H   0  0  0  0  0  0  0  0  0  0  0  0
  149.9491  138.2796  153.4108 H   0  0  0  0  0  0  0  0  0  0  0  0
  149.7900  138.1910  155.1548 H   0  0  0  0  0  0  0  0  0  0  0  0
  147.6631  138.8588  154.1367 H   0  0  0  0  0  0  0  0  0  0  0  0
  148.4153  140.1943  153.2905 H   0  0  0  0  0  0  0  0  0  0  0  0
  1  2  1  0  0  0  0
  1 21  1  0  0  0  0
  1 22  1  0  0  0  0
  1 23  1  0  0  0  0
  2  3  1  0  0  0  0
  2 24  1  0  0  0  0
  2 25  1  0  0  0  0
  3  4  1  0  0  0  0
  3  5  1  0  0  0  0
  3 15  1  0  0  0  0
  4 26  1  0  0  0  0
  4 27  1  0  0  0  0
  4 28  1  0  0  0  0
  5  6  1  0  0  0  0
  5 29  1  0  0  0  0
  5 30  1  0  0  0  0
  6  7  1  0  0  0  0
  6 31  1  0  0  0  0
  7  8  2  0  0  0  0
  7  9  1  0  0  0  0
  9 10  1  0  0  0  0
  9 32  1  0  0  0  0
 10 14  1  0  0  0  0
 10 11  2  0  0  0  0
 11 12  1  0  0  0  0
 12 13  2  0  0  0  0
 12 33  1  0  0  0  0
 13 14  1  0  0  0  0
 13 34  1  0  0  0  0
 15 20  1  0  0  0  0
 15 16  1  0  0  0  0
 16 17  1  0  0  0  0
 16 35  1  0  0  0  0
 16 36  1  0  0  0  0
 17 18  1  0  0  0  0
 17 37  1  0  0  0  0
 17 38  1  0  0  0  0
 18 19  1  0  0  0  0
 19 20  1  0  0  0  0
 19 39  1  0  0  0  0
 19 40  1  0  0  0  0
 20 41  1  0  0  0  0
 20 42  1  0  0  0  0
M  END
> <s_m_source_file>
AV-unprocessed.smi

> <i_m_source_file_index>
1995

> <i_lp_mmshare_version>
43012

> <i_f3d_flags>
0

> <s_epik_input>
W0NIMl0xW0NIMl1PW0NIMl1bQ0gyXU4xW0NAQF0oW0NIM10pKFtDSDJdW0NIM10pW0NIMl1bTkhdQyg9TylbTkhdYzJuW2NIXVtjSF1zMg==

> <s_epik_cmdline>
J2VwaWtfcHl0aG9uJywgJy1waCcsICc3LjAnLCAnLXRuJywgJzgnLCAnLW1hJywgJzIwMCcsICctbWV0YWxfYmluZGluZycsICctaW1hZScsICc8aW5maWxlLm1hZT4nLCAnLW9tYWUnLCAnPG91dGZpbGUubWFlPic=

> <r_lp_tautomer_probability>
0.999

> <r_epik_Ionization_Penalty>
0.295852

> <r_epik_Ionization_Penalty_Charging>
0

> <r_epik_Ionization_Penalty_Neutral>
0.295852

> <r_epik_State_Penalty>
0.288723

> <r_epik_Charging_Adjusted_Penalty>
0.288723

> <i_epik_Tot_Q>
0

> <i_epik_Tot_abs_Q>
0

> <r_epik_Metal_State_Penalty>
0.29791

> <b_epik_Metal_Only>
0

> <s_lp_Force_Field>
OPLS_2005

> <r_lp_Energy>
41.4857

> <b_lp_Chiralities_Consistent>
1

> <s_lp_Variant>
AV-unprocessed.smi:1995-2

> <Gold.Version>
5.8.1

> <Gold.Id.Protein>
6NUR|6NUR_protein|mol2

> <Gold.PLP.Fitness>
38.1836

> <Gold.PLP.PLP>
-28.9706

> <Gold.PLP.part.hbond>
-3.0586

> <Gold.PLP.part.metal>
0.0000

> <Gold.PLP.part.buried>
-4.9667

> <Gold.PLP.part.nonpolar>
-22.3385

> <Gold.PLP.part.repulsive>
0.4515

> <Gold.PLP.ligand.clash>
0.0000

> <Gold.PLP.ligand.torsion>
1.3695

> <Gold.PLP.Chemscore.Hbond>
2.9600

> <Gold.PLP.Chemscore.CHOScore>
1.0000

> <Gold.PLP.Chemscore.Metal>
0.0000

> <Gold.Chemscore.Hbonds>
donor molecule, donor type, donor heavy atom, donor atom, acceptor molecule, acceptor atom, score
      L1  H     6    31       P1 10175  1.00
      L1  H     9    32       P1 10175  0.94
      P1  H  7989  7998       L1    18  0.95
      L1  C    12    33       P1  7921  0.97

> <Gold.PLP.Chemscore.Internal.Correction>
0.0719

> <Gold.Rescore>
     Score         DG    S(hbond)    S(metal)    S(lipo)     H(rot)  DE(clash)    DE(int)     intcor
     15.44     -16.98       2.85        0.00      54.94       1.74       0.08       1.45       ----

> <Gold.Chemscore.Fitness>
15.4449

> <Gold.Chemscore.DG>
-16.9750

> <Gold.Chemscore.ZeroCoef>
-5.4800

> <Gold.Chemscore.Hbond>
2.8514

> <Gold.Chemscore.Metal>
0.0000

> <Gold.Chemscore.Lipo>
54.9378

> <Gold.Chemscore.Internal_Hbond>
0.0000

> <Gold.Chemscore.DEClash>
0.0776

> <Gold.Chemscore.DEInternal>
1.4525

> <Gold.Chemscore.Rot>
1.7408

> <Gold.Chemscore.Internal.Correction>
   9.000000E+99

> <Gold.Chemscore.Hbonds>
donor molecule, donor type, donor heavy atom, donor atom, acceptor molecule, acceptor atom, score
      L1  H     6    31       P1 10175  0.96
      L1  H     9    32       P1 10175  0.91
      P1  H  7989  7998       L1    18  0.21

> <Gold.Chemscore.Hbond.Weighted>
-9.5238

> <Gold.Chemscore.Metal.Weighted>
-0.0000

> <Gold.Chemscore.Lipo.Weighted>
-6.4277

> <Gold.Chemscore.Internal_Hbond.Weighted>
0.0000

> <Gold.Chemscore.DEClash.Weighted>
0.0776

> <Gold.Chemscore.DEInternal.Weighted>
1.4525

> <Gold.Chemscore.Rot.Weighted>
4.4565

> <Gold.Chemscore.Internal.Correction.Weighted>
   9.000000E+99

> <Gold.Protein.RotatedTorsions>
[ 6907 6896 6895 6894 ] final  -56.57 input  -60.11 | X-H torsion
[ 7974 7965 7964 7962 ] final   -4.43 input  175.53 | X-H torsion
[ 8008 7997 7996 7995 ] final   63.34 input   59.86 | X-H torsion
[ 10167 10162 10161 10158 ] final -153.33 input  -65.29 | X-H torsion
[ 10718 10713 10712 10709 ] final  121.31 input   66.30 | X-H torsion
[ 10763 10752 10751 10750 ] final   77.78 input  -60.55 | X-H torsion
[ 11005 11000 10999 10996 ] final  -87.25 input  -57.11 | X-H torsion

> <Gold.Protein.ActiveResidues>
 VAL166  LYS551  ARG553  GLY616  TRP617  ASP618  TYR619  PRO620  LYS621  CYS622 
 ASP623  PHE694  ASN695  SER759  ASP760  ASP761  ALA762  ILE779  LEU786  VAL792 
 PHE793  MET794  SER795  GLU796  ALA797  LYS798  CYS799  TRP800  GLU811  SER814 

> <Gold.Protein.RotatedAtoms>
  150.8156  134.7336  159.6726 H   0  0  0  0  0  0  0  0  0  0  0  0  # atno 6907 bound_to 6896
  152.4275  134.5837  159.9965 H   0  0  0  0  0  0  0  0  0  0  0  0  # atno 6908 bound_to 6896
  151.6035  133.3317  159.3088 H   0  0  0  0  0  0  0  0  0  0  0  0  # atno 6909 bound_to 6896
  146.2372  140.1870  142.8332 H   0  0  0  0  0  0  0  0  0  0  0  0  # atno 7974 bound_to 7965
  155.6287  140.3496  155.4676 H   0  0  0  0  0  0  0  0  0  0  0  0  # atno 8008 bound_to 7997
  156.0020  140.1215  157.0561 H   0  0  0  0  0  0  0  0  0  0  0  0  # atno 8009 bound_to 7997
  154.4252  140.1098  156.5697 H   0  0  0  0  0  0  0  0  0  0  0  0  # atno 8010 bound_to 7997
  139.7105  143.9116  152.2466 H   0  0  0  0  0  0  0  0  0  0  0  0  # atno 10167 bound_to 10162
  157.5827  131.1073  150.8156 H   0  0  0  0  0  0  0  0  0  0  0  0  # atno 10718 bound_to 10713
  153.0824  135.4901  154.8530 H   0  0  0  0  0  0  0  0  0  0  0  0  # atno 10763 bound_to 10752
  154.7168  135.3031  154.9113 H   0  0  0  0  0  0  0  0  0  0  0  0  # atno 10764 bound_to 10752
  153.9790  135.6792  153.4802 H   0  0  0  0  0  0  0  0  0  0  0  0  # atno 10765 bound_to 10752
  141.1619  133.7500  156.9279 H   0  0  0  0  0  0  0  0  0  0  0  0  # atno 11005 bound_to 11000
  144.9888  140.8528  143.5352 LP  0  0  0  0  0  0  0  0  0  0  0  0  # atno 17320 bound_to 7965
  145.1873  139.2319  143.5261 LP  0  0  0  0  0  0  0  0  0  0  0  0  # atno 17321 bound_to 7965
  139.8983  144.6926  150.8693 LP  0  0  0  0  0  0  0  0  0  0  0  0  # atno 17342 bound_to 10162
  140.7732  143.3533  151.1971 LP  0  0  0  0  0  0  0  0  0  0  0  0  # atno 17343 bound_to 10162
  156.8598  130.5109  149.5304 LP  0  0  0  0  0  0  0  0  0  0  0  0  # atno 17370 bound_to 10713
  156.0874  130.5868  150.9672 LP  0  0  0  0  0  0  0  0  0  0  0  0  # atno 17371 bound_to 10713
  140.1406  134.9296  157.2462 LP  0  0  0  0  0  0  0  0  0  0  0  0  # atno 17394 bound_to 11000
  140.2841  134.3316  155.7334 LP  0  0  0  0  0  0  0  0  0  0  0  0  # atno 17395 bound_to 11000

$$$$
