AV-unprocessed.smi:284|AV-procd|sdf|2157|dock10
  -GOLD-   2262021503D 1   1.00000     0.00000
 Structure written by MMmdl.
 60 62  0  0  0  0  0  0  0  0  1 V2000
  154.5757  140.6690  160.8036 C   0  0  0  0  0  0  0  0  0  0  0  0
  153.3325  140.7341  159.9299 C   0  0  0  0  0  0  0  0  0  0  0  0
  152.7211  141.9048  159.6345 C   0  0  0  0  0  0  0  0  0  0  0  0
  151.5926  141.9980  158.8379 N   0  0  0  0  0  0  0  0  0  0  0  0
  150.9354  143.3229  158.5035 C   0  0  2  0  0  0  0  0  0  0  0  0
  151.8398  144.4979  158.9196 C   0  0  0  0  0  0  0  0  0  0  0  0
  150.9103  145.3834  159.7298 C   0  0  1  0  0  0  0  0  0  0  0  0
  150.3043  146.3591  158.9026 O   0  0  0  0  0  0  0  0  0  0  0  0
  149.8931  144.3762  160.2765 C   0  0  1  0  0  0  0  0  0  0  0  0
  148.5375  144.9350  160.7439 C   0  0  0  0  0  0  0  0  0  0  0  0
  147.7177  143.8923  161.2276 O   0  0  0  0  0  0  0  0  0  0  0  0
  149.7311  143.4561  159.2025 O   0  0  0  0  0  0  0  0  0  0  0  0
  151.0221  140.8254  158.3019 C   0  0  0  0  0  0  0  0  0  0  0  0
  150.0186  140.8846  157.5870 O   0  0  0  0  0  0  0  0  0  0  0  0
  151.6337  139.5866  158.5954 N   0  0  0  0  0  0  0  0  0  0  0  0
  151.0567  138.3581  158.0045 C   0  0  0  0  0  0  0  0  0  0  0  0
  150.2853  137.4940  159.0155 C   0  0  0  0  0  0  0  0  0  0  0  0
  150.8458  137.0768  160.0293 O   0  0  0  0  0  0  0  0  0  0  0  0
  148.9985  137.2632  158.6942 N   0  0  0  0  0  0  0  0  0  0  0  0
  148.0022  136.5080  159.3757 C   0  0  0  0  0  0  0  0  0  0  0  0
  148.2067  136.2932  160.7529 C   0  0  0  0  0  0  0  0  0  0  0  0
  147.2781  135.5608  161.5168 C   0  0  0  0  0  0  0  0  0  0  0  0
  146.1135  135.0206  160.9193 C   0  0  0  0  0  0  0  0  0  0  0  0
  145.0711  134.2153  161.7181 C   0  0  0  0  0  0  0  0  0  0  0  0
  143.9750  133.6973  160.7638 C   0  0  0  0  0  0  0  0  0  0  0  0
  144.3773  135.0497  162.8185 C   0  0  0  0  0  0  0  0  0  0  0  0
  145.7576  133.0158  162.4038 C   0  0  0  0  0  0  0  0  0  0  0  0
  145.9145  135.2388  159.5363 C   0  0  0  0  0  0  0  0  0  0  0  0
  146.8414  135.9707  158.7704 C   0  0  0  0  0  0  0  0  0  0  0  0
  152.7965  139.4795  159.3966 C   0  0  0  0  0  0  0  0  0  0  0  0
  153.3124  138.3808  159.6116 O   0  0  0  0  0  0  0  0  0  0  0  0
  154.8831  141.6565  161.1488 H   0  0  0  0  0  0  0  0  0  0  0  0
  155.4087  140.2364  160.2482 H   0  0  0  0  0  0  0  0  0  0  0  0
  154.3924  140.0508  161.6831 H   0  0  0  0  0  0  0  0  0  0  0  0
  153.1520  142.8023  160.0505 H   0  0  0  0  0  0  0  0  0  0  0  0
  150.7208  143.2854  157.4340 H   0  0  0  0  0  0  0  0  0  0  0  0
  152.6501  144.1335  159.5531 H   0  0  0  0  0  0  0  0  0  0  0  0
  152.2758  144.9889  158.0485 H   0  0  0  0  0  0  0  0  0  0  0  0
  151.4404  145.8963  160.5330 H   0  0  0  0  0  0  0  0  0  0  0  0
  149.5549  145.9701  158.4784 H   0  0  0  0  0  0  0  0  0  0  0  0
  150.3554  143.8334  161.1027 H   0  0  0  0  0  0  0  0  0  0  0  0
  148.6583  145.6970  161.5138 H   0  0  0  0  0  0  0  0  0  0  0  0
  148.0252  145.4099  159.9069 H   0  0  0  0  0  0  0  0  0  0  0  0
  146.8341  144.2182  161.3088 H   0  0  0  0  0  0  0  0  0  0  0  0
  150.3875  138.5922  157.1751 H   0  0  0  0  0  0  0  0  0  0  0  0
  151.8386  137.7495  157.5466 H   0  0  0  0  0  0  0  0  0  0  0  0
  148.6904  137.6842  157.8298 H   0  0  0  0  0  0  0  0  0  0  0  0
  149.0857  136.6941  161.2364 H   0  0  0  0  0  0  0  0  0  0  0  0
  147.4886  135.4302  162.5666 H   0  0  0  0  0  0  0  0  0  0  0  0
  143.2096  133.1395  161.3042 H   0  0  0  0  0  0  0  0  0  0  0  0
  144.3759  133.0299  160.0006 H   0  0  0  0  0  0  0  0  0  0  0  0
  143.4781  134.5213  160.2503 H   0  0  0  0  0  0  0  0  0  0  0  0
  143.8410  135.9026  162.4008 H   0  0  0  0  0  0  0  0  0  0  0  0
  145.0922  135.4240  163.5524 H   0  0  0  0  0  0  0  0  0  0  0  0
  143.6463  134.4518  163.3640 H   0  0  0  0  0  0  0  0  0  0  0  0
  145.0476  132.4384  162.9970 H   0  0  0  0  0  0  0  0  0  0  0  0
  146.5513  133.3467  163.0746 H   0  0  0  0  0  0  0  0  0  0  0  0
  146.2024  132.3292  161.6834 H   0  0  0  0  0  0  0  0  0  0  0  0
  145.0393  134.8434  159.0431 H   0  0  0  0  0  0  0  0  0  0  0  0
  146.6264  136.0986  157.7225 H   0  0  0  0  0  0  0  0  0  0  0  0
  1  2  1  0  0  0  0
  1 32  1  0  0  0  0
  1 33  1  0  0  0  0
  1 34  1  0  0  0  0
  2 30  1  0  0  0  0
  2  3  2  0  0  0  0
  3  4  1  0  0  0  0
  3 35  1  0  0  0  0
  4  5  1  0  0  0  0
  4 13  1  0  0  0  0
  5 12  1  0  0  0  0
  5  6  1  0  0  0  0
  5 36  1  0  0  0  0
  6  7  1  0  0  0  0
  6 37  1  0  0  0  0
  6 38  1  0  0  0  0
  7  8  1  0  0  0  0
  7  9  1  0  0  0  0
  7 39  1  0  0  0  0
  8 40  1  0  0  0  0
  9 10  1  0  0  0  0
  9 12  1  0  0  0  0
  9 41  1  0  0  0  0
 10 11  1  0  0  0  0
 10 42  1  0  0  0  0
 10 43  1  0  0  0  0
 11 44  1  0  0  0  0
 13 14  2  0  0  0  0
 13 15  1  0  0  0  0
 15 16  1  0  0  0  0
 15 30  1  0  0  0  0
 16 17  1  0  0  0  0
 16 45  1  0  0  0  0
 16 46  1  0  0  0  0
 17 18  2  0  0  0  0
 17 19  1  0  0  0  0
 19 20  1  0  0  0  0
 19 47  1  0  0  0  0
 20 29  1  0  0  0  0
 20 21  2  0  0  0  0
 21 22  1  0  0  0  0
 21 48  1  0  0  0  0
 22 23  2  0  0  0  0
 22 49  1  0  0  0  0
 23 24  1  0  0  0  0
 23 28  1  0  0  0  0
 24 25  1  0  0  0  0
 24 26  1  0  0  0  0
 24 27  1  0  0  0  0
 25 50  1  0  0  0  0
 25 51  1  0  0  0  0
 25 52  1  0  0  0  0
 26 53  1  0  0  0  0
 26 54  1  0  0  0  0
 26 55  1  0  0  0  0
 27 56  1  0  0  0  0
 27 57  1  0  0  0  0
 27 58  1  0  0  0  0
 28 29  2  0  0  0  0
 28 59  1  0  0  0  0
 29 60  1  0  0  0  0
 30 31  2  0  0  0  0
M  END
> <s_m_source_file>
AV-unprocessed.smi

> <i_m_source_file_index>
284

> <i_lp_mmshare_version>
43012

> <i_f3d_flags>
0

> <s_epik_input>
W09IXVtDSDJdW0NAQEhdKE8xKVtDQEhdKFtPSF0pW0NIMl1bQ0BIXTFuKFtjSF1jMltDSDNdKWMoPU8pbihjMj1PKVtDSDJdQyg9TylbTkhdYzNbY0hdW2NIXWMoQyhbQ0gzXSkoW0NIM10pW0NIM10pW2NIXVtjSF0z

> <s_epik_cmdline>
J2VwaWtfcHl0aG9uJywgJy1waCcsICc3LjAnLCAnLXRuJywgJzgnLCAnLW1hJywgJzIwMCcsICctbWV0YWxfYmluZGluZycsICctaW1hZScsICc8aW5maWxlLm1hZT4nLCAnLW9tYWUnLCAnPG91dGZpbGUubWFlPic=

> <r_lp_tautomer_probability>
1

> <r_epik_Ionization_Penalty>
4.92358e-06

> <r_epik_Ionization_Penalty_Charging>
1.29777e-07

> <r_epik_Ionization_Penalty_Neutral>
4.79381e-06

> <r_epik_State_Penalty>
-0

> <r_epik_Charging_Adjusted_Penalty>
1.29777e-07

> <i_epik_Tot_Q>
0

> <i_epik_Tot_abs_Q>
0

> <r_epik_Metal_State_Penalty>
-0

> <b_epik_Metal_Only>
0

> <s_epik_Chemistry_Notes>
This compound contains an acetal/aminal-like group ( X-CH(R)-Y where X, Y are N, S, or O) that may be acid/base labile, releasing an aldehyde.

> <s_lp_Force_Field>
OPLS_2005

> <r_lp_Energy>
42.5826

> <b_lp_Chiralities_Consistent>
1

> <s_lp_Variant>
AV-unprocessed.smi:284-1

> <Gold.Version>
5.8.1

> <Gold.Id.Protein>
6NUR|6NUR_protein|mol2

> <Gold.PLP.Fitness>
54.7283

> <Gold.PLP.PLP>
-46.9101

> <Gold.PLP.part.hbond>
-5.9130

> <Gold.PLP.part.metal>
0.0000

> <Gold.PLP.part.buried>
-1.4941

> <Gold.PLP.part.nonpolar>
-40.7323

> <Gold.PLP.part.repulsive>
0.3224

> <Gold.PLP.ligand.clash>
0.0000

> <Gold.PLP.ligand.torsion>
0.5950

> <Gold.PLP.Chemscore.Hbond>
2.9913

> <Gold.PLP.Chemscore.CHOScore>
0.0000

> <Gold.PLP.Chemscore.Metal>
0.0000

> <Gold.Chemscore.Hbonds>
donor molecule, donor type, donor heavy atom, donor atom, acceptor molecule, acceptor atom, score
      L1  H     8    40       P1  8029  1.00
      P1  H  6896  6909       L1    18  1.00
      P1  H  6933  6944       L1    11  1.00

> <Gold.PLP.Chemscore.Internal.Correction>
0.0344

> <Gold.Rescore>
     Score         DG    S(hbond)    S(metal)    S(lipo)     H(rot)  DE(clash)    DE(int)     intcor
     11.02     -19.89       2.81        0.00     114.62       3.27       5.45       3.43       ----

> <Gold.Chemscore.Fitness>
11.0165

> <Gold.Chemscore.DG>
-19.8912

> <Gold.Chemscore.ZeroCoef>
-5.4800

> <Gold.Chemscore.Hbond>
2.8087

> <Gold.Chemscore.Metal>
0.0000

> <Gold.Chemscore.Lipo>
114.6182

> <Gold.Chemscore.Internal_Hbond>
0.0000

> <Gold.Chemscore.DEClash>
5.4470

> <Gold.Chemscore.DEInternal>
3.4278

> <Gold.Chemscore.Rot>
3.2735

> <Gold.Chemscore.Internal.Correction>
   9.000000E+99

> <Gold.Chemscore.Hbonds>
donor molecule, donor type, donor heavy atom, donor atom, acceptor molecule, acceptor atom, score
      L1  H     8    40       P1  8029  0.86
      P1  H  6896  6909       L1    18  0.71
      P1  H  6933  6944       L1    11  0.93

> <Gold.Chemscore.Hbond.Weighted>
-9.3809

> <Gold.Chemscore.Metal.Weighted>
-0.0000

> <Gold.Chemscore.Lipo.Weighted>
-13.4103

> <Gold.Chemscore.Internal_Hbond.Weighted>
0.0000

> <Gold.Chemscore.DEClash.Weighted>
5.4470

> <Gold.Chemscore.DEInternal.Weighted>
3.4278

> <Gold.Chemscore.Rot.Weighted>
8.3801

> <Gold.Chemscore.Internal.Correction.Weighted>
   9.000000E+99

> <Gold.Protein.RotatedTorsions>
[ 6907 6896 6895 6894 ] final   92.50 input  -60.11 | X-H torsion
[ 7974 7965 7964 7962 ] final -119.46 input  175.53 | X-H torsion
[ 8008 7997 7996 7995 ] final  176.92 input   59.86 | X-H torsion
[ 10167 10162 10161 10158 ] final  145.99 input  -65.29 | X-H torsion
[ 10718 10713 10712 10709 ] final  -84.14 input   66.30 | X-H torsion
[ 10763 10752 10751 10750 ] final -173.40 input  -60.55 | X-H torsion
[ 11005 11000 10999 10996 ] final -100.27 input  -57.11 | X-H torsion

> <Gold.Protein.ActiveResidues>
 VAL166  LYS551  ARG553  GLY616  TRP617  ASP618  TYR619  PRO620  LYS621  CYS622 
 ASP623  PHE694  ASN695  SER759  ASP760  ASP761  ALA762  ILE779  LEU786  VAL792 
 PHE793  MET794  SER795  GLU796  ALA797  LYS798  CYS799  TRP800  GLU811  SER814 

> <Gold.Protein.RotatedAtoms>
  152.5452  134.1493  159.8511 H   0  0  0  0  0  0  0  0  0  0  0  0  # atno 6907 bound_to 6896
  151.1521  133.4893  159.2602 H   0  0  0  0  0  0  0  0  0  0  0  0  # atno 6908 bound_to 6896
  151.1461  135.0214  159.8702 H   0  0  0  0  0  0  0  0  0  0  0  0  # atno 6909 bound_to 6896
  145.0622  140.8298  143.4145 H   0  0  0  0  0  0  0  0  0  0  0  0  # atno 7974 bound_to 7965
  156.0713  140.1371  156.9825 H   0  0  0  0  0  0  0  0  0  0  0  0  # atno 8008 bound_to 7997
  154.4533  140.0971  156.6735 H   0  0  0  0  0  0  0  0  0  0  0  0  # atno 8009 bound_to 7997
  155.5223  140.3456  155.4411 H   0  0  0  0  0  0  0  0  0  0  0  0  # atno 8010 bound_to 7997
  139.4915  144.5862  151.6774 H   0  0  0  0  0  0  0  0  0  0  0  0  # atno 10167 bound_to 10162
  156.0010  130.4688  150.4364 H   0  0  0  0  0  0  0  0  0  0  0  0  # atno 10718 bound_to 10713
  154.6083  135.2862  155.0460 H   0  0  0  0  0  0  0  0  0  0  0  0  # atno 10763 bound_to 10752
  154.1700  135.6474  153.5011 H   0  0  0  0  0  0  0  0  0  0  0  0  # atno 10764 bound_to 10752
  153.0184  135.5398  154.6827 H   0  0  0  0  0  0  0  0  0  0  0  0  # atno 10765 bound_to 10752
  141.1277  133.8386  157.1081 H   0  0  0  0  0  0  0  0  0  0  0  0  # atno 11005 bound_to 11000
  145.1394  139.2581  143.5498 LP  0  0  0  0  0  0  0  0  0  0  0  0  # atno 17320 bound_to 7965
  146.3525  140.1067  142.8605 LP  0  0  0  0  0  0  0  0  0  0  0  0  # atno 17321 bound_to 7965
  140.5478  144.0474  150.6114 LP  0  0  0  0  0  0  0  0  0  0  0  0  # atno 17342 bound_to 10162
  140.3518  143.2958  152.0479 LP  0  0  0  0  0  0  0  0  0  0  0  0  # atno 17343 bound_to 10162
  157.2409  131.0525  151.2437 LP  0  0  0  0  0  0  0  0  0  0  0  0  # atno 17370 bound_to 10713
  157.3621  130.7137  149.6509 LP  0  0  0  0  0  0  0  0  0  0  0  0  # atno 17371 bound_to 10713
  140.0292  134.9909  157.0746 LP  0  0  0  0  0  0  0  0  0  0  0  0  # atno 17394 bound_to 11000
  140.4313  134.1777  155.7168 LP  0  0  0  0  0  0  0  0  0  0  0  0  # atno 17395 bound_to 11000

$$$$
