AV-unprocessed.smi:1149|AV-procd|sdf|4890|dock8
  -GOLD-   22720 3463D 1   1.00000     0.00000
 Structure written by MMmdl.
 51 52  0  0  0  0  0  0  0  0  2 V2000
  152.3788  140.3754  158.1874 C   0  0  0  0  0  0  0  0  0  0  0  0
  152.5541  140.0020  156.8251 O   0  0  0  0  0  0  0  0  0  0  0  0
  151.5264  139.3344  156.1913 C   0  0  0  0  0  0  0  0  0  0  0  0
  150.5073  138.7630  156.9787 C   0  0  0  0  0  0  0  0  0  0  0  0
  149.4582  138.0740  156.3409 C   0  0  0  0  0  0  0  0  0  0  0  0
  149.4663  137.9711  154.9296 C   0  0  0  0  0  0  0  0  0  0  0  0
  148.4592  137.3159  154.1708 N   0  0  0  0  0  0  0  0  0  0  0  0
  147.2063  137.0028  154.5433 C   0  0  0  0  0  0  0  0  0  0  0  0
  146.7156  137.2301  155.6488 O   0  0  0  0  0  0  0  0  0  0  0  0
  146.5461  136.3884  153.5515 N   0  0  0  0  0  0  0  0  0  0  0  0
  145.1663  135.9043  153.6151 C   0  0  0  0  0  0  0  0  0  0  0  0
  144.6716  135.2666  152.2816 C   0  0  0  0  0  0  0  0  0  0  0  0
  143.2157  134.7813  152.4791 C   0  0  0  0  0  0  0  0  0  0  0  0
  144.6766  136.3724  151.1952 C   0  0  0  0  0  0  0  0  0  0  0  0
  145.5729  134.1564  151.8689 N   0  0  0  0  0  0  0  0  0  0  0  0
  145.1155  133.3911  150.6967 C   0  0  0  0  0  0  0  0  0  0  0  0
  146.2300  132.4481  150.2004 C   0  0  0  0  0  0  0  0  0  0  0  0
  146.6533  131.5025  151.2578 N   0  3  0  0  0  0  0  0  0  0  0  0
  145.7044  130.3872  151.4816 C   0  0  0  0  0  0  0  0  0  0  0  0
  147.0141  132.2411  152.4893 C   0  0  0  0  0  0  0  0  0  0  0  0
  145.8802  133.1867  152.9336 C   0  0  0  0  0  0  0  0  0  0  0  0
  150.5221  138.5937  154.2324 C   0  0  0  0  0  0  0  0  0  0  0  0
  151.5314  139.2547  154.8375 N   0  0  0  0  0  0  0  0  0  0  0  0
  153.2677  140.9023  158.5340 H   0  0  0  0  0  0  0  0  0  0  0  0
  152.2426  139.5012  158.8257 H   0  0  0  0  0  0  0  0  0  0  0  0
  151.5278  141.0466  158.3116 H   0  0  0  0  0  0  0  0  0  0  0  0
  150.5273  138.8539  158.0547 H   0  0  0  0  0  0  0  0  0  0  0  0
  148.6681  137.6530  156.9429 H   0  0  0  0  0  0  0  0  0  0  0  0
  148.7476  136.9902  153.2598 H   0  0  0  0  0  0  0  0  0  0  0  0
  147.0328  136.2462  152.6789 H   0  0  0  0  0  0  0  0  0  0  0  0
  145.0965  135.1992  154.4424 H   0  0  0  0  0  0  0  0  0  0  0  0
  144.4964  136.7155  153.9060 H   0  0  0  0  0  0  0  0  0  0  0  0
  142.5701  135.6128  152.7644 H   0  0  0  0  0  0  0  0  0  0  0  0
  143.1304  134.0354  153.2692 H   0  0  0  0  0  0  0  0  0  0  0  0
  142.7919  134.3557  151.5698 H   0  0  0  0  0  0  0  0  0  0  0  0
  144.2094  137.2863  151.5638 H   0  0  0  0  0  0  0  0  0  0  0  0
  144.1134  136.0886  150.3065 H   0  0  0  0  0  0  0  0  0  0  0  0
  145.6886  136.6304  150.8810 H   0  0  0  0  0  0  0  0  0  0  0  0
  144.2133  132.8258  150.9307 H   0  0  0  0  0  0  0  0  0  0  0  0
  144.8674  134.0500  149.8674 H   0  0  0  0  0  0  0  0  0  0  0  0
  145.9011  131.8975  149.3184 H   0  0  0  0  0  0  0  0  0  0  0  0
  147.0950  133.0364  149.8902 H   0  0  0  0  0  0  0  0  0  0  0  0
  144.7393  130.7387  151.8464 H   0  0  0  0  0  0  0  0  0  0  0  0
  146.1071  129.6851  152.2122 H   0  0  0  0  0  0  0  0  0  0  0  0
  145.5363  129.8379  150.5547 H   0  0  0  0  0  0  0  0  0  0  0  0
  147.2612  131.5389  153.2863 H   0  0  0  0  0  0  0  0  0  0  0  0
  147.9191  132.8200  152.2985 H   0  0  0  0  0  0  0  0  0  0  0  0
  146.2190  133.6876  153.8375 H   0  0  0  0  0  0  0  0  0  0  0  0
  144.9927  132.6150  153.2048 H   0  0  0  0  0  0  0  0  0  0  0  0
  150.5632  138.5567  153.1534 H   0  0  0  0  0  0  0  0  0  0  0  0
  147.5028  131.0677  150.9268 H   0  0  0  0  0  0  0  0  0  0  0  0
  1  2  1  0  0  0  0
  1 24  1  0  0  0  0
  1 25  1  0  0  0  0
  1 26  1  0  0  0  0
  2  3  1  0  0  0  0
  3 23  1  0  0  0  0
  3  4  2  0  0  0  0
  4  5  1  0  0  0  0
  4 27  1  0  0  0  0
  5  6  2  0  0  0  0
  5 28  1  0  0  0  0
  6  7  1  0  0  0  0
  6 22  1  0  0  0  0
  7  8  1  0  0  0  0
  7 29  1  0  0  0  0
  8  9  2  0  0  0  0
  8 10  1  0  0  0  0
 10 11  1  0  0  0  0
 10 30  1  0  0  0  0
 11 12  1  0  0  0  0
 11 31  1  0  0  0  0
 11 32  1  0  0  0  0
 12 13  1  0  0  0  0
 12 14  1  0  0  0  0
 12 15  1  0  0  0  0
 13 33  1  0  0  0  0
 13 34  1  0  0  0  0
 13 35  1  0  0  0  0
 14 36  1  0  0  0  0
 14 37  1  0  0  0  0
 14 38  1  0  0  0  0
 15 21  1  0  0  0  0
 15 16  1  0  0  0  0
 16 17  1  0  0  0  0
 16 39  1  0  0  0  0
 16 40  1  0  0  0  0
 17 18  1  0  0  0  0
 17 41  1  0  0  0  0
 17 42  1  0  0  0  0
 18 19  1  0  0  0  0
 18 20  1  0  0  0  0
 18 51  1  0  0  0  0
 19 43  1  0  0  0  0
 19 44  1  0  0  0  0
 19 45  1  0  0  0  0
 20 21  1  0  0  0  0
 20 46  1  0  0  0  0
 20 47  1  0  0  0  0
 21 48  1  0  0  0  0
 21 49  1  0  0  0  0
 22 23  2  0  0  0  0
 22 50  1  0  0  0  0
M  CHG  1  18   1
M  END
> <s_m_source_file>
AV-unprocessed.smi

> <i_m_source_file_index>
1149

> <i_lp_mmshare_version>
43012

> <i_f3d_flags>
0

> <s_epik_input>
W0NIM11PYzFbY0hdW2NIXWMoW2NIXW4xKVtOSF1DKD1PKVtOSF1bQ0gyXUMoW0NIM10pKFtDSDNdKU4yW0NIMl1bQ0gyXU4oW0NIM10pW0NIMl1bQ0gyXTI=

> <s_epik_cmdline>
J2VwaWtfcHl0aG9uJywgJy1waCcsICc3LjAnLCAnLXRuJywgJzgnLCAnLW1hJywgJzIwMCcsICctbWV0YWxfYmluZGluZycsICctaW1hZScsICc8aW5maWxlLm1hZT4nLCAnLW9tYWUnLCAnPG91dGZpbGUubWFlPic=

> <r_lp_tautomer_probability>
1

> <r_epik_Ionization_Penalty>
0.0248754

> <r_epik_Ionization_Penalty_Charging>
0.0238192

> <r_epik_Ionization_Penalty_Neutral>
0.00105627

> <r_epik_State_Penalty>
0.139266

> <r_epik_Charging_Adjusted_Penalty>
0.163085

> <i_epik_Tot_Q>
1

> <i_epik_Tot_abs_Q>
1

> <r_epik_Metal_State_Penalty>
0.139265

> <b_epik_Metal_Only>
0

> <s_lp_Force_Field>
OPLS_2005

> <r_lp_Energy>
29.3026

> <b_lp_Chiralities_Consistent>
1

> <s_lp_Variant>
AV-unprocessed.smi:1149-1

> <Gold.Version>
5.8.1

> <Gold.Id.Protein>
6NUR|6NUR_protein|mol2

> <Gold.PLP.Fitness>
44.9341

> <Gold.PLP.PLP>
-28.6631

> <Gold.PLP.part.hbond>
-5.0000

> <Gold.PLP.part.metal>
0.0000

> <Gold.PLP.part.buried>
-0.2039

> <Gold.PLP.part.nonpolar>
-23.0279

> <Gold.PLP.part.repulsive>
0.2217

> <Gold.PLP.ligand.clash>
0.0000

> <Gold.PLP.ligand.torsion>
0.4406

> <Gold.PLP.Chemscore.Hbond>
4.7028

> <Gold.PLP.Chemscore.CHOScore>
1.0000

> <Gold.PLP.Chemscore.Metal>
0.0000

> <Gold.Chemscore.Hbonds>
donor molecule, donor type, donor heavy atom, donor atom, acceptor molecule, acceptor atom, score
      L1  H     7    29       P1  7948  1.00
      L1  H    10    30       P1  7948  0.74
      L1  H    18    51       P1 10747  1.00
      P1  H  7989  7998       L1    23  0.76
      P1  H  7997  8008       L1     2  1.00
      L1  C    22    50       P1  7957  0.73

> <Gold.PLP.Chemscore.Internal.Correction>
0.0439

> <Gold.Rescore>
     Score         DG    S(hbond)    S(metal)    S(lipo)     H(rot)  DE(clash)    DE(int)     intcor
     19.69     -22.63       3.76        0.00      76.97       1.72       1.38       1.56       ----

> <Gold.Chemscore.Fitness>
19.6906

> <Gold.Chemscore.DG>
-22.6313

> <Gold.Chemscore.ZeroCoef>
-5.4800

> <Gold.Chemscore.Hbond>
3.7582

> <Gold.Chemscore.Metal>
0.0000

> <Gold.Chemscore.Lipo>
76.9706

> <Gold.Chemscore.Internal_Hbond>
0.0000

> <Gold.Chemscore.DEClash>
1.3795

> <Gold.Chemscore.DEInternal>
1.5613

> <Gold.Chemscore.Rot>
1.7213

> <Gold.Chemscore.Internal.Correction>
   9.000000E+99

> <Gold.Chemscore.Hbonds>
donor molecule, donor type, donor heavy atom, donor atom, acceptor molecule, acceptor atom, score
      L1  H     7    29       P1  7948  0.98
      L1  H    10    30       P1  7948  0.71
      L1  H    18    51       P1 10747  0.99
      P1  H  7989  7998       L1    23  0.15
      P1  H  7997  8008       L1     2  0.65

> <Gold.Chemscore.Hbond.Weighted>
-12.5523

> <Gold.Chemscore.Metal.Weighted>
-0.0000

> <Gold.Chemscore.Lipo.Weighted>
-9.0056

> <Gold.Chemscore.Internal_Hbond.Weighted>
0.0000

> <Gold.Chemscore.DEClash.Weighted>
1.3795

> <Gold.Chemscore.DEInternal.Weighted>
1.5613

> <Gold.Chemscore.Rot.Weighted>
4.4066

> <Gold.Chemscore.Internal.Correction.Weighted>
   9.000000E+99

> <Gold.Protein.RotatedTorsions>
[ 6907 6896 6895 6894 ] final -120.92 input  -60.11 | X-H torsion
[ 7974 7965 7964 7962 ] final -141.10 input  175.53 | X-H torsion
[ 8008 7997 7996 7995 ] final  -47.19 input   59.86 | X-H torsion
[ 10167 10162 10161 10158 ] final   46.23 input  -65.29 | X-H torsion
[ 10718 10713 10712 10709 ] final   34.17 input   66.30 | X-H torsion
[ 10763 10752 10751 10750 ] final -113.39 input  -60.55 | X-H torsion
[ 11005 11000 10999 10996 ] final   20.81 input  -57.11 | X-H torsion

> <Gold.Protein.ActiveResidues>
 VAL166  LYS551  ARG553  GLY616  TRP617  ASP618  TYR619  PRO620  LYS621  CYS622 
 ASP623  PHE694  ASN695  SER759  ASP760  ASP761  ALA762  ILE779  LEU786  VAL792 
 PHE793  MET794  SER795  GLU796  ALA797  LYS798  CYS799  TRP800  GLU811  SER814 

> <Gold.Protein.RotatedAtoms>
  150.8436  133.7896  159.3051 H   0  0  0  0  0  0  0  0  0  0  0  0  # atno 6907 bound_to 6896
  151.5590  135.1064  159.9977 H   0  0  0  0  0  0  0  0  0  0  0  0  # atno 6908 bound_to 6896
  152.4495  133.7558  159.6776 H   0  0  0  0  0  0  0  0  0  0  0  0  # atno 6909 bound_to 6896
  144.8545  140.6120  143.5368 H   0  0  0  0  0  0  0  0  0  0  0  0  # atno 7974 bound_to 7965
  154.4014  140.1352  156.4134 H   0  0  0  0  0  0  0  0  0  0  0  0  # atno 8008 bound_to 7997
  155.7711  140.3484  155.5227 H   0  0  0  0  0  0  0  0  0  0  0  0  # atno 8009 bound_to 7997
  155.8766  140.0980  157.1504 H   0  0  0  0  0  0  0  0  0  0  0  0  # atno 8010 bound_to 7997
  140.3160  144.2763  150.6191 H   0  0  0  0  0  0  0  0  0  0  0  0  # atno 10167 bound_to 10162
  157.3069  130.7379  149.6701 H   0  0  0  0  0  0  0  0  0  0  0  0  # atno 10718 bound_to 10713
  154.8394  135.4456  154.1342 H   0  0  0  0  0  0  0  0  0  0  0  0  # atno 10763 bound_to 10752
  153.2545  135.6930  153.7650 H   0  0  0  0  0  0  0  0  0  0  0  0  # atno 10764 bound_to 10752
  153.6950  135.3381  155.3187 H   0  0  0  0  0  0  0  0  0  0  0  0  # atno 10765 bound_to 10752
  140.3986  134.1743  155.7663 H   0  0  0  0  0  0  0  0  0  0  0  0  # atno 11005 bound_to 11000
  145.4433  139.1533  143.3958 LP  0  0  0  0  0  0  0  0  0  0  0  0  # atno 17320 bound_to 7965
  146.2812  140.4555  142.8775 LP  0  0  0  0  0  0  0  0  0  0  0  0  # atno 17321 bound_to 7965
  140.5526  143.2204  151.7901 LP  0  0  0  0  0  0  0  0  0  0  0  0  # atno 17342 bound_to 10162
  139.4884  144.4456  151.9714 LP  0  0  0  0  0  0  0  0  0  0  0  0  # atno 17343 bound_to 10162
  155.9675  130.4263  150.4692 LP  0  0  0  0  0  0  0  0  0  0  0  0  # atno 17370 bound_to 10713
  157.2683  131.0582  151.2276 LP  0  0  0  0  0  0  0  0  0  0  0  0  # atno 17371 bound_to 10713
  141.1865  133.8301  157.1066 LP  0  0  0  0  0  0  0  0  0  0  0  0  # atno 17394 bound_to 11000
  140.0353  134.9881  157.0860 LP  0  0  0  0  0  0  0  0  0  0  0  0  # atno 17395 bound_to 11000

$$$$
