AV-unprocessed.smi:1754|AV-procd|sdf|7067|dock1
  -GOLD-   22720 8283D 1   1.00000     0.00000
 Structure written by MMmdl.
 44 45  0  0  0  0  0  0  0  0  1 V2000
  142.8848  146.5988  154.7942 C   0  0  0  0  0  0  0  0  0  0  0  0
  143.3727  145.2295  154.2991 C   0  0  0  0  0  0  0  0  0  0  0  0
  144.1877  144.5305  155.2943 N   0  0  0  0  0  0  0  0  0  0  0  0
  143.5600  144.2366  156.5837 C   0  0  0  0  0  0  0  0  0  0  0  0
  144.2341  144.9610  157.7597 C   0  0  0  0  0  0  0  0  0  0  0  0
  145.2015  143.6792  154.7922 C   0  0  0  0  0  0  0  0  0  0  0  0
  145.5703  143.6648  153.4235 C   0  0  0  0  0  0  0  0  0  0  0  0
  146.5883  142.7937  152.9901 C   0  0  0  0  0  0  0  0  0  0  0  0
  147.2246  141.9586  153.9366 C   0  0  0  0  0  0  0  0  0  0  0  0
  148.2454  141.0204  153.6290 N   0  0  0  0  0  0  0  0  0  0  0  0
  148.9089  140.1855  154.4523 C   0  0  0  0  0  0  0  0  0  0  0  0
  148.6619  140.0354  155.6466 O   0  0  0  0  0  0  0  0  0  0  0  0
  149.8763  139.4721  153.8472 N   0  0  0  0  0  0  0  0  0  0  0  0
  150.7772  138.4840  154.4441 C   0  0  1  0  0  0  0  0  0  0  0  0
  151.9421  139.1422  155.2142 C   0  0  0  0  0  0  0  0  0  0  0  0
  152.6083  138.0851  156.1035 C   0  0  0  0  0  0  0  0  0  0  0  0
  151.2974  136.8779  156.5335 S   0  0  0  0  0  0  0  0  0  0  0  0
  151.6922  135.5523  156.0335 O   0  0  0  0  0  0  0  0  0  0  0  0
  150.8871  137.0688  157.9326 O   0  0  0  0  0  0  0  0  0  0  0  0
  150.0188  137.5864  155.4300 C   0  0  0  0  0  0  0  0  0  0  0  0
  146.7856  142.0360  155.2722 C   0  0  0  0  0  0  0  0  0  0  0  0
  145.8114  142.8691  155.6908 N   0  0  0  0  0  0  0  0  0  0  0  0
  142.2982  147.0993  154.0240 H   0  0  0  0  0  0  0  0  0  0  0  0
  143.7207  147.2505  155.0498 H   0  0  0  0  0  0  0  0  0  0  0  0
  142.2536  146.4993  155.6778 H   0  0  0  0  0  0  0  0  0  0  0  0
  142.5236  144.6202  153.9896 H   0  0  0  0  0  0  0  0  0  0  0  0
  143.9698  145.3665  153.3972 H   0  0  0  0  0  0  0  0  0  0  0  0
  142.5149  144.5457  156.5456 H   0  0  0  0  0  0  0  0  0  0  0  0
  143.5398  143.1602  156.7536 H   0  0  0  0  0  0  0  0  0  0  0  0
  143.7064  144.7524  158.6904 H   0  0  0  0  0  0  0  0  0  0  0  0
  144.2236  146.0410  157.6102 H   0  0  0  0  0  0  0  0  0  0  0  0
  145.2706  144.6551  157.8974 H   0  0  0  0  0  0  0  0  0  0  0  0
  145.0963  144.3046  152.6956 H   0  0  0  0  0  0  0  0  0  0  0  0
  146.8468  142.7779  151.9430 H   0  0  0  0  0  0  0  0  0  0  0  0
  148.4927  140.9619  152.6521 H   0  0  0  0  0  0  0  0  0  0  0  0
  149.9732  139.6082  152.8511 H   0  0  0  0  0  0  0  0  0  0  0  0
  151.1900  137.8388  153.6663 H   0  0  0  0  0  0  0  0  0  0  0  0
  152.6663  139.6083  154.5456 H   0  0  0  0  0  0  0  0  0  0  0  0
  151.5460  139.9341  155.8517 H   0  0  0  0  0  0  0  0  0  0  0  0
  153.3881  137.5542  155.5569 H   0  0  0  0  0  0  0  0  0  0  0  0
  153.0440  138.5078  157.0091 H   0  0  0  0  0  0  0  0  0  0  0  0
  149.3335  138.1672  156.0484 H   0  0  0  0  0  0  0  0  0  0  0  0
  149.4580  136.7889  154.9421 H   0  0  0  0  0  0  0  0  0  0  0  0
  147.2306  141.4112  156.0328 H   0  0  0  0  0  0  0  0  0  0  0  0
  1  2  1  0  0  0  0
  1 23  1  0  0  0  0
  1 24  1  0  0  0  0
  1 25  1  0  0  0  0
  2  3  1  0  0  0  0
  2 26  1  0  0  0  0
  2 27  1  0  0  0  0
  3  4  1  0  0  0  0
  3  6  1  0  0  0  0
  4  5  1  0  0  0  0
  4 28  1  0  0  0  0
  4 29  1  0  0  0  0
  5 30  1  0  0  0  0
  5 31  1  0  0  0  0
  5 32  1  0  0  0  0
  6 22  1  0  0  0  0
  6  7  2  0  0  0  0
  7  8  1  0  0  0  0
  7 33  1  0  0  0  0
  8  9  2  0  0  0  0
  8 34  1  0  0  0  0
  9 10  1  0  0  0  0
  9 21  1  0  0  0  0
 10 11  1  0  0  0  0
 10 35  1  0  0  0  0
 11 12  2  0  0  0  0
 11 13  1  0  0  0  0
 13 14  1  0  0  0  0
 13 36  1  0  0  0  0
 14 20  1  0  0  0  0
 14 15  1  0  0  0  0
 14 37  1  0  0  0  0
 15 16  1  0  0  0  0
 15 38  1  0  0  0  0
 15 39  1  0  0  0  0
 16 17  1  0  0  0  0
 16 40  1  0  0  0  0
 16 41  1  0  0  0  0
 17 18  2  0  0  0  0
 17 19  2  0  0  0  0
 17 20  1  0  0  0  0
 20 42  1  0  0  0  0
 20 43  1  0  0  0  0
 21 22  2  0  0  0  0
 21 44  1  0  0  0  0
M  END
> <s_m_source_file>
AV-unprocessed.smi

> <i_m_source_file_index>
1754

> <i_lp_mmshare_version>
43012

> <i_f3d_flags>
0

> <s_epik_input>
W0NIM11bQ0gyXU4oW0NIMl1bQ0gzXSljMVtjSF1bY0hdYyhbY0hdbjEpW05IXUMoPU8pW05IXVtDQEBIXShbQ0gyXTIpW0NIMl1bQ0gyXVMyKD1PKT1P

> <s_epik_cmdline>
J2VwaWtfcHl0aG9uJywgJy1waCcsICc3LjAnLCAnLXRuJywgJzgnLCAnLW1hJywgJzIwMCcsICctbWV0YWxfYmluZGluZycsICctaW1hZScsICc8aW5maWxlLm1hZT4nLCAnLW9tYWUnLCAnPG91dGZpbGUubWFlPic=

> <r_lp_tautomer_probability>
1

> <r_epik_Ionization_Penalty>
0.615754

> <r_epik_Ionization_Penalty_Charging>
0

> <r_epik_Ionization_Penalty_Neutral>
0.615754

> <r_epik_State_Penalty>
2.08676

> <r_epik_Charging_Adjusted_Penalty>
2.08676

> <i_epik_Tot_Q>
0

> <i_epik_Tot_abs_Q>
0

> <r_epik_Metal_State_Penalty>
1.53042

> <b_epik_Metal_Only>
0

> <s_lp_Force_Field>
OPLS_2005

> <r_lp_Energy>
21.6605

> <b_lp_Chiralities_Consistent>
1

> <s_lp_Variant>
AV-unprocessed.smi:1754-4

> <Gold.Version>
5.8.1

> <Gold.Id.Protein>
6NUR|6NUR_protein|mol2

> <Gold.PLP.Fitness>
43.2122

> <Gold.PLP.PLP>
-34.8783

> <Gold.PLP.part.hbond>
-3.0000

> <Gold.PLP.part.metal>
0.0000

> <Gold.PLP.part.buried>
-6.6928

> <Gold.PLP.part.nonpolar>
-25.1906

> <Gold.PLP.part.repulsive>
0.8916

> <Gold.PLP.ligand.clash>
0.0000

> <Gold.PLP.ligand.torsion>
0.7361

> <Gold.PLP.Chemscore.Hbond>
2.9675

> <Gold.PLP.Chemscore.CHOScore>
0.0000

> <Gold.PLP.Chemscore.Metal>
0.0000

> <Gold.Chemscore.Hbonds>
donor molecule, donor type, donor heavy atom, donor atom, acceptor molecule, acceptor atom, score
      L1  H    10    35       P1  7957  0.90
      L1  H    13    36       P1  7957  1.00
      P1  H 10752 10763       L1    18  1.00

> <Gold.PLP.Chemscore.Internal.Correction>
0.9037

> <Gold.Rescore>
     Score         DG    S(hbond)    S(metal)    S(lipo)     H(rot)  DE(clash)    DE(int)     intcor
     15.03     -20.14       2.81        0.00      75.40       1.39       1.84       3.26       ----

> <Gold.Chemscore.Fitness>
15.0299

> <Gold.Chemscore.DG>
-20.1352

> <Gold.Chemscore.ZeroCoef>
-5.4800

> <Gold.Chemscore.Hbond>
2.8103

> <Gold.Chemscore.Metal>
0.0000

> <Gold.Chemscore.Lipo>
75.3954

> <Gold.Chemscore.Internal_Hbond>
0.0000

> <Gold.Chemscore.DEClash>
1.8432

> <Gold.Chemscore.DEInternal>
3.2621

> <Gold.Chemscore.Rot>
1.3876

> <Gold.Chemscore.Internal.Correction>
   9.000000E+99

> <Gold.Chemscore.Hbonds>
donor molecule, donor type, donor heavy atom, donor atom, acceptor molecule, acceptor atom, score
      L1  H    10    35       P1  7957  0.82
      L1  H    13    36       P1  7957  0.99
      P1  H 10752 10763       L1    18  0.88

> <Gold.Chemscore.Hbond.Weighted>
-9.3863

> <Gold.Chemscore.Metal.Weighted>
-0.0000

> <Gold.Chemscore.Lipo.Weighted>
-8.8213

> <Gold.Chemscore.Internal_Hbond.Weighted>
0.0000

> <Gold.Chemscore.DEClash.Weighted>
1.8432

> <Gold.Chemscore.DEInternal.Weighted>
3.2621

> <Gold.Chemscore.Rot.Weighted>
3.5524

> <Gold.Chemscore.Internal.Correction.Weighted>
   9.000000E+99

> <Gold.Protein.RotatedTorsions>
[ 6907 6896 6895 6894 ] final  169.87 input  -60.11 | X-H torsion
[ 7974 7965 7964 7962 ] final  161.14 input  175.53 | X-H torsion
[ 8008 7997 7996 7995 ] final   49.68 input   59.86 | X-H torsion
[ 10167 10162 10161 10158 ] final  -62.54 input  -65.29 | X-H torsion
[ 10718 10713 10712 10709 ] final -156.84 input   66.30 | X-H torsion
[ 10763 10752 10751 10750 ] final   68.43 input  -60.55 | X-H torsion
[ 11005 11000 10999 10996 ] final  -63.81 input  -57.11 | X-H torsion

> <Gold.Protein.ActiveResidues>
 VAL166  LYS551  ARG553  GLY616  TRP617  ASP618  TYR619  PRO620  LYS621  CYS622 
 ASP623  PHE694  ASN695  SER759  ASP760  ASP761  ALA762  ILE779  LEU786  VAL792 
 PHE793  MET794  SER795  GLU796  ALA797  LYS798  CYS799  TRP800  GLU811  SER814 

> <Gold.Protein.RotatedAtoms>
  151.8251  133.3400  159.3595 H   0  0  0  0  0  0  0  0  0  0  0  0  # atno 6907 bound_to 6896
  150.7282  134.5537  159.5816 H   0  0  0  0  0  0  0  0  0  0  0  0  # atno 6908 bound_to 6896
  152.2977  134.7648  160.0415 H   0  0  0  0  0  0  0  0  0  0  0  0  # atno 6909 bound_to 6896
  144.7700  139.7857  143.6300 H   0  0  0  0  0  0  0  0  0  0  0  0  # atno 7974 bound_to 7965
  155.4062  140.3440  155.4260 H   0  0  0  0  0  0  0  0  0  0  0  0  # atno 8008 bound_to 7997
  156.1475  140.1560  156.8855 H   0  0  0  0  0  0  0  0  0  0  0  0  # atno 8009 bound_to 7997
  154.5023  140.0811  156.7804 H   0  0  0  0  0  0  0  0  0  0  0  0  # atno 8010 bound_to 7997
  140.5932  143.2345  151.6093 H   0  0  0  0  0  0  0  0  0  0  0  0  # atno 10167 bound_to 10162
  156.5320  130.8525  151.2719 H   0  0  0  0  0  0  0  0  0  0  0  0  # atno 10718 bound_to 10713
  153.0235  135.5247  154.7133 H   0  0  0  0  0  0  0  0  0  0  0  0  # atno 10763 bound_to 10752
  154.6209  135.2889  155.0329 H   0  0  0  0  0  0  0  0  0  0  0  0  # atno 10764 bound_to 10752
  154.1316  135.6592  153.4976 H   0  0  0  0  0  0  0  0  0  0  0  0  # atno 10765 bound_to 10752
  141.1405  133.6657  156.5737 H   0  0  0  0  0  0  0  0  0  0  0  0  # atno 11005 bound_to 11000
  146.1840  139.5046  142.9848 LP  0  0  0  0  0  0  0  0  0  0  0  0  # atno 17320 bound_to 7965
  145.6351  141.0296  143.1842 LP  0  0  0  0  0  0  0  0  0  0  0  0  # atno 17321 bound_to 7965
  139.5241  144.3114  152.0990 LP  0  0  0  0  0  0  0  0  0  0  0  0  # atno 17342 bound_to 10162
  140.2282  144.4396  150.6312 LP  0  0  0  0  0  0  0  0  0  0  0  0  # atno 17343 bound_to 10162
  157.7420  130.9881  150.2485 LP  0  0  0  0  0  0  0  0  0  0  0  0  # atno 17370 bound_to 10713
  156.3051  130.3764  149.7714 LP  0  0  0  0  0  0  0  0  0  0  0  0  # atno 17371 bound_to 10713
  140.3892  134.7455  157.4711 LP  0  0  0  0  0  0  0  0  0  0  0  0  # atno 17394 bound_to 11000
  140.0579  134.6038  155.8784 LP  0  0  0  0  0  0  0  0  0  0  0  0  # atno 17395 bound_to 11000

$$$$
