AV-unprocessed.smi:671|AV-procd|sdf|3280|dock3
  -GOLD-   22720 0243D 1   1.00000     0.00000
 Structure written by MMmdl.
 49 50  0  0  0  0  0  0  0  0  1 V2000
  152.8130  138.2480  154.6667 C   0  0  0  0  0  0  0  0  0  0  0  0
  152.0380  139.2232  155.5059 C   0  0  0  0  0  0  0  0  0  0  0  0
  152.5455  139.6322  156.6569 N   0  0  0  0  0  0  0  0  0  0  0  0
  151.6270  140.4833  157.1561 N   0  0  0  0  0  0  0  0  0  0  0  0
  151.8736  141.1224  158.4342 C   0  0  0  0  0  0  0  0  0  0  0  0
  150.5334  140.6076  156.3214 C   0  0  0  0  0  0  0  0  0  0  0  0
  149.3718  141.4892  156.6512 C   0  0  0  0  0  0  0  0  0  0  0  0
  150.7655  139.8066  155.2354 C   0  0  0  0  0  0  0  0  0  0  0  0
  149.8863  139.5863  154.0316 C   0  0  0  0  0  0  0  0  0  0  0  0
  148.4342  139.2325  154.4224 C   0  0  1  0  0  0  0  0  0  0  0  0
  147.4595  140.3957  154.1801 C   0  0  0  0  0  0  0  0  0  0  0  0
  147.9696  138.0629  153.6723 N   0  0  0  0  0  0  0  0  0  0  0  0
  146.7747  137.4481  153.7467 C   0  0  0  0  0  0  0  0  0  0  0  0
  145.8857  137.8454  154.4973 O   0  0  0  0  0  0  0  0  0  0  0  0
  146.6384  136.3910  152.9289 N   0  0  0  0  0  0  0  0  0  0  0  0
  145.4501  135.5515  152.8132 C   0  0  1  0  0  0  0  0  0  0  0  0
  144.3793  136.2688  151.9713 C   0  0  0  0  0  0  0  0  0  0  0  0
  144.3587  135.5513  150.6227 C   0  0  0  0  0  0  0  0  0  0  0  0
  144.7090  134.1093  150.9729 C   0  0  0  0  0  0  0  0  0  0  0  0
  145.7692  134.2313  152.0734 C   0  0  2  0  0  0  0  0  0  0  0  0
  145.8277  133.0058  152.9952 C   0  0  0  0  0  0  0  0  0  0  0  0
  152.4339  137.2349  154.7994 H   0  0  0  0  0  0  0  0  0  0  0  0
  153.8717  138.2442  154.9277 H   0  0  0  0  0  0  0  0  0  0  0  0
  152.7380  138.4942  153.6078 H   0  0  0  0  0  0  0  0  0  0  0  0
  151.2915  140.6242  159.2093 H   0  0  0  0  0  0  0  0  0  0  0  0
  151.5818  142.1716  158.3875 H   0  0  0  0  0  0  0  0  0  0  0  0
  152.9319  141.0662  158.6927 H   0  0  0  0  0  0  0  0  0  0  0  0
  148.5617  141.3593  155.9345 H   0  0  0  0  0  0  0  0  0  0  0  0
  149.6663  142.5386  156.6351 H   0  0  0  0  0  0  0  0  0  0  0  0
  148.9788  141.2616  157.6422 H   0  0  0  0  0  0  0  0  0  0  0  0
  149.8809  140.4664  153.3877 H   0  0  0  0  0  0  0  0  0  0  0  0
  150.3070  138.7904  153.4165 H   0  0  0  0  0  0  0  0  0  0  0  0
  148.3972  139.0001  155.4881 H   0  0  0  0  0  0  0  0  0  0  0  0
  147.7255  141.2697  154.7750 H   0  0  0  0  0  0  0  0  0  0  0  0
  146.4412  140.1171  154.4534 H   0  0  0  0  0  0  0  0  0  0  0  0
  147.4519  140.6964  153.1318 H   0  0  0  0  0  0  0  0  0  0  0  0
  148.6125  137.7063  152.9798 H   0  0  0  0  0  0  0  0  0  0  0  0
  147.4238  136.1454  152.3445 H   0  0  0  0  0  0  0  0  0  0  0  0
  145.0352  135.3559  153.8038 H   0  0  0  0  0  0  0  0  0  0  0  0
  143.4078  136.1493  152.4524 H   0  0  0  0  0  0  0  0  0  0  0  0
  144.5524  137.3408  151.8667 H   0  0  0  0  0  0  0  0  0  0  0  0
  143.3985  135.6401  150.1140 H   0  0  0  0  0  0  0  0  0  0  0  0
  145.1253  135.9695  149.9690 H   0  0  0  0  0  0  0  0  0  0  0  0
  143.8214  133.6049  151.3575 H   0  0  0  0  0  0  0  0  0  0  0  0
  145.0641  133.5440  150.1109 H   0  0  0  0  0  0  0  0  0  0  0  0
  146.7364  134.3275  151.5763 H   0  0  0  0  0  0  0  0  0  0  0  0
  144.8807  132.8526  153.5129 H   0  0  0  0  0  0  0  0  0  0  0  0
  146.6049  133.1229  153.7505 H   0  0  0  0  0  0  0  0  0  0  0  0
  146.0492  132.1007  152.4291 H   0  0  0  0  0  0  0  0  0  0  0  0
  1  2  1  0  0  0  0
  1 22  1  0  0  0  0
  1 23  1  0  0  0  0
  1 24  1  0  0  0  0
  2  8  1  0  0  0  0
  2  3  2  0  0  0  0
  3  4  1  0  0  0  0
  4  5  1  0  0  0  0
  4  6  1  0  0  0  0
  5 25  1  0  0  0  0
  5 26  1  0  0  0  0
  5 27  1  0  0  0  0
  6  7  1  0  0  0  0
  6  8  2  0  0  0  0
  7 28  1  0  0  0  0
  7 29  1  0  0  0  0
  7 30  1  0  0  0  0
  8  9  1  0  0  0  0
  9 10  1  0  0  0  0
  9 31  1  0  0  0  0
  9 32  1  0  0  0  0
 10 11  1  0  0  0  0
 10 12  1  0  0  0  0
 10 33  1  0  0  0  0
 11 34  1  0  0  0  0
 11 35  1  0  0  0  0
 11 36  1  0  0  0  0
 12 13  1  0  0  0  0
 12 37  1  0  0  0  0
 13 14  2  0  0  0  0
 13 15  1  0  0  0  0
 15 16  1  0  0  0  0
 15 38  1  0  0  0  0
 16 20  1  0  0  0  0
 16 17  1  0  0  0  0
 16 39  1  0  0  0  0
 17 18  1  0  0  0  0
 17 40  1  0  0  0  0
 17 41  1  0  0  0  0
 18 19  1  0  0  0  0
 18 42  1  0  0  0  0
 18 43  1  0  0  0  0
 19 20  1  0  0  0  0
 19 44  1  0  0  0  0
 19 45  1  0  0  0  0
 20 21  1  0  0  0  0
 20 46  1  0  0  0  0
 21 47  1  0  0  0  0
 21 48  1  0  0  0  0
 21 49  1  0  0  0  0
M  END
> <s_m_source_file>
AV-unprocessed.smi

> <i_m_source_file_index>
671

> <i_lp_mmshare_version>
43012

> <i_f3d_flags>
0

> <s_epik_input>
W0NIM11jMW5uKFtDSDNdKWMoW0NIM10pYzFbQ0gyXVtDQEhdKFtDSDNdKVtOSF1DKD1PKVtOSF1bQ0BASF0yW0NIMl1bQ0gyXVtDSDJdW0NASF0yW0NIM10=

> <s_epik_cmdline>
J2VwaWtfcHl0aG9uJywgJy1waCcsICc3LjAnLCAnLXRuJywgJzgnLCAnLW1hJywgJzIwMCcsICctbWV0YWxfYmluZGluZycsICctaW1hZScsICc8aW5maWxlLm1hZT4nLCAnLW9tYWUnLCAnPG91dGZpbGUubWFlPic=

> <r_lp_tautomer_probability>
1

> <r_epik_Ionization_Penalty>
0.0126855

> <r_epik_Ionization_Penalty_Charging>
0

> <r_epik_Ionization_Penalty_Neutral>
0.0126855

> <r_epik_State_Penalty>
0.00977547

> <r_epik_Charging_Adjusted_Penalty>
0.00977547

> <i_epik_Tot_Q>
0

> <i_epik_Tot_abs_Q>
0

> <r_epik_Metal_State_Penalty>
0.00957132

> <b_epik_Metal_Only>
0

> <s_lp_Force_Field>
OPLS_2005

> <r_lp_Energy>
22.0213

> <b_lp_Chiralities_Consistent>
1

> <s_lp_Variant>
AV-unprocessed.smi:671-8

> <Gold.Version>
5.8.1

> <Gold.Id.Protein>
6NUR|6NUR_protein|mol2

> <Gold.PLP.Fitness>
40.5767

> <Gold.PLP.PLP>
-33.8812

> <Gold.PLP.part.hbond>
-2.9126

> <Gold.PLP.part.metal>
0.0000

> <Gold.PLP.part.buried>
-1.1071

> <Gold.PLP.part.nonpolar>
-30.2170

> <Gold.PLP.part.repulsive>
0.1110

> <Gold.PLP.ligand.clash>
0.0000

> <Gold.PLP.ligand.torsion>
0.9744

> <Gold.PLP.Chemscore.Hbond>
2.8640

> <Gold.PLP.Chemscore.CHOScore>
0.0000

> <Gold.PLP.Chemscore.Metal>
0.0000

> <Gold.Chemscore.Hbonds>
donor molecule, donor type, donor heavy atom, donor atom, acceptor molecule, acceptor atom, score
      L1  H    12    37       P1  7948  0.90
      L1  H    15    38       P1  7948  1.00
      P1  H  7997  8010       L1     3  1.00

> <Gold.PLP.Chemscore.Internal.Correction>
0.0523

> <Gold.Rescore>
     Score         DG    S(hbond)    S(metal)    S(lipo)     H(rot)  DE(clash)    DE(int)     intcor
     18.66     -21.02       2.80        0.00      84.58       1.45       1.30       1.07       ----

> <Gold.Chemscore.Fitness>
18.6569

> <Gold.Chemscore.DG>
-21.0208

> <Gold.Chemscore.ZeroCoef>
-5.4800

> <Gold.Chemscore.Hbond>
2.8013

> <Gold.Chemscore.Metal>
0.0000

> <Gold.Chemscore.Lipo>
84.5834

> <Gold.Chemscore.Internal_Hbond>
0.0000

> <Gold.Chemscore.DEClash>
1.2966

> <Gold.Chemscore.DEInternal>
1.0672

> <Gold.Chemscore.Rot>
1.4499

> <Gold.Chemscore.Internal.Correction>
   9.000000E+99

> <Gold.Chemscore.Hbonds>
donor molecule, donor type, donor heavy atom, donor atom, acceptor molecule, acceptor atom, score
      L1  H    12    37       P1  7948  0.86
      L1  H    15    38       P1  7948  0.97
      P1  H  7997  8010       L1     3  0.74

> <Gold.Chemscore.Hbond.Weighted>
-9.3564

> <Gold.Chemscore.Metal.Weighted>
-0.0000

> <Gold.Chemscore.Lipo.Weighted>
-9.8963

> <Gold.Chemscore.Internal_Hbond.Weighted>
0.0000

> <Gold.Chemscore.DEClash.Weighted>
1.2966

> <Gold.Chemscore.DEInternal.Weighted>
1.0672

> <Gold.Chemscore.Rot.Weighted>
3.7118

> <Gold.Chemscore.Internal.Correction.Weighted>
   9.000000E+99

> <Gold.Protein.RotatedTorsions>
[ 6907 6896 6895 6894 ] final  -13.41 input  -60.11 | X-H torsion
[ 7974 7965 7964 7962 ] final -101.54 input  175.53 | X-H torsion
[ 8008 7997 7996 7995 ] final   73.01 input   59.86 | X-H torsion
[ 10167 10162 10161 10158 ] final   96.42 input  -65.29 | X-H torsion
[ 10718 10713 10712 10709 ] final  136.37 input   66.30 | X-H torsion
[ 10763 10752 10751 10750 ] final  167.92 input  -60.55 | X-H torsion
[ 11005 11000 10999 10996 ] final  -54.16 input  -57.11 | X-H torsion

> <Gold.Protein.ActiveResidues>
 VAL166  LYS551  ARG553  GLY616  TRP617  ASP618  TYR619  PRO620  LYS621  CYS622 
 ASP623  PHE694  ASN695  SER759  ASP760  ASP761  ALA762  ILE779  LEU786  VAL792 
 PHE793  MET794  SER795  GLU796  ALA797  LYS798  CYS799  TRP800  GLU811  SER814 

> <Gold.Protein.RotatedAtoms>
  151.3553  135.0893  159.9416 H   0  0  0  0  0  0  0  0  0  0  0  0  # atno 6907 bound_to 6896
  152.5176  133.9312  159.7592 H   0  0  0  0  0  0  0  0  0  0  0  0  # atno 6908 bound_to 6896
  150.9695  133.6305  159.2770 H   0  0  0  0  0  0  0  0  0  0  0  0  # atno 6909 bound_to 6896
  145.2803  140.9324  143.2935 H   0  0  0  0  0  0  0  0  0  0  0  0  # atno 7974 bound_to 7965
  155.7773  140.3483  155.5278 H   0  0  0  0  0  0  0  0  0  0  0  0  # atno 8008 bound_to 7997
  155.8763  140.0995  157.1536 H   0  0  0  0  0  0  0  0  0  0  0  0  # atno 8009 bound_to 7997
  154.4021  140.1331  156.4128 H   0  0  0  0  0  0  0  0  0  0  0  0  # atno 8010 bound_to 7997
  139.7896  144.6857  150.9910 H   0  0  0  0  0  0  0  0  0  0  0  0  # atno 10167 bound_to 10162
  157.4473  131.1063  151.0074 H   0  0  0  0  0  0  0  0  0  0  0  0  # atno 10718 bound_to 10713
  154.3610  135.2753  155.2320 H   0  0  0  0  0  0  0  0  0  0  0  0  # atno 10763 bound_to 10752
  154.4508  135.5931  153.6194 H   0  0  0  0  0  0  0  0  0  0  0  0  # atno 10764 bound_to 10752
  152.9843  135.6041  154.3830 H   0  0  0  0  0  0  0  0  0  0  0  0  # atno 10765 bound_to 10752
  141.1012  133.6618  156.4280 H   0  0  0  0  0  0  0  0  0  0  0  0  # atno 11005 bound_to 11000
  144.9258  139.4356  143.6519 LP  0  0  0  0  0  0  0  0  0  0  0  0  # atno 17320 bound_to 7965
  146.3218  139.8143  142.8939 LP  0  0  0  0  0  0  0  0  0  0  0  0  # atno 17321 bound_to 7965
  140.7820  143.4395  151.0573 LP  0  0  0  0  0  0  0  0  0  0  0  0  # atno 17342 bound_to 10162
  139.8072  143.8001  152.3168 LP  0  0  0  0  0  0  0  0  0  0  0  0  # atno 17343 bound_to 10162
  157.0916  130.5945  149.5441 LP  0  0  0  0  0  0  0  0  0  0  0  0  # atno 17370 bound_to 10713
  155.9972  130.5044  150.7527 LP  0  0  0  0  0  0  0  0  0  0  0  0  # atno 17371 bound_to 10713
  140.5017  134.6479  157.5251 LP  0  0  0  0  0  0  0  0  0  0  0  0  # atno 17394 bound_to 11000
  139.9864  134.7054  155.9766 LP  0  0  0  0  0  0  0  0  0  0  0  0  # atno 17395 bound_to 11000

$$$$
