AV-unprocessed.smi:21|AV-procd|sdf|128|dock4
  -GOLD-   2262015313D 1   1.00000     0.00000
 Structure written by MMmdl.
 62 65  0  0  0  0  0  0  0  0  2 V2000
  145.8095  130.6242  151.3136 C   0  0  0  0  0  0  0  0  0  0  0  0
  145.4685  131.9996  151.2431 O   0  0  0  0  0  0  0  0  0  0  0  0
  146.5176  132.8662  151.6481 C   0  0  2  0  0  0  0  0  0  0  0  0
  147.1897  132.4312  152.9454 C   0  0  0  0  0  0  0  0  0  0  0  0
  147.8109  133.7258  153.4930 C   0  0  2  0  0  0  0  0  0  0  0  0
  148.0229  133.7260  155.0304 C   0  0  0  0  0  0  0  0  0  0  0  0
  149.2935  134.3226  155.4477 N   0  0  0  0  0  0  0  0  0  0  0  0
  150.5076  133.5408  155.2295 C   0  0  0  0  0  0  0  0  0  0  0  0
  149.2827  135.2141  156.4764 C   0  0  0  0  0  0  0  0  0  0  0  0
  148.1076  135.4724  157.1114 N   0  0  0  0  0  0  0  0  0  0  0  0
  148.0458  136.3823  158.0869 C   0  0  0  0  0  0  0  0  0  0  0  0
  149.0232  137.1450  158.5764 N   0  0  0  0  0  0  0  0  0  0  0  0
  150.2100  136.8822  157.9603 C   0  0  0  0  0  0  0  0  0  0  0  0
  150.4316  135.9335  156.9208 C   0  0  0  0  0  0  0  0  0  0  0  0
  151.7775  135.9340  156.5702 N   0  0  0  0  0  0  0  0  0  0  0  0
  152.3136  136.8417  157.3383 C   0  0  0  0  0  0  0  0  0  0  0  0
  151.4361  137.4841  158.1811 N   0  0  0  0  0  0  0  0  0  0  0  0
  151.7552  138.5419  159.1225 C   0  0  0  0  0  0  0  0  0  0  0  0
  151.9163  139.9525  158.4877 C   0  0  1  0  0  0  0  0  0  0  0  0
  150.7728  140.1810  157.4689 C   0  0  0  0  0  0  0  0  0  0  0  0
  149.5140  140.2414  158.1079 O   0  0  0  0  0  0  0  0  0  0  0  0
  151.9808  141.1003  159.5418 C   0  0  2  0  0  0  0  0  0  0  0  0
  152.2190  142.4901  158.9685 C   0  0  0  0  0  0  0  0  0  0  0  0
  152.6810  143.2745  160.1877 C   0  0  0  0  0  0  0  0  0  0  0  0
  153.4765  142.3577  160.9214 O   0  0  0  0  0  0  0  0  0  0  0  0
  153.1416  141.0245  160.5499 C   0  0  0  0  0  0  0  0  0  0  0  0
  146.9589  134.8305  152.9572 N   0  3  2  0  0  0  0  0  0  0  0  0
  146.3531  135.7726  153.9277 C   0  0  0  0  0  0  0  0  0  0  0  0
  145.9679  134.2370  152.0307 C   0  0  0  0  0  0  0  0  0  0  0  0
  147.2589  132.9820  150.8551 H   0  0  0  0  0  0  0  0  0  0  0  0
  148.7810  133.8603  153.0126 H   0  0  0  0  0  0  0  0  0  0  0  0
  144.9753  130.0242  150.9502 H   0  0  0  0  0  0  0  0  0  0  0  0
  146.0181  130.3144  152.3382 H   0  0  0  0  0  0  0  0  0  0  0  0
  146.6792  130.3998  150.6951 H   0  0  0  0  0  0  0  0  0  0  0  0
  146.4342  132.0558  153.6374 H   0  0  0  0  0  0  0  0  0  0  0  0
  147.9266  131.6427  152.7909 H   0  0  0  0  0  0  0  0  0  0  0  0
  147.2386  134.3161  155.5044 H   0  0  0  0  0  0  0  0  0  0  0  0
  147.9080  132.7206  155.4275 H   0  0  0  0  0  0  0  0  0  0  0  0
  151.3858  134.1872  155.2013 H   0  0  0  0  0  0  0  0  0  0  0  0
  150.4572  133.0099  154.2787 H   0  0  0  0  0  0  0  0  0  0  0  0
  150.6441  132.8038  156.0217 H   0  0  0  0  0  0  0  0  0  0  0  0
  147.0727  136.5259  158.5330 H   0  0  0  0  0  0  0  0  0  0  0  0
  153.3658  137.0834  157.2957 H   0  0  0  0  0  0  0  0  0  0  0  0
  150.9620  138.5463  159.8707 H   0  0  0  0  0  0  0  0  0  0  0  0
  152.6692  138.2689  159.6514 H   0  0  0  0  0  0  0  0  0  0  0  0
  152.8496  139.9736  157.9238 H   0  0  0  0  0  0  0  0  0  0  0  0
  150.9351  141.0992  156.9037 H   0  0  0  0  0  0  0  0  0  0  0  0
  150.7103  139.3672  156.7480 H   0  0  0  0  0  0  0  0  0  0  0  0
  149.6519  140.2978  159.0412 H   0  0  0  0  0  0  0  0  0  0  0  0
  151.0413  141.1266  160.0965 H   0  0  0  0  0  0  0  0  0  0  0  0
  153.0119  142.4652  158.2195 H   0  0  0  0  0  0  0  0  0  0  0  0
  151.3297  142.9289  158.5153 H   0  0  0  0  0  0  0  0  0  0  0  0
  153.2415  144.1718  159.9252 H   0  0  0  0  0  0  0  0  0  0  0  0
  151.8270  143.5702  160.7984 H   0  0  0  0  0  0  0  0  0  0  0  0
  152.8811  140.4549  161.4403 H   0  0  0  0  0  0  0  0  0  0  0  0
  154.0260  140.5694  160.1029 H   0  0  0  0  0  0  0  0  0  0  0  0
  145.6882  135.2592  154.6235 H   0  0  0  0  0  0  0  0  0  0  0  0
  145.7667  136.5251  153.3994 H   0  0  0  0  0  0  0  0  0  0  0  0
  147.1183  136.3025  154.4946 H   0  0  0  0  0  0  0  0  0  0  0  0
  145.7934  134.8751  151.1640 H   0  0  0  0  0  0  0  0  0  0  0  0
  145.0151  134.1113  152.5488 H   0  0  0  0  0  0  0  0  0  0  0  0
  147.5783  135.3844  152.3827 H   0  0  0  0  0  0  0  0  0  0  0  0
  1  2  1  0  0  0  0
  1 32  1  0  0  0  0
  1 33  1  0  0  0  0
  1 34  1  0  0  0  0
  2  3  1  0  0  0  0
  3 30  1  0  0  0  0
  3 29  1  0  0  0  0
  3  4  1  0  0  0  0
  4  5  1  0  0  0  0
  4 35  1  0  0  0  0
  4 36  1  0  0  0  0
  5 31  1  0  0  0  0
  5  6  1  0  0  0  0
  5 27  1  0  0  0  0
  6  7  1  0  0  0  0
  6 37  1  0  0  0  0
  6 38  1  0  0  0  0
  7  8  1  0  0  0  0
  7  9  1  0  0  0  0
  8 39  1  0  0  0  0
  8 40  1  0  0  0  0
  8 41  1  0  0  0  0
  9 14  1  0  0  0  0
  9 10  2  0  0  0  0
 10 11  1  0  0  0  0
 11 12  2  0  0  0  0
 11 42  1  0  0  0  0
 12 13  1  0  0  0  0
 13 17  1  0  0  0  0
 13 14  2  0  0  0  0
 14 15  1  0  0  0  0
 15 16  2  0  0  0  0
 16 17  1  0  0  0  0
 16 43  1  0  0  0  0
 17 18  1  0  0  0  0
 18 19  1  0  0  0  0
 18 44  1  0  0  0  0
 18 45  1  0  0  0  0
 19 20  1  0  0  0  0
 19 22  1  0  0  0  0
 19 46  1  0  0  0  0
 20 21  1  0  0  0  0
 20 47  1  0  0  0  0
 20 48  1  0  0  0  0
 21 49  1  0  0  0  0
 22 26  1  0  0  0  0
 22 23  1  0  0  0  0
 22 50  1  0  0  0  0
 23 24  1  0  0  0  0
 23 51  1  0  0  0  0
 23 52  1  0  0  0  0
 24 25  1  0  0  0  0
 24 53  1  0  0  0  0
 24 54  1  0  0  0  0
 25 26  1  0  0  0  0
 26 55  1  0  0  0  0
 26 56  1  0  0  0  0
 27 28  1  0  0  0  0
 27 29  1  0  0  0  0
 27 62  1  0  0  0  0
 28 57  1  0  0  0  0
 28 58  1  0  0  0  0
 28 59  1  0  0  0  0
 29 60  1  0  0  0  0
 29 61  1  0  0  0  0
M  CHG  1  27   1
M  END
> <s_m_source_file>
AV-unprocessed.smi

> <i_m_source_file_index>
21

> <i_lp_mmshare_version>
43012

> <i_f3d_flags>
0

> <s_epik_input>
W0NIM11PW0NASF0xW0NIMl1bQ0BIXShOKFtDSDNdKVtDSDJdMSlbQ0gyXU4oW0NIM10pYyhuW2NIXW4yKWMoYzIzKW5bY0hdbjNbQ0gyXVtDQEhdKFtDSDJdW09IXSlbQ0BASF00W0NIMl1bQ0gyXU9bQ0gyXTQ=

> <s_epik_cmdline>
J2VwaWtfcHl0aG9uJywgJy1waCcsICc3LjAnLCAnLXRuJywgJzgnLCAnLW1hJywgJzIwMCcsICctbWV0YWxfYmluZGluZycsICctaW1hZScsICc8aW5maWxlLm1hZT4nLCAnLW9tYWUnLCAnPG91dGZpbGUubWFlPic=

> <r_lp_tautomer_probability>
1

> <r_epik_Ionization_Penalty>
0.0157465

> <r_epik_Ionization_Penalty_Charging>
0.015354

> <r_epik_Ionization_Penalty_Neutral>
0.000392529

> <r_epik_State_Penalty>
0.0120612

> <r_epik_Charging_Adjusted_Penalty>
0.0274152

> <i_epik_Tot_Q>
1

> <i_epik_Tot_abs_Q>
1

> <r_epik_Metal_State_Penalty>
0.0121253

> <b_epik_Metal_Only>
0

> <s_lp_Force_Field>
OPLS_2005

> <r_lp_Energy>
60.6524

> <b_lp_Chiralities_Consistent>
1

> <s_lp_Variant>
AV-unprocessed.smi:21-8

> <Gold.Version>
5.8.1

> <Gold.Id.Protein>
6NUR|6NUR_protein|mol2

> <Gold.PLP.Fitness>
46.3418

> <Gold.PLP.PLP>
-39.4778

> <Gold.PLP.part.hbond>
-2.0000

> <Gold.PLP.part.metal>
0.0000

> <Gold.PLP.part.buried>
-5.8072

> <Gold.PLP.part.nonpolar>
-30.3369

> <Gold.PLP.part.repulsive>
0.1150

> <Gold.PLP.ligand.clash>
0.0000

> <Gold.PLP.ligand.torsion>
1.4320

> <Gold.PLP.Chemscore.Hbond>
3.0000

> <Gold.PLP.Chemscore.CHOScore>
0.0000

> <Gold.PLP.Chemscore.Metal>
0.0000

> <Gold.Chemscore.Hbonds>
donor molecule, donor type, donor heavy atom, donor atom, acceptor molecule, acceptor atom, score
      L1  H    27    62       P1  7948  2.00
      P1  H 10752 10765       L1    15  0.83

> <Gold.PLP.Chemscore.Internal.Correction>
0.7281

> <Gold.Rescore>
     Score         DG    S(hbond)    S(metal)    S(lipo)     H(rot)  DE(clash)    DE(int)     intcor
     13.36     -15.79       1.87        0.00     102.09       3.08       0.09       2.34       ----

> <Gold.Chemscore.Fitness>
13.3606

> <Gold.Chemscore.DG>
-15.7894

> <Gold.Chemscore.ZeroCoef>
-5.4800

> <Gold.Chemscore.Hbond>
1.8681

> <Gold.Chemscore.Metal>
0.0000

> <Gold.Chemscore.Lipo>
102.0861

> <Gold.Chemscore.Internal_Hbond>
0.0000

> <Gold.Chemscore.DEClash>
0.0897

> <Gold.Chemscore.DEInternal>
2.3391

> <Gold.Chemscore.Rot>
3.0758

> <Gold.Chemscore.Internal.Correction>
   9.000000E+99

> <Gold.Chemscore.Hbonds>
donor molecule, donor type, donor heavy atom, donor atom, acceptor molecule, acceptor atom, score
      L1  H    27    62       P1  7948  1.00
      P1  H 10752 10765       L1    15  0.58

> <Gold.Chemscore.Hbond.Weighted>
-6.2394

> <Gold.Chemscore.Metal.Weighted>
-0.0000

> <Gold.Chemscore.Lipo.Weighted>
-11.9441

> <Gold.Chemscore.Internal_Hbond.Weighted>
0.0000

> <Gold.Chemscore.DEClash.Weighted>
0.0897

> <Gold.Chemscore.DEInternal.Weighted>
2.3391

> <Gold.Chemscore.Rot.Weighted>
7.8741

> <Gold.Chemscore.Internal.Correction.Weighted>
   9.000000E+99

> <Gold.Protein.RotatedTorsions>
[ 6907 6896 6895 6894 ] final   77.89 input  -60.11 | X-H torsion
[ 7974 7965 7964 7962 ] final  -32.89 input  175.53 | X-H torsion
[ 8008 7997 7996 7995 ] final  -89.76 input   59.86 | X-H torsion
[ 10167 10162 10161 10158 ] final  -61.43 input  -65.29 | X-H torsion
[ 10718 10713 10712 10709 ] final  -97.29 input   66.30 | X-H torsion
[ 10763 10752 10751 10750 ] final -153.94 input  -60.55 | X-H torsion
[ 11005 11000 10999 10996 ] final -150.60 input  -57.11 | X-H torsion

> <Gold.Protein.ActiveResidues>
 VAL166  LYS551  ARG553  GLY616  TRP617  ASP618  TYR619  PRO620  LYS621  CYS622 
 ASP623  PHE694  ASN695  SER759  ASP760  ASP761  ALA762  ILE779  LEU786  VAL792 
 PHE793  MET794  SER795  GLU796  ALA797  LYS798  CYS799  TRP800  GLU811  SER814 

> <Gold.Protein.RotatedAtoms>
  152.5137  134.3748  159.9330 H   0  0  0  0  0  0  0  0  0  0  0  0  # atno 6907 bound_to 6896
  151.3703  133.3851  159.2706 H   0  0  0  0  0  0  0  0  0  0  0  0  # atno 6908 bound_to 6896
  150.9583  134.8994  159.7773 H   0  0  0  0  0  0  0  0  0  0  0  0  # atno 6909 bound_to 6896
  146.0954  140.5849  142.8845 H   0  0  0  0  0  0  0  0  0  0  0  0  # atno 7974 bound_to 7965
  154.6905  140.0538  157.0358 H   0  0  0  0  0  0  0  0  0  0  0  0  # atno 8008 bound_to 7997
  155.0824  140.3211  155.4579 H   0  0  0  0  0  0  0  0  0  0  0  0  # atno 8009 bound_to 7997
  156.2726  140.2062  156.5951 H   0  0  0  0  0  0  0  0  0  0  0  0  # atno 8010 bound_to 7997
  140.6006  143.2361  151.5936 H   0  0  0  0  0  0  0  0  0  0  0  0  # atno 10167 bound_to 10162
  156.0080  130.5188  150.6353 H   0  0  0  0  0  0  0  0  0  0  0  0  # atno 10718 bound_to 10713
  154.7893  135.3201  154.7814 H   0  0  0  0  0  0  0  0  0  0  0  0  # atno 10763 bound_to 10752
  153.8507  135.6862  153.4797 H   0  0  0  0  0  0  0  0  0  0  0  0  # atno 10764 bound_to 10752
  153.1556  135.4681  154.9640 H   0  0  0  0  0  0  0  0  0  0  0  0  # atno 10765 bound_to 10752
  140.7384  134.3542  157.5152 H   0  0  0  0  0  0  0  0  0  0  0  0  # atno 11005 bound_to 11000
  144.7391  140.4893  143.6882 LP  0  0  0  0  0  0  0  0  0  0  0  0  # atno 17320 bound_to 7965
  145.5958  139.1499  143.3156 LP  0  0  0  0  0  0  0  0  0  0  0  0  # atno 17321 bound_to 7965
  139.5289  144.2976  152.1100 LP  0  0  0  0  0  0  0  0  0  0  0  0  # atno 17342 bound_to 10162
  140.2157  144.4518  150.6365 LP  0  0  0  0  0  0  0  0  0  0  0  0  # atno 17343 bound_to 10162
  157.4143  131.0828  151.1191 LP  0  0  0  0  0  0  0  0  0  0  0  0  # atno 17370 bound_to 10713
  157.1813  130.6311  149.5673 LP  0  0  0  0  0  0  0  0  0  0  0  0  # atno 17371 bound_to 10713
  139.8811  134.9065  156.2923 LP  0  0  0  0  0  0  0  0  0  0  0  0  # atno 17394 bound_to 11000
  140.9858  133.7239  156.0740 LP  0  0  0  0  0  0  0  0  0  0  0  0  # atno 17395 bound_to 11000

$$$$
