#       Name:                AV-unprocessed.smi:3151
#       Creating user name   scv26
#       Creation time:       Fri Mar 27 17:42:36 2020


#       File generated by GOLD software.
#

@<TRIPOS>MOLECULE
AV-unprocessed.smi:3151
    38    39     1
SMALL
NO_CHARGES


@<TRIPOS>ATOM
      1 ****        -0.0124   1.2471   0.3093 O.2            1 S1                 0.0000
      2 ****        -0.5054   0.2571  -0.2320 C.2            1 S1                 0.0000
      3 ****        -2.0258   0.0686  -0.2667 C.3            1 S1                 0.0000
      4 ****        -2.7144   0.3938   1.0755 C.3            1 S1                 0.0000
      5 ****        -2.2965  -0.5045   2.2480 C.3            1 S1                 0.0000
      6 ****        -3.4554  -0.4462   3.2532 C.3            1 S1                 0.0000
      7 ****        -4.6487   0.1672   2.5064 C.3            1 S1                 0.0000
      8 ****        -4.2347   0.2290   1.0349 C.3            1 S1                 0.0000
      9 ****         0.2298  -0.7000  -0.8191 N.am           1 S1                 0.0000
     10 ****         1.6864  -0.7106  -0.8781 C.3            1 S1                 0.0000
     11 ****         2.2134   0.2048  -1.9953 C.3            1 S1                 0.0000
     12 ****         3.6761   0.2514  -2.0093 N.pl3          1 S1                 0.0000
     13 ****         4.5302  -0.5731  -2.6954 C.2            1 S1                 0.0000
     14 ****         5.8011  -0.1527  -2.3977 C.2            1 S1                 0.0000
     15 ****         5.6684   0.9084  -1.5424 N.pl3          1 S1                 1.0000
     16 ****         4.3751   1.1520  -1.3068 C.2            1 S1                 0.0000
     17 ****        -2.4255   0.7160  -1.0479 H              1 S1                 0.0000
     18 ****        -2.2622  -0.9544  -0.5641 H              1 S1                 0.0000
     19 ****        -2.5037   1.4301   1.3467 H              1 S1                 0.0000
     20 ****        -2.1721  -1.5318   1.9021 H              1 S1                 0.0000
     21 ****        -1.3506  -0.1932   2.6925 H              1 S1                 0.0000
     22 ****        -3.6900  -1.4442   3.6253 H              1 S1                 0.0000
     23 ****        -3.1936   0.1688   4.1150 H              1 S1                 0.0000
     24 ****        -5.5669  -0.4028   2.6506 H              1 S1                 0.0000
     25 ****        -4.8291   1.1773   2.8770 H              1 S1                 0.0000
     26 ****        -4.7308   1.0375   0.4968 H              1 S1                 0.0000
     27 ****        -4.4971  -0.7086   0.5422 H              1 S1                 0.0000
     28 ****        -0.2537  -1.4787  -1.2433 H              1 S1                 0.0000
     29 ****         2.0978  -0.4131   0.0882 H              1 S1                 0.0000
     30 ****         2.0142  -1.7362  -1.0510 H              1 S1                 0.0000
     31 ****         1.8778  -0.1450  -2.9726 H              1 S1                 0.0000
     32 ****         1.8452   1.2251  -1.8757 H              1 S1                 0.0000
     33 ****         4.1797  -1.3764  -3.3271 H              1 S1                 0.0000
     34 ****         6.7645  -0.5199  -2.7212 H              1 S1                 0.0000
     35 ****         3.9742   1.9232  -0.6729 H              1 S1                 0.0000
     36 ****         6.4362   1.4340  -1.1437 H              1 S1                 0.0000
     37 ****        -0.6050   1.9342   0.7297 LP             1 S1                 0.0000
     38 ****         0.9805   1.3640   0.3284 LP             1 S1                 0.0000
@<TRIPOS>BOND
    1    1    2 2     
    2    2    3 1     
    3    2    9 am    
    4    3    4 1     
    5    3   17 1     
    6    3   18 1     
    7    4    8 1     
    8    4    5 1     
    9    4   19 1     
   10    5    6 1     
   11    5   20 1     
   12    5   21 1     
   13    6    7 1     
   14    6   22 1     
   15    6   23 1     
   16    7    8 1     
   17    7   24 1     
   18    7   25 1     
   19    8   26 1     
   20    8   27 1     
   21    9   10 1     
   22    9   28 1     
   23   10   11 1     
   24   10   29 1     
   25   10   30 1     
   26   11   12 1     
   27   11   31 1     
   28   11   32 1     
   29   12   16 1     
   30   12   13 1     
   31   13   14 2     
   32   13   33 1     
   33   14   15 1     
   34   14   34 1     
   35   15   16 2     
   36   15   36 1     
   37   16   35 1     
   38    1   37 1     
   39    1   38 1     
@<TRIPOS>SUBSTRUCTURE
      1 S1             1
@<TRIPOS>SET
LONE_PAIRS      STATIC     ATOMS    <user>   **** ""
2 37 38
DONOR_HYDROGENS      STATIC     ATOMS    <user>   **** ""
2 28 36
ATOM$BLUE        STATIC     ATOMS    COLORGROUP SYSTEM
2 37 38
ATOM$RED        STATIC     ATOMS    COLORGROUP SYSTEM
2 28 36
