#       Name:                AV-unprocessed.smi:2520
#       Creating user name   scv26
#       Creation time:       Fri Mar 27 13:54:44 2020


#       File generated by GOLD software.
#

@<TRIPOS>MOLECULE
AV-unprocessed.smi:2520
    47    50     1
SMALL
NO_CHARGES


@<TRIPOS>ATOM
      1 ****        -2.3044  -1.9072   1.0657 O.2            1 S1                 0.0000
      2 ****        -1.0805  -1.8078   1.0012 C.2            1 S1                 0.0000
      3 ****        -0.2869  -2.8992   1.0527 N.am           1 S1                 0.0000
      4 ****        -0.5974  -4.2856   1.1814 C.ar           1 S1                 0.0000
      5 ****         0.5229  -5.1444   1.1875 C.ar           1 S1                 0.0000
      6 ****         0.3071  -6.5271   1.3151 C.ar           1 S1                 0.0000
      7 ****        -1.0238  -6.9630   1.4290 C.ar           1 S1                 0.0000
      8 ****        -2.0687  -6.1077   1.4186 N.ar           1 S1                 0.0000
      9 ****        -1.8535  -4.7938   1.2979 N.ar           1 S1                 0.0000
     10 ****        -0.4552  -0.6283   0.8744 N.am           1 S1                 0.0000
     11 ****        -1.1089   0.6807   0.7831 C.3            1 S1                 0.0000
     12 ****        -0.1461   1.8379   1.0531 C.3            1 S1                 0.0000
     13 ****         1.1693   1.9807   1.7294 C.3            1 S1                 0.0000
     14 ****         1.8248   2.9245   0.6870 C.3            1 S1                 0.0000
     15 ****         0.9213   2.9546  -0.4470 O.3            1 S1                 0.0000
     16 ****         0.2651   1.7021  -0.3993 C.3            1 S1                 0.0000
     17 ****        -1.1998   1.2853  -0.6729 C.3            1 S1                 0.0000
     18 ****        -1.4406   0.3225  -1.8408 C.3            1 S1                 0.0000
     19 ****        -2.1120   1.1175  -2.9554 C.3            1 S1                 0.0000
     20 ****        -2.9861   2.1131  -2.2067 C.3            1 S1                 0.0000
     21 ****        -2.2096   2.4243  -0.9248 C.3            1 S1                 0.0000
     22 ****         0.7013  -2.6969   1.0121 H              1 S1                 0.0000
     23 ****         1.5268  -4.7552   1.0973 H              1 S1                 0.0000
     24 ****         1.1298  -7.2265   1.3257 H              1 S1                 0.0000
     25 ****        -1.2556  -8.0130   1.5302 H              1 S1                 0.0000
     26 ****         0.5539  -0.6354   0.8288 H              1 S1                 0.0000
     27 ****        -2.0380   0.7573   1.3501 H              1 S1                 0.0000
     28 ****        -0.7399   2.7402   1.2325 H              1 S1                 0.0000
     29 ****         1.0919   2.4336   2.7180 H              1 S1                 0.0000
     30 ****         1.6986   1.0300   1.8092 H              1 S1                 0.0000
     31 ****         1.9564   3.9342   1.0769 H              1 S1                 0.0000
     32 ****         2.8025   2.5476   0.3842 H              1 S1                 0.0000
     33 ****         0.9768   0.8934  -0.5956 H              1 S1                 0.0000
     34 ****        -0.5216  -0.1490  -2.1905 H              1 S1                 0.0000
     35 ****        -2.1089  -0.4812  -1.5297 H              1 S1                 0.0000
     36 ****        -1.3564   1.6512  -3.5333 H              1 S1                 0.0000
     37 ****        -2.6797   0.4882  -3.6414 H              1 S1                 0.0000
     38 ****        -3.2046   3.0053  -2.7945 H              1 S1                 0.0000
     39 ****        -3.9367   1.6423  -1.9522 H              1 S1                 0.0000
     40 ****        -2.8961   2.5560  -0.0878 H              1 S1                 0.0000
     41 ****        -1.6863   3.3734  -1.0481 H              1 S1                 0.0000
     42 ****        -2.7288  -2.8080   1.1580 LP             1 S1                 0.0000
     43 ****        -2.8755  -1.0873   1.0259 LP             1 S1                 0.0000
     44 ****        -3.0022  -6.4566   1.5012 LP             1 S1                 0.0000
     45 ****        -2.6348  -4.1697   1.2931 LP             1 S1                 0.0000
     46 ****         1.4288   3.0570  -1.3025 LP             1 S1                 0.0000
     47 ****         0.2642   3.7031  -0.3575 LP             1 S1                 0.0000
@<TRIPOS>BOND
    1    1    2 2     
    2    2    3 am    
    3    2   10 am    
    4    3    4 1     
    5    3   22 1     
    6    4    9 ar    
    7    4    5 ar    
    8    5    6 ar    
    9    5   23 1     
   10    6    7 ar    
   11    6   24 1     
   12    7    8 ar    
   13    7   25 1     
   14    8    9 ar    
   15   10   11 1     
   16   10   26 1     
   17   11   17 1     
   18   11   12 1     
   19   11   27 1     
   20   12   16 1     
   21   12   13 1     
   22   12   28 1     
   23   13   14 1     
   24   13   29 1     
   25   13   30 1     
   26   14   15 1     
   27   14   31 1     
   28   14   32 1     
   29   15   16 1     
   30   16   17 1     
   31   16   33 1     
   32   17   21 1     
   33   17   18 1     
   34   18   19 1     
   35   18   34 1     
   36   18   35 1     
   37   19   20 1     
   38   19   36 1     
   39   19   37 1     
   40   20   21 1     
   41   20   38 1     
   42   20   39 1     
   43   21   40 1     
   44   21   41 1     
   45    1   42 1     
   46    1   43 1     
   47    8   44 1     
   48    9   45 1     
   49   15   46 1     
   50   15   47 1     
@<TRIPOS>SUBSTRUCTURE
      1 S1             1
@<TRIPOS>SET
LONE_PAIRS      STATIC     ATOMS    <user>   **** ""
6 42 43 44 45 46 47
DONOR_HYDROGENS      STATIC     ATOMS    <user>   **** ""
2 22 26
ATOM$BLUE        STATIC     ATOMS    COLORGROUP SYSTEM
6 42 43 44 45 46 47
ATOM$RED        STATIC     ATOMS    COLORGROUP SYSTEM
2 22 26
