#       Name:                AV-unprocessed.smi:2442
#       Creating user name   scv26
#       Creation time:       Fri Mar 27 13:25:46 2020


#       File generated by GOLD software.
#

@<TRIPOS>MOLECULE
AV-unprocessed.smi:2442
    51    52     1
SMALL
NO_CHARGES


@<TRIPOS>ATOM
      1 ****        -2.5490   0.8873   2.9502 C.3            1 S1                 0.0000
      2 ****        -2.9179   0.6504   1.6009 O.3            1 S1                 0.0000
      3 ****        -2.7268   1.7656   0.7347 C.3            1 S1                 0.0000
      4 ****        -3.9154   2.7452   0.8373 C.3            1 S1                 0.0000
      5 ****        -5.2215   2.1120   0.3301 C.3            1 S1                 0.0000
      6 ****        -5.0663   1.5936  -1.1077 C.3            1 S1                 0.0000
      7 ****        -3.8887   0.6129  -1.2235 C.3            1 S1                 0.0000
      8 ****        -2.5770   1.2423  -0.7139 C.3            1 S1                 0.0000
      9 ****        -1.4884   0.2732  -0.8143 N.am           1 S1                 0.0000
     10 ****        -0.1827   0.5745  -0.8291 C.2            1 S1                 0.0000
     11 ****         0.2633   1.7213  -0.7874 O.2            1 S1                 0.0000
     12 ****         0.5800  -0.5246  -0.8814 N.am           1 S1                 0.0000
     13 ****         2.0360  -0.5143  -0.8649 C.3            1 S1                 0.0000
     14 ****         2.5843  -1.9461  -0.7921 C.3            1 S1                 0.0000
     15 ****         4.1036  -1.9781  -0.7344 C.ar           1 S1                 0.0000
     16 ****         4.8417  -2.0160  -1.9360 C.ar           1 S1                 0.0000
     17 ****         6.2482  -2.0411  -1.8679 C.ar           1 S1                 0.0000
     18 ****         6.9335  -2.0310  -0.7059 N.ar           1 S1                 0.0000
     19 ****         6.2255  -1.9929   0.4425 C.ar           1 S1                 0.0000
     20 ****         4.8147  -1.9640   0.4913 C.ar           1 S1                 0.0000
     21 ****         4.1085  -1.9188   1.8346 C.3            1 S1                 0.0000
     22 ****        -2.7134  -0.0179   3.5344 H              1 S1                 0.0000
     23 ****        -3.1399   1.6843   3.4006 H              1 S1                 0.0000
     24 ****        -1.4925   1.1467   3.0289 H              1 S1                 0.0000
     25 ****        -1.8096   2.2889   1.0114 H              1 S1                 0.0000
     26 ****        -4.0444   3.0965   1.8603 H              1 S1                 0.0000
     27 ****        -3.6965   3.6334   0.2433 H              1 S1                 0.0000
     28 ****        -5.5099   1.2905   0.9872 H              1 S1                 0.0000
     29 ****        -6.0305   2.8414   0.3765 H              1 S1                 0.0000
     30 ****        -5.9879   1.1073  -1.4286 H              1 S1                 0.0000
     31 ****        -4.9091   2.4346  -1.7844 H              1 S1                 0.0000
     32 ****        -4.1139  -0.2906  -0.6548 H              1 S1                 0.0000
     33 ****        -3.7744   0.3016  -2.2626 H              1 S1                 0.0000
     34 ****        -2.3417   2.0878  -1.3636 H              1 S1                 0.0000
     35 ****        -1.7522  -0.7004  -0.8474 H              1 S1                 0.0000
     36 ****         0.1250  -1.4251  -0.9147 H              1 S1                 0.0000
     37 ****         2.4045  -0.0147  -1.7622 H              1 S1                 0.0000
     38 ****         2.3836   0.0652  -0.0083 H              1 S1                 0.0000
     39 ****         2.1671  -2.4691   0.0686 H              1 S1                 0.0000
     40 ****         2.2559  -2.5093  -1.6669 H              1 S1                 0.0000
     41 ****         4.3427  -2.0238  -2.8938 H              1 S1                 0.0000
     42 ****         6.8389  -2.0698  -2.7716 H              1 S1                 0.0000
     43 ****         6.8075  -1.9847   1.3525 H              1 S1                 0.0000
     44 ****         4.8209  -1.7995   2.6513 H              1 S1                 0.0000
     45 ****         3.5544  -2.8420   2.0051 H              1 S1                 0.0000
     46 ****         3.4111  -1.0824   1.8769 H              1 S1                 0.0000
     47 ****        -3.8860   0.4006   1.5804 LP             1 S1                 0.0000
     48 ****        -2.3697  -0.1114   1.2557 LP             1 S1                 0.0000
     49 ****        -0.3626   2.4997  -0.7390 LP             1 S1                 0.0000
     50 ****         1.2514   1.8743  -0.8020 LP             1 S1                 0.0000
     51 ****         7.9332  -2.0511  -0.6958 LP             1 S1                 0.0000
@<TRIPOS>BOND
    1    1    2 1     
    2    1   22 1     
    3    1   23 1     
    4    1   24 1     
    5    2    3 1     
    6    3    8 1     
    7    3    4 1     
    8    3   25 1     
    9    4    5 1     
   10    4   26 1     
   11    4   27 1     
   12    5    6 1     
   13    5   28 1     
   14    5   29 1     
   15    6    7 1     
   16    6   30 1     
   17    6   31 1     
   18    7    8 1     
   19    7   32 1     
   20    7   33 1     
   21    8    9 1     
   22    8   34 1     
   23    9   10 am    
   24    9   35 1     
   25   10   11 2     
   26   10   12 am    
   27   12   13 1     
   28   12   36 1     
   29   13   14 1     
   30   13   37 1     
   31   13   38 1     
   32   14   15 1     
   33   14   39 1     
   34   14   40 1     
   35   15   20 ar    
   36   15   16 ar    
   37   16   17 ar    
   38   16   41 1     
   39   17   18 ar    
   40   17   42 1     
   41   18   19 ar    
   42   19   20 ar    
   43   19   43 1     
   44   20   21 1     
   45   21   44 1     
   46   21   45 1     
   47   21   46 1     
   48    2   47 1     
   49    2   48 1     
   50   11   49 1     
   51   11   50 1     
   52   18   51 1     
@<TRIPOS>SUBSTRUCTURE
      1 S1             1
@<TRIPOS>SET
LONE_PAIRS      STATIC     ATOMS    <user>   **** ""
5 47 48 49 50 51
DONOR_HYDROGENS      STATIC     ATOMS    <user>   **** ""
2 35 36
ATOM$BLUE        STATIC     ATOMS    COLORGROUP SYSTEM
5 47 48 49 50 51
ATOM$RED        STATIC     ATOMS    COLORGROUP SYSTEM
2 35 36
