AV-unprocessed.smi:199|AV-procd|sdf|1572|dock2
  -GOLD-   2262019453D 1   1.00000     0.00000
 Structure written by MMmdl.
 51 55  0  0  0  0  0  0  0  0  1 V2000
  146.3190  131.6219  157.5825 C   0  0  0  0  0  0  0  0  0  0  0  0
  147.6543  131.7682  158.3290 C   0  0  2  0  0  0  0  0  0  0  0  0
  147.5282  131.1014  159.5821 O   0  0  0  0  0  0  0  0  0  0  0  0
  148.3816  131.7319  160.5199 C   0  0  0  0  0  0  0  0  0  0  0  0
  148.1893  133.2047  160.1928 C   0  0  0  0  0  0  0  0  0  0  0  0
  148.1168  133.2145  158.6674 C   0  0  1  0  0  0  0  0  0  0  0  0
  149.4361  133.3692  158.1726 O   0  0  0  0  0  0  0  0  0  0  0  0
  147.2517  134.3687  158.0955 C   0  0  0  0  0  0  0  0  0  0  0  0
  147.8640  135.6808  158.2442 N   0  0  0  0  0  0  0  0  0  0  0  0
  147.9702  136.4114  159.4055 C   0  0  0  0  0  0  0  0  0  0  0  0
  148.5692  137.5637  159.2842 N   0  0  0  0  0  0  0  0  0  0  0  0
  148.8883  137.6450  157.9338 C   0  0  0  0  0  0  0  0  0  0  0  0
  149.5388  138.6173  157.1205 C   0  0  0  0  0  0  0  0  0  0  0  0
  150.0180  139.7962  157.5997 N   0  0  0  0  0  0  0  0  0  0  0  0
  151.3805  140.2323  157.3384 C   0  0  2  0  0  0  0  0  0  0  0  0
  151.5097  141.4533  158.2659 C   0  0  0  0  0  0  0  0  0  0  0  0
  150.0857  142.0323  158.2028 C   0  0  0  0  0  0  0  0  0  0  0  0
  149.4070  141.0615  157.2194 C   0  0  1  0  0  0  0  0  0  0  0  0
  149.9409  141.3560  155.7945 C   0  0  2  0  0  0  0  0  0  0  0  0
  149.0552  140.8017  154.6620 C   0  0  0  0  0  0  0  0  0  0  0  0
  149.7373  140.8817  153.4287 O   0  0  0  0  0  0  0  0  0  0  0  0
  151.3409  140.7129  155.8733 C   0  0  0  0  0  0  0  0  0  0  0  0
  149.6985  138.3206  155.8034 N   0  0  0  0  0  0  0  0  0  0  0  0
  149.2320  137.1721  155.3058 C   0  0  0  0  0  0  0  0  0  0  0  0
  148.5956  136.1863  155.9399 N   0  0  0  0  0  0  0  0  0  0  0  0
  148.4503  136.4654  157.2663 C   0  0  0  0  0  0  0  0  0  0  0  0
  146.3514  132.1101  156.6085 H   0  0  0  0  0  0  0  0  0  0  0  0
  145.4921  132.0468  158.1515 H   0  0  0  0  0  0  0  0  0  0  0  0
  146.0887  130.5702  157.4118 H   0  0  0  0  0  0  0  0  0  0  0  0
  148.4252  131.2471  157.7574 H   0  0  0  0  0  0  0  0  0  0  0  0
  148.1059  131.4867  161.5457 H   0  0  0  0  0  0  0  0  0  0  0  0
  149.4137  131.4205  160.3519 H   0  0  0  0  0  0  0  0  0  0  0  0
  147.2393  133.5340  160.6157 H   0  0  0  0  0  0  0  0  0  0  0  0
  148.9740  133.8421  160.6029 H   0  0  0  0  0  0  0  0  0  0  0  0
  149.4176  133.9832  157.4544 H   0  0  0  0  0  0  0  0  0  0  0  0
  147.0437  134.2045  157.0374 H   0  0  0  0  0  0  0  0  0  0  0  0
  146.2850  134.4040  158.5981 H   0  0  0  0  0  0  0  0  0  0  0  0
  147.5933  136.0582  160.3542 H   0  0  0  0  0  0  0  0  0  0  0  0
  152.1469  139.4800  157.5282 H   0  0  0  0  0  0  0  0  0  0  0  0
  151.7538  141.1472  159.2840 H   0  0  0  0  0  0  0  0  0  0  0  0
  152.2709  142.1579  157.9298 H   0  0  0  0  0  0  0  0  0  0  0  0
  149.6101  141.9832  159.1833 H   0  0  0  0  0  0  0  0  0  0  0  0
  150.0600  143.0698  157.8682 H   0  0  0  0  0  0  0  0  0  0  0  0
  148.3217  141.1055  157.2924 H   0  0  0  0  0  0  0  0  0  0  0  0
  150.0262  142.4350  155.6553 H   0  0  0  0  0  0  0  0  0  0  0  0
  148.7713  139.7649  154.8393 H   0  0  0  0  0  0  0  0  0  0  0  0
  148.1334  141.3788  154.5853 H   0  0  0  0  0  0  0  0  0  0  0  0
  149.3497  140.2625  152.8292 H   0  0  0  0  0  0  0  0  0  0  0  0
  152.1411  141.4162  155.6405 H   0  0  0  0  0  0  0  0  0  0  0  0
  151.4323  139.8704  155.1865 H   0  0  0  0  0  0  0  0  0  0  0  0
  149.3924  137.0216  154.2485 H   0  0  0  0  0  0  0  0  0  0  0  0
  1  2  1  0  0  0  0
  1 27  1  0  0  0  0
  1 28  1  0  0  0  0
  1 29  1  0  0  0  0
  2  6  1  0  0  0  0
  2  3  1  0  0  0  0
  2 30  1  0  0  0  0
  3  4  1  0  0  0  0
  4  5  1  0  0  0  0
  4 31  1  0  0  0  0
  4 32  1  0  0  0  0
  5  6  1  0  0  0  0
  5 33  1  0  0  0  0
  5 34  1  0  0  0  0
  6  7  1  0  0  0  0
  6  8  1  0  0  0  0
  7 35  1  0  0  0  0
  8  9  1  0  0  0  0
  8 36  1  0  0  0  0
  8 37  1  0  0  0  0
  9 26  1  0  0  0  0
  9 10  1  0  0  0  0
 10 11  2  0  0  0  0
 10 38  1  0  0  0  0
 11 12  1  0  0  0  0
 12 26  2  0  0  0  0
 12 13  1  0  0  0  0
 13 14  1  0  0  0  0
 13 23  2  0  0  0  0
 14 18  1  0  0  0  0
 14 15  1  0  0  0  0
 15 22  1  0  0  0  0
 15 16  1  0  0  0  0
 15 39  1  0  0  0  0
 16 17  1  0  0  0  0
 16 40  1  0  0  0  0
 16 41  1  0  0  0  0
 17 18  1  0  0  0  0
 17 42  1  0  0  0  0
 17 43  1  0  0  0  0
 18 19  1  0  0  0  0
 18 44  1  0  0  0  0
 19 20  1  0  0  0  0
 19 22  1  0  0  0  0
 19 45  1  0  0  0  0
 20 21  1  0  0  0  0
 20 46  1  0  0  0  0
 20 47  1  0  0  0  0
 21 48  1  0  0  0  0
 22 49  1  0  0  0  0
 22 50  1  0  0  0  0
 23 24  1  0  0  0  0
 24 25  2  0  0  0  0
 24 51  1  0  0  0  0
 25 26  1  0  0  0  0
M  END
> <s_m_source_file>
AV-unprocessed.smi

> <i_m_source_file_index>
199

> <i_lp_mmshare_version>
43012

> <i_f3d_flags>
0

> <s_epik_input>
W0NIMl0xW0NIMl1PW0NAQEhdKFtDSDNdKVtDQEBdMShbT0hdKVtDSDJdbihbY0hdbjIpYyhjMjMpbltjSF1uYzNOKFtDQEBIXTQ1KVtDQEhdKFtDSDJdW0NIMl00KVtDQEhdKFtDSDJdNSlbQ0gyXVtPSF0=

> <s_epik_cmdline>
J2VwaWtfcHl0aG9uJywgJy1waCcsICc3LjAnLCAnLXRuJywgJzgnLCAnLW1hJywgJzIwMCcsICctbWV0YWxfYmluZGluZycsICctaW1hZScsICc8aW5maWxlLm1hZT4nLCAnLW9tYWUnLCAnPG91dGZpbGUubWFlPic=

> <r_lp_tautomer_probability>
1

> <r_epik_Ionization_Penalty>
0.00583903

> <r_epik_Ionization_Penalty_Charging>
0

> <r_epik_Ionization_Penalty_Neutral>
0.00583903

> <r_epik_State_Penalty>
-0

> <r_epik_Charging_Adjusted_Penalty>
0

> <i_epik_Tot_Q>
0

> <i_epik_Tot_abs_Q>
0

> <r_epik_Metal_State_Penalty>
-0

> <b_epik_Metal_Only>
0

> <s_lp_Force_Field>
OPLS_2005

> <r_lp_Energy>
83.4582

> <b_lp_Chiralities_Consistent>
1

> <s_lp_Variant>
AV-unprocessed.smi:199-13

> <Gold.Version>
5.8.1

> <Gold.Id.Protein>
6NUR|6NUR_protein|mol2

> <Gold.PLP.Fitness>
38.8678

> <Gold.PLP.PLP>
-29.0923

> <Gold.PLP.part.hbond>
-5.4253

> <Gold.PLP.part.metal>
0.0000

> <Gold.PLP.part.buried>
-3.8183

> <Gold.PLP.part.nonpolar>
-19.3687

> <Gold.PLP.part.repulsive>
0.0504

> <Gold.PLP.ligand.clash>
0.0000

> <Gold.PLP.ligand.torsion>
0.4567

> <Gold.PLP.Chemscore.Hbond>
2.9584

> <Gold.PLP.Chemscore.CHOScore>
0.6011

> <Gold.PLP.Chemscore.Metal>
0.0000

> <Gold.Chemscore.Hbonds>
donor molecule, donor type, donor heavy atom, donor atom, acceptor molecule, acceptor atom, score
      L1  H    21    48       P1  7957  0.59
      P1  H  6896  6909       L1     7  1.00
      P1  H  7989  7998       L1    21  0.29
      P1  H  8011  8017       L1    21  1.00
      L1  C    24    51       P1  7948  1.00

> <Gold.PLP.Chemscore.Internal.Correction>
0.0105

> <Gold.Rescore>
     Score         DG    S(hbond)    S(metal)    S(lipo)     H(rot)  DE(clash)    DE(int)     intcor
      8.73     -12.84       2.51        0.00      58.54       3.07       0.06       4.06       ----

> <Gold.Chemscore.Fitness>
8.7268

> <Gold.Chemscore.DG>
-12.8416

> <Gold.Chemscore.ZeroCoef>
-5.4800

> <Gold.Chemscore.Hbond>
2.5086

> <Gold.Chemscore.Metal>
0.0000

> <Gold.Chemscore.Lipo>
58.5445

> <Gold.Chemscore.Internal_Hbond>
0.0000

> <Gold.Chemscore.DEClash>
0.0563

> <Gold.Chemscore.DEInternal>
4.0585

> <Gold.Chemscore.Rot>
3.0729

> <Gold.Chemscore.Internal.Correction>
   9.000000E+99

> <Gold.Chemscore.Hbonds>
donor molecule, donor type, donor heavy atom, donor atom, acceptor molecule, acceptor atom, score
      L1  H    21    48       P1  7957  0.60
      P1  H  6896  6909       L1     7  0.68
      P1  H  7989  7998       L1    21  0.24
      P1  H  8011  8017       L1    21  0.25

> <Gold.Chemscore.Hbond.Weighted>
-8.3786

> <Gold.Chemscore.Metal.Weighted>
-0.0000

> <Gold.Chemscore.Lipo.Weighted>
-6.8497

> <Gold.Chemscore.Internal_Hbond.Weighted>
0.0000

> <Gold.Chemscore.DEClash.Weighted>
0.0563

> <Gold.Chemscore.DEInternal.Weighted>
4.0585

> <Gold.Chemscore.Rot.Weighted>
7.8667

> <Gold.Chemscore.Internal.Correction.Weighted>
   9.000000E+99

> <Gold.Protein.RotatedTorsions>
[ 6907 6896 6895 6894 ] final    1.71 input  -60.11 | X-H torsion
[ 7974 7965 7964 7962 ] final  -61.66 input  175.53 | X-H torsion
[ 8008 7997 7996 7995 ] final  114.91 input   59.86 | X-H torsion
[ 10167 10162 10161 10158 ] final   15.32 input  -65.29 | X-H torsion
[ 10718 10713 10712 10709 ] final -146.60 input   66.30 | X-H torsion
[ 10763 10752 10751 10750 ] final  -55.43 input  -60.55 | X-H torsion
[ 11005 11000 10999 10996 ] final   50.68 input  -57.11 | X-H torsion

> <Gold.Protein.ActiveResidues>
 VAL166  LYS551  ARG553  GLY616  TRP617  ASP618  TYR619  PRO620  LYS621  CYS622 
 ASP623  PHE694  ASN695  SER759  ASP760  ASP761  ALA762  ILE779  LEU786  VAL792 
 PHE793  MET794  SER795  GLU796  ALA797  LYS798  CYS799  TRP800  GLU811  SER814 

> <Gold.Protein.RotatedAtoms>
  151.5970  135.1050  160.0051 H   0  0  0  0  0  0  0  0  0  0  0  0  # atno 6907 bound_to 6896
  152.4277  133.7220  159.6549 H   0  0  0  0  0  0  0  0  0  0  0  0  # atno 6908 bound_to 6896
  150.8167  133.8253  159.3179 H   0  0  0  0  0  0  0  0  0  0  0  0  # atno 6909 bound_to 6896
  145.8008  140.8656  143.0232 H   0  0  0  0  0  0  0  0  0  0  0  0  # atno 7974 bound_to 7965
  156.2350  140.2949  156.0288 H   0  0  0  0  0  0  0  0  0  0  0  0  # atno 8008 bound_to 7997
  155.2117  140.0413  157.2951 H   0  0  0  0  0  0  0  0  0  0  0  0  # atno 8009 bound_to 7997
  154.6062  140.2440  155.7735 H   0  0  0  0  0  0  0  0  0  0  0  0  # atno 8010 bound_to 7997
  140.5875  143.8861  150.6843 H   0  0  0  0  0  0  0  0  0  0  0  0  # atno 10167 bound_to 10162
  156.3969  130.7914  151.2121 H   0  0  0  0  0  0  0  0  0  0  0  0  # atno 10718 bound_to 10713
  154.1907  135.6428  153.5059 H   0  0  0  0  0  0  0  0  0  0  0  0  # atno 10763 bound_to 10752
  153.0036  135.5428  154.6418 H   0  0  0  0  0  0  0  0  0  0  0  0  # atno 10764 bound_to 10752
  154.5806  135.2925  155.0709 H   0  0  0  0  0  0  0  0  0  0  0  0  # atno 10765 bound_to 10752
  140.0997  134.5098  155.8774 H   0  0  0  0  0  0  0  0  0  0  0  0  # atno 11005 bound_to 11000
  144.6769  140.0256  143.7483 LP  0  0  0  0  0  0  0  0  0  0  0  0  # atno 17320 bound_to 7965
  145.9880  139.2992  143.1002 LP  0  0  0  0  0  0  0  0  0  0  0  0  # atno 17321 bound_to 7965
  140.2375  143.3688  152.1514 LP  0  0  0  0  0  0  0  0  0  0  0  0  # atno 17342 bound_to 10162
  139.5207  144.7036  151.5421 LP  0  0  0  0  0  0  0  0  0  0  0  0  # atno 17343 bound_to 10162
  157.7502  131.0298  150.4111 LP  0  0  0  0  0  0  0  0  0  0  0  0  # atno 17370 bound_to 10713
  156.4383  130.3986  149.6714 LP  0  0  0  0  0  0  0  0  0  0  0  0  # atno 17371 bound_to 10713
  141.2102  133.6692  156.6493 LP  0  0  0  0  0  0  0  0  0  0  0  0  # atno 17394 bound_to 11000
  140.3237  134.7986  157.4272 LP  0  0  0  0  0  0  0  0  0  0  0  0  # atno 17395 bound_to 11000

$$$$
