AV-unprocessed.smi:3085|AV-procd|sdf|11763|dock2
  -GOLD-   2272017143D 1   1.00000     0.00000
 Structure written by MMmdl.
 26 27  0  0  0  0  0  0  0  0  2 V2000
  152.2873  143.7613  161.0638 C   0  0  0  0  0  0  0  0  0  0  0  0
  153.0234  142.4179  161.0525 C   0  0  0  0  0  0  0  0  0  0  0  0
  152.7818  141.6487  159.7726 C   0  0  0  0  0  0  0  0  0  0  0  0
  152.0000  142.0347  158.7695 N   0  0  0  0  0  0  0  0  0  0  0  0
  152.1209  141.0881  157.8267 C   0  0  0  0  0  0  0  0  0  0  0  0
  151.3803  141.0816  156.5041 C   0  0  1  0  0  0  0  0  0  0  0  0
  151.7334  139.8303  155.6745 C   0  0  0  0  0  0  0  0  0  0  0  0
  151.0084  139.8318  154.4037 N   0  0  0  0  0  0  0  0  0  0  0  0
  149.5684  139.9585  154.6169 C   0  0  0  0  0  0  0  0  0  0  0  0
  149.2636  141.2037  155.4667 C   0  0  0  0  0  0  0  0  0  0  0  0
  149.9679  141.1201  156.7000 O   0  0  0  0  0  0  0  0  0  0  0  0
  152.9533  140.1176  158.2344 N   0  0  0  0  0  0  0  0  0  0  0  0
  153.3620  140.4846  159.4318 N   0  5  0  0  0  0  0  0  0  0  0  0
  152.4742  144.3001  161.9925 H   0  0  0  0  0  0  0  0  0  0  0  0
  151.2104  143.6183  160.9698 H   0  0  0  0  0  0  0  0  0  0  0  0
  152.6147  144.3940  160.2382 H   0  0  0  0  0  0  0  0  0  0  0  0
  154.0953  142.5786  161.1700 H   0  0  0  0  0  0  0  0  0  0  0  0
  152.7014  141.8083  161.8972 H   0  0  0  0  0  0  0  0  0  0  0  0
  151.6833  141.9793  155.9615 H   0  0  0  0  0  0  0  0  0  0  0  0
  152.8072  139.7949  155.4888 H   0  0  0  0  0  0  0  0  0  0  0  0
  151.4853  138.9321  156.2416 H   0  0  0  0  0  0  0  0  0  0  0  0
  151.2037  138.9716  153.9022 H   0  0  0  0  0  0  0  0  0  0  0  0
  149.0517  140.0219  153.6592 H   0  0  0  0  0  0  0  0  0  0  0  0
  149.1886  139.0693  155.1216 H   0  0  0  0  0  0  0  0  0  0  0  0
  149.5356  142.1179  154.9367 H   0  0  0  0  0  0  0  0  0  0  0  0
  148.1952  141.2626  155.6752 H   0  0  0  0  0  0  0  0  0  0  0  0
  1  2  1  0  0  0  0
  1 14  1  0  0  0  0
  1 15  1  0  0  0  0
  1 16  1  0  0  0  0
  2  3  1  0  0  0  0
  2 17  1  0  0  0  0
  2 18  1  0  0  0  0
  3 13  1  0  0  0  0
  3  4  2  0  0  0  0
  4  5  1  0  0  0  0
  5  6  1  0  0  0  0
  5 12  2  0  0  0  0
  6 11  1  0  0  0  0
  6  7  1  0  0  0  0
  6 19  1  0  0  0  0
  7  8  1  0  0  0  0
  7 20  1  0  0  0  0
  7 21  1  0  0  0  0
  8  9  1  0  0  0  0
  8 22  1  0  0  0  0
  9 10  1  0  0  0  0
  9 23  1  0  0  0  0
  9 24  1  0  0  0  0
 10 11  1  0  0  0  0
 10 25  1  0  0  0  0
 10 26  1  0  0  0  0
 12 13  1  0  0  0  0
M  CHG  1  13  -1
M  END
> <s_m_source_file>
AV-unprocessed.smi

> <i_m_source_file_index>
3085

> <i_lp_mmshare_version>
43012

> <i_f3d_flags>
0

> <s_epik_input>
W0NIM11bQ0gyXWMxbmMobltuSF0xKVtDQEBIXTJbQ0gyXVtOSF1bQ0gyXVtDSDJdTzI=

> <s_epik_cmdline>
J2VwaWtfcHl0aG9uJywgJy1waCcsICc3LjAnLCAnLXRuJywgJzgnLCAnLW1hJywgJzIwMCcsICctbWV0YWxfYmluZGluZycsICctaW1hZScsICc8aW5maWxlLm1hZT4nLCAnLW9tYWUnLCAnPG91dGZpbGUubWFlPic=

> <r_lp_tautomer_probability>
0.948284

> <r_epik_Ionization_Penalty>
17.858

> <r_epik_Ionization_Penalty_Charging>
16.2847

> <r_epik_Ionization_Penalty_Neutral>
1.5733

> <r_epik_State_Penalty>
7.01418

> <r_epik_Charging_Adjusted_Penalty>
23.2989

> <i_epik_Tot_Q>
-1

> <i_epik_Tot_abs_Q>
1

> <r_epik_Metal_State_Penalty>
3.17281

> <b_epik_Metal_Only>
1

> <s_lp_Force_Field>
OPLS_2005

> <r_lp_Energy>
10.7333

> <b_lp_Chiralities_Consistent>
1

> <s_lp_Variant>
AV-unprocessed.smi:3085-14

> <Gold.Version>
5.8.1

> <Gold.Id.Protein>
6NUR|6NUR_protein|mol2

> <Gold.PLP.Fitness>
31.9033

> <Gold.PLP.PLP>
-25.9278

> <Gold.PLP.part.hbond>
-2.0000

> <Gold.PLP.part.metal>
0.0000

> <Gold.PLP.part.buried>
-3.9069

> <Gold.PLP.part.nonpolar>
-19.4153

> <Gold.PLP.part.repulsive>
0.0549

> <Gold.PLP.ligand.clash>
0.0000

> <Gold.PLP.ligand.torsion>
0.0189

> <Gold.PLP.Chemscore.Hbond>
2.0000

> <Gold.PLP.Chemscore.CHOScore>
0.0000

> <Gold.PLP.Chemscore.Metal>
0.0000

> <Gold.Chemscore.Hbonds>
donor molecule, donor type, donor heavy atom, donor atom, acceptor molecule, acceptor atom, score
      P1  H  7989  7998       L1     8  0.94
      P1  H  7997  8009       L1    12  0.99

> <Gold.PLP.Chemscore.Internal.Correction>
0.0132

> <Gold.Rescore>
     Score         DG    S(hbond)    S(metal)    S(lipo)     H(rot)  DE(clash)    DE(int)     intcor
     11.36     -11.41       1.05        0.00      48.51       1.26       0.02       0.03       ----

> <Gold.Chemscore.Fitness>
11.3617

> <Gold.Chemscore.DG>
-11.4139

> <Gold.Chemscore.ZeroCoef>
-5.4800

> <Gold.Chemscore.Hbond>
1.0455

> <Gold.Chemscore.Metal>
0.0000

> <Gold.Chemscore.Lipo>
48.5065

> <Gold.Chemscore.Internal_Hbond>
0.0000

> <Gold.Chemscore.DEClash>
0.0239

> <Gold.Chemscore.DEInternal>
0.0283

> <Gold.Chemscore.Rot>
1.2630

> <Gold.Chemscore.Internal.Correction>
   9.000000E+99

> <Gold.Chemscore.Hbonds>
donor molecule, donor type, donor heavy atom, donor atom, acceptor molecule, acceptor atom, score
      P1  H  7989  7998       L1     8  0.18
      P1  H  7997  8009       L1    12  0.39

> <Gold.Chemscore.Hbond.Weighted>
-3.4919

> <Gold.Chemscore.Metal.Weighted>
-0.0000

> <Gold.Chemscore.Lipo.Weighted>
-5.6753

> <Gold.Chemscore.Internal_Hbond.Weighted>
0.0000

> <Gold.Chemscore.DEClash.Weighted>
0.0239

> <Gold.Chemscore.DEInternal.Weighted>
0.0283

> <Gold.Chemscore.Rot.Weighted>
3.2333

> <Gold.Chemscore.Internal.Correction.Weighted>
   9.000000E+99

> <Gold.Protein.RotatedTorsions>
[ 6907 6896 6895 6894 ] final  -14.99 input  -60.11 | X-H torsion
[ 7974 7965 7964 7962 ] final  124.32 input  175.53 | X-H torsion
[ 8008 7997 7996 7995 ] final  152.98 input   59.86 | X-H torsion
[ 10167 10162 10161 10158 ] final  -29.73 input  -65.29 | X-H torsion
[ 10718 10713 10712 10709 ] final -115.63 input   66.30 | X-H torsion
[ 10763 10752 10751 10750 ] final   -1.07 input  -60.55 | X-H torsion
[ 11005 11000 10999 10996 ] final  135.56 input  -57.11 | X-H torsion

> <Gold.Protein.ActiveResidues>
 VAL166  LYS551  ARG553  GLY616  TRP617  ASP618  TYR619  PRO620  LYS621  CYS622 
 ASP623  PHE694  ASN695  SER759  ASP760  ASP761  ALA762  ILE779  LEU786  VAL792 
 PHE793  MET794  SER795  GLU796  ALA797  LYS798  CYS799  TRP800  GLU811  SER814 

> <Gold.Protein.RotatedAtoms>
  151.3309  135.0841  159.9337 H   0  0  0  0  0  0  0  0  0  0  0  0  # atno 6907 bound_to 6896
  152.5235  133.9544  159.7697 H   0  0  0  0  0  0  0  0  0  0  0  0  # atno 6908 bound_to 6896
  150.9882  133.6123  159.2742 H   0  0  0  0  0  0  0  0  0  0  0  0  # atno 6909 bound_to 6896
  145.0857  139.3624  143.4886 H   0  0  0  0  0  0  0  0  0  0  0  0  # atno 7974 bound_to 7965
  156.2604  140.2006  156.6418 H   0  0  0  0  0  0  0  0  0  0  0  0  # atno 8008 bound_to 7997
  154.6604  140.0561  157.0080 H   0  0  0  0  0  0  0  0  0  0  0  0  # atno 8009 bound_to 7997
  155.1285  140.3231  155.4482 H   0  0  0  0  0  0  0  0  0  0  0  0  # atno 8010 bound_to 7997
  140.7257  143.3905  151.1438 H   0  0  0  0  0  0  0  0  0  0  0  0  # atno 10167 bound_to 10162
  156.0909  130.6091  150.8931 H   0  0  0  0  0  0  0  0  0  0  0  0  # atno 10718 bound_to 10713
  153.3401  135.6980  153.6874 H   0  0  0  0  0  0  0  0  0  0  0  0  # atno 10763 bound_to 10752
  153.5642  135.3529  155.2812 H   0  0  0  0  0  0  0  0  0  0  0  0  # atno 10764 bound_to 10752
  154.8635  135.4256  154.2612 H   0  0  0  0  0  0  0  0  0  0  0  0  # atno 10765 bound_to 10752
  139.9987  134.9487  157.0024 H   0  0  0  0  0  0  0  0  0  0  0  0  # atno 11005 bound_to 11000
  146.3531  140.0668  142.8626 LP  0  0  0  0  0  0  0  0  0  0  0  0  # atno 17320 bound_to 7965
  145.1125  140.9413  143.4648 LP  0  0  0  0  0  0  0  0  0  0  0  0  # atno 17321 bound_to 7965
  139.7509  143.8780  152.3076 LP  0  0  0  0  0  0  0  0  0  0  0  0  # atno 17342 bound_to 10162
  139.8633  144.7106  150.9073 LP  0  0  0  0  0  0  0  0  0  0  0  0  # atno 17343 bound_to 10162
  157.6057  131.0939  150.8882 LP  0  0  0  0  0  0  0  0  0  0  0  0  # atno 17370 bound_to 10713
  156.9031  130.5254  149.5282 LP  0  0  0  0  0  0  0  0  0  0  0  0  # atno 17371 bound_to 10713
  140.4768  134.1330  155.7211 LP  0  0  0  0  0  0  0  0  0  0  0  0  # atno 17394 bound_to 11000
  141.1625  133.8765  157.1807 LP  0  0  0  0  0  0  0  0  0  0  0  0  # atno 17395 bound_to 11000

$$$$
