AV-unprocessed.smi:109|AV-procd|sdf|1056|dock8
  -GOLD-   2262018123D 1   1.00000     0.00000
 Structure written by MMmdl.
 58 61  0  0  0  0  0  0  0  0  1 V2000
  151.1933  136.5001  158.9830 O   0  0  0  0  0  0  0  0  0  0  0  0
  150.1270  137.3415  158.6002 C   0  0  0  0  0  0  0  0  0  0  0  0
  148.9627  136.4958  158.0601 C   0  0  0  0  0  0  0  0  0  0  0  0
  147.7138  136.5399  158.9685 C   0  0  1  0  0  0  0  0  0  0  0  0
  146.5436  136.0719  158.2261 N   0  0  0  0  0  0  0  0  0  0  0  0
  146.1376  136.6797  157.0893 C   0  0  0  0  0  0  0  0  0  0  0  0
  146.2421  138.0251  156.9298 N   0  0  0  0  0  0  0  0  0  0  0  0
  145.8354  138.5980  155.7929 C   0  0  0  0  0  0  0  0  0  0  0  0
  145.3053  138.0227  154.7109 N   0  0  0  0  0  0  0  0  0  0  0  0
  145.2000  136.6711  154.8677 C   0  0  0  0  0  0  0  0  0  0  0  0
  145.5903  135.9299  156.0169 C   0  0  0  0  0  0  0  0  0  0  0  0
  145.3311  134.5805  155.8166 N   0  0  0  0  0  0  0  0  0  0  0  0
  144.8198  134.5329  154.6155 C   0  0  0  0  0  0  0  0  0  0  0  0
  144.7110  135.7470  153.9702 N   0  0  0  0  0  0  0  0  0  0  0  0
  144.1794  136.0513  152.6025 C   0  0  2  0  0  0  0  0  0  0  0  0
  143.5422  134.8994  152.1334 O   0  0  0  0  0  0  0  0  0  0  0  0
  144.1859  134.4016  150.9615 C   0  0  2  0  0  0  0  0  0  0  0  0
  144.1188  132.8650  150.9086 C   0  0  0  0  0  0  0  0  0  0  0  0
  142.8406  132.4438  150.4824 O   0  0  0  0  0  0  0  0  0  0  0  0
  145.5817  135.0446  150.9409 C   0  0  2  0  0  0  0  0  0  0  0  0
  146.5351  134.2652  151.6434 O   0  0  0  0  0  0  0  0  0  0  0  0
  145.3065  136.3863  151.6072 C   0  0  2  0  0  0  0  0  0  0  0  0
  146.4621  136.9876  152.1655 O   0  0  0  0  0  0  0  0  0  0  0  0
  147.8709  135.7533  160.2993 C   0  0  0  0  0  0  0  0  0  0  0  0
  147.4860  134.2641  160.1648 C   0  0  0  0  0  0  0  0  0  0  0  0
  147.7518  133.4956  161.4697 C   0  0  0  0  0  0  0  0  0  0  0  0
  147.0174  134.1408  162.6552 C   0  0  0  0  0  0  0  0  0  0  0  0
  147.3907  135.6246  162.7978 C   0  0  0  0  0  0  0  0  0  0  0  0
  147.1266  136.3938  161.4933 C   0  0  0  0  0  0  0  0  0  0  0  0
  143.4705  136.8657  152.7554 H   0  0  0  0  0  0  0  0  0  0  0  0
  143.6191  134.8053  150.1205 H   0  0  0  0  0  0  0  0  0  0  0  0
  145.9453  135.1731  149.9208 H   0  0  0  0  0  0  0  0  0  0  0  0
  144.8859  137.0664  150.8653 H   0  0  0  0  0  0  0  0  0  0  0  0
  152.0064  136.9566  158.8288 H   0  0  0  0  0  0  0  0  0  0  0  0
  149.8095  137.9265  159.4638 H   0  0  0  0  0  0  0  0  0  0  0  0
  150.4859  138.0413  157.8451 H   0  0  0  0  0  0  0  0  0  0  0  0
  148.7078  136.8308  157.0538 H   0  0  0  0  0  0  0  0  0  0  0  0
  149.3123  135.4692  157.9593 H   0  0  0  0  0  0  0  0  0  0  0  0
  147.5588  137.5885  159.2249 H   0  0  0  0  0  0  0  0  0  0  0  0
  145.9993  135.3530  158.6809 H   0  0  0  0  0  0  0  0  0  0  0  0
  145.9526  139.6704  155.7420 H   0  0  0  0  0  0  0  0  0  0  0  0
  144.5081  133.6014  154.1675 H   0  0  0  0  0  0  0  0  0  0  0  0
  144.8825  132.4496  150.2509 H   0  0  0  0  0  0  0  0  0  0  0  0
  144.3000  132.4526  151.9014 H   0  0  0  0  0  0  0  0  0  0  0  0
  142.2627  133.1916  150.4835 H   0  0  0  0  0  0  0  0  0  0  0  0
  147.3116  134.7882  151.7730 H   0  0  0  0  0  0  0  0  0  0  0  0
  147.2233  136.5300  151.8437 H   0  0  0  0  0  0  0  0  0  0  0  0
  148.9327  135.7620  160.5498 H   0  0  0  0  0  0  0  0  0  0  0  0
  146.4328  134.1616  159.9055 H   0  0  0  0  0  0  0  0  0  0  0  0
  148.0508  133.8057  159.3522 H   0  0  0  0  0  0  0  0  0  0  0  0
  147.4388  132.4570  161.3593 H   0  0  0  0  0  0  0  0  0  0  0  0
  148.8237  133.4754  161.6705 H   0  0  0  0  0  0  0  0  0  0  0  0
  145.9401  134.0472  162.5121 H   0  0  0  0  0  0  0  0  0  0  0  0
  147.2549  133.6068  163.5758 H   0  0  0  0  0  0  0  0  0  0  0  0
  146.8240  136.0734  163.6141 H   0  0  0  0  0  0  0  0  0  0  0  0
  148.4438  135.7130  163.0674 H   0  0  0  0  0  0  0  0  0  0  0  0
  147.4351  137.4322  161.6184 H   0  0  0  0  0  0  0  0  0  0  0  0
  146.0531  136.4101  161.3040 H   0  0  0  0  0  0  0  0  0  0  0  0
  1  2  1  0  0  0  0
  1 34  1  0  0  0  0
  2  3  1  0  0  0  0
  2 35  1  0  0  0  0
  2 36  1  0  0  0  0
  3  4  1  0  0  0  0
  3 37  1  0  0  0  0
  3 38  1  0  0  0  0
  4  5  1  0  0  0  0
  4 24  1  0  0  0  0
  4 39  1  0  0  0  0
  5  6  1  0  0  0  0
  5 40  1  0  0  0  0
  6 11  1  0  0  0  0
  6  7  2  0  0  0  0
  7  8  1  0  0  0  0
  8  9  2  0  0  0  0
  8 41  1  0  0  0  0
  9 10  1  0  0  0  0
 10 14  1  0  0  0  0
 10 11  2  0  0  0  0
 11 12  1  0  0  0  0
 12 13  2  0  0  0  0
 13 14  1  0  0  0  0
 13 42  1  0  0  0  0
 14 15  1  0  0  0  0
 15 30  1  0  0  0  0
 15 22  1  0  0  0  0
 15 16  1  0  0  0  0
 16 17  1  0  0  0  0
 17 31  1  0  0  0  0
 17 18  1  0  0  0  0
 17 20  1  0  0  0  0
 18 19  1  0  0  0  0
 18 43  1  0  0  0  0
 18 44  1  0  0  0  0
 19 45  1  0  0  0  0
 20 32  1  0  0  0  0
 20 21  1  0  0  0  0
 20 22  1  0  0  0  0
 21 46  1  0  0  0  0
 22 33  1  0  0  0  0
 22 23  1  0  0  0  0
 23 47  1  0  0  0  0
 24 29  1  0  0  0  0
 24 25  1  0  0  0  0
 24 48  1  0  0  0  0
 25 26  1  0  0  0  0
 25 49  1  0  0  0  0
 25 50  1  0  0  0  0
 26 27  1  0  0  0  0
 26 51  1  0  0  0  0
 26 52  1  0  0  0  0
 27 28  1  0  0  0  0
 27 53  1  0  0  0  0
 27 54  1  0  0  0  0
 28 29  1  0  0  0  0
 28 55  1  0  0  0  0
 28 56  1  0  0  0  0
 29 57  1  0  0  0  0
 29 58  1  0  0  0  0
M  END
> <s_m_source_file>
AV-unprocessed.smi

> <i_m_source_file_index>
109

> <i_lp_mmshare_version>
43012

> <i_f3d_flags>
0

> <s_epik_input>
W0NIMl0xW0NIMl1bQ0gyXVtDSDJdW0NIMl1bQ0hdMVtDQEhdKFtDSDJdW0NIMl1bT0hdKVtOSF1jKG5bY0hdbjIpYyhjMjMpbltjSF1uM1tDQEBIXTRPW0NASF0oW0NIMl1bT0hdKVtDQEBIXShbT0hdKVtDQEhdNFtPSF0=

> <s_epik_cmdline>
J2VwaWtfcHl0aG9uJywgJy1waCcsICc3LjAnLCAnLXRuJywgJzgnLCAnLW1hJywgJzIwMCcsICctbWV0YWxfYmluZGluZycsICctaW1hZScsICc8aW5maWxlLm1hZT4nLCAnLW9tYWUnLCAnPG91dGZpbGUubWFlPic=

> <r_lp_tautomer_probability>
1

> <r_epik_Ionization_Penalty>
0.000793976

> <r_epik_Ionization_Penalty_Charging>
0

> <r_epik_Ionization_Penalty_Neutral>
0.000793976

> <r_epik_State_Penalty>
-0

> <r_epik_Charging_Adjusted_Penalty>
0

> <i_epik_Tot_Q>
0

> <i_epik_Tot_abs_Q>
0

> <r_epik_Metal_State_Penalty>
-0

> <b_epik_Metal_Only>
0

> <s_epik_Chemistry_Notes>
This compound contains an acetal/aminal-like group ( X-CH(R)-Y where X, Y are N, S, or O) that may be acid/base labile, releasing an aldehyde.

> <s_lp_Force_Field>
OPLS_2005

> <r_lp_Energy>
58.3807

> <b_lp_Chiralities_Consistent>
1

> <s_lp_Variant>
AV-unprocessed.smi:109-26

> <Gold.Version>
5.8.1

> <Gold.Id.Protein>
6NUR|6NUR_protein|mol2

> <Gold.PLP.Fitness>
49.7758

> <Gold.PLP.PLP>
-39.5955

> <Gold.PLP.part.hbond>
-4.8455

> <Gold.PLP.part.metal>
0.0000

> <Gold.PLP.part.buried>
-7.3744

> <Gold.PLP.part.nonpolar>
-28.8270

> <Gold.PLP.part.repulsive>
0.2898

> <Gold.PLP.ligand.clash>
0.0287

> <Gold.PLP.ligand.torsion>
1.9001

> <Gold.PLP.Chemscore.Hbond>
3.8533

> <Gold.PLP.Chemscore.CHOScore>
0.5658

> <Gold.PLP.Chemscore.Metal>
0.0000

> <Gold.Chemscore.Hbonds>
donor molecule, donor type, donor heavy atom, donor atom, acceptor molecule, acceptor atom, score
      L1  H    19    45       P1 10186  1.00
      L1  H    21    46       P1  7948  0.73
      L1  H    23    47       P1  7948  1.00
      P1  H  6896  6908       L1     1  0.94
      L1  C    13    42       P1 10957  0.65

> <Gold.PLP.Chemscore.Internal.Correction>
0.7520

> <Gold.Rescore>
     Score         DG    S(hbond)    S(metal)    S(lipo)     H(rot)  DE(clash)    DE(int)     intcor
     10.93     -13.57       3.88        0.00      78.04       5.47       0.03       2.61       ----

> <Gold.Chemscore.Fitness>
10.9291

> <Gold.Chemscore.DG>
-13.5740

> <Gold.Chemscore.ZeroCoef>
-5.4800

> <Gold.Chemscore.Hbond>
3.8793

> <Gold.Chemscore.Metal>
0.0000

> <Gold.Chemscore.Lipo>
78.0404

> <Gold.Chemscore.Internal_Hbond>
0.0000

> <Gold.Chemscore.DEClash>
0.0327

> <Gold.Chemscore.DEInternal>
2.6122

> <Gold.Chemscore.Rot>
5.4662

> <Gold.Chemscore.Internal.Correction>
   9.000000E+99

> <Gold.Chemscore.Hbonds>
donor molecule, donor type, donor heavy atom, donor atom, acceptor molecule, acceptor atom, score
      L1  H    19    45       P1 10186  0.93
      L1  H    21    46       P1  7948  0.54
      L1  H    23    47       P1  7948  0.96
      P1  H  6896  6908       L1     1  0.87

> <Gold.Chemscore.Hbond.Weighted>
-12.9568

> <Gold.Chemscore.Metal.Weighted>
-0.0000

> <Gold.Chemscore.Lipo.Weighted>
-9.1307

> <Gold.Chemscore.Internal_Hbond.Weighted>
0.0000

> <Gold.Chemscore.DEClash.Weighted>
0.0327

> <Gold.Chemscore.DEInternal.Weighted>
2.6122

> <Gold.Chemscore.Rot.Weighted>
13.9935

> <Gold.Chemscore.Internal.Correction.Weighted>
   9.000000E+99

> <Gold.Protein.RotatedTorsions>
[ 6907 6896 6895 6894 ] final -141.74 input  -60.11 | X-H torsion
[ 7974 7965 7964 7962 ] final  -45.67 input  175.53 | X-H torsion
[ 8008 7997 7996 7995 ] final -165.87 input   59.86 | X-H torsion
[ 10167 10162 10161 10158 ] final  -98.07 input  -65.29 | X-H torsion
[ 10718 10713 10712 10709 ] final -110.01 input   66.30 | X-H torsion
[ 10763 10752 10751 10750 ] final  164.59 input  -60.55 | X-H torsion
[ 11005 11000 10999 10996 ] final -140.86 input  -57.11 | X-H torsion

> <Gold.Protein.ActiveResidues>
 VAL166  LYS551  ARG553  GLY616  TRP617  ASP618  TYR619  PRO620  LYS621  CYS622 
 ASP623  PHE694  ASN695  SER759  ASP760  ASP761  ALA762  ILE779  LEU786  VAL792 
 PHE793  MET794  SER795  GLU796  ALA797  LYS798  CYS799  TRP800  GLU811  SER814 

> <Gold.Protein.RotatedAtoms>
  151.0778  133.5414  159.2622 H   0  0  0  0  0  0  0  0  0  0  0  0  # atno 6907 bound_to 6896
  151.2329  135.0560  159.9004 H   0  0  0  0  0  0  0  0  0  0  0  0  # atno 6908 bound_to 6896
  152.5420  134.0565  159.8186 H   0  0  0  0  0  0  0  0  0  0  0  0  # atno 6909 bound_to 6896
  145.9797  140.7296  142.9369 H   0  0  0  0  0  0  0  0  0  0  0  0  # atno 7974 bound_to 7965
  155.8559  140.0970  157.1645 H   0  0  0  0  0  0  0  0  0  0  0  0  # atno 8008 bound_to 7997
  154.3988  140.1374  156.3963 H   0  0  0  0  0  0  0  0  0  0  0  0  # atno 8009 bound_to 7997
  155.7910  140.3456  155.5352 H   0  0  0  0  0  0  0  0  0  0  0  0  # atno 8010 bound_to 7997
  140.2768  143.3308  152.0481 H   0  0  0  0  0  0  0  0  0  0  0  0  # atno 10167 bound_to 10162
  156.0568  130.5793  150.8179 H   0  0  0  0  0  0  0  0  0  0  0  0  # atno 10718 bound_to 10713
  154.3113  135.2757  155.2564 H   0  0  0  0  0  0  0  0  0  0  0  0  # atno 10763 bound_to 10752
  154.4958  135.5821  153.6497 H   0  0  0  0  0  0  0  0  0  0  0  0  # atno 10764 bound_to 10752
  152.9888  135.6146  154.3290 H   0  0  0  0  0  0  0  0  0  0  0  0  # atno 10765 bound_to 10752
  140.8381  134.2435  157.4824 H   0  0  0  0  0  0  0  0  0  0  0  0  # atno 11005 bound_to 11000
  144.6858  140.2888  143.7281 LP  0  0  0  0  0  0  0  0  0  0  0  0  # atno 17320 bound_to 7965
  145.7787  139.1883  143.2170 LP  0  0  0  0  0  0  0  0  0  0  0  0  # atno 17321 bound_to 7965
  139.4973  144.6619  151.6444 LP  0  0  0  0  0  0  0  0  0  0  0  0  # atno 17342 bound_to 10162
  140.5845  143.9888  150.6287 LP  0  0  0  0  0  0  0  0  0  0  0  0  # atno 17343 bound_to 10162
  157.5544  131.0944  150.9650 LP  0  0  0  0  0  0  0  0  0  0  0  0  # atno 17370 bound_to 10713
  156.9902  130.5560  149.5303 LP  0  0  0  0  0  0  0  0  0  0  0  0  # atno 17371 bound_to 10713
  139.8703  134.9621  156.4419 LP  0  0  0  0  0  0  0  0  0  0  0  0  # atno 17394 bound_to 11000
  140.8925  133.7838  155.9588 LP  0  0  0  0  0  0  0  0  0  0  0  0  # atno 17395 bound_to 11000

$$$$
