AV-unprocessed.smi:416|AV-procd|sdf|2526|dock3
  -GOLD-   2262022483D 1   1.00000     0.00000
 Structure written by MMmdl.
 43 44  0  0  0  0  0  0  0  0  1 V2000
  153.8355  134.7523  156.8237 C   0  0  0  0  0  0  0  0  0  0  0  0
  152.6530  134.6038  155.8450 C   0  0  0  0  0  0  0  0  0  0  0  0
  153.1326  133.8515  154.5859 C   0  0  0  0  0  0  0  0  0  0  0  0
  151.5364  133.7756  156.5241 C   0  0  0  0  0  0  0  0  0  0  0  0
  152.1767  136.0181  155.4324 C   0  0  0  0  0  0  0  0  0  0  0  0
  152.9614  136.7840  154.8710 O   0  0  0  0  0  0  0  0  0  0  0  0
  150.9099  136.3698  155.7137 N   0  0  0  0  0  0  0  0  0  0  0  0
  150.2954  137.6622  155.4268 C   0  0  0  0  0  0  0  0  0  0  0  0
  150.7223  138.7543  156.3941 C   0  0  0  0  0  0  0  0  0  0  0  0
  149.8644  139.1759  157.4287 C   0  0  0  0  0  0  0  0  0  0  0  0
  150.2935  140.1935  158.3021 C   0  0  0  0  0  0  0  0  0  0  0  0
  151.5722  140.7718  158.1154 C   0  0  0  0  0  0  0  0  0  0  0  0
  152.0245  141.7968  158.9758 N   0  0  0  0  0  0  0  0  0  0  0  0
  153.3167  141.5659  159.6177 C   0  0  0  0  0  0  0  0  0  0  0  0
  153.8320  142.8610  160.2683 C   0  0  0  0  0  0  0  0  0  0  0  0
  152.8537  143.3723  161.1672 O   0  0  0  0  0  0  0  0  0  0  0  0
  151.6406  143.6982  160.4975 C   0  0  0  0  0  0  0  0  0  0  0  0
  151.0459  142.4328  159.8569 C   0  0  0  0  0  0  0  0  0  0  0  0
  152.3953  140.3600  157.1194 N   0  0  0  0  0  0  0  0  0  0  0  0
  151.9793  139.3845  156.2851 C   0  0  0  0  0  0  0  0  0  0  0  0
  154.2225  133.7783  157.1250 H   0  0  0  0  0  0  0  0  0  0  0  0
  153.5375  135.2790  157.7315 H   0  0  0  0  0  0  0  0  0  0  0  0
  154.6642  135.3057  156.3797 H   0  0  0  0  0  0  0  0  0  0  0  0
  153.9621  134.3636  154.0958 H   0  0  0  0  0  0  0  0  0  0  0  0
  152.3307  133.7474  153.8536 H   0  0  0  0  0  0  0  0  0  0  0  0
  153.4783  132.8475  154.8343 H   0  0  0  0  0  0  0  0  0  0  0  0
  151.8930  132.7784  156.7847 H   0  0  0  0  0  0  0  0  0  0  0  0
  150.6738  133.6458  155.8688 H   0  0  0  0  0  0  0  0  0  0  0  0
  151.1899  134.2411  157.4479 H   0  0  0  0  0  0  0  0  0  0  0  0
  150.3277  135.6861  156.1759 H   0  0  0  0  0  0  0  0  0  0  0  0
  150.5151  137.9859  154.4082 H   0  0  0  0  0  0  0  0  0  0  0  0
  149.2138  137.5335  155.4759 H   0  0  0  0  0  0  0  0  0  0  0  0
  148.8916  138.7248  157.5592 H   0  0  0  0  0  0  0  0  0  0  0  0
  149.6458  140.5049  159.1076 H   0  0  0  0  0  0  0  0  0  0  0  0
  153.1991  140.7897  160.3749 H   0  0  0  0  0  0  0  0  0  0  0  0
  154.0629  141.2078  158.9105 H   0  0  0  0  0  0  0  0  0  0  0  0
  154.7513  142.6637  160.8196 H   0  0  0  0  0  0  0  0  0  0  0  0
  154.0706  143.6083  159.5097 H   0  0  0  0  0  0  0  0  0  0  0  0
  150.9394  144.1193  161.2179 H   0  0  0  0  0  0  0  0  0  0  0  0
  151.8230  144.4666  159.7445 H   0  0  0  0  0  0  0  0  0  0  0  0
  150.1497  142.7015  159.2962 H   0  0  0  0  0  0  0  0  0  0  0  0
  150.7468  141.7272  160.6334 H   0  0  0  0  0  0  0  0  0  0  0  0
  152.6737  139.1047  155.5072 H   0  0  0  0  0  0  0  0  0  0  0  0
  1  2  1  0  0  0  0
  1 21  1  0  0  0  0
  1 22  1  0  0  0  0
  1 23  1  0  0  0  0
  2  3  1  0  0  0  0
  2  4  1  0  0  0  0
  2  5  1  0  0  0  0
  3 24  1  0  0  0  0
  3 25  1  0  0  0  0
  3 26  1  0  0  0  0
  4 27  1  0  0  0  0
  4 28  1  0  0  0  0
  4 29  1  0  0  0  0
  5  6  2  0  0  0  0
  5  7  1  0  0  0  0
  7  8  1  0  0  0  0
  7 30  1  0  0  0  0
  8  9  1  0  0  0  0
  8 31  1  0  0  0  0
  8 32  1  0  0  0  0
  9 20  1  0  0  0  0
  9 10  2  0  0  0  0
 10 11  1  0  0  0  0
 10 33  1  0  0  0  0
 11 12  2  0  0  0  0
 11 34  1  0  0  0  0
 12 13  1  0  0  0  0
 12 19  1  0  0  0  0
 13 18  1  0  0  0  0
 13 14  1  0  0  0  0
 14 15  1  0  0  0  0
 14 35  1  0  0  0  0
 14 36  1  0  0  0  0
 15 16  1  0  0  0  0
 15 37  1  0  0  0  0
 15 38  1  0  0  0  0
 16 17  1  0  0  0  0
 17 18  1  0  0  0  0
 17 39  1  0  0  0  0
 17 40  1  0  0  0  0
 18 41  1  0  0  0  0
 18 42  1  0  0  0  0
 19 20  2  0  0  0  0
 20 43  1  0  0  0  0
M  END
> <s_m_source_file>
AV-unprocessed.smi

> <i_m_source_file_index>
416

> <i_lp_mmshare_version>
43012

> <i_f3d_flags>
0

> <s_epik_input>
W0NIM11DKFtDSDNdKShbQ0gzXSlDKD1PKVtOSF1bQ0gyXWMxW2NIXVtjSF1jKG5bY0hdMSlOMltDSDJdW0NIMl1PW0NIMl1bQ0gyXTI=

> <s_epik_cmdline>
J2VwaWtfcHl0aG9uJywgJy1waCcsICc3LjAnLCAnLXRuJywgJzgnLCAnLW1hJywgJzIwMCcsICctbWV0YWxfYmluZGluZycsICctaW1hZScsICc8aW5maWxlLm1hZT4nLCAnLW9tYWUnLCAnPG91dGZpbGUubWFlPic=

> <r_lp_tautomer_probability>
1

> <r_epik_Ionization_Penalty>
0.00522353

> <r_epik_Ionization_Penalty_Charging>
0

> <r_epik_Ionization_Penalty_Neutral>
0.00522353

> <r_epik_State_Penalty>
0.0038086

> <r_epik_Charging_Adjusted_Penalty>
0.0038086

> <i_epik_Tot_Q>
0

> <i_epik_Tot_abs_Q>
0

> <r_epik_Metal_State_Penalty>
-0

> <b_epik_Metal_Only>
0

> <s_lp_Force_Field>
OPLS_2005

> <r_lp_Energy>
22.6444

> <b_lp_Chiralities_Consistent>
1

> <s_lp_Variant>
AV-unprocessed.smi:416-1

> <Gold.Version>
5.8.1

> <Gold.Id.Protein>
6NUR|6NUR_protein|mol2

> <Gold.PLP.Fitness>
43.8338

> <Gold.PLP.PLP>
-38.5463

> <Gold.PLP.part.hbond>
-3.0000

> <Gold.PLP.part.metal>
0.0000

> <Gold.PLP.part.buried>
-4.0333

> <Gold.PLP.part.nonpolar>
-30.7536

> <Gold.PLP.part.repulsive>
0.1907

> <Gold.PLP.ligand.clash>
0.0000

> <Gold.PLP.ligand.torsion>
0.5296

> <Gold.PLP.Chemscore.Hbond>
2.0000

> <Gold.PLP.Chemscore.CHOScore>
0.0000

> <Gold.PLP.Chemscore.Metal>
0.0000

> <Gold.Chemscore.Hbonds>
donor molecule, donor type, donor heavy atom, donor atom, acceptor molecule, acceptor atom, score
      P1  H  7997  8010       L1    19  0.62

> <Gold.PLP.Chemscore.Internal.Correction>
0.3466

> <Gold.Rescore>
     Score         DG    S(hbond)    S(metal)    S(lipo)     H(rot)  DE(clash)    DE(int)     intcor
     14.77     -15.43       0.99        0.00      90.02       1.52       0.02       0.64       ----

> <Gold.Chemscore.Fitness>
14.7690

> <Gold.Chemscore.DG>
-15.4286

> <Gold.Chemscore.ZeroCoef>
-5.4800

> <Gold.Chemscore.Hbond>
0.9883

> <Gold.Chemscore.Metal>
0.0000

> <Gold.Chemscore.Lipo>
90.0169

> <Gold.Chemscore.Internal_Hbond>
0.0000

> <Gold.Chemscore.DEClash>
0.0195

> <Gold.Chemscore.DEInternal>
0.6401

> <Gold.Chemscore.Rot>
1.5173

> <Gold.Chemscore.Internal.Correction>
   9.000000E+99

> <Gold.Chemscore.Hbonds>
donor molecule, donor type, donor heavy atom, donor atom, acceptor molecule, acceptor atom, score
      P1  H  7997  8010       L1    19  0.09

> <Gold.Chemscore.Hbond.Weighted>
-3.3009

> <Gold.Chemscore.Metal.Weighted>
-0.0000

> <Gold.Chemscore.Lipo.Weighted>
-10.5320

> <Gold.Chemscore.Internal_Hbond.Weighted>
0.0000

> <Gold.Chemscore.DEClash.Weighted>
0.0195

> <Gold.Chemscore.DEInternal.Weighted>
0.6401

> <Gold.Chemscore.Rot.Weighted>
3.8843

> <Gold.Chemscore.Internal.Correction.Weighted>
   9.000000E+99

> <Gold.Protein.RotatedTorsions>
[ 6907 6896 6895 6894 ] final  -40.55 input  -60.11 | X-H torsion
[ 7974 7965 7964 7962 ] final  -24.47 input  175.53 | X-H torsion
[ 8008 7997 7996 7995 ] final   50.83 input   59.86 | X-H torsion
[ 10167 10162 10161 10158 ] final   88.71 input  -65.29 | X-H torsion
[ 10718 10713 10712 10709 ] final  151.55 input   66.30 | X-H torsion
[ 10763 10752 10751 10750 ] final  -69.82 input  -60.55 | X-H torsion
[ 11005 11000 10999 10996 ] final  124.00 input  -57.11 | X-H torsion

> <Gold.Protein.ActiveResidues>
 VAL166  LYS551  ARG553  GLY616  TRP617  ASP618  TYR619  PRO620  LYS621  CYS622 
 ASP623  PHE694  ASN695  SER759  ASP760  ASP761  ALA762  ILE779  LEU786  VAL792 
 PHE793  MET794  SER795  GLU796  ALA797  LYS798  CYS799  TRP800  GLU811  SER814 

> <Gold.Protein.RotatedAtoms>
  150.9771  134.9133  159.7822 H   0  0  0  0  0  0  0  0  0  0  0  0  # atno 6907 bound_to 6896
  152.5210  134.3461  159.9244 H   0  0  0  0  0  0  0  0  0  0  0  0  # atno 6908 bound_to 6896
  151.3469  133.3899  159.2711 H   0  0  0  0  0  0  0  0  0  0  0  0  # atno 6909 bound_to 6896
  146.1552  140.4756  142.8594 H   0  0  0  0  0  0  0  0  0  0  0  0  # atno 7974 bound_to 7965
  155.4253  140.3448  155.4275 H   0  0  0  0  0  0  0  0  0  0  0  0  # atno 8008 bound_to 7997
  156.1369  140.1530  156.9012 H   0  0  0  0  0  0  0  0  0  0  0  0  # atno 8009 bound_to 7997
  154.4939  140.0833  156.7634 H   0  0  0  0  0  0  0  0  0  0  0  0  # atno 8010 bound_to 7997
  139.8646  144.6526  150.9019 H   0  0  0  0  0  0  0  0  0  0  0  0  # atno 10167 bound_to 10162
  157.2692  131.0813  151.1611 H   0  0  0  0  0  0  0  0  0  0  0  0  # atno 10718 bound_to 10713
  154.4089  135.6013  153.5941 H   0  0  0  0  0  0  0  0  0  0  0  0  # atno 10763 bound_to 10752
  152.9790  135.5924  154.4094 H   0  0  0  0  0  0  0  0  0  0  0  0  # atno 10764 bound_to 10752
  154.3904  135.2842  155.2137 H   0  0  0  0  0  0  0  0  0  0  0  0  # atno 10765 bound_to 10752
  139.9338  134.9640  156.8343 H   0  0  0  0  0  0  0  0  0  0  0  0  # atno 11005 bound_to 11000
  144.7955  140.6114  143.6513 LP  0  0  0  0  0  0  0  0  0  0  0  0  # atno 17320 bound_to 7965
  145.4725  139.1502  143.3806 LP  0  0  0  0  0  0  0  0  0  0  0  0  # atno 17321 bound_to 7965
  140.7770  143.3715  151.1640 LP  0  0  0  0  0  0  0  0  0  0  0  0  # atno 17342 bound_to 10162
  139.7341  143.9026  152.3029 LP  0  0  0  0  0  0  0  0  0  0  0  0  # atno 17343 bound_to 10162
  157.3090  130.6880  149.6205 LP  0  0  0  0  0  0  0  0  0  0  0  0  # atno 17370 bound_to 10713
  155.9663  130.4369  150.5154 LP  0  0  0  0  0  0  0  0  0  0  0  0  # atno 17371 bound_to 10713
  140.6130  134.0065  155.7585 LP  0  0  0  0  0  0  0  0  0  0  0  0  # atno 17394 bound_to 11000
  141.0941  133.9870  157.3189 LP  0  0  0  0  0  0  0  0  0  0  0  0  # atno 17395 bound_to 11000

$$$$
