AV-unprocessed.smi:2229|AV-procd|sdf|9027|dock2
  -GOLD-   2272012233D 1   1.00000     0.00000
 Structure written by MMmdl.
 44 45  0  0  0  0  0  0  0  0  1 V2000
  153.0387  144.5581  158.1204 C   0  0  0  0  0  0  0  0  0  0  0  0
  152.2633  143.3627  158.6952 C   0  0  0  0  0  0  0  0  0  0  0  0
  153.2105  142.4425  159.4851 C   0  0  0  0  0  0  0  0  0  0  0  0
  151.5084  142.6148  157.5773 C   0  0  0  0  0  0  0  0  0  0  0  0
  150.6282  141.4576  158.0814 C   0  0  0  0  0  0  0  0  0  0  0  0
  149.9186  140.6948  156.9482 C   0  0  2  0  0  0  0  0  0  0  0  0
  150.8405  139.9249  156.0009 C   0  0  0  0  0  0  0  0  0  0  0  0
  149.9653  139.6550  154.7777 C   0  0  0  0  0  0  0  0  0  0  0  0
  149.0396  140.8726  154.6601 C   0  0  0  0  0  0  0  0  0  0  0  0
  149.1091  141.6079  156.0134 C   0  0  1  0  0  0  0  0  0  0  0  0
  147.7932  141.8673  156.5831 N   0  0  0  0  0  0  0  0  0  0  0  0
  147.5490  142.5498  157.7130 C   0  0  0  0  0  0  0  0  0  0  0  0
  148.4326  143.1182  158.3525 O   0  0  0  0  0  0  0  0  0  0  0  0
  146.1006  142.5947  158.2286 C   0  0  0  0  0  0  0  0  0  0  0  0
  145.8449  143.6046  159.2627 N   0  0  0  0  0  0  0  0  0  0  0  0
  145.8923  144.9619  159.0249 C   0  0  0  0  0  0  0  0  0  0  0  0
  145.6309  145.6459  160.0862 N   0  0  0  0  0  0  0  0  0  0  0  0
  145.4184  144.6821  161.0136 N   0  0  0  0  0  0  0  0  0  0  0  0
  145.5432  143.4382  160.5489 C   0  0  0  0  0  0  0  0  0  0  0  0
  145.3995  142.3857  161.1679 O   0  0  0  0  0  0  0  0  0  0  0  0
  145.1893  144.9492  161.9602 H   0  0  0  0  0  0  0  0  0  0  0  0
  153.7998  144.2323  157.4106 H   0  0  0  0  0  0  0  0  0  0  0  0
  153.5390  145.1195  158.9099 H   0  0  0  0  0  0  0  0  0  0  0  0
  152.3730  145.2484  157.6013 H   0  0  0  0  0  0  0  0  0  0  0  0
  151.5259  143.7624  159.3926 H   0  0  0  0  0  0  0  0  0  0  0  0
  153.9423  141.9700  158.8294 H   0  0  0  0  0  0  0  0  0  0  0  0
  152.6696  141.6526  160.0054 H   0  0  0  0  0  0  0  0  0  0  0  0
  153.7588  143.0035  160.2425 H   0  0  0  0  0  0  0  0  0  0  0  0
  150.8737  143.3248  157.0461 H   0  0  0  0  0  0  0  0  0  0  0  0
  152.2226  142.2410  156.8421 H   0  0  0  0  0  0  0  0  0  0  0  0
  151.2476  140.7479  158.6293 H   0  0  0  0  0  0  0  0  0  0  0  0
  149.8922  141.8322  158.7935 H   0  0  0  0  0  0  0  0  0  0  0  0
  149.2347  139.9696  157.3946 H   0  0  0  0  0  0  0  0  0  0  0  0
  151.6912  140.5458  155.7165 H   0  0  0  0  0  0  0  0  0  0  0  0
  151.2285  139.0065  156.4425 H   0  0  0  0  0  0  0  0  0  0  0  0
  150.5538  139.4898  153.8748 H   0  0  0  0  0  0  0  0  0  0  0  0
  149.3681  138.7587  154.9496 H   0  0  0  0  0  0  0  0  0  0  0  0
  149.3763  141.5353  153.8619 H   0  0  0  0  0  0  0  0  0  0  0  0
  148.0265  140.5568  154.4071 H   0  0  0  0  0  0  0  0  0  0  0  0
  149.6471  142.5485  155.8772 H   0  0  0  0  0  0  0  0  0  0  0  0
  147.0079  141.4374  156.1163 H   0  0  0  0  0  0  0  0  0  0  0  0
  145.4400  142.7918  157.3830 H   0  0  0  0  0  0  0  0  0  0  0  0
  145.8370  141.6009  158.5934 H   0  0  0  0  0  0  0  0  0  0  0  0
  146.1298  145.3281  158.0245 H   0  0  0  0  0  0  0  0  0  0  0  0
  1  2  1  0  0  0  0
  1 22  1  0  0  0  0
  1 23  1  0  0  0  0
  1 24  1  0  0  0  0
  2  3  1  0  0  0  0
  2  4  1  0  0  0  0
  2 25  1  0  0  0  0
  3 26  1  0  0  0  0
  3 27  1  0  0  0  0
  3 28  1  0  0  0  0
  4  5  1  0  0  0  0
  4 29  1  0  0  0  0
  4 30  1  0  0  0  0
  5  6  1  0  0  0  0
  5 31  1  0  0  0  0
  5 32  1  0  0  0  0
  6 10  1  0  0  0  0
  6  7  1  0  0  0  0
  6 33  1  0  0  0  0
  7  8  1  0  0  0  0
  7 34  1  0  0  0  0
  7 35  1  0  0  0  0
  8  9  1  0  0  0  0
  8 36  1  0  0  0  0
  8 37  1  0  0  0  0
  9 10  1  0  0  0  0
  9 38  1  0  0  0  0
  9 39  1  0  0  0  0
 10 11  1  0  0  0  0
 10 40  1  0  0  0  0
 11 12  1  0  0  0  0
 11 41  1  0  0  0  0
 12 13  2  0  0  0  0
 12 14  1  0  0  0  0
 14 15  1  0  0  0  0
 14 42  1  0  0  0  0
 14 43  1  0  0  0  0
 15 19  1  0  0  0  0
 15 16  1  0  0  0  0
 16 17  2  0  0  0  0
 16 44  1  0  0  0  0
 17 18  1  0  0  0  0
 18 21  1  0  0  0  0
 18 19  1  0  0  0  0
 19 20  2  0  0  0  0
M  END
> <s_m_source_file>
AV-unprocessed.smi

> <i_m_source_file_index>
2229

> <i_lp_mmshare_version>
43012

> <i_f3d_flags>
0

> <s_epik_input>
W0NIM11bQ0hdKFtDSDNdKVtDSDJdW0NIMl1bQ0BASF0xW0NIMl1bQ0gyXVtDSDJdW0NASF0xW05IXUMoPU8pW0NIMl1uMltjSF1uW25IXWMyPU8=

> <s_epik_cmdline>
J2VwaWtfcHl0aG9uJywgJy1waCcsICc3LjAnLCAnLXRuJywgJzgnLCAnLW1hJywgJzIwMCcsICctbWV0YWxfYmluZGluZycsICctaW1hZScsICc8aW5maWxlLm1hZT4nLCAnLW9tYWUnLCAnPG91dGZpbGUubWFlPic=

> <r_lp_tautomer_probability>
1

> <r_epik_Ionization_Penalty>
4.14174e-05

> <r_epik_Ionization_Penalty_Charging>
4.13165e-05

> <r_epik_Ionization_Penalty_Neutral>
1.00911e-07

> <r_epik_State_Penalty>
-0

> <r_epik_Charging_Adjusted_Penalty>
4.13165e-05

> <i_epik_Tot_Q>
0

> <i_epik_Tot_abs_Q>
0

> <r_epik_Metal_State_Penalty>
0.0399369

> <b_epik_Metal_Only>
0

> <s_lp_Force_Field>
OPLS_2005

> <r_lp_Energy>
36.5056

> <b_lp_Chiralities_Consistent>
1

> <s_lp_Variant>
AV-unprocessed.smi:2229-1

> <Gold.Version>
5.8.1

> <Gold.Id.Protein>
6NUR|6NUR_protein|mol2

> <Gold.PLP.Fitness>
39.8794

> <Gold.PLP.PLP>
-34.9290

> <Gold.PLP.part.hbond>
-1.0390

> <Gold.PLP.part.metal>
0.0000

> <Gold.PLP.part.buried>
-4.6564

> <Gold.PLP.part.nonpolar>
-28.9000

> <Gold.PLP.part.repulsive>
0.4338

> <Gold.PLP.ligand.clash>
0.0000

> <Gold.PLP.ligand.torsion>
0.2789

> <Gold.PLP.Chemscore.Hbond>
0.8160

> <Gold.PLP.Chemscore.CHOScore>
1.0000

> <Gold.PLP.Chemscore.Metal>
0.0000

> <Gold.Chemscore.Hbonds>
donor molecule, donor type, donor heavy atom, donor atom, acceptor molecule, acceptor atom, score
      P1  H  6934  6946       L1    20  0.63
      L1  C    16    44       P1  8029  0.82

> <Gold.PLP.Chemscore.Internal.Correction>
0.0602

> <Gold.Rescore>
     Score         DG    S(hbond)    S(metal)    S(lipo)     H(rot)  DE(clash)    DE(int)     intcor
     10.02     -12.29       0.94        0.00      89.00       2.64       0.49       1.78       ----

> <Gold.Chemscore.Fitness>
10.0172

> <Gold.Chemscore.DG>
-12.2933

> <Gold.Chemscore.ZeroCoef>
-5.4800

> <Gold.Chemscore.Hbond>
0.9434

> <Gold.Chemscore.Metal>
0.0000

> <Gold.Chemscore.Lipo>
88.9966

> <Gold.Chemscore.Internal_Hbond>
0.0000

> <Gold.Chemscore.DEClash>
0.4926

> <Gold.Chemscore.DEInternal>
1.7835

> <Gold.Chemscore.Rot>
2.6368

> <Gold.Chemscore.Internal.Correction>
   9.000000E+99

> <Gold.Chemscore.Hbonds>
donor molecule, donor type, donor heavy atom, donor atom, acceptor molecule, acceptor atom, score
      P1  H  6934  6946       L1    20  0.53

> <Gold.Chemscore.Hbond.Weighted>
-3.1508

> <Gold.Chemscore.Metal.Weighted>
-0.0000

> <Gold.Chemscore.Lipo.Weighted>
-10.4126

> <Gold.Chemscore.Internal_Hbond.Weighted>
0.0000

> <Gold.Chemscore.DEClash.Weighted>
0.4926

> <Gold.Chemscore.DEInternal.Weighted>
1.7835

> <Gold.Chemscore.Rot.Weighted>
6.7501

> <Gold.Chemscore.Internal.Correction.Weighted>
   9.000000E+99

> <Gold.Protein.RotatedTorsions>
[ 6907 6896 6895 6894 ] final -123.55 input  -60.11 | X-H torsion
[ 7974 7965 7964 7962 ] final   38.93 input  175.53 | X-H torsion
[ 8008 7997 7996 7995 ] final  142.37 input   59.86 | X-H torsion
[ 10167 10162 10161 10158 ] final -149.24 input  -65.29 | X-H torsion
[ 10718 10713 10712 10709 ] final   65.10 input   66.30 | X-H torsion
[ 10763 10752 10751 10750 ] final  130.21 input  -60.55 | X-H torsion
[ 11005 11000 10999 10996 ] final -136.56 input  -57.11 | X-H torsion

> <Gold.Protein.ActiveResidues>
 VAL166  LYS551  ARG553  GLY616  TRP617  ASP618  TYR619  PRO620  LYS621  CYS622 
 ASP623  PHE694  ASN695  SER759  ASP760  ASP761  ALA762  ILE779  LEU786  VAL792 
 PHE793  MET794  SER795  GLU796  ALA797  LYS798  CYS799  TRP800  GLU811  SER814 

> <Gold.Protein.RotatedAtoms>
  150.8682  133.7544  159.2969 H   0  0  0  0  0  0  0  0  0  0  0  0  # atno 6907 bound_to 6896
  151.5164  135.1065  159.9877 H   0  0  0  0  0  0  0  0  0  0  0  0  # atno 6908 bound_to 6896
  152.4676  133.7913  159.6959 H   0  0  0  0  0  0  0  0  0  0  0  0  # atno 6909 bound_to 6896
  146.1024  139.5712  142.9406 H   0  0  0  0  0  0  0  0  0  0  0  0  # atno 7974 bound_to 7965
  156.2950  140.2290  156.4716 H   0  0  0  0  0  0  0  0  0  0  0  0  # atno 8008 bound_to 7997
  154.7930  140.0453  157.1236 H   0  0  0  0  0  0  0  0  0  0  0  0  # atno 8009 bound_to 7997
  154.9623  140.3056  155.5029 H   0  0  0  0  0  0  0  0  0  0  0  0  # atno 8010 bound_to 7997
  139.7460  143.8589  152.2575 H   0  0  0  0  0  0  0  0  0  0  0  0  # atno 10167 bound_to 10162
  157.6083  130.9196  149.9932 H   0  0  0  0  0  0  0  0  0  0  0  0  # atno 10718 bound_to 10713
  153.7543  135.3205  155.3326 H   0  0  0  0  0  0  0  0  0  0  0  0  # atno 10763 bound_to 10752
  154.8252  135.4574  154.0901 H   0  0  0  0  0  0  0  0  0  0  0  0  # atno 10764 bound_to 10752
  153.2113  135.6936  153.8193 H   0  0  0  0  0  0  0  0  0  0  0  0  # atno 10765 bound_to 10752
  140.8794  134.1951  157.4601 H   0  0  0  0  0  0  0  0  0  0  0  0  # atno 11005 bound_to 11000
  145.5829  141.0380  143.2112 LP  0  0  0  0  0  0  0  0  0  0  0  0  # atno 17320 bound_to 7965
  144.7443  139.7363  143.7298 LP  0  0  0  0  0  0  0  0  0  0  0  0  # atno 17321 bound_to 7965
  139.8554  144.7144  150.9164 LP  0  0  0  0  0  0  0  0  0  0  0  0  # atno 17342 bound_to 10162
  140.7792  143.3863  151.1388 LP  0  0  0  0  0  0  0  0  0  0  0  0  # atno 17343 bound_to 10162
  156.1177  130.3647  149.9940 LP  0  0  0  0  0  0  0  0  0  0  0  0  # atno 17370 bound_to 10713
  156.8026  130.9296  151.3645 LP  0  0  0  0  0  0  0  0  0  0  0  0  # atno 17371 bound_to 10713
  139.8718  134.9810  156.5099 LP  0  0  0  0  0  0  0  0  0  0  0  0  # atno 17394 bound_to 11000
  140.8480  133.8154  155.9140 LP  0  0  0  0  0  0  0  0  0  0  0  0  # atno 17395 bound_to 11000

$$$$
