AV-unprocessed.smi:1942|AV-procd|sdf|7849|dock4
  -GOLD-   22720 9593D 1   1.00000     0.00000
 Structure written by MMmdl.
 35 37  0  0  0  0  0  0  0  0  1 V2000
  148.9773  137.7116  154.8090 O   0  0  0  0  0  0  0  0  0  0  0  0
  148.5677  138.8542  154.6034 C   0  0  0  0  0  0  0  0  0  0  0  0
  147.1885  139.1226  154.1797 C   0  0  0  0  0  0  0  0  0  0  0  0
  146.7471  140.3775  153.9625 C   0  0  0  0  0  0  0  0  0  0  0  0
  147.6325  141.5035  154.1437 C   0  0  0  0  0  0  0  0  0  0  0  0
  148.8957  141.2620  154.5284 C   0  0  0  0  0  0  0  0  0  0  0  0
  149.3675  139.9541  154.7578 N   0  0  0  0  0  0  0  0  0  0  0  0
  150.7722  139.8113  155.1751 C   0  0  0  0  0  0  0  0  0  0  0  0
  151.0915  140.7097  156.3465 C   0  0  0  0  0  0  0  0  0  0  0  0
  150.8346  142.0216  156.3506 N   0  0  0  0  0  0  0  0  0  0  0  0
  151.2852  142.4228  157.5915 C   0  0  0  0  0  0  0  0  0  0  0  0
  151.2836  143.6975  158.2010 C   0  0  0  0  0  0  0  0  0  0  0  0
  151.8096  143.8694  159.4984 C   0  0  0  0  0  0  0  0  0  0  0  0
  151.7990  145.4325  160.2282 Cl  0  0  0  0  0  0  0  0  0  0  0  0
  152.3450  142.7704  160.2016 C   0  0  0  0  0  0  0  0  0  0  0  0
  152.3567  141.4918  159.6113 C   0  0  0  0  0  0  0  0  0  0  0  0
  151.8284  141.3266  158.3169 C   0  0  0  0  0  0  0  0  0  0  0  0
  151.6909  140.2323  157.4687 N   0  0  0  0  0  0  0  0  0  0  0  0
  152.1236  138.8722  157.7632 C   0  0  0  0  0  0  0  0  0  0  0  0
  151.4894  138.3162  159.0491 C   0  0  0  0  0  0  0  0  0  0  0  0
  152.1216  137.1213  159.4562 O   0  0  0  0  0  0  0  0  0  0  0  0
  146.5117  138.2926  154.0395 H   0  0  0  0  0  0  0  0  0  0  0  0
  145.7257  140.5417  153.6522 H   0  0  0  0  0  0  0  0  0  0  0  0
  147.2871  142.5131  153.9767 H   0  0  0  0  0  0  0  0  0  0  0  0
  149.6187  142.0480  154.6917 H   0  0  0  0  0  0  0  0  0  0  0  0
  150.9682  138.7697  155.4302 H   0  0  0  0  0  0  0  0  0  0  0  0
  151.4546  140.0506  154.3586 H   0  0  0  0  0  0  0  0  0  0  0  0
  150.8761  144.5441  157.6684 H   0  0  0  0  0  0  0  0  0  0  0  0
  152.7471  142.9081  161.1947 H   0  0  0  0  0  0  0  0  0  0  0  0
  152.7657  140.6486  160.1476 H   0  0  0  0  0  0  0  0  0  0  0  0
  151.9122  138.2219  156.9147 H   0  0  0  0  0  0  0  0  0  0  0  0
  153.2091  138.8793  157.8676 H   0  0  0  0  0  0  0  0  0  0  0  0
  151.5693  139.0474  159.8538 H   0  0  0  0  0  0  0  0  0  0  0  0
  150.4275  138.1200  158.8987 H   0  0  0  0  0  0  0  0  0  0  0  0
  153.0536  137.2727  159.5008 H   0  0  0  0  0  0  0  0  0  0  0  0
  1  2  2  0  0  0  0
  2  7  1  0  0  0  0
  2  3  1  0  0  0  0
  3  4  2  0  0  0  0
  3 22  1  0  0  0  0
  4  5  1  0  0  0  0
  4 23  1  0  0  0  0
  5  6  2  0  0  0  0
  5 24  1  0  0  0  0
  6  7  1  0  0  0  0
  6 25  1  0  0  0  0
  7  8  1  0  0  0  0
  8  9  1  0  0  0  0
  8 26  1  0  0  0  0
  8 27  1  0  0  0  0
  9 18  1  0  0  0  0
  9 10  2  0  0  0  0
 10 11  1  0  0  0  0
 11 17  2  0  0  0  0
 11 12  1  0  0  0  0
 12 13  2  0  0  0  0
 12 28  1  0  0  0  0
 13 14  1  0  0  0  0
 13 15  1  0  0  0  0
 15 16  2  0  0  0  0
 15 29  1  0  0  0  0
 16 17  1  0  0  0  0
 16 30  1  0  0  0  0
 17 18  1  0  0  0  0
 18 19  1  0  0  0  0
 19 20  1  0  0  0  0
 19 31  1  0  0  0  0
 19 32  1  0  0  0  0
 20 21  1  0  0  0  0
 20 33  1  0  0  0  0
 20 34  1  0  0  0  0
 21 35  1  0  0  0  0
M  END
> <s_m_source_file>
AV-unprocessed.smi

> <i_m_source_file_index>
1942

> <i_lp_mmshare_version>
43012

> <i_f3d_flags>
0

> <s_epik_input>
Tz1jMVtjSF1bY0hdW2NIXVtjSF1uMVtDSDJdYyhuMiluKFtDSDJdW0NIMl1bT0hdKWMoYzIzKVtjSF1bY0hdYyhDbClbY0hdMw==

> <s_epik_cmdline>
J2VwaWtfcHl0aG9uJywgJy1waCcsICc3LjAnLCAnLXRuJywgJzgnLCAnLW1hJywgJzIwMCcsICctbWV0YWxfYmluZGluZycsICctaW1hZScsICc8aW5maWxlLm1hZT4nLCAnLW9tYWUnLCAnPG91dGZpbGUubWFlPic=

> <r_lp_tautomer_probability>
1

> <r_epik_Ionization_Penalty>
0.0394182

> <r_epik_Ionization_Penalty_Charging>
8.17328e-07

> <r_epik_Ionization_Penalty_Neutral>
0.0394174

> <r_epik_State_Penalty>
0.0331163

> <r_epik_Charging_Adjusted_Penalty>
0.0331171

> <i_epik_Tot_Q>
0

> <i_epik_Tot_abs_Q>
0

> <r_epik_Metal_State_Penalty>
3.40583e-05

> <b_epik_Metal_Only>
0

> <s_lp_Force_Field>
OPLS_2005

> <r_lp_Energy>
18.6161

> <b_lp_Chiralities_Consistent>
1

> <s_lp_Variant>
AV-unprocessed.smi:1942-1

> <Gold.Version>
5.8.1

> <Gold.Id.Protein>
6NUR|6NUR_protein|mol2

> <Gold.PLP.Fitness>
48.1461

> <Gold.PLP.PLP>
-45.4516

> <Gold.PLP.part.hbond>
-1.0000

> <Gold.PLP.part.metal>
0.0000

> <Gold.PLP.part.buried>
-5.2642

> <Gold.PLP.part.nonpolar>
-40.9194

> <Gold.PLP.part.repulsive>
0.2525

> <Gold.PLP.ligand.clash>
0.0000

> <Gold.PLP.ligand.torsion>
0.1877

> <Gold.PLP.Chemscore.Hbond>
0.9425

> <Gold.PLP.Chemscore.CHOScore>
0.0777

> <Gold.PLP.Chemscore.Metal>
0.0000

> <Gold.Chemscore.Hbonds>
donor molecule, donor type, donor heavy atom, donor atom, acceptor molecule, acceptor atom, score
      P1  H  6896  6908       L1    21  0.78
      L1  C     6    25       P1  8028  0.01

> <Gold.PLP.Chemscore.Internal.Correction>
0.0092

> <Gold.Rescore>
     Score         DG    S(hbond)    S(metal)    S(lipo)     H(rot)  DE(clash)    DE(int)     intcor
     13.77     -15.16       0.85        0.00     108.29       2.27       0.03       1.36       ----

> <Gold.Chemscore.Fitness>
13.7737

> <Gold.Chemscore.DG>
-15.1622

> <Gold.Chemscore.ZeroCoef>
-5.4800

> <Gold.Chemscore.Hbond>
0.8493

> <Gold.Chemscore.Metal>
0.0000

> <Gold.Chemscore.Lipo>
108.2855

> <Gold.Chemscore.Internal_Hbond>
0.0000

> <Gold.Chemscore.DEClash>
0.0294

> <Gold.Chemscore.DEInternal>
1.3590

> <Gold.Chemscore.Rot>
2.2750

> <Gold.Chemscore.Internal.Correction>
   9.000000E+99

> <Gold.Chemscore.Hbonds>
donor molecule, donor type, donor heavy atom, donor atom, acceptor molecule, acceptor atom, score
      P1  H  6896  6908       L1    21  0.69

> <Gold.Chemscore.Hbond.Weighted>
-2.8367

> <Gold.Chemscore.Metal.Weighted>
-0.0000

> <Gold.Chemscore.Lipo.Weighted>
-12.6694

> <Gold.Chemscore.Internal_Hbond.Weighted>
0.0000

> <Gold.Chemscore.DEClash.Weighted>
0.0294

> <Gold.Chemscore.DEInternal.Weighted>
1.3590

> <Gold.Chemscore.Rot.Weighted>
5.8240

> <Gold.Chemscore.Internal.Correction.Weighted>
   9.000000E+99

> <Gold.Protein.RotatedTorsions>
[ 6907 6896 6895 6894 ] final -127.24 input  -60.11 | X-H torsion
[ 7974 7965 7964 7962 ] final -177.72 input  175.53 | X-H torsion
[ 8008 7997 7996 7995 ] final -141.88 input   59.86 | X-H torsion
[ 10167 10162 10161 10158 ] final  -38.39 input  -65.29 | X-H torsion
[ 10718 10713 10712 10709 ] final  -27.67 input   66.30 | X-H torsion
[ 10763 10752 10751 10750 ] final   11.58 input  -60.55 | X-H torsion
[ 11005 11000 10999 10996 ] final  130.91 input  -57.11 | X-H torsion

> <Gold.Protein.ActiveResidues>
 VAL166  LYS551  ARG553  GLY616  TRP617  ASP618  TYR619  PRO620  LYS621  CYS622 
 ASP623  PHE694  ASN695  SER759  ASP760  ASP761  ALA762  ILE779  LEU786  VAL792 
 PHE793  MET794  SER795  GLU796  ALA797  LYS798  CYS799  TRP800  GLU811  SER814 

> <Gold.Protein.RotatedAtoms>
  150.9052  133.7067  159.2868 H   0  0  0  0  0  0  0  0  0  0  0  0  # atno 6907 bound_to 6896
  151.4572  135.1034  159.9724 H   0  0  0  0  0  0  0  0  0  0  0  0  # atno 6908 bound_to 6896
  152.4899  133.8424  159.7215 H   0  0  0  0  0  0  0  0  0  0  0  0  # atno 6909 bound_to 6896
  144.7128  140.0977  143.6418 H   0  0  0  0  0  0  0  0  0  0  0  0  # atno 7974 bound_to 7965
  155.4851  140.0563  157.2961 H   0  0  0  0  0  0  0  0  0  0  0  0  # atno 8008 bound_to 7997
  154.4645  140.2012  156.0107 H   0  0  0  0  0  0  0  0  0  0  0  0  # atno 8009 bound_to 7997
  156.0949  140.3228  155.7869 H   0  0  0  0  0  0  0  0  0  0  0  0  # atno 8010 bound_to 7997
  140.7093  143.3280  151.2635 H   0  0  0  0  0  0  0  0  0  0  0  0  # atno 10167 bound_to 10162
  156.4352  130.4453  149.7090 H   0  0  0  0  0  0  0  0  0  0  0  0  # atno 10718 bound_to 10713
  153.1911  135.6842  153.8352 H   0  0  0  0  0  0  0  0  0  0  0  0  # atno 10763 bound_to 10752
  153.7650  135.3204  155.3344 H   0  0  0  0  0  0  0  0  0  0  0  0  # atno 10764 bound_to 10752
  154.8118  135.4712  154.0634 H   0  0  0  0  0  0  0  0  0  0  0  0  # atno 10765 bound_to 10752
  139.9699  134.9580  156.9362 H   0  0  0  0  0  0  0  0  0  0  0  0  # atno 11005 bound_to 11000
  145.9565  139.2770  143.1181 LP  0  0  0  0  0  0  0  0  0  0  0  0  # atno 17320 bound_to 7965
  145.9267  140.9077  143.0377 LP  0  0  0  0  0  0  0  0  0  0  0  0  # atno 17321 bound_to 7965
  139.6754  143.9947  152.2778 LP  0  0  0  0  0  0  0  0  0  0  0  0  # atno 17342 bound_to 10162
  139.9559  144.6590  150.8126 LP  0  0  0  0  0  0  0  0  0  0  0  0  # atno 17343 bound_to 10162
  156.3977  130.7659  151.2665 LP  0  0  0  0  0  0  0  0  0  0  0  0  # atno 17370 bound_to 10713
  157.7507  131.0249  150.3896 LP  0  0  0  0  0  0  0  0  0  0  0  0  # atno 17371 bound_to 10713
  140.5315  134.0809  155.7317 LP  0  0  0  0  0  0  0  0  0  0  0  0  # atno 17394 bound_to 11000
  141.1379  133.9189  157.2392 LP  0  0  0  0  0  0  0  0  0  0  0  0  # atno 17395 bound_to 11000

$$$$
