AV-unprocessed.smi:1367|AV-procd|sdf|5572|dock2
  -GOLD-   22720 5163D 1   1.00000     0.00000
 Structure written by MMmdl.
 30 30  0  0  0  0  0  0  0  0  1 V2000
  146.5408  138.0203  152.4571 C   0  0  0  0  0  0  0  0  0  0  0  0
  147.3101  139.0905  153.2026 C   0  0  0  0  0  0  0  0  0  0  0  0
  146.7918  140.2051  153.6015 N   0  0  0  0  0  0  0  0  0  0  0  0
  147.6048  141.1196  154.2856 C   0  0  0  0  0  0  0  0  0  0  0  0
  146.9224  142.4040  154.7238 C   0  0  0  0  0  0  0  0  0  0  0  0
  148.9218  140.8599  154.5352 C   0  0  0  0  0  0  0  0  0  0  0  0
  149.8315  141.8359  155.2800 C   0  0  0  0  0  0  0  0  0  0  0  0
  150.3148  141.3707  156.6559 C   0  0  0  0  0  0  0  0  0  0  0  0
  150.1004  140.2184  157.0323 O   0  0  0  0  0  0  0  0  0  0  0  0
  150.9606  142.2784  157.4011 N   0  0  0  0  0  0  0  0  0  0  0  0
  151.4776  142.0261  158.7400 C   0  0  0  0  0  0  0  0  0  0  0  0
  151.9585  143.3249  159.4027 C   0  0  0  0  0  0  0  0  0  0  0  0
  150.9185  144.1361  159.5912 F   0  0  0  0  0  0  0  0  0  0  0  0
  152.5173  143.0621  160.5842 F   0  0  0  0  0  0  0  0  0  0  0  0
  152.8473  143.9411  158.6230 F   0  0  0  0  0  0  0  0  0  0  0  0
  149.5032  139.5838  154.0751 C   0  0  0  0  0  0  0  0  0  0  0  0
  150.6728  139.2463  154.2502 O   0  0  0  0  0  0  0  0  0  0  0  0
  148.6467  138.7639  153.4256 N   0  0  0  0  0  0  0  0  0  0  0  0
  148.9964  137.8772  153.0926 H   0  0  0  0  0  0  0  0  0  0  0  0
  145.7038  137.6701  153.0616 H   0  0  0  0  0  0  0  0  0  0  0  0
  147.1718  137.1631  152.2184 H   0  0  0  0  0  0  0  0  0  0  0  0
  146.1454  138.4232  151.5246 H   0  0  0  0  0  0  0  0  0  0  0  0
  147.3778  143.2654  154.2352 H   0  0  0  0  0  0  0  0  0  0  0  0
  147.0016  142.5337  155.8033 H   0  0  0  0  0  0  0  0  0  0  0  0
  145.8623  142.3970  154.4675 H   0  0  0  0  0  0  0  0  0  0  0  0
  150.7079  142.0790  154.6785 H   0  0  0  0  0  0  0  0  0  0  0  0
  149.3021  142.7831  155.3902 H   0  0  0  0  0  0  0  0  0  0  0  0
  151.0973  143.2049  157.0225 H   0  0  0  0  0  0  0  0  0  0  0  0
  150.6978  141.5662  159.3494 H   0  0  0  0  0  0  0  0  0  0  0  0
  152.3002  141.3119  158.6792 H   0  0  0  0  0  0  0  0  0  0  0  0
  1  2  1  0  0  0  0
  1 20  1  0  0  0  0
  1 21  1  0  0  0  0
  1 22  1  0  0  0  0
  2 18  1  0  0  0  0
  2  3  2  0  0  0  0
  3  4  1  0  0  0  0
  4  5  1  0  0  0  0
  4  6  2  0  0  0  0
  5 23  1  0  0  0  0
  5 24  1  0  0  0  0
  5 25  1  0  0  0  0
  6  7  1  0  0  0  0
  6 16  1  0  0  0  0
  7  8  1  0  0  0  0
  7 26  1  0  0  0  0
  7 27  1  0  0  0  0
  8  9  2  0  0  0  0
  8 10  1  0  0  0  0
 10 11  1  0  0  0  0
 10 28  1  0  0  0  0
 11 12  1  0  0  0  0
 11 29  1  0  0  0  0
 11 30  1  0  0  0  0
 12 13  1  0  0  0  0
 12 14  1  0  0  0  0
 12 15  1  0  0  0  0
 16 17  2  0  0  0  0
 16 18  1  0  0  0  0
 18 19  1  0  0  0  0
M  END
> <s_m_source_file>
AV-unprocessed.smi

> <i_m_source_file_index>
1367

> <i_lp_mmshare_version>
43012

> <i_f3d_flags>
0

> <s_epik_input>
W0NIM11jMW5jKFtDSDNdKWMoYyg9TylbbkhdMSlbQ0gyXUMoPU8pW05IXVtDSDJdQyhGKShGKUY=

> <s_epik_cmdline>
J2VwaWtfcHl0aG9uJywgJy1waCcsICc3LjAnLCAnLXRuJywgJzgnLCAnLW1hJywgJzIwMCcsICctbWV0YWxfYmluZGluZycsICctaW1hZScsICc8aW5maWxlLm1hZT4nLCAnLW9tYWUnLCAnPG91dGZpbGUubWFlPic=

> <r_lp_tautomer_probability>
0.839158

> <r_epik_Ionization_Penalty>
0.000480491

> <r_epik_Ionization_Penalty_Charging>
0.000456019

> <r_epik_Ionization_Penalty_Neutral>
2.44714e-05

> <r_epik_State_Penalty>
0.048705

> <r_epik_Charging_Adjusted_Penalty>
0.0491611

> <i_epik_Tot_Q>
0

> <i_epik_Tot_abs_Q>
0

> <r_epik_Metal_State_Penalty>
0.248113

> <b_epik_Metal_Only>
0

> <s_lp_Force_Field>
OPLS_2005

> <r_lp_Energy>
5.13431

> <b_lp_Chiralities_Consistent>
1

> <s_lp_Variant>
AV-unprocessed.smi:1367-1

> <Gold.Version>
5.8.1

> <Gold.Id.Protein>
6NUR|6NUR_protein|mol2

> <Gold.PLP.Fitness>
41.6504

> <Gold.PLP.PLP>
-36.0037

> <Gold.PLP.part.hbond>
-3.0000

> <Gold.PLP.part.metal>
0.0000

> <Gold.PLP.part.buried>
0.6515

> <Gold.PLP.part.nonpolar>
-34.1084

> <Gold.PLP.part.repulsive>
0.4334

> <Gold.PLP.ligand.clash>
0.0000

> <Gold.PLP.ligand.torsion>
0.1792

> <Gold.PLP.Chemscore.Hbond>
2.0000

> <Gold.PLP.Chemscore.CHOScore>
0.0000

> <Gold.PLP.Chemscore.Metal>
0.0000

> <Gold.Chemscore.Hbonds>
donor molecule, donor type, donor heavy atom, donor atom, acceptor molecule, acceptor atom, score
      L1  H    18    19       P1  7948  1.00
      P1  H  7989  7998       L1    17  1.00

> <Gold.PLP.Chemscore.Internal.Correction>
0.0052

> <Gold.Rescore>
     Score         DG    S(hbond)    S(metal)    S(lipo)     H(rot)  DE(clash)    DE(int)     intcor
     11.64     -12.26       1.73        0.00      50.06       1.90       0.34       0.29       ----

> <Gold.Chemscore.Fitness>
11.6370

> <Gold.Chemscore.DG>
-12.2616

> <Gold.Chemscore.ZeroCoef>
-5.4800

> <Gold.Chemscore.Hbond>
1.7305

> <Gold.Chemscore.Metal>
0.0000

> <Gold.Chemscore.Lipo>
50.0642

> <Gold.Chemscore.Internal_Hbond>
0.0000

> <Gold.Chemscore.DEClash>
0.3359

> <Gold.Chemscore.DEInternal>
0.2888

> <Gold.Chemscore.Rot>
1.8968

> <Gold.Chemscore.Internal.Correction>
   9.000000E+99

> <Gold.Chemscore.Hbonds>
donor molecule, donor type, donor heavy atom, donor atom, acceptor molecule, acceptor atom, score
      L1  H    18    19       P1  7948  0.91
      P1  H  7989  7998       L1    17  0.24

> <Gold.Chemscore.Hbond.Weighted>
-5.7800

> <Gold.Chemscore.Metal.Weighted>
-0.0000

> <Gold.Chemscore.Lipo.Weighted>
-5.8575

> <Gold.Chemscore.Internal_Hbond.Weighted>
0.0000

> <Gold.Chemscore.DEClash.Weighted>
0.3359

> <Gold.Chemscore.DEInternal.Weighted>
0.2888

> <Gold.Chemscore.Rot.Weighted>
4.8559

> <Gold.Chemscore.Internal.Correction.Weighted>
   9.000000E+99

> <Gold.Protein.RotatedTorsions>
[ 6907 6896 6895 6894 ] final -178.37 input  -60.11 | X-H torsion
[ 7974 7965 7964 7962 ] final   59.21 input  175.53 | X-H torsion
[ 8008 7997 7996 7995 ] final  -26.69 input   59.86 | X-H torsion
[ 10167 10162 10161 10158 ] final  -77.84 input  -65.29 | X-H torsion
[ 10718 10713 10712 10709 ] final -119.18 input   66.30 | X-H torsion
[ 10763 10752 10751 10750 ] final   -8.12 input  -60.55 | X-H torsion
[ 11005 11000 10999 10996 ] final  -80.18 input  -57.11 | X-H torsion

> <Gold.Protein.ActiveResidues>
 VAL166  LYS551  ARG553  GLY616  TRP617  ASP618  TYR619  PRO620  LYS621  CYS622 
 ASP623  PHE694  ASN695  SER759  ASP760  ASP761  ALA762  ILE779  LEU786  VAL792 
 PHE793  MET794  SER795  GLU796  ALA797  LYS798  CYS799  TRP800  GLU811  SER814 

> <Gold.Protein.RotatedAtoms>
  151.6361  133.3329  159.3119 H   0  0  0  0  0  0  0  0  0  0  0  0  # atno 6907 bound_to 6896
  150.8031  134.7143  159.6631 H   0  0  0  0  0  0  0  0  0  0  0  0  # atno 6908 bound_to 6896
  152.4125  134.6103  160.0075 H   0  0  0  0  0  0  0  0  0  0  0  0  # atno 6909 bound_to 6896
  145.9097  139.3644  143.0543 H   0  0  0  0  0  0  0  0  0  0  0  0  # atno 7974 bound_to 7965
  154.4413  140.1892  156.0815 H   0  0  0  0  0  0  0  0  0  0  0  0  # atno 8008 bound_to 7997
  156.0435  140.3317  155.7243 H   0  0  0  0  0  0  0  0  0  0  0  0  # atno 8009 bound_to 7997
  155.5665  140.0608  157.2807 H   0  0  0  0  0  0  0  0  0  0  0  0  # atno 8010 bound_to 7997
  140.4734  143.2420  151.8169 H   0  0  0  0  0  0  0  0  0  0  0  0  # atno 10167 bound_to 10162
  156.1162  130.6287  150.9385 H   0  0  0  0  0  0  0  0  0  0  0  0  # atno 10718 bound_to 10713
  153.4360  135.7013  153.6199 H   0  0  0  0  0  0  0  0  0  0  0  0  # atno 10763 bound_to 10752
  153.4594  135.3740  155.2330 H   0  0  0  0  0  0  0  0  0  0  0  0  # atno 10764 bound_to 10752
  154.8726  135.4016  154.3752 H   0  0  0  0  0  0  0  0  0  0  0  0  # atno 10765 bound_to 10752
  141.1668  133.7139  156.8235 H   0  0  0  0  0  0  0  0  0  0  0  0  # atno 11005 bound_to 11000
  145.8688  140.9432  143.0662 LP  0  0  0  0  0  0  0  0  0  0  0  0  # atno 17320 bound_to 7965
  144.6742  140.0627  143.7475 LP  0  0  0  0  0  0  0  0  0  0  0  0  # atno 17321 bound_to 7965
  139.4822  144.4863  151.9242 LP  0  0  0  0  0  0  0  0  0  0  0  0  # atno 17342 bound_to 10162
  140.3948  144.2569  150.5897 LP  0  0  0  0  0  0  0  0  0  0  0  0  # atno 17343 bound_to 10162
  157.6345  131.0917  150.8376 LP  0  0  0  0  0  0  0  0  0  0  0  0  # atno 17370 bound_to 10713
  156.8479  130.5070  149.5314 LP  0  0  0  0  0  0  0  0  0  0  0  0  # atno 17371 bound_to 10713
  140.2102  134.8833  157.3266 LP  0  0  0  0  0  0  0  0  0  0  0  0  # atno 17394 bound_to 11000
  140.2094  134.4157  155.7620 LP  0  0  0  0  0  0  0  0  0  0  0  0  # atno 17395 bound_to 11000

$$$$
