#       Name:                AV-unprocessed.smi:1216
#       Creating user name   scv26
#       Creation time:       Fri Mar 27 04:15:16 2020


#       File generated by GOLD software.
#

@<TRIPOS>MOLECULE
AV-unprocessed.smi:1216
    47    48     1
SMALL
NO_CHARGES


@<TRIPOS>ATOM
      1 ****        -3.6307  -2.0291  -1.7522 C.3            1 S1                 0.0000
      2 ****        -2.9595  -1.3736  -0.5376 C.3            1 S1                 0.0000
      3 ****        -3.3100  -2.1247   0.7654 C.3            1 S1                 0.0000
      4 ****        -2.8860  -1.4110   1.9747 N.pl3          1 S1                 0.0000
      5 ****        -1.8371  -1.7223   2.8017 C.2            1 S1                 0.0000
      6 ****        -1.8253  -0.7735   3.7914 C.2            1 S1                 0.0000
      7 ****        -2.8703   0.0718   3.5307 N.pl3          1 S1                 1.0000
      8 ****        -3.5167  -0.3199   2.4281 C.2            1 S1                 0.0000
      9 ****        -1.5144  -1.3442  -0.7579 N.am           1 S1                 0.0000
     10 ****        -0.6797  -0.3640  -0.3782 C.2            1 S1                 0.0000
     11 ****        -1.0459   0.6296   0.2515 O.2            1 S1                 0.0000
     12 ****         0.7963  -0.5617  -0.7486 C.3            1 S1                 0.0000
     13 ****         1.5667   0.6912  -0.7605 N.am           1 S1                 0.0000
     14 ****         2.3635   0.9898   0.4402 C.3            1 S1                 0.0000
     15 ****         3.8900   0.8873   0.2160 C.3            1 S1                 0.0000
     16 ****         4.3937   1.2235  -1.2016 C.3            1 S1                 0.0000
     17 ****         3.9083   2.5765  -1.7631 C.3            1 S1                 0.0000
     18 ****         2.3791   2.8140  -1.7696 C.3            1 S1                 0.0000
     19 ****         1.5357   1.5296  -1.8272 C.2            1 S1                 0.0000
     20 ****         0.8635   1.3070  -2.8346 O.2            1 S1                 0.0000
     21 ****        -4.7156  -2.0401  -1.6430 H              1 S1                 0.0000
     22 ****        -3.2996  -3.0600  -1.8823 H              1 S1                 0.0000
     23 ****        -3.4003  -1.4864  -2.6698 H              1 S1                 0.0000
     24 ****        -3.3409  -0.3527  -0.4750 H              1 S1                 0.0000
     25 ****        -4.3883  -2.2721   0.8406 H              1 S1                 0.0000
     26 ****        -2.8556  -3.1166   0.7766 H              1 S1                 0.0000
     27 ****        -1.1905  -2.5696   2.6252 H              1 S1                 0.0000
     28 ****        -1.1694  -0.6401   4.6394 H              1 S1                 0.0000
     29 ****        -4.3735   0.1568   1.9861 H              1 S1                 0.0000
     30 ****        -1.1198  -2.1235  -1.2651 H              1 S1                 0.0000
     31 ****         1.2351  -1.2685  -0.0435 H              1 S1                 0.0000
     32 ****         0.8642  -1.0488  -1.7232 H              1 S1                 0.0000
     33 ****         2.1091   1.9865   0.8012 H              1 S1                 0.0000
     34 ****         2.0794   0.3337   1.2640 H              1 S1                 0.0000
     35 ****         4.3955   1.5230   0.9435 H              1 S1                 0.0000
     36 ****         4.2065  -0.1304   0.4465 H              1 S1                 0.0000
     37 ****         5.4840   1.2146  -1.1981 H              1 S1                 0.0000
     38 ****         4.1089   0.4229  -1.8857 H              1 S1                 0.0000
     39 ****         4.3810   3.3825  -1.2007 H              1 S1                 0.0000
     40 ****         4.2818   2.6757  -2.7830 H              1 S1                 0.0000
     41 ****         2.0854   3.3898  -0.8923 H              1 S1                 0.0000
     42 ****         2.1200   3.4499  -2.6172 H              1 S1                 0.0000
     43 ****        -3.1191   0.8789   4.0887 H              1 S1                 0.0000
     44 ****        -2.0076   0.7347   0.5045 LP             1 S1                 0.0000
     45 ****        -0.3814   1.3309   0.5095 LP             1 S1                 0.0000
     46 ****         0.3078   0.4776  -2.8917 LP             1 S1                 0.0000
     47 ****         0.8734   1.9556  -3.5957 LP             1 S1                 0.0000
@<TRIPOS>BOND
    1    1    2 1     
    2    1   21 1     
    3    1   22 1     
    4    1   23 1     
    5    2    3 1     
    6    2    9 1     
    7    2   24 1     
    8    3    4 1     
    9    3   25 1     
   10    3   26 1     
   11    4    8 1     
   12    4    5 1     
   13    5    6 2     
   14    5   27 1     
   15    6    7 1     
   16    6   28 1     
   17    7    8 2     
   18    7   43 1     
   19    8   29 1     
   20    9   10 am    
   21    9   30 1     
   22   10   11 2     
   23   10   12 1     
   24   12   13 1     
   25   12   31 1     
   26   12   32 1     
   27   13   19 am    
   28   13   14 1     
   29   14   15 1     
   30   14   33 1     
   31   14   34 1     
   32   15   16 1     
   33   15   35 1     
   34   15   36 1     
   35   16   17 1     
   36   16   37 1     
   37   16   38 1     
   38   17   18 1     
   39   17   39 1     
   40   17   40 1     
   41   18   19 1     
   42   18   41 1     
   43   18   42 1     
   44   19   20 2     
   45   11   44 1     
   46   11   45 1     
   47   20   46 1     
   48   20   47 1     
@<TRIPOS>SUBSTRUCTURE
      1 S1             1
@<TRIPOS>SET
LONE_PAIRS      STATIC     ATOMS    <user>   **** ""
4 44 45 46 47
DONOR_HYDROGENS      STATIC     ATOMS    <user>   **** ""
2 43 30
ATOM$BLUE        STATIC     ATOMS    COLORGROUP SYSTEM
4 44 45 46 47
ATOM$RED        STATIC     ATOMS    COLORGROUP SYSTEM
2 43 30
