AV-unprocessed.smi:1413|AV-procd|sdf|5754|dock1
  -GOLD-   22720 5393D 1   1.00000     0.00000
 Structure written by MMmdl.
 53 55  0  0  0  0  0  0  0  0  1 V2000
  153.5475  141.4619  160.1290 C   0  0  0  0  0  0  0  0  0  0  0  0
  152.3410  141.9784  159.3379 C   0  0  2  0  0  0  0  0  0  0  0  0
  151.9386  141.0127  158.2084 C   0  0  0  0  0  0  0  0  0  0  0  0
  150.8763  141.5960  157.3956 N   0  0  0  0  0  0  0  0  0  0  0  0
  150.2002  140.6991  156.5411 C   0  0  0  0  0  0  0  0  0  0  0  0
  148.9929  140.0927  156.9606 C   0  0  0  0  0  0  0  0  0  0  0  0
  148.3359  139.1997  156.0931 C   0  0  0  0  0  0  0  0  0  0  0  0
  148.9000  138.9235  154.8329 C   0  0  0  0  0  0  0  0  0  0  0  0
  148.2091  138.0330  153.9680 N   0  0  0  0  0  0  0  0  0  0  0  0
  146.9639  137.5449  154.1001 C   0  0  0  0  0  0  0  0  0  0  0  0
  146.1810  137.8349  155.0043 O   0  0  0  0  0  0  0  0  0  0  0  0
  146.6663  136.7021  153.1003 N   0  0  0  0  0  0  0  0  0  0  0  0
  145.3939  136.0049  152.9171 C   0  0  1  0  0  0  0  0  0  0  0  0
  144.2701  137.0471  152.8187 C   0  0  0  0  0  0  0  0  0  0  0  0
  145.4444  135.1023  151.6670 C   0  0  1  0  0  0  0  0  0  0  0  0
  146.4515  133.9534  151.7296 C   0  0  0  0  0  0  0  0  0  0  0  0
  145.9038  132.9539  150.7249 C   0  0  0  0  0  0  0  0  0  0  0  0
  144.4352  133.3581  150.5627 C   0  0  0  0  0  0  0  0  0  0  0  0
  144.2206  134.4025  151.5033 O   0  0  0  0  0  0  0  0  0  0  0  0
  150.1004  139.5899  154.4915 C   0  0  0  0  0  0  0  0  0  0  0  0
  150.7309  140.4499  155.3189 N   0  0  0  0  0  0  0  0  0  0  0  0
  151.2138  142.9183  156.8736 C   0  0  0  0  0  0  0  0  0  0  0  0
  151.6614  143.8632  158.0058 C   0  0  1  0  0  0  0  0  0  0  0  0
  150.4987  144.3723  158.8766 C   0  0  0  0  0  0  0  0  0  0  0  0
  152.6893  143.2470  158.7844 O   0  0  0  0  0  0  0  0  0  0  0  0
  153.3314  140.4978  160.5898 H   0  0  0  0  0  0  0  0  0  0  0  0
  153.8181  142.1571  160.9242 H   0  0  0  0  0  0  0  0  0  0  0  0
  154.4181  141.3382  159.4842 H   0  0  0  0  0  0  0  0  0  0  0  0
  151.5087  142.0959  160.0321 H   0  0  0  0  0  0  0  0  0  0  0  0
  152.7957  140.8090  157.5649 H   0  0  0  0  0  0  0  0  0  0  0  0
  151.6375  140.0600  158.6426 H   0  0  0  0  0  0  0  0  0  0  0  0
  148.5597  140.3130  157.9249 H   0  0  0  0  0  0  0  0  0  0  0  0
  147.4104  138.7327  156.3969 H   0  0  0  0  0  0  0  0  0  0  0  0
  148.7013  137.7771  153.1246 H   0  0  0  0  0  0  0  0  0  0  0  0
  147.3757  136.5303  152.4031 H   0  0  0  0  0  0  0  0  0  0  0  0
  145.1867  135.3807  153.7881 H   0  0  0  0  0  0  0  0  0  0  0  0
  143.2963  136.5677  152.7153 H   0  0  0  0  0  0  0  0  0  0  0  0
  144.4096  137.7031  151.9589 H   0  0  0  0  0  0  0  0  0  0  0  0
  144.2333  137.6708  153.7124 H   0  0  0  0  0  0  0  0  0  0  0  0
  145.6275  135.7027  150.7733 H   0  0  0  0  0  0  0  0  0  0  0  0
  147.4704  134.2682  151.5024 H   0  0  0  0  0  0  0  0  0  0  0  0
  146.4504  133.5067  152.7247 H   0  0  0  0  0  0  0  0  0  0  0  0
  146.4263  133.0315  149.7708 H   0  0  0  0  0  0  0  0  0  0  0  0
  146.0110  131.9303  151.0851 H   0  0  0  0  0  0  0  0  0  0  0  0
  144.2499  133.7357  149.5563 H   0  0  0  0  0  0  0  0  0  0  0  0
  143.7517  132.5286  150.7457 H   0  0  0  0  0  0  0  0  0  0  0  0
  150.5714  139.4623  153.5293 H   0  0  0  0  0  0  0  0  0  0  0  0
  152.0201  142.8114  156.1464 H   0  0  0  0  0  0  0  0  0  0  0  0
  150.3623  143.3526  156.3483 H   0  0  0  0  0  0  0  0  0  0  0  0
  152.1154  144.7404  157.5439 H   0  0  0  0  0  0  0  0  0  0  0  0
  149.7972  144.9561  158.2805 H   0  0  0  0  0  0  0  0  0  0  0  0
  150.8650  145.0153  159.6770 H   0  0  0  0  0  0  0  0  0  0  0  0
  149.9347  143.5582  159.3313 H   0  0  0  0  0  0  0  0  0  0  0  0
  1  2  1  0  0  0  0
  1 26  1  0  0  0  0
  1 27  1  0  0  0  0
  1 28  1  0  0  0  0
  2 25  1  0  0  0  0
  2  3  1  0  0  0  0
  2 29  1  0  0  0  0
  3  4  1  0  0  0  0
  3 30  1  0  0  0  0
  3 31  1  0  0  0  0
  4  5  1  0  0  0  0
  4 22  1  0  0  0  0
  5 21  1  0  0  0  0
  5  6  2  0  0  0  0
  6  7  1  0  0  0  0
  6 32  1  0  0  0  0
  7  8  2  0  0  0  0
  7 33  1  0  0  0  0
  8  9  1  0  0  0  0
  8 20  1  0  0  0  0
  9 10  1  0  0  0  0
  9 34  1  0  0  0  0
 10 11  2  0  0  0  0
 10 12  1  0  0  0  0
 12 13  1  0  0  0  0
 12 35  1  0  0  0  0
 13 14  1  0  0  0  0
 13 15  1  0  0  0  0
 13 36  1  0  0  0  0
 14 37  1  0  0  0  0
 14 38  1  0  0  0  0
 14 39  1  0  0  0  0
 15 19  1  0  0  0  0
 15 16  1  0  0  0  0
 15 40  1  0  0  0  0
 16 17  1  0  0  0  0
 16 41  1  0  0  0  0
 16 42  1  0  0  0  0
 17 18  1  0  0  0  0
 17 43  1  0  0  0  0
 17 44  1  0  0  0  0
 18 19  1  0  0  0  0
 18 45  1  0  0  0  0
 18 46  1  0  0  0  0
 20 21  2  0  0  0  0
 20 47  1  0  0  0  0
 22 23  1  0  0  0  0
 22 48  1  0  0  0  0
 22 49  1  0  0  0  0
 23 24  1  0  0  0  0
 23 25  1  0  0  0  0
 23 50  1  0  0  0  0
 24 51  1  0  0  0  0
 24 52  1  0  0  0  0
 24 53  1  0  0  0  0
M  END
> <s_m_source_file>
AV-unprocessed.smi

> <i_m_source_file_index>
1413

> <i_lp_mmshare_version>
43012

> <i_f3d_flags>
0

> <s_epik_input>
W0NIM11bQ0BASF0xW0NIMl1OKFtDSDJdW0NASF0oTzEpW0NIM10pYzJbY0hdW2NIXWMoW2NIXW4yKVtOSF1DKD1PKVtOSF1bQ0BIXShbQ0gzXSlbQ0BASF0zW0NIMl1bQ0gyXVtDSDJdTzM=

> <s_epik_cmdline>
J2VwaWtfcHl0aG9uJywgJy1waCcsICc3LjAnLCAnLXRuJywgJzgnLCAnLW1hJywgJzIwMCcsICctbWV0YWxfYmluZGluZycsICctaW1hZScsICc8aW5maWxlLm1hZT4nLCAnLW9tYWUnLCAnPG91dGZpbGUubWFlPic=

> <r_lp_tautomer_probability>
1

> <r_epik_Ionization_Penalty>
0.00271172

> <r_epik_Ionization_Penalty_Charging>
0

> <r_epik_Ionization_Penalty_Neutral>
0.00271172

> <r_epik_State_Penalty>
0.00186503

> <r_epik_Charging_Adjusted_Penalty>
0.00186503

> <i_epik_Tot_Q>
0

> <i_epik_Tot_abs_Q>
0

> <r_epik_Metal_State_Penalty>
-0

> <b_epik_Metal_Only>
0

> <s_lp_Force_Field>
OPLS_2005

> <r_lp_Energy>
36.7239

> <b_lp_Chiralities_Consistent>
1

> <s_lp_Variant>
AV-unprocessed.smi:1413-7

> <Gold.Version>
5.8.1

> <Gold.Id.Protein>
6NUR|6NUR_protein|mol2

> <Gold.PLP.Fitness>
46.7174

> <Gold.PLP.PLP>
-38.9109

> <Gold.PLP.part.hbond>
-3.0000

> <Gold.PLP.part.metal>
0.0000

> <Gold.PLP.part.buried>
-5.1851

> <Gold.PLP.part.nonpolar>
-31.6284

> <Gold.PLP.part.repulsive>
0.3547

> <Gold.PLP.ligand.clash>
0.0000

> <Gold.PLP.ligand.torsion>
0.4425

> <Gold.PLP.Chemscore.Hbond>
1.7840

> <Gold.PLP.Chemscore.CHOScore>
0.9893

> <Gold.PLP.Chemscore.Metal>
0.0000

> <Gold.Chemscore.Hbonds>
donor molecule, donor type, donor heavy atom, donor atom, acceptor molecule, acceptor atom, score
      L1  H     9    34       P1  7948  0.85
      L1  H    12    35       P1  7948  1.00
      L1  C    20    47       P1  7957  0.79

> <Gold.PLP.Chemscore.Internal.Correction>
0.3716

> <Gold.Rescore>
     Score         DG    S(hbond)    S(metal)    S(lipo)     H(rot)  DE(clash)    DE(int)     intcor
     18.46     -20.66       1.89        0.00     105.37       1.35       0.29       1.91       ----

> <Gold.Chemscore.Fitness>
18.4559

> <Gold.Chemscore.DG>
-20.6558

> <Gold.Chemscore.ZeroCoef>
-5.4800

> <Gold.Chemscore.Hbond>
1.8851

> <Gold.Chemscore.Metal>
0.0000

> <Gold.Chemscore.Lipo>
105.3680

> <Gold.Chemscore.Internal_Hbond>
0.0000

> <Gold.Chemscore.DEClash>
0.2910

> <Gold.Chemscore.DEInternal>
1.9088

> <Gold.Chemscore.Rot>
1.3471

> <Gold.Chemscore.Internal.Correction>
   9.000000E+99

> <Gold.Chemscore.Hbonds>
donor molecule, donor type, donor heavy atom, donor atom, acceptor molecule, acceptor atom, score
      L1  H     9    34       P1  7948  0.82
      L1  H    12    35       P1  7948  0.98

> <Gold.Chemscore.Hbond.Weighted>
-6.2962

> <Gold.Chemscore.Metal.Weighted>
-0.0000

> <Gold.Chemscore.Lipo.Weighted>
-12.3281

> <Gold.Chemscore.Internal_Hbond.Weighted>
0.0000

> <Gold.Chemscore.DEClash.Weighted>
0.2910

> <Gold.Chemscore.DEInternal.Weighted>
1.9088

> <Gold.Chemscore.Rot.Weighted>
3.4485

> <Gold.Chemscore.Internal.Correction.Weighted>
   9.000000E+99

> <Gold.Protein.RotatedTorsions>
[ 6907 6896 6895 6894 ] final  -55.23 input  -60.11 | X-H torsion
[ 7974 7965 7964 7962 ] final   33.86 input  175.53 | X-H torsion
[ 8008 7997 7996 7995 ] final  -39.36 input   59.86 | X-H torsion
[ 10167 10162 10161 10158 ] final   76.03 input  -65.29 | X-H torsion
[ 10718 10713 10712 10709 ] final  119.02 input   66.30 | X-H torsion
[ 10763 10752 10751 10750 ] final -146.00 input  -60.55 | X-H torsion
[ 11005 11000 10999 10996 ] final -156.57 input  -57.11 | X-H torsion

> <Gold.Protein.ActiveResidues>
 VAL166  LYS551  ARG553  GLY616  TRP617  ASP618  TYR619  PRO620  LYS621  CYS622 
 ASP623  PHE694  ASN695  SER759  ASP760  ASP761  ALA762  ILE779  LEU786  VAL792 
 PHE793  MET794  SER795  GLU796  ALA797  LYS798  CYS799  TRP800  GLU811  SER814 

> <Gold.Protein.RotatedAtoms>
  150.8270  134.7505  159.6820 H   0  0  0  0  0  0  0  0  0  0  0  0  # atno 6907 bound_to 6896
  152.4379  134.5646  159.9913 H   0  0  0  0  0  0  0  0  0  0  0  0  # atno 6908 bound_to 6896
  151.5816  133.3339  159.3045 H   0  0  0  0  0  0  0  0  0  0  0  0  # atno 6909 bound_to 6896
  146.1392  139.6343  142.9174 H   0  0  0  0  0  0  0  0  0  0  0  0  # atno 7974 bound_to 7965
  154.4024  140.1553  156.2851 H   0  0  0  0  0  0  0  0  0  0  0  0  # atno 8008 bound_to 7997
  155.8835  140.3442  155.5883 H   0  0  0  0  0  0  0  0  0  0  0  0  # atno 8009 bound_to 7997
  155.7640  140.0821  157.2132 H   0  0  0  0  0  0  0  0  0  0  0  0  # atno 8010 bound_to 7997
  139.9966  144.5718  150.7773 H   0  0  0  0  0  0  0  0  0  0  0  0  # atno 10167 bound_to 10162
  157.5991  131.1054  150.7837 H   0  0  0  0  0  0  0  0  0  0  0  0  # atno 10718 bound_to 10713
  154.8357  135.3398  154.6592 H   0  0  0  0  0  0  0  0  0  0  0  0  # atno 10763 bound_to 10752
  153.7207  135.6958  153.5018 H   0  0  0  0  0  0  0  0  0  0  0  0  # atno 10764 bound_to 10752
  153.2383  135.4393  155.0623 H   0  0  0  0  0  0  0  0  0  0  0  0  # atno 10765 bound_to 10752
  140.6741  134.4216  157.5230 H   0  0  0  0  0  0  0  0  0  0  0  0  # atno 11005 bound_to 11000
  145.5086  141.0436  143.2501 LP  0  0  0  0  0  0  0  0  0  0  0  0  # atno 17320 bound_to 7965
  144.7773  139.6601  143.7169 LP  0  0  0  0  0  0  0  0  0  0  0  0  # atno 17321 bound_to 7965
  140.7435  143.2847  151.3498 LP  0  0  0  0  0  0  0  0  0  0  0  0  # atno 17342 bound_to 10162
  139.6302  144.0736  152.2469 LP  0  0  0  0  0  0  0  0  0  0  0  0  # atno 17343 bound_to 10162
  156.8241  130.4994  149.5339 LP  0  0  0  0  0  0  0  0  0  0  0  0  # atno 17370 bound_to 10713
  156.1059  130.6004  150.9970 LP  0  0  0  0  0  0  0  0  0  0  0  0  # atno 17371 bound_to 10713
  139.8972  134.8641  156.2053 LP  0  0  0  0  0  0  0  0  0  0  0  0  # atno 17394 bound_to 11000
  141.0369  133.6958  156.1529 LP  0  0  0  0  0  0  0  0  0  0  0  0  # atno 17395 bound_to 11000

$$$$
