#       Name:                AV-unprocessed.smi:512
#       Creating user name   scv26
#       Creation time:       Thu Mar 26 23:23:57 2020


#       File generated by GOLD software.
#

@<TRIPOS>MOLECULE
AV-unprocessed.smi:512
    56    58     1
SMALL
NO_CHARGES


@<TRIPOS>ATOM
      1 ****        -4.0916   3.9140   0.8838 C.3            1 S1                 0.0000
      2 ****        -3.6126   2.5064   1.2457 C.3            1 S1                 0.0000
      3 ****        -2.2307   2.4016   0.9488 O.3            1 S1                 0.0000
      4 ****        -1.6965   1.1282   1.2691 C.3            1 S1                 0.0000
      5 ****        -0.2000   1.1203   0.9170 C.3            1 S1                 0.0000
      6 ****         0.4057  -0.1975   1.0902 N.pl3          1 S1                 0.0000
      7 ****         0.7529  -1.1167   0.1423 C.2            1 S1                 0.0000
      8 ****         0.5452  -0.9351  -1.2320 N.pl3          1 S1                 0.0000
      9 ****         1.4108  -1.4993  -2.2673 C.3            1 S1                 0.0000
     10 ****         1.8406  -0.4206  -3.2810 C.3            1 S1                 0.0000
     11 ****         0.6571   0.1228  -3.9457 N.3            1 S1                 0.0000
     12 ****         1.0566   1.1487  -4.8979 C.3            1 S1                 0.0000
     13 ****        -0.2159   0.7077  -2.9294 C.3            1 S1                 0.0000
     14 ****        -0.6229  -0.3854  -1.9216 C.3            1 S1                 0.0000
     15 ****         1.3514  -2.2058   0.6318 N.2            1 S1                 0.0000
     16 ****         1.3724  -1.9759   1.9968 C.2            1 S1                 0.0000
     17 ****         0.8179  -0.7726   2.2988 C.2            1 S1                 0.0000
     18 ****         0.7273  -0.2350   3.6758 C.2            1 S1                 0.0000
     19 ****         0.2397   0.8715   3.8966 O.2            1 S1                 0.0000
     20 ****         1.2400  -1.1018   4.6056 N.pl3          1 S1                -1.0000
     21 ****         1.8028  -2.3320   4.3428 C.2            1 S1                 0.0000
     22 ****         2.2402  -3.0524   5.2411 O.2            1 S1                 0.0000
     23 ****         1.8850  -2.7801   3.0509 N.am           1 S1                 0.0000
     24 ****         2.4856  -4.0804   2.7401 C.3            1 S1                 0.0000
     25 ****        -5.1546   4.0304   1.0958 H              1 S1                 0.0000
     26 ****        -3.9362   4.1198  -0.1755 H              1 S1                 0.0000
     27 ****        -3.5515   4.6691   1.4554 H              1 S1                 0.0000
     28 ****        -3.7862   2.3164   2.3059 H              1 S1                 0.0000
     29 ****        -4.1766   1.7638   0.6792 H              1 S1                 0.0000
     30 ****        -1.8430   0.9206   2.3292 H              1 S1                 0.0000
     31 ****        -2.2308   0.3524   0.7207 H              1 S1                 0.0000
     32 ****        -0.0400   1.4665  -0.1014 H              1 S1                 0.0000
     33 ****         0.3363   1.8376   1.5376 H              1 S1                 0.0000
     34 ****         2.3021  -1.9292  -1.8097 H              1 S1                 0.0000
     35 ****         0.8969  -2.3193  -2.7712 H              1 S1                 0.0000
     36 ****         2.3968   0.3724  -2.7779 H              1 S1                 0.0000
     37 ****         2.5055  -0.8597  -4.0255 H              1 S1                 0.0000
     38 ****         0.1822   1.5635  -5.4003 H              1 S1                 0.0000
     39 ****         1.7104   0.7268  -5.6620 H              1 S1                 0.0000
     40 ****         1.5877   1.9649  -4.4059 H              1 S1                 0.0000
     41 ****         0.2855   1.5332  -2.4218 H              1 S1                 0.0000
     42 ****        -1.1066   1.1162  -3.4081 H              1 S1                 0.0000
     43 ****        -1.1416  -1.1932  -2.4399 H              1 S1                 0.0000
     44 ****        -1.3440   0.0106  -1.2140 H              1 S1                 0.0000
     45 ****         3.5099  -4.1283   3.1117 H              1 S1                 0.0000
     46 ****         2.5214  -4.2828   1.6700 H              1 S1                 0.0000
     47 ****         1.9146  -4.8840   3.2065 H              1 S1                 0.0000
     48 ****        -1.7375   3.0962   1.4725 LP             1 S1                 0.0000
     49 ****        -2.1003   2.5664  -0.0289 LP             1 S1                 0.0000
     50 ****         0.1752  -0.6031  -4.4364 LP             1 S1                 0.0000
     51 ****         1.7009  -2.9981   0.1317 LP             1 S1                 0.0000
     52 ****        -0.1048   1.4263   3.1392 LP             1 S1                 0.0000
     53 ****         0.1875   1.2170   4.8336 LP             1 S1                 0.0000
     54 ****         1.2022  -0.8151   5.5629 LP             1 S1                 0.0000
     55 ****         2.1925  -2.7494   6.1929 LP             1 S1                 0.0000
     56 ****         2.6430  -3.9402   5.0186 LP             1 S1                 0.0000
@<TRIPOS>BOND
    1    1    2 1     
    2    1   25 1     
    3    1   26 1     
    4    1   27 1     
    5    2    3 1     
    6    2   28 1     
    7    2   29 1     
    8    3    4 1     
    9    4    5 1     
   10    4   30 1     
   11    4   31 1     
   12    5    6 1     
   13    5   32 1     
   14    5   33 1     
   15    6   17 1     
   16    6    7 1     
   17    7    8 1     
   18    7   15 2     
   19    8   14 1     
   20    8    9 1     
   21    9   10 1     
   22    9   34 1     
   23    9   35 1     
   24   10   11 1     
   25   10   36 1     
   26   10   37 1     
   27   11   12 1     
   28   11   13 1     
   29   12   38 1     
   30   12   39 1     
   31   12   40 1     
   32   13   14 1     
   33   13   41 1     
   34   13   42 1     
   35   14   43 1     
   36   14   44 1     
   37   15   16 1     
   38   16   23 1     
   39   16   17 2     
   40   17   18 1     
   41   18   19 2     
   42   18   20 1     
   43   20   21 1     
   44   21   22 2     
   45   21   23 am    
   46   23   24 1     
   47   24   45 1     
   48   24   46 1     
   49   24   47 1     
   50    3   48 1     
   51    3   49 1     
   52   11   50 1     
   53   15   51 1     
   54   19   52 1     
   55   19   53 1     
   56   20   54 1     
   57   22   55 1     
   58   22   56 1     
@<TRIPOS>SUBSTRUCTURE
      1 S1             1
@<TRIPOS>SET
LONE_PAIRS      STATIC     ATOMS    <user>   **** ""
9 48 49 50 51 52 53 54 55 56
ATOM$BLUE        STATIC     ATOMS    COLORGROUP SYSTEM
9 48 49 50 51 52 53 54 55 56
