AV-unprocessed.smi:2103|AV-procd|sdf|8582|dock5
  -GOLD-   2272011313D 1   1.00000     0.00000
 Structure written by MMmdl.
 38 39  0  0  0  0  0  0  0  0  1 V2000
  154.3325  139.8315  160.0450 C   0  0  0  0  0  0  0  0  0  0  0  0
  153.5861  141.0708  159.9839 N   0  0  0  0  0  0  0  0  0  0  0  0
  153.5906  141.9336  161.1068 C   0  0  0  0  0  0  0  0  0  0  0  0
  154.2024  141.6727  162.1431 O   0  0  0  0  0  0  0  0  0  0  0  0
  152.8055  143.1502  160.9350 C   0  0  0  0  0  0  0  0  0  0  0  0
  152.1392  143.3902  159.7846 C   0  0  0  0  0  0  0  0  0  0  0  0
  152.1431  142.5247  158.7061 N   0  0  0  0  0  0  0  0  0  0  0  0
  151.3895  142.8725  157.4940 C   0  0  0  0  0  0  0  0  0  0  0  0
  150.4108  141.7791  157.0416 C   0  0  0  0  0  0  0  0  0  0  0  0
  150.4103  140.6655  157.5685 O   0  0  0  0  0  0  0  0  0  0  0  0
  149.5809  142.1199  156.0442 N   0  0  0  0  0  0  0  0  0  0  0  0
  148.5623  141.2550  155.4563 C   0  0  0  0  0  0  0  0  0  0  0  0
  149.2081  140.0500  154.7392 C   0  0  0  0  0  0  0  0  0  0  0  0
  148.1510  139.1763  154.0444 C   0  0  0  0  0  0  0  0  0  0  0  0
  147.2955  140.0019  153.0711 C   0  0  0  0  0  0  0  0  0  0  0  0
  146.6442  141.1974  153.7835 C   0  0  0  0  0  0  0  0  0  0  0  0
  147.6998  142.0740  154.4766 C   0  0  0  0  0  0  0  0  0  0  0  0
  152.8778  141.3224  158.7883 C   0  0  0  0  0  0  0  0  0  0  0  0
  152.8924  140.5275  157.8449 O   0  0  0  0  0  0  0  0  0  0  0  0
  154.9728  139.7995  160.9260 H   0  0  0  0  0  0  0  0  0  0  0  0
  154.9579  139.7764  159.1519 H   0  0  0  0  0  0  0  0  0  0  0  0
  153.6024  139.0211  160.0716 H   0  0  0  0  0  0  0  0  0  0  0  0
  152.7571  143.8686  161.7403 H   0  0  0  0  0  0  0  0  0  0  0  0
  151.5746  144.3081  159.7061 H   0  0  0  0  0  0  0  0  0  0  0  0
  150.8404  143.8034  157.6459 H   0  0  0  0  0  0  0  0  0  0  0  0
  152.0827  143.0720  156.6754 H   0  0  0  0  0  0  0  0  0  0  0  0
  149.6546  143.0540  155.6681 H   0  0  0  0  0  0  0  0  0  0  0  0
  147.9136  140.8860  156.2532 H   0  0  0  0  0  0  0  0  0  0  0  0
  149.9287  140.4025  153.9998 H   0  0  0  0  0  0  0  0  0  0  0  0
  149.7687  139.4416  155.4496 H   0  0  0  0  0  0  0  0  0  0  0  0
  148.6372  138.3592  153.5107 H   0  0  0  0  0  0  0  0  0  0  0  0
  147.5084  138.7158  154.7958 H   0  0  0  0  0  0  0  0  0  0  0  0
  147.9183  140.3604  152.2505 H   0  0  0  0  0  0  0  0  0  0  0  0
  146.5270  139.3711  152.6236 H   0  0  0  0  0  0  0  0  0  0  0  0
  146.0790  141.7933  153.0664 H   0  0  0  0  0  0  0  0  0  0  0  0
  145.9261  140.8377  154.5215 H   0  0  0  0  0  0  0  0  0  0  0  0
  147.2076  142.8918  155.0042 H   0  0  0  0  0  0  0  0  0  0  0  0
  148.3369  142.5342  153.7198 H   0  0  0  0  0  0  0  0  0  0  0  0
  1  2  1  0  0  0  0
  1 20  1  0  0  0  0
  1 21  1  0  0  0  0
  1 22  1  0  0  0  0
  2 18  1  0  0  0  0
  2  3  1  0  0  0  0
  3  4  2  0  0  0  0
  3  5  1  0  0  0  0
  5  6  2  0  0  0  0
  5 23  1  0  0  0  0
  6  7  1  0  0  0  0
  6 24  1  0  0  0  0
  7  8  1  0  0  0  0
  7 18  1  0  0  0  0
  8  9  1  0  0  0  0
  8 25  1  0  0  0  0
  8 26  1  0  0  0  0
  9 10  2  0  0  0  0
  9 11  1  0  0  0  0
 11 12  1  0  0  0  0
 11 27  1  0  0  0  0
 12 17  1  0  0  0  0
 12 13  1  0  0  0  0
 12 28  1  0  0  0  0
 13 14  1  0  0  0  0
 13 29  1  0  0  0  0
 13 30  1  0  0  0  0
 14 15  1  0  0  0  0
 14 31  1  0  0  0  0
 14 32  1  0  0  0  0
 15 16  1  0  0  0  0
 15 33  1  0  0  0  0
 15 34  1  0  0  0  0
 16 17  1  0  0  0  0
 16 35  1  0  0  0  0
 16 36  1  0  0  0  0
 17 37  1  0  0  0  0
 17 38  1  0  0  0  0
 18 19  2  0  0  0  0
M  END
> <s_m_source_file>
AV-unprocessed.smi

> <i_m_source_file_index>
2103

> <i_lp_mmshare_version>
43012

> <i_f3d_flags>
0

> <s_epik_input>
W0NIM11uMWMoPU8pW2NIXVtjSF1uKGMxPU8pW0NIMl1DKD1PKVtOSF1bQ0hdMltDSDJdW0NIMl1bQ0gyXVtDSDJdW0NIMl0y

> <s_epik_cmdline>
J2VwaWtfcHl0aG9uJywgJy1waCcsICc3LjAnLCAnLXRuJywgJzgnLCAnLW1hJywgJzIwMCcsICctbWV0YWxfYmluZGluZycsICctaW1hZScsICc8aW5maWxlLm1hZT4nLCAnLW9tYWUnLCAnPG91dGZpbGUubWFlPic=

> <r_lp_tautomer_probability>
1

> <r_epik_Ionization_Penalty>
3.18221e-08

> <r_epik_Ionization_Penalty_Charging>
1.27752e-08

> <r_epik_Ionization_Penalty_Neutral>
1.90469e-08

> <r_epik_State_Penalty>
-0

> <r_epik_Charging_Adjusted_Penalty>
1.27752e-08

> <i_epik_Tot_Q>
0

> <i_epik_Tot_abs_Q>
0

> <r_epik_Metal_State_Penalty>
-0

> <b_epik_Metal_Only>
0

> <s_lp_Force_Field>
OPLS_2005

> <r_lp_Energy>
16.4869

> <b_lp_Chiralities_Consistent>
1

> <s_lp_Variant>
AV-unprocessed.smi:2103-1

> <Gold.Version>
5.8.1

> <Gold.Id.Protein>
6NUR|6NUR_protein|mol2

> <Gold.PLP.Fitness>
43.9815

> <Gold.PLP.PLP>
-39.3573

> <Gold.PLP.part.hbond>
-2.9733

> <Gold.PLP.part.metal>
0.0000

> <Gold.PLP.part.buried>
-2.3021

> <Gold.PLP.part.nonpolar>
-35.0455

> <Gold.PLP.part.repulsive>
0.1250

> <Gold.PLP.ligand.clash>
0.0000

> <Gold.PLP.ligand.torsion>
0.1515

> <Gold.PLP.Chemscore.Hbond>
1.6407

> <Gold.PLP.Chemscore.CHOScore>
0.0000

> <Gold.PLP.Chemscore.Metal>
0.0000

> <Gold.Chemscore.Hbonds>
donor molecule, donor type, donor heavy atom, donor atom, acceptor molecule, acceptor atom, score
      L1  H    11    27       P1  8028  0.90
      P1  H  7997  8009       L1    19  0.78

> <Gold.PLP.Chemscore.Internal.Correction>
0.0050

> <Gold.Rescore>
     Score         DG    S(hbond)    S(metal)    S(lipo)     H(rot)  DE(clash)    DE(int)     intcor
     10.75     -16.04       1.86        0.00      70.95       1.54       0.08       5.21       ----

> <Gold.Chemscore.Fitness>
10.7483

> <Gold.Chemscore.DG>
-16.0406

> <Gold.Chemscore.ZeroCoef>
-5.4800

> <Gold.Chemscore.Hbond>
1.8554

> <Gold.Chemscore.Metal>
0.0000

> <Gold.Chemscore.Lipo>
70.9532

> <Gold.Chemscore.Internal_Hbond>
0.0000

> <Gold.Chemscore.DEClash>
0.0846

> <Gold.Chemscore.DEInternal>
5.2076

> <Gold.Chemscore.Rot>
1.5383

> <Gold.Chemscore.Internal.Correction>
   9.000000E+99

> <Gold.Chemscore.Hbonds>
donor molecule, donor type, donor heavy atom, donor atom, acceptor molecule, acceptor atom, score
      L1  H    11    27       P1  8028  0.88
      P1  H  7997  8009       L1    19  0.76

> <Gold.Chemscore.Hbond.Weighted>
-6.1970

> <Gold.Chemscore.Metal.Weighted>
-0.0000

> <Gold.Chemscore.Lipo.Weighted>
-8.3015

> <Gold.Chemscore.Internal_Hbond.Weighted>
0.0000

> <Gold.Chemscore.DEClash.Weighted>
0.0846

> <Gold.Chemscore.DEInternal.Weighted>
5.2076

> <Gold.Chemscore.Rot.Weighted>
3.9380

> <Gold.Chemscore.Internal.Correction.Weighted>
   9.000000E+99

> <Gold.Protein.RotatedTorsions>
[ 6907 6896 6895 6894 ] final -116.30 input  -60.11 | X-H torsion
[ 7974 7965 7964 7962 ] final -159.65 input  175.53 | X-H torsion
[ 8008 7997 7996 7995 ] final  160.96 input   59.86 | X-H torsion
[ 10167 10162 10161 10158 ] final  -75.16 input  -65.29 | X-H torsion
[ 10718 10713 10712 10709 ] final   61.88 input   66.30 | X-H torsion
[ 10763 10752 10751 10750 ] final -143.11 input  -60.55 | X-H torsion
[ 11005 11000 10999 10996 ] final   87.10 input  -57.11 | X-H torsion

> <Gold.Protein.ActiveResidues>
 VAL166  LYS551  ARG553  GLY616  TRP617  ASP618  TYR619  PRO620  LYS621  CYS622 
 ASP623  PHE694  ASN695  SER759  ASP760  ASP761  ALA762  ILE779  LEU786  VAL792 
 PHE793  MET794  SER795  GLU796  ALA797  LYS798  CYS799  TRP800  GLU811  SER814 

> <Gold.Protein.RotatedAtoms>
  150.8045  133.8536  159.3212 H   0  0  0  0  0  0  0  0  0  0  0  0  # atno 6907 bound_to 6896
  151.6339  135.1018  160.0137 H   0  0  0  0  0  0  0  0  0  0  0  0  # atno 6908 bound_to 6896
  152.4135  133.6960  159.6453 H   0  0  0  0  0  0  0  0  0  0  0  0  # atno 6909 bound_to 6896
  144.7457  140.3655  143.6087 H   0  0  0  0  0  0  0  0  0  0  0  0  # atno 7974 bound_to 7965
  156.2136  140.1790  156.7638 H   0  0  0  0  0  0  0  0  0  0  0  0  # atno 8008 bound_to 7997
  154.5759  140.0674  156.9063 H   0  0  0  0  0  0  0  0  0  0  0  0  # atno 8009 bound_to 7997
  155.2589  140.3334  155.4277 H   0  0  0  0  0  0  0  0  0  0  0  0  # atno 8010 bound_to 7997
  140.4966  143.2369  151.7820 H   0  0  0  0  0  0  0  0  0  0  0  0  # atno 10167 bound_to 10162
  157.5860  130.9019  149.9516 H   0  0  0  0  0  0  0  0  0  0  0  0  # atno 10718 bound_to 10713
  154.8483  135.3477  154.6134 H   0  0  0  0  0  0  0  0  0  0  0  0  # atno 10763 bound_to 10752
  153.6743  135.6983  153.5142 H   0  0  0  0  0  0  0  0  0  0  0  0  # atno 10764 bound_to 10752
  153.2718  135.4290  155.0951 H   0  0  0  0  0  0  0  0  0  0  0  0  # atno 10765 bound_to 10752
  139.8928  134.8400  156.2813 H   0  0  0  0  0  0  0  0  0  0  0  0  # atno 11005 bound_to 11000
  145.7133  139.1690  143.2526 LP  0  0  0  0  0  0  0  0  0  0  0  0  # atno 17320 bound_to 7965
  146.1331  140.7159  142.9402 LP  0  0  0  0  0  0  0  0  0  0  0  0  # atno 17321 bound_to 7965
  139.4863  144.4578  151.9578 LP  0  0  0  0  0  0  0  0  0  0  0  0  # atno 17342 bound_to 10162
  140.3666  144.2907  150.5926 LP  0  0  0  0  0  0  0  0  0  0  0  0  # atno 17343 bound_to 10162
  156.0909  130.3663  150.0397 LP  0  0  0  0  0  0  0  0  0  0  0  0  # atno 17370 bound_to 10713
  156.8528  130.9465  151.3624 LP  0  0  0  0  0  0  0  0  0  0  0  0  # atno 17371 bound_to 10713
  141.0037  133.7136  156.1000 LP  0  0  0  0  0  0  0  0  0  0  0  0  # atno 17394 bound_to 11000
  140.7463  134.4094  157.5548 LP  0  0  0  0  0  0  0  0  0  0  0  0  # atno 17395 bound_to 11000

$$$$
