AV-unprocessed.smi:3178|AV-procd|sdf|12130|dock10
  -GOLD-   2272017573D 1   1.00000     0.00000
 Structure written by MMmdl.
 35 35  0  0  0  0  0  0  0  0  1 V2000
  152.7340  143.3850  162.1550 C   0  0  0  0  0  0  0  0  0  0  0  0
  152.0382  142.4494  161.3408 O   0  0  0  0  0  0  0  0  0  0  0  0
  152.4668  142.2805  159.9848 C   0  0  0  0  0  0  0  0  0  0  0  0
  152.0941  143.5413  159.1805 C   0  0  0  0  0  0  0  0  0  0  0  0
  153.9861  142.0053  159.8865 C   0  0  0  0  0  0  0  0  0  0  0  0
  151.6538  141.0790  159.4435 C   0  0  0  0  0  0  0  0  0  0  0  0
  151.7202  140.9889  157.9883 N   0  0  0  0  0  0  0  0  0  0  0  0
  151.3727  139.9168  157.2593 C   0  0  0  0  0  0  0  0  0  0  0  0
  150.7841  138.9395  157.7210 O   0  0  0  0  0  0  0  0  0  0  0  0
  151.7964  139.9335  155.7905 C   0  0  0  0  0  0  0  0  0  0  0  0
  150.6194  139.5715  154.9206 C   0  0  0  0  0  0  0  0  0  0  0  0
  149.3725  140.2551  154.7978 C   0  0  0  0  0  0  0  0  0  0  0  0
  148.6529  139.4944  153.9208 C   0  0  0  0  0  0  0  0  0  0  0  0
  147.2693  139.6545  153.3885 C   0  0  0  0  0  0  0  0  0  0  0  0
  149.4682  138.4448  153.5654 N   0  0  0  0  0  0  0  0  0  0  0  0
  150.6711  138.4812  154.1679 N   0  0  0  0  0  0  0  0  0  0  0  0
  149.2198  137.7064  152.9224 H   0  0  0  0  0  0  0  0  0  0  0  0
  152.2273  143.4587  163.1169 H   0  0  0  0  0  0  0  0  0  0  0  0
  152.7544  144.3829  161.7188 H   0  0  0  0  0  0  0  0  0  0  0  0
  153.7558  143.0632  162.3557 H   0  0  0  0  0  0  0  0  0  0  0  0
  152.2957  143.4016  158.1179 H   0  0  0  0  0  0  0  0  0  0  0  0
  152.6604  144.4158  159.4996 H   0  0  0  0  0  0  0  0  0  0  0  0
  151.0345  143.7768  159.2861 H   0  0  0  0  0  0  0  0  0  0  0  0
  154.2683  141.7346  158.8686 H   0  0  0  0  0  0  0  0  0  0  0  0
  154.2937  141.1900  160.5423 H   0  0  0  0  0  0  0  0  0  0  0  0
  154.5759  142.8815  160.1561 H   0  0  0  0  0  0  0  0  0  0  0  0
  151.9895  140.1483  159.9046 H   0  0  0  0  0  0  0  0  0  0  0  0
  150.6036  141.1890  159.7157 H   0  0  0  0  0  0  0  0  0  0  0  0
  152.1873  141.7462  157.5109 H   0  0  0  0  0  0  0  0  0  0  0  0
  152.1692  140.9242  155.5281 H   0  0  0  0  0  0  0  0  0  0  0  0
  152.6251  139.2379  155.6493 H   0  0  0  0  0  0  0  0  0  0  0  0
  149.0519  141.1589  155.2945 H   0  0  0  0  0  0  0  0  0  0  0  0
  147.1488  140.6283  152.9140 H   0  0  0  0  0  0  0  0  0  0  0  0
  146.5375  139.5777  154.1927 H   0  0  0  0  0  0  0  0  0  0  0  0
  147.0380  138.8880  152.6484 H   0  0  0  0  0  0  0  0  0  0  0  0
  1  2  1  0  0  0  0
  1 18  1  0  0  0  0
  1 19  1  0  0  0  0
  1 20  1  0  0  0  0
  2  3  1  0  0  0  0
  3  4  1  0  0  0  0
  3  5  1  0  0  0  0
  3  6  1  0  0  0  0
  4 21  1  0  0  0  0
  4 22  1  0  0  0  0
  4 23  1  0  0  0  0
  5 24  1  0  0  0  0
  5 25  1  0  0  0  0
  5 26  1  0  0  0  0
  6  7  1  0  0  0  0
  6 27  1  0  0  0  0
  6 28  1  0  0  0  0
  7  8  1  0  0  0  0
  7 29  1  0  0  0  0
  8  9  2  0  0  0  0
  8 10  1  0  0  0  0
 10 11  1  0  0  0  0
 10 30  1  0  0  0  0
 10 31  1  0  0  0  0
 11 16  2  0  0  0  0
 11 12  1  0  0  0  0
 12 13  2  0  0  0  0
 12 32  1  0  0  0  0
 13 14  1  0  0  0  0
 13 15  1  0  0  0  0
 14 33  1  0  0  0  0
 14 34  1  0  0  0  0
 14 35  1  0  0  0  0
 15 17  1  0  0  0  0
 15 16  1  0  0  0  0
M  END
> <s_m_source_file>
AV-unprocessed.smi

> <i_m_source_file_index>
3178

> <i_lp_mmshare_version>
43012

> <i_f3d_flags>
0

> <s_epik_input>
W0NIM11PQyhbQ0gzXSkoW0NIM10pW0NIMl1bTkhdQyg9TylbQ0gyXWMxW2NIXWMoW0NIM10pW25IXW4x

> <s_epik_cmdline>
J2VwaWtfcHl0aG9uJywgJy1waCcsICc3LjAnLCAnLXRuJywgJzgnLCAnLW1hJywgJzIwMCcsICctbWV0YWxfYmluZGluZycsICctaW1hZScsICc8aW5maWxlLm1hZT4nLCAnLW9tYWUnLCAnPG91dGZpbGUubWFlPic=

> <r_lp_tautomer_probability>
0.5

> <r_epik_Ionization_Penalty>
8.10473e-05

> <r_epik_Ionization_Penalty_Charging>
0

> <r_epik_Ionization_Penalty_Neutral>
8.10473e-05

> <r_epik_State_Penalty>
0.41068

> <r_epik_Charging_Adjusted_Penalty>
0.41068

> <i_epik_Tot_Q>
0

> <i_epik_Tot_abs_Q>
0

> <r_epik_Metal_State_Penalty>
0.410702

> <b_epik_Metal_Only>
0

> <s_lp_Force_Field>
OPLS_2005

> <r_lp_Energy>
5.73531

> <b_lp_Chiralities_Consistent>
1

> <s_lp_Variant>
AV-unprocessed.smi:3178-1

> <Gold.Version>
5.8.1

> <Gold.Id.Protein>
6NUR|6NUR_protein|mol2

> <Gold.PLP.Fitness>
36.8948

> <Gold.PLP.PLP>
-33.9973

> <Gold.PLP.part.hbond>
-2.9262

> <Gold.PLP.part.metal>
0.0000

> <Gold.PLP.part.buried>
-1.5811

> <Gold.PLP.part.nonpolar>
-30.0093

> <Gold.PLP.part.repulsive>
0.4585

> <Gold.PLP.ligand.clash>
0.0000

> <Gold.PLP.ligand.torsion>
0.3839

> <Gold.PLP.Chemscore.Hbond>
1.2129

> <Gold.PLP.Chemscore.CHOScore>
0.0000

> <Gold.PLP.Chemscore.Metal>
0.0000

> <Gold.Chemscore.Hbonds>
donor molecule, donor type, donor heavy atom, donor atom, acceptor molecule, acceptor atom, score
      L1  H    15    17       P1  7948  1.00
      P1  H  6933  6945       L1     2  0.21

> <Gold.PLP.Chemscore.Internal.Correction>
0.0265

> <Gold.Rescore>
     Score         DG    S(hbond)    S(metal)    S(lipo)     H(rot)  DE(clash)    DE(int)     intcor
     15.09     -15.79       1.56        0.00      85.01       1.89       0.25       0.45       ----

> <Gold.Chemscore.Fitness>
15.0889

> <Gold.Chemscore.DG>
-15.7894

> <Gold.Chemscore.ZeroCoef>
-5.4800

> <Gold.Chemscore.Hbond>
1.5557

> <Gold.Chemscore.Metal>
0.0000

> <Gold.Chemscore.Lipo>
85.0065

> <Gold.Chemscore.Internal_Hbond>
0.0000

> <Gold.Chemscore.DEClash>
0.2479

> <Gold.Chemscore.DEInternal>
0.4526

> <Gold.Chemscore.Rot>
1.8877

> <Gold.Chemscore.Internal.Correction>
   9.000000E+99

> <Gold.Chemscore.Hbonds>
donor molecule, donor type, donor heavy atom, donor atom, acceptor molecule, acceptor atom, score
      L1  H    15    17       P1  7948  0.98
      P1  H  6933  6945       L1     2  0.19

> <Gold.Chemscore.Hbond.Weighted>
-5.1962

> <Gold.Chemscore.Metal.Weighted>
-0.0000

> <Gold.Chemscore.Lipo.Weighted>
-9.9458

> <Gold.Chemscore.Internal_Hbond.Weighted>
0.0000

> <Gold.Chemscore.DEClash.Weighted>
0.2479

> <Gold.Chemscore.DEInternal.Weighted>
0.4526

> <Gold.Chemscore.Rot.Weighted>
4.8325

> <Gold.Chemscore.Internal.Correction.Weighted>
   9.000000E+99

> <Gold.Protein.RotatedTorsions>
[ 6907 6896 6895 6894 ] final  148.96 input  -60.11 | X-H torsion
[ 7974 7965 7964 7962 ] final   10.09 input  175.53 | X-H torsion
[ 8008 7997 7996 7995 ] final   31.93 input   59.86 | X-H torsion
[ 10167 10162 10161 10158 ] final -159.22 input  -65.29 | X-H torsion
[ 10718 10713 10712 10709 ] final  -89.70 input   66.30 | X-H torsion
[ 10763 10752 10751 10750 ] final  115.07 input  -60.55 | X-H torsion
[ 11005 11000 10999 10996 ] final   28.26 input  -57.11 | X-H torsion

> <Gold.Protein.ActiveResidues>
 VAL166  LYS551  ARG553  GLY616  TRP617  ASP618  TYR619  PRO620  LYS621  CYS622 
 ASP623  PHE694  ASN695  SER759  ASP760  ASP761  ALA762  ILE779  LEU786  VAL792 
 PHE793  MET794  SER795  GLU796  ALA797  LYS798  CYS799  TRP800  GLU811  SER814 

> <Gold.Protein.RotatedAtoms>
  152.1344  133.4427  159.4736 H   0  0  0  0  0  0  0  0  0  0  0  0  # atno 6907 bound_to 6896
  150.6881  134.2381  159.4470 H   0  0  0  0  0  0  0  0  0  0  0  0  # atno 6908 bound_to 6896
  152.0267  134.9791  160.0622 H   0  0  0  0  0  0  0  0  0  0  0  0  # atno 6909 bound_to 6896
  146.2394  139.9686  142.8450 H   0  0  0  0  0  0  0  0  0  0  0  0  # atno 7974 bound_to 7965
  155.1143  140.3242  155.4513 H   0  0  0  0  0  0  0  0  0  0  0  0  # atno 8008 bound_to 7997
  156.2681  140.2038  156.6214 H   0  0  0  0  0  0  0  0  0  0  0  0  # atno 8009 bound_to 7997
  154.6732  140.0534  157.0175 H   0  0  0  0  0  0  0  0  0  0  0  0  # atno 8010 bound_to 7997
  139.6632  143.9876  152.2238 H   0  0  0  0  0  0  0  0  0  0  0  0  # atno 10167 bound_to 10162
  155.9985  130.4882  150.5211 H   0  0  0  0  0  0  0  0  0  0  0  0  # atno 10718 bound_to 10713
  153.5167  135.3606  155.2613 H   0  0  0  0  0  0  0  0  0  0  0  0  # atno 10763 bound_to 10752
  154.8738  135.4036  154.3306 H   0  0  0  0  0  0  0  0  0  0  0  0  # atno 10764 bound_to 10752
  153.3969  135.7073  153.6521 H   0  0  0  0  0  0  0  0  0  0  0  0  # atno 10765 bound_to 10752
  140.3175  134.2580  155.7723 H   0  0  0  0  0  0  0  0  0  0  0  0  # atno 11005 bound_to 11000
  145.1702  140.9717  143.4326 LP  0  0  0  0  0  0  0  0  0  0  0  0  # atno 17320 bound_to 7965
  145.0035  139.3576  143.6155 LP  0  0  0  0  0  0  0  0  0  0  0  0  # atno 17321 bound_to 7965
  139.9620  144.6551  150.8070 LP  0  0  0  0  0  0  0  0  0  0  0  0  # atno 17342 bound_to 10162
  140.7588  143.3116  151.2832 LP  0  0  0  0  0  0  0  0  0  0  0  0  # atno 17343 bound_to 10162
  157.3172  131.0675  151.1958 LP  0  0  0  0  0  0  0  0  0  0  0  0  # atno 17370 bound_to 10713
  157.2883  130.6784  149.6101 LP  0  0  0  0  0  0  0  0  0  0  0  0  # atno 17371 bound_to 10713
  141.2094  133.7749  156.9998 LP  0  0  0  0  0  0  0  0  0  0  0  0  # atno 17394 bound_to 11000
  140.0971  134.9558  157.1865 LP  0  0  0  0  0  0  0  0  0  0  0  0  # atno 17395 bound_to 11000

$$$$
