#       Name:                AV-unprocessed.smi:3281
#       Creating user name   scv26
#       Creation time:       Fri Mar 27 18:47:46 2020


#       File generated by GOLD software.
#

@<TRIPOS>MOLECULE
AV-unprocessed.smi:3281
    38    39     1
SMALL
NO_CHARGES


@<TRIPOS>ATOM
      1 ****        -6.0011   0.1164   3.0490 C.3            1 S1                 0.0000
      2 ****        -5.5793   0.0329   1.5777 C.3            1 S1                 0.0000
      3 ****        -4.2022  -0.5140   1.3895 C.2            1 S1                 0.0000
      4 ****        -3.8514  -1.7589   0.9277 C.2            1 S1                 0.0000
      5 ****        -2.4721  -1.9699   0.8641 N.2            1 S1                 0.0000
      6 ****        -1.7753  -0.9129   1.2869 C.2            1 S1                 0.0000
      7 ****        -0.2846  -0.8622   1.2994 C.3            1 S1                 0.0000
      8 ****         0.2959  -0.3603  -0.0287 C.3            1 S1                 0.0000
      9 ****         1.7712  -0.3280   0.0176 N.4            1 S1                 1.0000
     10 ****         2.4224   0.1433  -1.2239 C.3            1 S1                 0.0000
     11 ****         3.2335   1.4208  -0.9328 C.3            1 S1                 0.0000
     12 ****         3.9029   2.0025  -2.1894 C.3            1 S1                 0.0000
     13 ****         4.8909   1.0216  -2.8361 C.3            1 S1                 0.0000
     14 ****         4.0484  -0.4872  -3.3842 S.3            1 S1                 0.0000
     15 ****         3.3090  -0.9740  -1.8016 C.3            1 S1                 0.0000
     16 ****        -2.7910   0.4426   1.7628 S.3            1 S1                 0.0000
     17 ****        -7.0137   0.5098   3.1405 H              1 S1                 0.0000
     18 ****        -5.3383   0.7717   3.6146 H              1 S1                 0.0000
     19 ****        -5.9816  -0.8671   3.5194 H              1 S1                 0.0000
     20 ****        -6.2942  -0.5867   1.0350 H              1 S1                 0.0000
     21 ****        -5.6384   1.0245   1.1283 H              1 S1                 0.0000
     22 ****        -4.5160  -2.5533   0.6210 H              1 S1                 0.0000
     23 ****         0.0323  -0.2149   2.1179 H              1 S1                 0.0000
     24 ****         0.0970  -1.8591   1.5239 H              1 S1                 0.0000
     25 ****        -0.0227  -1.0104  -0.8450 H              1 S1                 0.0000
     26 ****        -0.0785   0.6415  -0.2448 H              1 S1                 0.0000
     27 ****         2.0538   0.2789   0.7739 H              1 S1                 0.0000
     28 ****         1.6546   0.3852  -1.9614 H              1 S1                 0.0000
     29 ****         2.5758   2.1776  -0.5036 H              1 S1                 0.0000
     30 ****         3.9938   1.2148  -0.1781 H              1 S1                 0.0000
     31 ****         3.1411   2.2893  -2.9154 H              1 S1                 0.0000
     32 ****         4.4306   2.9191  -1.9234 H              1 S1                 0.0000
     33 ****         5.3743   1.4844  -3.6967 H              1 S1                 0.0000
     34 ****         5.6797   0.7543  -2.1320 H              1 S1                 0.0000
     35 ****         4.1072  -1.2318  -1.1044 H              1 S1                 0.0000
     36 ****         2.7230  -1.8791  -1.9650 H              1 S1                 0.0000
     37 ****         2.1039  -1.2609   0.2159 H              1 S1                 0.0000
     38 ****        -2.0537  -2.8177   0.5384 LP             1 S1                 0.0000
@<TRIPOS>BOND
    1    1    2 1     
    2    1   17 1     
    3    1   18 1     
    4    1   19 1     
    5    2    3 1     
    6    2   20 1     
    7    2   21 1     
    8    3   16 1     
    9    3    4 2     
   10    4    5 1     
   11    4   22 1     
   12    5    6 2     
   13    6    7 1     
   14    6   16 1     
   15    7    8 1     
   16    7   23 1     
   17    7   24 1     
   18    8    9 1     
   19    8   25 1     
   20    8   26 1     
   21    9   10 1     
   22    9   27 1     
   23    9   37 1     
   24   10   15 1     
   25   10   11 1     
   26   10   28 1     
   27   11   12 1     
   28   11   29 1     
   29   11   30 1     
   30   12   13 1     
   31   12   31 1     
   32   12   32 1     
   33   13   14 1     
   34   13   33 1     
   35   13   34 1     
   36   14   15 1     
   37   15   35 1     
   38   15   36 1     
   39    5   38 1     
@<TRIPOS>SUBSTRUCTURE
      1 S1             1
@<TRIPOS>SET
LONE_PAIRS      STATIC     ATOMS    <user>   **** ""
1 38
DONOR_HYDROGENS      STATIC     ATOMS    <user>   **** ""
2 27 37
ATOM$BLUE        STATIC     ATOMS    COLORGROUP SYSTEM
1 38
ATOM$RED        STATIC     ATOMS    COLORGROUP SYSTEM
2 27 37
