#       Name:                AV-unprocessed.smi:652
#       Creating user name   scv26
#       Creation time:       Fri Mar 27 00:13:45 2020


#       File generated by GOLD software.
#

@<TRIPOS>MOLECULE
AV-unprocessed.smi:652
    54    55     1
SMALL
NO_CHARGES


@<TRIPOS>ATOM
      1 ****        -1.0448  -5.6644   5.8525 C.3            1 S1                 0.0000
      2 ****        -0.8584  -4.8892   4.5415 C.3            1 S1                 0.0000
      3 ****         0.6270  -4.6235   4.2481 C.3            1 S1                 0.0000
      4 ****        -1.5992  -3.6330   4.6108 N.am           1 S1                 0.0000
      5 ****        -2.0494  -2.9365   3.5553 C.2            1 S1                 0.0000
      6 ****        -1.8983  -3.3008   2.3890 O.2            1 S1                 0.0000
      7 ****        -2.7948  -1.6339   3.8650 C.3            1 S1                 0.0000
      8 ****        -1.9540  -0.3684   3.5872 C.3            1 S1                 0.0000
      9 ****        -1.4344  -0.2194   2.2266 N.3            1 S1                 0.0000
     10 ****        -2.4912   0.0037   1.2438 C.3            1 S1                 0.0000
     11 ****        -1.9234   0.1692  -0.1758 C.3            1 S1                 0.0000
     12 ****        -0.9655   1.2233  -0.1890 O.3            1 S1                 0.0000
     13 ****         0.1114   1.0103   0.7196 C.3            1 S1                 0.0000
     14 ****         1.0798   2.1936   0.5841 C.3            1 S1                 0.0000
     15 ****         2.3077   1.9789   1.3351 N.pl3          1 S1                 0.0000
     16 ****         3.3010   2.9658   1.3763 C.ar           1 S1                 0.0000
     17 ****         4.5198   2.8340   2.0814 C.ar           1 S1                 0.0000
     18 ****         5.4319   3.9022   2.0399 C.ar           1 S1                 0.0000
     19 ****         5.0713   5.0385   1.2945 C.ar           1 S1                 0.0000
     20 ****         3.9011   5.1453   0.6265 N.ar           1 S1                 0.0000
     21 ****         3.0487   4.1068   0.6867 N.pl3          1 S1                 1.0000
     22 ****        -0.4690   0.8687   2.1424 C.3            1 S1                 0.0000
     23 ****        -0.5346  -6.6272   5.8133 H              1 S1                 0.0000
     24 ****        -2.0997  -5.8594   6.0481 H              1 S1                 0.0000
     25 ****        -0.6443  -5.1107   6.7025 H              1 S1                 0.0000
     26 ****        -1.2694  -5.4981   3.7344 H              1 S1                 0.0000
     27 ****         1.1877  -5.5569   4.1925 H              1 S1                 0.0000
     28 ****         1.0813  -4.0089   5.0263 H              1 S1                 0.0000
     29 ****         0.7578  -4.1066   3.2971 H              1 S1                 0.0000
     30 ****        -1.7780  -3.2620   5.5329 H              1 S1                 0.0000
     31 ****        -3.7171  -1.6159   3.2844 H              1 S1                 0.0000
     32 ****        -3.1063  -1.6348   4.9104 H              1 S1                 0.0000
     33 ****        -2.5396   0.5131   3.8513 H              1 S1                 0.0000
     34 ****        -1.1144  -0.3792   4.2837 H              1 S1                 0.0000
     35 ****        -3.1918  -0.8308   1.2451 H              1 S1                 0.0000
     36 ****        -3.0632   0.8937   1.5105 H              1 S1                 0.0000
     37 ****        -1.4597  -0.7581  -0.5159 H              1 S1                 0.0000
     38 ****        -2.7222   0.4040  -0.8793 H              1 S1                 0.0000
     39 ****         0.6277   0.0909   0.4356 H              1 S1                 0.0000
     40 ****         1.3364   2.3279  -0.4674 H              1 S1                 0.0000
     41 ****         0.5973   3.1125   0.9190 H              1 S1                 0.0000
     42 ****         2.3833   1.1603   1.9220 H              1 S1                 0.0000
     43 ****         4.7621   1.9443   2.6435 H              1 S1                 0.0000
     44 ****         6.3763   3.8525   2.5615 H              1 S1                 0.0000
     45 ****         5.7385   5.8857   1.2306 H              1 S1                 0.0000
     46 ****        -0.9417   1.8063   2.4402 H              1 S1                 0.0000
     47 ****         0.3419   0.6904   2.8495 H              1 S1                 0.0000
     48 ****         2.1633   4.1798   0.1851 H              1 S1                 0.0000
     49 ****        -1.4192  -4.1557   2.1903 LP             1 S1                 0.0000
     50 ****        -2.2548  -2.7417   1.6404 LP             1 S1                 0.0000
     51 ****        -0.9829  -1.0852   2.0111 LP             1 S1                 0.0000
     52 ****        -1.4266   2.0756   0.0580 LP             1 S1                 0.0000
     53 ****        -0.5916   1.3023  -1.1131 LP             1 S1                 0.0000
     54 ****         3.6767   5.9686   0.1052 LP             1 S1                 0.0000
@<TRIPOS>BOND
    1    1    2 1     
    2    1   23 1     
    3    1   24 1     
    4    1   25 1     
    5    2    3 1     
    6    2    4 1     
    7    2   26 1     
    8    3   27 1     
    9    3   28 1     
   10    3   29 1     
   11    4    5 am    
   12    4   30 1     
   13    5    6 2     
   14    5    7 1     
   15    7    8 1     
   16    7   31 1     
   17    7   32 1     
   18    8    9 1     
   19    8   33 1     
   20    8   34 1     
   21    9   22 1     
   22    9   10 1     
   23   10   11 1     
   24   10   35 1     
   25   10   36 1     
   26   11   12 1     
   27   11   37 1     
   28   11   38 1     
   29   12   13 1     
   30   13   14 1     
   31   13   22 1     
   32   13   39 1     
   33   14   15 1     
   34   14   40 1     
   35   14   41 1     
   36   15   16 1     
   37   15   42 1     
   38   16   21 ar    
   39   16   17 ar    
   40   17   18 ar    
   41   17   43 1     
   42   18   19 ar    
   43   18   44 1     
   44   19   20 ar    
   45   19   45 1     
   46   20   21 ar    
   47   21   48 1     
   48   22   46 1     
   49   22   47 1     
   50    6   49 1     
   51    6   50 1     
   52    9   51 1     
   53   12   52 1     
   54   12   53 1     
   55   20   54 1     
@<TRIPOS>SUBSTRUCTURE
      1 S1             1
@<TRIPOS>SET
LONE_PAIRS      STATIC     ATOMS    <user>   **** ""
6 49 50 51 52 53 54
DONOR_HYDROGENS      STATIC     ATOMS    <user>   **** ""
3 30 42 48
ATOM$BLUE        STATIC     ATOMS    COLORGROUP SYSTEM
6 49 50 51 52 53 54
ATOM$RED        STATIC     ATOMS    COLORGROUP SYSTEM
3 30 42 48
