AV-unprocessed.smi:2798|AV-procd|sdf|10787|dock2
  -GOLD-   2272015223D 1   1.00000     0.00000
 Structure written by MMmdl.
 29 31  0  0  0  0  0  0  0  0  1 V2000
  151.7943  137.3540  154.2517 N   0  0  0  0  0  0  0  0  0  0  0  0
  151.5226  138.3213  154.8260 C   0  0  0  0  0  0  0  0  0  0  0  0
  151.1823  139.5357  155.5476 C   0  0  0  0  0  0  0  0  0  0  0  0
  151.5795  139.6797  156.8933 C   0  0  0  0  0  0  0  0  0  0  0  0
  151.2395  140.8632  157.5762 C   0  0  0  0  0  0  0  0  0  0  0  0
  150.5116  141.8651  156.8930 C   0  0  0  0  0  0  0  0  0  0  0  0
  150.1210  143.0769  157.4823 N   0  0  0  0  0  0  0  0  0  0  0  0
  150.2577  143.3097  158.9158 C   0  0  2  0  0  0  0  0  0  0  0  0
  149.8666  144.7228  159.3636 C   0  0  0  0  0  0  0  0  0  0  0  0
  151.1142  145.1625  160.1426 C   0  0  2  0  0  0  0  0  0  0  0  0
  152.2660  145.5243  159.1971 C   0  0  0  0  0  0  0  0  0  0  0  0
  152.6884  144.1492  158.6845 C   0  0  0  0  0  0  0  0  0  0  0  0
  151.7091  143.2174  159.4207 C   0  0  1  0  0  0  0  0  0  0  0  0
  151.5753  143.9191  160.6456 O   0  0  0  0  0  0  0  0  0  0  0  0
  150.1677  141.6199  155.5468 C   0  0  0  0  0  0  0  0  0  0  0  0
  150.4895  140.4877  154.8857 N   0  0  0  0  0  0  0  0  0  0  0  0
  152.1346  138.9017  157.3978 H   0  0  0  0  0  0  0  0  0  0  0  0
  151.5418  140.9817  158.6056 H   0  0  0  0  0  0  0  0  0  0  0  0
  149.5860  143.7398  156.9394 H   0  0  0  0  0  0  0  0  0  0  0  0
  149.6626  142.5743  159.4584 H   0  0  0  0  0  0  0  0  0  0  0  0
  149.6442  145.4008  158.5383 H   0  0  0  0  0  0  0  0  0  0  0  0
  148.9926  144.6846  160.0147 H   0  0  0  0  0  0  0  0  0  0  0  0
  150.9176  145.9142  160.9074 H   0  0  0  0  0  0  0  0  0  0  0  0
  151.9536  146.1976  158.3982 H   0  0  0  0  0  0  0  0  0  0  0  0
  153.0832  145.9968  159.7432 H   0  0  0  0  0  0  0  0  0  0  0  0
  152.6291  144.0638  157.5993 H   0  0  0  0  0  0  0  0  0  0  0  0
  153.7158  143.9356  158.9816 H   0  0  0  0  0  0  0  0  0  0  0  0
  152.0723  142.1952  159.5313 H   0  0  0  0  0  0  0  0  0  0  0  0
  149.6130  142.3538  154.9803 H   0  0  0  0  0  0  0  0  0  0  0  0
  1  2  3  0  0  0  0
  2  3  1  0  0  0  0
  3 16  1  0  0  0  0
  3  4  2  0  0  0  0
  4  5  1  0  0  0  0
  4 17  1  0  0  0  0
  5  6  2  0  0  0  0
  5 18  1  0  0  0  0
  6  7  1  0  0  0  0
  6 15  1  0  0  0  0
  7  8  1  0  0  0  0
  7 19  1  0  0  0  0
  8 13  1  0  0  0  0
  8  9  1  0  0  0  0
  8 20  1  0  0  0  0
  9 10  1  0  0  0  0
  9 21  1  0  0  0  0
  9 22  1  0  0  0  0
 10 14  1  0  0  0  0
 10 11  1  0  0  0  0
 10 23  1  0  0  0  0
 11 12  1  0  0  0  0
 11 24  1  0  0  0  0
 11 25  1  0  0  0  0
 12 13  1  0  0  0  0
 12 26  1  0  0  0  0
 12 27  1  0  0  0  0
 13 14  1  0  0  0  0
 13 28  1  0  0  0  0
 15 16  2  0  0  0  0
 15 29  1  0  0  0  0
M  END
> <s_m_source_file>
AV-unprocessed.smi

> <i_m_source_file_index>
2798

> <i_lp_mmshare_version>
43012

> <i_f3d_flags>
0

> <s_epik_input>
TiNDYzFbY0hdW2NIXWMoW2NIXW4xKVtOSF1bQ0BIXShbQ0gyXVtDQEBIXTIzKVtDQEBIXShPMylbQ0gyXVtDSDJdMg==

> <s_epik_cmdline>
J2VwaWtfcHl0aG9uJywgJy1waCcsICc3LjAnLCAnLXRuJywgJzgnLCAnLW1hJywgJzIwMCcsICctbWV0YWxfYmluZGluZycsICctaW1hZScsICc8aW5maWxlLm1hZT4nLCAnLW9tYWUnLCAnPG91dGZpbGUubWFlPic=

> <r_lp_tautomer_probability>
1

> <r_epik_Ionization_Penalty>
2.201e-07

> <r_epik_Ionization_Penalty_Charging>
0

> <r_epik_Ionization_Penalty_Neutral>
2.201e-07

> <r_epik_State_Penalty>
-0

> <r_epik_Charging_Adjusted_Penalty>
0

> <i_epik_Tot_Q>
0

> <i_epik_Tot_abs_Q>
0

> <r_epik_Metal_State_Penalty>
-0

> <b_epik_Metal_Only>
0

> <s_lp_Force_Field>
OPLS_2005

> <r_lp_Energy>
43.8811

> <b_lp_Chiralities_Consistent>
1

> <s_lp_Variant>
AV-unprocessed.smi:2798-3

> <Gold.Version>
5.8.1

> <Gold.Id.Protein>
6NUR|6NUR_protein|mol2

> <Gold.PLP.Fitness>
48.7195

> <Gold.PLP.PLP>
-37.2581

> <Gold.PLP.part.hbond>
-3.0000

> <Gold.PLP.part.metal>
0.0000

> <Gold.PLP.part.buried>
-4.3152

> <Gold.PLP.part.nonpolar>
-29.2410

> <Gold.PLP.part.repulsive>
0.4131

> <Gold.PLP.ligand.clash>
0.0000

> <Gold.PLP.ligand.torsion>
0.0285

> <Gold.PLP.Chemscore.Hbond>
2.9120

> <Gold.PLP.Chemscore.CHOScore>
0.9245

> <Gold.PLP.Chemscore.Metal>
0.0000

> <Gold.Chemscore.Hbonds>
donor molecule, donor type, donor heavy atom, donor atom, acceptor molecule, acceptor atom, score
      L1  H     7    19       P1  8028  1.00
      P1  H  7989  7998       L1    16  1.00
      P1  H 10752 10764       L1     1  0.89
      L1  C    15    29       P1  8028  0.93

> <Gold.PLP.Chemscore.Internal.Correction>
0.0089

> <Gold.Rescore>
     Score         DG    S(hbond)    S(metal)    S(lipo)     H(rot)  DE(clash)    DE(int)     intcor
     20.61     -21.16       2.30        0.00      90.38       1.00       0.55       0.01       ----

> <Gold.Chemscore.Fitness>
20.6091

> <Gold.Chemscore.DG>
-21.1629

> <Gold.Chemscore.ZeroCoef>
-5.4800

> <Gold.Chemscore.Hbond>
2.2961

> <Gold.Chemscore.Metal>
0.0000

> <Gold.Chemscore.Lipo>
90.3759

> <Gold.Chemscore.Internal_Hbond>
0.0000

> <Gold.Chemscore.DEClash>
0.5471

> <Gold.Chemscore.DEInternal>
0.0068

> <Gold.Chemscore.Rot>
1.0000

> <Gold.Chemscore.Internal.Correction>
   9.000000E+99

> <Gold.Chemscore.Hbonds>
donor molecule, donor type, donor heavy atom, donor atom, acceptor molecule, acceptor atom, score
      L1  H     7    19       P1  8028  0.93
      P1  H  7989  7998       L1    16  0.25
      P1  H 10752 10764       L1     1  0.82

> <Gold.Chemscore.Hbond.Weighted>
-7.6690

> <Gold.Chemscore.Metal.Weighted>
-0.0000

> <Gold.Chemscore.Lipo.Weighted>
-10.5740

> <Gold.Chemscore.Internal_Hbond.Weighted>
0.0000

> <Gold.Chemscore.DEClash.Weighted>
0.5471

> <Gold.Chemscore.DEInternal.Weighted>
0.0068

> <Gold.Chemscore.Rot.Weighted>
2.5600

> <Gold.Chemscore.Internal.Correction.Weighted>
   9.000000E+99

> <Gold.Protein.RotatedTorsions>
[ 6907 6896 6895 6894 ] final  153.22 input  -60.11 | X-H torsion
[ 7974 7965 7964 7962 ] final  120.12 input  175.53 | X-H torsion
[ 8008 7997 7996 7995 ] final  170.14 input   59.86 | X-H torsion
[ 10167 10162 10161 10158 ] final   91.83 input  -65.29 | X-H torsion
[ 10718 10713 10712 10709 ] final  -35.65 input   66.30 | X-H torsion
[ 10763 10752 10751 10750 ] final  -92.58 input  -60.55 | X-H torsion
[ 11005 11000 10999 10996 ] final  -76.42 input  -57.11 | X-H torsion

> <Gold.Protein.ActiveResidues>
 VAL166  LYS551  ARG553  GLY616  TRP617  ASP618  TYR619  PRO620  LYS621  CYS622 
 ASP623  PHE694  ASN695  SER759  ASP760  ASP761  ALA762  ILE779  LEU786  VAL792 
 PHE793  MET794  SER795  GLU796  ALA797  LYS798  CYS799  TRP800  GLU811  SER814 

> <Gold.Protein.RotatedAtoms>
  152.0758  133.4128  159.4478 H   0  0  0  0  0  0  0  0  0  0  0  0  # atno 6907 bound_to 6896
  150.6863  134.3039  159.4727 H   0  0  0  0  0  0  0  0  0  0  0  0  # atno 6908 bound_to 6896
  152.0876  134.9429  160.0623 H   0  0  0  0  0  0  0  0  0  0  0  0  # atno 6909 bound_to 6896
  145.1350  139.3303  143.4645 H   0  0  0  0  0  0  0  0  0  0  0  0  # atno 7974 bound_to 7965
  156.1393  140.1546  156.8946 H   0  0  0  0  0  0  0  0  0  0  0  0  # atno 8008 bound_to 7997
  154.4974  140.0834  156.7763 H   0  0  0  0  0  0  0  0  0  0  0  0  # atno 8009 bound_to 7997
  155.4109  140.3419  155.4266 H   0  0  0  0  0  0  0  0  0  0  0  0  # atno 8010 bound_to 7997
  139.8336  144.6675  150.9369 H   0  0  0  0  0  0  0  0  0  0  0  0  # atno 10167 bound_to 10162
  156.3361  130.4286  149.7829 H   0  0  0  0  0  0  0  0  0  0  0  0  # atno 10718 bound_to 10713
  154.6875  135.5226  153.8346 H   0  0  0  0  0  0  0  0  0  0  0  0  # atno 10763 bound_to 10752
  153.0608  135.6567  154.0477 H   0  0  0  0  0  0  0  0  0  0  0  0  # atno 10764 bound_to 10752
  154.0356  135.2981  155.3342 H   0  0  0  0  0  0  0  0  0  0  0  0  # atno 10765 bound_to 10752
  141.1653  133.6983  156.7666 H   0  0  0  0  0  0  0  0  0  0  0  0  # atno 11005 bound_to 11000
  146.3510  140.1364  142.8595 LP  0  0  0  0  0  0  0  0  0  0  0  0  # atno 17320 bound_to 7965
  145.0594  140.9076  143.4948 LP  0  0  0  0  0  0  0  0  0  0  0  0  # atno 17321 bound_to 7965
  140.7804  143.3977  151.1201 LP  0  0  0  0  0  0  0  0  0  0  0  0  # atno 17342 bound_to 10162
  139.7629  143.8608  152.3104 LP  0  0  0  0  0  0  0  0  0  0  0  0  # atno 17343 bound_to 10162
  156.5083  130.8160  151.3159 LP  0  0  0  0  0  0  0  0  0  0  0  0  # atno 17370 bound_to 10713
  157.7439  130.9922  150.2628 LP  0  0  0  0  0  0  0  0  0  0  0  0  # atno 17371 bound_to 10713
  140.2495  134.8552  157.3653 LP  0  0  0  0  0  0  0  0  0  0  0  0  # atno 17394 bound_to 11000
  140.1717  134.4601  155.7828 LP  0  0  0  0  0  0  0  0  0  0  0  0  # atno 17395 bound_to 11000

$$$$
