AV-unprocessed.smi:1976|AV-procd|sdf|7986|dock7
  -GOLD-   2272010163D 1   1.00000     0.00000
 Structure written by MMmdl.
 45 47  0  0  0  0  0  0  0  0  2 V2000
  152.2590  138.3554  156.4452 O   0  0  0  0  0  0  0  0  0  0  0  0
  151.6165  139.1253  157.1606 C   0  0  0  0  0  0  0  0  0  0  0  0
  151.8318  139.1638  158.6806 C   0  0  0  0  0  0  0  0  0  0  0  0
  152.4512  140.4132  159.1537 N   0  0  0  0  0  0  0  0  0  0  0  0
  151.7000  141.5959  159.0064 C   0  0  0  0  0  0  0  0  0  0  0  0
  152.1486  142.8031  159.4003 C   0  0  0  0  0  0  0  0  0  0  0  0
  151.3403  144.0706  159.1708 C   0  0  0  0  0  0  0  0  0  0  0  0
  151.7759  144.6931  158.0764 F   0  0  0  0  0  0  0  0  0  0  0  0
  150.0474  143.7916  159.0034 F   0  0  0  0  0  0  0  0  0  0  0  0
  151.4578  144.9102  160.2003 F   0  0  0  0  0  0  0  0  0  0  0  0
  153.4826  142.8421  159.9669 C   0  0  0  0  0  0  0  0  0  0  0  0
  154.2195  141.7222  160.1029 C   0  0  0  0  0  0  0  0  0  0  0  0
  153.7097  140.4137  159.6871 C   0  0  0  0  0  0  0  0  0  0  0  0
  154.3726  139.3831  159.8066 O   0  0  0  0  0  0  0  0  0  0  0  0
  150.7114  139.9875  156.6738 N   0  0  0  0  0  0  0  0  0  0  0  0
  150.3536  140.1067  155.2630 C   0  0  1  0  0  0  0  0  0  0  0  0
  149.8435  138.8068  154.6548 C   0  0  0  0  0  0  0  0  0  0  0  0
  149.1232  139.2800  153.3879 C   0  0  0  0  0  0  0  0  0  0  0  0
  148.6730  140.6707  153.6428 N   0  3  1  0  0  0  0  0  0  0  0  0
  147.2120  140.8777  153.4540 C   0  0  0  0  0  0  0  0  0  0  0  0
  146.7550  142.1944  154.0994 C   0  0  0  0  0  0  0  0  0  0  0  0
  146.9994  142.1932  155.6206 C   0  0  0  0  0  0  0  0  0  0  0  0
  148.1084  141.2086  156.0391 C   0  0  0  0  0  0  0  0  0  0  0  0
  149.2163  141.1025  154.9623 C   0  0  1  0  0  0  0  0  0  0  0  0
  150.8667  139.0111  159.1661 H   0  0  0  0  0  0  0  0  0  0  0  0
  152.4378  138.3057  158.9779 H   0  0  0  0  0  0  0  0  0  0  0  0
  150.7352  141.4597  158.5397 H   0  0  0  0  0  0  0  0  0  0  0  0
  153.8980  143.7852  160.2900 H   0  0  0  0  0  0  0  0  0  0  0  0
  155.2100  141.7890  160.5286 H   0  0  0  0  0  0  0  0  0  0  0  0
  150.2292  140.5906  157.3247 H   0  0  0  0  0  0  0  0  0  0  0  0
  151.2409  140.4082  154.7017 H   0  0  0  0  0  0  0  0  0  0  0  0
  150.6409  138.0934  154.4443 H   0  0  0  0  0  0  0  0  0  0  0  0
  149.1315  138.3276  155.3283 H   0  0  0  0  0  0  0  0  0  0  0  0
  149.8202  139.3040  152.5494 H   0  0  0  0  0  0  0  0  0  0  0  0
  148.3095  138.6069  153.1140 H   0  0  0  0  0  0  0  0  0  0  0  0
  146.9880  140.8746  152.3866 H   0  0  0  0  0  0  0  0  0  0  0  0
  146.6537  140.0505  153.8959 H   0  0  0  0  0  0  0  0  0  0  0  0
  147.3023  143.0203  153.6428 H   0  0  0  0  0  0  0  0  0  0  0  0
  145.7003  142.3772  153.8915 H   0  0  0  0  0  0  0  0  0  0  0  0
  147.2584  143.2040  155.9379 H   0  0  0  0  0  0  0  0  0  0  0  0
  146.0805  141.9362  156.1491 H   0  0  0  0  0  0  0  0  0  0  0  0
  148.5172  141.5249  156.9987 H   0  0  0  0  0  0  0  0  0  0  0  0
  147.6722  140.2226  156.2065 H   0  0  0  0  0  0  0  0  0  0  0  0
  149.6467  142.0973  154.8379 H   0  0  0  0  0  0  0  0  0  0  0  0
  149.1364  141.2476  152.9551 H   0  0  0  0  0  0  0  0  0  0  0  0
  1  2  2  0  0  0  0
  2  3  1  0  0  0  0
  2 15  1  0  0  0  0
  3  4  1  0  0  0  0
  3 25  1  0  0  0  0
  3 26  1  0  0  0  0
  4 13  1  0  0  0  0
  4  5  1  0  0  0  0
  5  6  2  0  0  0  0
  5 27  1  0  0  0  0
  6  7  1  0  0  0  0
  6 11  1  0  0  0  0
  7  8  1  0  0  0  0
  7  9  1  0  0  0  0
  7 10  1  0  0  0  0
 11 12  2  0  0  0  0
 11 28  1  0  0  0  0
 12 13  1  0  0  0  0
 12 29  1  0  0  0  0
 13 14  2  0  0  0  0
 15 16  1  0  0  0  0
 15 30  1  0  0  0  0
 16 24  1  0  0  0  0
 16 17  1  0  0  0  0
 16 31  1  0  0  0  0
 17 18  1  0  0  0  0
 17 32  1  0  0  0  0
 17 33  1  0  0  0  0
 18 19  1  0  0  0  0
 18 34  1  0  0  0  0
 18 35  1  0  0  0  0
 19 24  1  0  0  0  0
 19 20  1  0  0  0  0
 19 45  1  0  0  0  0
 20 21  1  0  0  0  0
 20 36  1  0  0  0  0
 20 37  1  0  0  0  0
 21 22  1  0  0  0  0
 21 38  1  0  0  0  0
 21 39  1  0  0  0  0
 22 23  1  0  0  0  0
 22 40  1  0  0  0  0
 22 41  1  0  0  0  0
 23 24  1  0  0  0  0
 23 42  1  0  0  0  0
 23 43  1  0  0  0  0
 24 44  1  0  0  0  0
M  CHG  1  19   1
M  END
> <s_m_source_file>
AV-unprocessed.smi

> <i_m_source_file_index>
1976

> <i_lp_mmshare_version>
43012

> <i_f3d_flags>
0

> <s_epik_input>
W0NIMl0xW0NIMl1bQ0gyXVtDSDJdW0NASF0oTjEyKVtDQEBIXShbQ0gyXVtDSDJdMilbTkhdQyg9TylbQ0gyXW4zW2NIXWMoQyhGKShGKUYpW2NIXVtjSF1jMz1P

> <s_epik_cmdline>
J2VwaWtfcHl0aG9uJywgJy1waCcsICc3LjAnLCAnLXRuJywgJzgnLCAnLW1hJywgJzIwMCcsICctbWV0YWxfYmluZGluZycsICctaW1hZScsICc8aW5maWxlLm1hZT4nLCAnLW9tYWUnLCAnPG91dGZpbGUubWFlPic=

> <r_lp_tautomer_probability>
1

> <r_epik_Ionization_Penalty>
0.00171506

> <r_epik_Ionization_Penalty_Charging>
0.00171498

> <r_epik_Ionization_Penalty_Neutral>
7.81737e-08

> <r_epik_State_Penalty>
0.00115937

> <r_epik_Charging_Adjusted_Penalty>
0.00287436

> <i_epik_Tot_Q>
1

> <i_epik_Tot_abs_Q>
1

> <r_epik_Metal_State_Penalty>
-0

> <b_epik_Metal_Only>
0

> <s_lp_Force_Field>
OPLS_2005

> <r_lp_Energy>
52.608

> <b_lp_Chiralities_Consistent>
1

> <s_lp_Variant>
AV-unprocessed.smi:1976-4

> <Gold.Version>
5.8.1

> <Gold.Id.Protein>
6NUR|6NUR_protein|mol2

> <Gold.PLP.Fitness>
47.4896

> <Gold.PLP.PLP>
-48.8097

> <Gold.PLP.part.hbond>
-1.0000

> <Gold.PLP.part.metal>
0.0000

> <Gold.PLP.part.buried>
-1.9487

> <Gold.PLP.part.nonpolar>
-46.1037

> <Gold.PLP.part.repulsive>
0.2148

> <Gold.PLP.ligand.clash>
0.0663

> <Gold.PLP.ligand.torsion>
0.9348

> <Gold.PLP.Chemscore.Hbond>
0.1919

> <Gold.PLP.Chemscore.CHOScore>
0.0000

> <Gold.PLP.Chemscore.Metal>
0.0000

> <Gold.Chemscore.Hbonds>
donor molecule, donor type, donor heavy atom, donor atom, acceptor molecule, acceptor atom, score
      L1  H    19    45       P1  7957  0.12

> <Gold.PLP.Chemscore.Internal.Correction>
0.0401

> <Gold.Rescore>
     Score         DG    S(hbond)    S(metal)    S(lipo)     H(rot)  DE(clash)    DE(int)     intcor
     13.52     -16.46       0.81        0.00     105.27       1.58       0.94       2.00       ----

> <Gold.Chemscore.Fitness>
13.5185

> <Gold.Chemscore.DG>
-16.4576

> <Gold.Chemscore.ZeroCoef>
-5.4800

> <Gold.Chemscore.Hbond>
0.8123

> <Gold.Chemscore.Metal>
0.0000

> <Gold.Chemscore.Lipo>
105.2721

> <Gold.Chemscore.Internal_Hbond>
0.0000

> <Gold.Chemscore.DEClash>
0.9439

> <Gold.Chemscore.DEInternal>
1.9952

> <Gold.Chemscore.Rot>
1.5830

> <Gold.Chemscore.Internal.Correction>
   9.000000E+99

> <Gold.Chemscore.Hbonds>
donor molecule, donor type, donor heavy atom, donor atom, acceptor molecule, acceptor atom, score
      L1  H    19    45       P1  7957  0.13

> <Gold.Chemscore.Hbond.Weighted>
-2.7131

> <Gold.Chemscore.Metal.Weighted>
-0.0000

> <Gold.Chemscore.Lipo.Weighted>
-12.3168

> <Gold.Chemscore.Internal_Hbond.Weighted>
0.0000

> <Gold.Chemscore.DEClash.Weighted>
0.9439

> <Gold.Chemscore.DEInternal.Weighted>
1.9952

> <Gold.Chemscore.Rot.Weighted>
4.0524

> <Gold.Chemscore.Internal.Correction.Weighted>
   9.000000E+99

> <Gold.Protein.RotatedTorsions>
[ 6907 6896 6895 6894 ] final -145.60 input  -60.11 | X-H torsion
[ 7974 7965 7964 7962 ] final   22.33 input  175.53 | X-H torsion
[ 8008 7997 7996 7995 ] final   20.32 input   59.86 | X-H torsion
[ 10167 10162 10161 10158 ] final   30.19 input  -65.29 | X-H torsion
[ 10718 10713 10712 10709 ] final  106.10 input   66.30 | X-H torsion
[ 10763 10752 10751 10750 ] final   90.45 input  -60.55 | X-H torsion
[ 11005 11000 10999 10996 ] final   99.22 input  -57.11 | X-H torsion

> <Gold.Protein.ActiveResidues>
 VAL166  LYS551  ARG553  GLY616  TRP617  ASP618  TYR619  PRO620  LYS621  CYS622 
 ASP623  PHE694  ASN695  SER759  ASP760  ASP761  ALA762  ILE779  LEU786  VAL792 
 PHE793  MET794  SER795  GLU796  ALA797  LYS798  CYS799  TRP800  GLU811  SER814 

> <Gold.Protein.RotatedAtoms>
  151.1300  133.5043  159.2599 H   0  0  0  0  0  0  0  0  0  0  0  0  # atno 6907 bound_to 6896
  151.1767  135.0342  159.8785 H   0  0  0  0  0  0  0  0  0  0  0  0  # atno 6908 bound_to 6896
  152.5459  134.1157  159.8431 H   0  0  0  0  0  0  0  0  0  0  0  0  # atno 6909 bound_to 6896
  146.2033  139.7901  142.8745 H   0  0  0  0  0  0  0  0  0  0  0  0  # atno 7974 bound_to 7965
  154.9338  140.3044  155.5154 H   0  0  0  0  0  0  0  0  0  0  0  0  # atno 8008 bound_to 7997
  156.3001  140.2349  156.4338 H   0  0  0  0  0  0  0  0  0  0  0  0  # atno 8009 bound_to 7997
  154.8211  140.0423  157.1400 H   0  0  0  0  0  0  0  0  0  0  0  0  # atno 8010 bound_to 7997
  140.4699  144.0778  150.6234 H   0  0  0  0  0  0  0  0  0  0  0  0  # atno 10167 bound_to 10162
  157.6681  131.0843  150.5957 H   0  0  0  0  0  0  0  0  0  0  0  0  # atno 10718 bound_to 10713
  153.1977  135.4433  155.0228 H   0  0  0  0  0  0  0  0  0  0  0  0  # atno 10763 bound_to 10752
  154.8128  135.3302  154.7260 H   0  0  0  0  0  0  0  0  0  0  0  0  # atno 10764 bound_to 10752
  153.7708  135.6985  153.4962 H   0  0  0  0  0  0  0  0  0  0  0  0  # atno 10765 bound_to 10752
  139.8771  134.9085  156.4572 H   0  0  0  0  0  0  0  0  0  0  0  0  # atno 11005 bound_to 11000
  145.3407  141.0287  143.3394 LP  0  0  0  0  0  0  0  0  0  0  0  0  # atno 17320 bound_to 7965
  144.8734  139.5006  143.6757 LP  0  0  0  0  0  0  0  0  0  0  0  0  # atno 17321 bound_to 7965
  140.3990  143.2713  151.9971 LP  0  0  0  0  0  0  0  0  0  0  0  0  # atno 17342 bound_to 10162
  139.4817  144.6014  151.7599 LP  0  0  0  0  0  0  0  0  0  0  0  0  # atno 17343 bound_to 10162
  156.6257  130.4418  149.5805 LP  0  0  0  0  0  0  0  0  0  0  0  0  # atno 17370 bound_to 10713
  156.2321  130.6800  151.1473 LP  0  0  0  0  0  0  0  0  0  0  0  0  # atno 17371 bound_to 10713
  140.8889  133.7862  155.9550 LP  0  0  0  0  0  0  0  0  0  0  0  0  # atno 17394 bound_to 11000
  140.8774  134.2652  157.5161 LP  0  0  0  0  0  0  0  0  0  0  0  0  # atno 17395 bound_to 11000

$$$$
