AV-unprocessed.smi:601|AV-procd|sdf|3031|dock6
  -GOLD-   2262023543D 1   1.00000     0.00000
 Structure written by MMmdl.
 50 51  0  0  0  0  0  0  0  0  1 V2000
  148.3482  141.3715  155.4151 C   0  0  0  0  0  0  0  0  0  0  0  0
  147.3803  140.3238  155.9805 C   0  0  0  0  0  0  0  0  0  0  0  0
  147.7941  139.7772  157.3561 C   0  0  0  0  0  0  0  0  0  0  0  0
  146.9471  138.5753  157.8216 C   0  0  0  0  0  0  0  0  0  0  0  0
  147.7283  137.5879  158.5830 N   0  0  0  0  0  0  0  0  0  0  0  0
  147.3483  137.2057  159.8314 C   0  0  0  0  0  0  0  0  0  0  0  0
  146.3491  137.6774  160.3774 O   0  0  0  0  0  0  0  0  0  0  0  0
  148.1957  136.1548  160.5956 C   0  0  2  0  0  0  0  0  0  0  0  0
  147.4284  134.9042  161.0434 C   0  0  0  0  0  0  0  0  0  0  0  0
  146.7846  135.3101  162.3625 C   0  0  0  0  0  0  0  0  0  0  0  0
  147.5682  136.5534  162.7951 C   0  0  0  0  0  0  0  0  0  0  0  0
  148.6239  136.6804  161.8473 O   0  0  0  0  0  0  0  0  0  0  0  0
  148.8050  136.9809  157.9120 C   0  0  0  0  0  0  0  0  0  0  0  0
  148.6228  136.2087  156.7995 C   0  0  0  0  0  0  0  0  0  0  0  0
  147.3537  136.0272  156.2714 N   0  0  0  0  0  0  0  0  0  0  0  0
  149.6989  135.6055  156.1418 N   0  0  0  0  0  0  0  0  0  0  0  0
  149.5574  134.8024  154.9437 C   0  0  0  0  0  0  0  0  0  0  0  0
  150.0339  133.3542  155.1462 C   0  0  0  0  0  0  0  0  0  0  0  0
  149.4539  132.3974  154.1000 C   0  0  0  0  0  0  0  0  0  0  0  0
  151.0205  135.8105  156.6060 C   0  0  0  0  0  0  0  0  0  0  0  0
  152.0169  135.3476  156.0497 O   0  0  0  0  0  0  0  0  0  0  0  0
  151.1776  136.5811  157.7528 N   0  0  0  0  0  0  0  0  0  0  0  0
  150.1486  137.1887  158.4673 C   0  0  0  0  0  0  0  0  0  0  0  0
  150.4145  137.8430  159.4747 O   0  0  0  0  0  0  0  0  0  0  0  0
  152.1187  136.7170  158.0921 H   0  0  0  0  0  0  0  0  0  0  0  0
  147.9688  141.7796  154.4781 H   0  0  0  0  0  0  0  0  0  0  0  0
  149.3297  140.9435  155.2118 H   0  0  0  0  0  0  0  0  0  0  0  0
  148.4796  142.2017  156.1095 H   0  0  0  0  0  0  0  0  0  0  0  0
  146.3931  140.7782  156.0696 H   0  0  0  0  0  0  0  0  0  0  0  0
  147.2705  139.5019  155.2723 H   0  0  0  0  0  0  0  0  0  0  0  0
  148.8487  139.5058  157.3285 H   0  0  0  0  0  0  0  0  0  0  0  0
  147.7098  140.5854  158.0829 H   0  0  0  0  0  0  0  0  0  0  0  0
  146.1058  138.9206  158.4249 H   0  0  0  0  0  0  0  0  0  0  0  0
  146.4994  138.0884  156.9544 H   0  0  0  0  0  0  0  0  0  0  0  0
  149.0541  135.8690  159.9880 H   0  0  0  0  0  0  0  0  0  0  0  0
  146.7044  134.5422  160.3123 H   0  0  0  0  0  0  0  0  0  0  0  0
  148.1376  134.0944  161.2186 H   0  0  0  0  0  0  0  0  0  0  0  0
  145.7301  135.5539  162.2271 H   0  0  0  0  0  0  0  0  0  0  0  0
  146.8512  134.5078  163.0980 H   0  0  0  0  0  0  0  0  0  0  0  0
  146.9351  137.4410  162.7589 H   0  0  0  0  0  0  0  0  0  0  0  0
  147.9672  136.4641  163.8058 H   0  0  0  0  0  0  0  0  0  0  0  0
  146.5415  136.4564  156.6911 H   0  0  0  0  0  0  0  0  0  0  0  0
  147.2122  135.5887  155.3728 H   0  0  0  0  0  0  0  0  0  0  0  0
  148.5164  134.8525  154.6197 H   0  0  0  0  0  0  0  0  0  0  0  0
  150.1205  135.3029  154.1563 H   0  0  0  0  0  0  0  0  0  0  0  0
  151.1232  133.3168  155.1025 H   0  0  0  0  0  0  0  0  0  0  0  0
  149.7542  133.0074  156.1417 H   0  0  0  0  0  0  0  0  0  0  0  0
  149.8139  131.3812  154.2615 H   0  0  0  0  0  0  0  0  0  0  0  0
  149.7406  132.6960  153.0913 H   0  0  0  0  0  0  0  0  0  0  0  0
  148.3647  132.3768  154.1474 H   0  0  0  0  0  0  0  0  0  0  0  0
  1  2  1  0  0  0  0
  1 26  1  0  0  0  0
  1 27  1  0  0  0  0
  1 28  1  0  0  0  0
  2  3  1  0  0  0  0
  2 29  1  0  0  0  0
  2 30  1  0  0  0  0
  3  4  1  0  0  0  0
  3 31  1  0  0  0  0
  3 32  1  0  0  0  0
  4  5  1  0  0  0  0
  4 33  1  0  0  0  0
  4 34  1  0  0  0  0
  5  6  1  0  0  0  0
  5 13  1  0  0  0  0
  6  7  2  0  0  0  0
  6  8  1  0  0  0  0
  8 12  1  0  0  0  0
  8  9  1  0  0  0  0
  8 35  1  0  0  0  0
  9 10  1  0  0  0  0
  9 36  1  0  0  0  0
  9 37  1  0  0  0  0
 10 11  1  0  0  0  0
 10 38  1  0  0  0  0
 10 39  1  0  0  0  0
 11 12  1  0  0  0  0
 11 40  1  0  0  0  0
 11 41  1  0  0  0  0
 13 23  1  0  0  0  0
 13 14  2  0  0  0  0
 14 15  1  0  0  0  0
 14 16  1  0  0  0  0
 15 42  1  0  0  0  0
 15 43  1  0  0  0  0
 16 17  1  0  0  0  0
 16 20  1  0  0  0  0
 17 18  1  0  0  0  0
 17 44  1  0  0  0  0
 17 45  1  0  0  0  0
 18 19  1  0  0  0  0
 18 46  1  0  0  0  0
 18 47  1  0  0  0  0
 19 48  1  0  0  0  0
 19 49  1  0  0  0  0
 19 50  1  0  0  0  0
 20 21  2  0  0  0  0
 20 22  1  0  0  0  0
 22 25  1  0  0  0  0
 22 23  1  0  0  0  0
 23 24  2  0  0  0  0
M  END
> <s_m_source_file>
AV-unprocessed.smi

> <i_m_source_file_index>
601

> <i_lp_mmshare_version>
43012

> <i_f3d_flags>
0

> <s_epik_input>
TzFbQ0gyXVtDSDJdW0NIMl1bQ0BIXTFDKD1PKU4oW0NIMl1bQ0gyXVtDSDJdW0NIM10pYzJjKFtOSDJdKW4oW0NIMl1bQ0gyXVtDSDNdKWMoPU8pW25IXWMyPU8=

> <s_epik_cmdline>
J2VwaWtfcHl0aG9uJywgJy1waCcsICc3LjAnLCAnLXRuJywgJzgnLCAnLW1hJywgJzIwMCcsICctbWV0YWxfYmluZGluZycsICctaW1hZScsICc8aW5maWxlLm1hZT4nLCAnLW9tYWUnLCAnPG91dGZpbGUubWFlPic=

> <r_lp_tautomer_probability>
1

> <r_epik_Ionization_Penalty>
6.19718e-05

> <r_epik_Ionization_Penalty_Charging>
2.78773e-05

> <r_epik_Ionization_Penalty_Neutral>
3.40944e-05

> <r_epik_State_Penalty>
-0

> <r_epik_Charging_Adjusted_Penalty>
2.78773e-05

> <i_epik_Tot_Q>
0

> <i_epik_Tot_abs_Q>
0

> <r_epik_Metal_State_Penalty>
0.0271358

> <b_epik_Metal_Only>
0

> <s_lp_Force_Field>
OPLS_2005

> <r_lp_Energy>
42.1273

> <b_lp_Chiralities_Consistent>
1

> <s_lp_Variant>
AV-unprocessed.smi:601-1

> <Gold.Version>
5.8.1

> <Gold.Id.Protein>
6NUR|6NUR_protein|mol2

> <Gold.PLP.Fitness>
36.9904

> <Gold.PLP.PLP>
-29.8779

> <Gold.PLP.part.hbond>
-3.7926

> <Gold.PLP.part.metal>
0.0000

> <Gold.PLP.part.buried>
-1.2070

> <Gold.PLP.part.nonpolar>
-24.4612

> <Gold.PLP.part.repulsive>
0.1286

> <Gold.PLP.ligand.clash>
0.0000

> <Gold.PLP.ligand.torsion>
1.6237

> <Gold.PLP.Chemscore.Hbond>
2.7000

> <Gold.PLP.Chemscore.CHOScore>
0.0000

> <Gold.PLP.Chemscore.Metal>
0.0000

> <Gold.Chemscore.Hbonds>
donor molecule, donor type, donor heavy atom, donor atom, acceptor molecule, acceptor atom, score
      P1  H  6931  6943       L1    12  1.00
      P1  H  6934  6947       L1     7  0.70
      P1  H 10752 10765       L1    21  1.00

> <Gold.PLP.Chemscore.Internal.Correction>
2.2599

> <Gold.Rescore>
     Score         DG    S(hbond)    S(metal)    S(lipo)     H(rot)  DE(clash)    DE(int)     intcor
     10.28     -13.40       1.96        0.00      54.67       1.96       0.00       3.11       ----

> <Gold.Chemscore.Fitness>
10.2841

> <Gold.Chemscore.DG>
-13.4011

> <Gold.Chemscore.ZeroCoef>
-5.4800

> <Gold.Chemscore.Hbond>
1.9591

> <Gold.Chemscore.Metal>
0.0000

> <Gold.Chemscore.Lipo>
54.6675

> <Gold.Chemscore.Internal_Hbond>
0.0000

> <Gold.Chemscore.DEClash>
0.0038

> <Gold.Chemscore.DEInternal>
3.1133

> <Gold.Chemscore.Rot>
1.9603

> <Gold.Chemscore.Internal.Correction>
   9.000000E+99

> <Gold.Chemscore.Hbonds>
donor molecule, donor type, donor heavy atom, donor atom, acceptor molecule, acceptor atom, score
      P1  H  6931  6943       L1    12  0.48
      P1  H  6934  6947       L1     7  0.07
      P1  H 10752 10765       L1    21  0.89

> <Gold.Chemscore.Hbond.Weighted>
-6.5435

> <Gold.Chemscore.Metal.Weighted>
-0.0000

> <Gold.Chemscore.Lipo.Weighted>
-6.3961

> <Gold.Chemscore.Internal_Hbond.Weighted>
0.0000

> <Gold.Chemscore.DEClash.Weighted>
0.0038

> <Gold.Chemscore.DEInternal.Weighted>
3.1133

> <Gold.Chemscore.Rot.Weighted>
5.0185

> <Gold.Chemscore.Internal.Correction.Weighted>
   9.000000E+99

> <Gold.Protein.RotatedTorsions>
[ 6907 6896 6895 6894 ] final  -90.79 input  -60.11 | X-H torsion
[ 7974 7965 7964 7962 ] final  -27.43 input  175.53 | X-H torsion
[ 8008 7997 7996 7995 ] final -119.75 input   59.86 | X-H torsion
[ 10167 10162 10161 10158 ] final  155.31 input  -65.29 | X-H torsion
[ 10718 10713 10712 10709 ] final   95.54 input   66.30 | X-H torsion
[ 10763 10752 10751 10750 ] final -134.91 input  -60.55 | X-H torsion
[ 11005 11000 10999 10996 ] final  -63.04 input  -57.11 | X-H torsion

> <Gold.Protein.ActiveResidues>
 VAL166  LYS551  ARG553  GLY616  TRP617  ASP618  TYR619  PRO620  LYS621  CYS622 
 ASP623  PHE694  ASN695  SER759  ASP760  ASP761  ALA762  ILE779  LEU786  VAL792 
 PHE793  MET794  SER795  GLU796  ALA797  LYS798  CYS799  TRP800  GLU811  SER814 

> <Gold.Protein.RotatedAtoms>
  150.6885  134.2377  159.4459 H   0  0  0  0  0  0  0  0  0  0  0  0  # atno 6907 bound_to 6896
  152.0323  134.9758  160.0582 H   0  0  0  0  0  0  0  0  0  0  0  0  # atno 6908 bound_to 6896
  152.1292  133.4363  159.4749 H   0  0  0  0  0  0  0  0  0  0  0  0  # atno 6909 bound_to 6896
  146.1358  140.5150  142.8673 H   0  0  0  0  0  0  0  0  0  0  0  0  # atno 7974 bound_to 7965
  155.1207  140.0398  157.2749 H   0  0  0  0  0  0  0  0  0  0  0  0  # atno 8008 bound_to 7997
  154.6615  140.2592  155.7077 H   0  0  0  0  0  0  0  0  0  0  0  0  # atno 8009 bound_to 7997
  156.2621  140.2816  156.1090 H   0  0  0  0  0  0  0  0  0  0  0  0  # atno 8010 bound_to 7997
  139.4821  144.5110  151.8025 H   0  0  0  0  0  0  0  0  0  0  0  0  # atno 10167 bound_to 10162
  157.6937  131.0549  150.4354 H   0  0  0  0  0  0  0  0  0  0  0  0  # atno 10718 bound_to 10713
  154.8712  135.3720  154.4812 H   0  0  0  0  0  0  0  0  0  0  0  0  # atno 10763 bound_to 10752
  153.5465  135.7025  153.5616 H   0  0  0  0  0  0  0  0  0  0  0  0  # atno 10764 bound_to 10752
  153.3755  135.4010  155.1783 H   0  0  0  0  0  0  0  0  0  0  0  0  # atno 10765 bound_to 10752
  141.1380  133.6647  156.5619 H   0  0  0  0  0  0  0  0  0  0  0  0  # atno 11005 bound_to 11000
  144.7738  140.5696  143.6652 LP  0  0  0  0  0  0  0  0  0  0  0  0  # atno 17320 bound_to 7965
  145.5158  139.1478  143.3579 LP  0  0  0  0  0  0  0  0  0  0  0  0  # atno 17321 bound_to 7965
  140.4613  144.1718  150.5906 LP  0  0  0  0  0  0  0  0  0  0  0  0  # atno 17342 bound_to 10162
  140.4481  143.2498  151.9384 LP  0  0  0  0  0  0  0  0  0  0  0  0  # atno 17343 bound_to 10162
  156.4717  130.4054  149.6514 LP  0  0  0  0  0  0  0  0  0  0  0  0  # atno 17370 bound_to 10713
  156.3592  130.7472  151.2442 LP  0  0  0  0  0  0  0  0  0  0  0  0  # atno 17371 bound_to 10713
  140.3981  134.7381  157.4763 LP  0  0  0  0  0  0  0  0  0  0  0  0  # atno 17394 bound_to 11000
  140.0516  134.6122  155.8855 LP  0  0  0  0  0  0  0  0  0  0  0  0  # atno 17395 bound_to 11000

$$$$
