AV-unprocessed.smi:1884|AV-procd|sdf|7648|dock2
  -GOLD-   22720 9373D 1   1.00000     0.00000
 Structure written by MMmdl.
 41 43  0  0  0  0  0  0  0  0  2 V2000
  142.8073  136.4871  152.2980 C   0  0  0  0  0  0  0  0  0  0  0  0
  143.7119  135.3987  151.8261 C   0  0  0  0  0  0  0  0  0  0  0  0
  143.3888  134.4138  150.9416 N   0  3  0  0  0  0  0  0  0  0  0  0
  144.4893  133.5790  150.7420 C   0  0  0  0  0  0  0  0  0  0  0  0
  144.6441  132.4533  149.9387 C   0  0  0  0  0  0  0  0  0  0  0  0
  145.9083  131.8288  149.9613 C   0  0  0  0  0  0  0  0  0  0  0  0
  146.9586  132.3260  150.7598 C   0  0  0  0  0  0  0  0  0  0  0  0
  146.7897  133.4676  151.5709 C   0  0  0  0  0  0  0  0  0  0  0  0
  145.5359  134.0790  151.5444 C   0  0  0  0  0  0  0  0  0  0  0  0
  145.0093  135.2012  152.1963 N   0  0  0  0  0  0  0  0  0  0  0  0
  145.8488  135.9685  153.1303 C   0  0  0  0  0  0  0  0  0  0  0  0
  145.7322  137.4920  152.9255 C   0  0  2  0  0  0  0  0  0  0  0  0
  146.2600  137.8523  151.6650 O   0  0  0  0  0  0  0  0  0  0  0  0
  146.4716  138.2891  154.0097 C   0  0  0  0  0  0  0  0  0  0  0  0
  147.2682  137.3942  154.7749 O   0  0  0  0  0  0  0  0  0  0  0  0
  148.6080  137.6792  154.9262 C   0  0  0  0  0  0  0  0  0  0  0  0
  149.4374  136.6328  155.3795 C   0  0  0  0  0  0  0  0  0  0  0  0
  150.8192  136.8340  155.5627 C   0  0  0  0  0  0  0  0  0  0  0  0
  151.3898  138.0934  155.2922 C   0  0  0  0  0  0  0  0  0  0  0  0
  152.8155  138.3047  155.4785 C   0  0  0  0  0  0  0  0  0  0  0  0
  153.9505  138.4733  155.6268 N   0  0  0  0  0  0  0  0  0  0  0  0
  150.5719  139.1472  154.8397 C   0  0  0  0  0  0  0  0  0  0  0  0
  149.1900  138.9439  154.6571 C   0  0  0  0  0  0  0  0  0  0  0  0
  141.8324  136.4121  151.8154 H   0  0  0  0  0  0  0  0  0  0  0  0
  143.2357  137.4615  152.0638 H   0  0  0  0  0  0  0  0  0  0  0  0
  142.6664  136.4180  153.3767 H   0  0  0  0  0  0  0  0  0  0  0  0
  143.8413  132.0714  149.3250 H   0  0  0  0  0  0  0  0  0  0  0  0
  146.0765  130.9515  149.3531 H   0  0  0  0  0  0  0  0  0  0  0  0
  147.9144  131.8222  150.7495 H   0  0  0  0  0  0  0  0  0  0  0  0
  147.6037  133.8415  152.1741 H   0  0  0  0  0  0  0  0  0  0  0  0
  145.5298  135.7027  154.1387 H   0  0  0  0  0  0  0  0  0  0  0  0
  146.8832  135.6351  153.0462 H   0  0  0  0  0  0  0  0  0  0  0  0
  144.6811  137.7825  152.9317 H   0  0  0  0  0  0  0  0  0  0  0  0
  145.5465  137.9094  151.0482 H   0  0  0  0  0  0  0  0  0  0  0  0
  147.0892  139.0638  153.5516 H   0  0  0  0  0  0  0  0  0  0  0  0
  145.7460  138.7761  154.6640 H   0  0  0  0  0  0  0  0  0  0  0  0
  149.0094  135.6633  155.5890 H   0  0  0  0  0  0  0  0  0  0  0  0
  151.4350  136.0170  155.9105 H   0  0  0  0  0  0  0  0  0  0  0  0
  150.9985  140.1176  154.6298 H   0  0  0  0  0  0  0  0  0  0  0  0
  148.5977  139.7765  154.3095 H   0  0  0  0  0  0  0  0  0  0  0  0
  142.4794  134.3214  150.5075 H   0  0  0  0  0  0  0  0  0  0  0  0
  1  2  1  0  0  0  0
  1 24  1  0  0  0  0
  1 25  1  0  0  0  0
  1 26  1  0  0  0  0
  2 10  1  0  0  0  0
  2  3  2  0  0  0  0
  3  4  1  0  0  0  0
  3 41  1  0  0  0  0
  4  9  2  0  0  0  0
  4  5  1  0  0  0  0
  5  6  2  0  0  0  0
  5 27  1  0  0  0  0
  6  7  1  0  0  0  0
  6 28  1  0  0  0  0
  7  8  2  0  0  0  0
  7 29  1  0  0  0  0
  8  9  1  0  0  0  0
  8 30  1  0  0  0  0
  9 10  1  0  0  0  0
 10 11  1  0  0  0  0
 11 12  1  0  0  0  0
 11 31  1  0  0  0  0
 11 32  1  0  0  0  0
 12 13  1  0  0  0  0
 12 14  1  0  0  0  0
 12 33  1  0  0  0  0
 13 34  1  0  0  0  0
 14 15  1  0  0  0  0
 14 35  1  0  0  0  0
 14 36  1  0  0  0  0
 15 16  1  0  0  0  0
 16 23  1  0  0  0  0
 16 17  2  0  0  0  0
 17 18  1  0  0  0  0
 17 37  1  0  0  0  0
 18 19  2  0  0  0  0
 18 38  1  0  0  0  0
 19 20  1  0  0  0  0
 19 22  1  0  0  0  0
 20 21  3  0  0  0  0
 22 23  2  0  0  0  0
 22 39  1  0  0  0  0
 23 40  1  0  0  0  0
M  CHG  1   3   1
M  END
> <s_m_source_file>
AV-unprocessed.smi

> <i_m_source_file_index>
1884

> <i_lp_mmshare_version>
43012

> <i_f3d_flags>
0

> <s_epik_input>
W2NIXTFbY0hdW2NIXVtjSF1jKGMxMiluKGMobjIpW0NIM10pW0NIMl1bQ0BIXShbT0hdKVtDSDJdT2MzW2NIXVtjSF1jKEMjTilbY0hdW2NIXTM=

> <s_epik_cmdline>
J2VwaWtfcHl0aG9uJywgJy1waCcsICc3LjAnLCAnLXRuJywgJzgnLCAnLW1hJywgJzIwMCcsICctbWV0YWxfYmluZGluZycsICctaW1hZScsICc8aW5maWxlLm1hZT4nLCAnLW9tYWUnLCAnPG91dGZpbGUubWFlPic=

> <r_epik_Ionization_Penalty>
1.04791

> <r_epik_Ionization_Penalty_Charging>
1.04791

> <r_epik_Ionization_Penalty_Neutral>
2.3993e-06

> <r_epik_State_Penalty>
1.10051

> <r_epik_Charging_Adjusted_Penalty>
2.14841

> <i_epik_Tot_Q>
1

> <i_epik_Tot_abs_Q>
1

> <r_epik_Metal_State_Penalty>
5.09283

> <b_epik_Metal_Only>
0

> <s_lp_Force_Field>
OPLS_2005

> <r_lp_Energy>
18.2912

> <b_lp_Chiralities_Consistent>
1

> <s_lp_Variant>
AV-unprocessed.smi:1884-3

> <Gold.Version>
5.8.1

> <Gold.Id.Protein>
6NUR|6NUR_protein|mol2

> <Gold.PLP.Fitness>
48.8825

> <Gold.PLP.PLP>
-39.8464

> <Gold.PLP.part.hbond>
-3.0000

> <Gold.PLP.part.metal>
0.0000

> <Gold.PLP.part.buried>
-2.5895

> <Gold.PLP.part.nonpolar>
-34.1517

> <Gold.PLP.part.repulsive>
0.0881

> <Gold.PLP.ligand.clash>
0.0000

> <Gold.PLP.ligand.torsion>
1.4783

> <Gold.PLP.Chemscore.Hbond>
3.9760

> <Gold.PLP.Chemscore.CHOScore>
0.0000

> <Gold.PLP.Chemscore.Metal>
0.0000

> <Gold.Chemscore.Hbonds>
donor molecule, donor type, donor heavy atom, donor atom, acceptor molecule, acceptor atom, score
      L1  H     3    41       P1 10186  2.00
      L1  H    13    34       P1 10171  0.62
      P1  H  7997  8008       L1    21  0.40

> <Gold.PLP.Chemscore.Internal.Correction>
0.0648

> <Gold.Rescore>
     Score         DG    S(hbond)    S(metal)    S(lipo)     H(rot)  DE(clash)    DE(int)     intcor
     17.54     -21.16       2.88        0.00     104.21       2.39       2.28       1.33       ----

> <Gold.Chemscore.Fitness>
17.5411

> <Gold.Chemscore.DG>
-21.1604

> <Gold.Chemscore.ZeroCoef>
-5.4800

> <Gold.Chemscore.Hbond>
2.8776

> <Gold.Chemscore.Metal>
0.0000

> <Gold.Chemscore.Lipo>
104.2065

> <Gold.Chemscore.Internal_Hbond>
0.0000

> <Gold.Chemscore.DEClash>
2.2848

> <Gold.Chemscore.DEInternal>
1.3345

> <Gold.Chemscore.Rot>
2.3917

> <Gold.Chemscore.Internal.Correction>
   9.000000E+99

> <Gold.Chemscore.Hbonds>
donor molecule, donor type, donor heavy atom, donor atom, acceptor molecule, acceptor atom, score
      L1  H     3    41       P1 10186  0.50
      L1  H    13    34       P1 10171  0.60
      P1  H  7997  8008       L1    21  0.39

> <Gold.Chemscore.Hbond.Weighted>
-9.6111

> <Gold.Chemscore.Metal.Weighted>
-0.0000

> <Gold.Chemscore.Lipo.Weighted>
-12.1922

> <Gold.Chemscore.Internal_Hbond.Weighted>
0.0000

> <Gold.Chemscore.DEClash.Weighted>
2.2848

> <Gold.Chemscore.DEInternal.Weighted>
1.3345

> <Gold.Chemscore.Rot.Weighted>
6.1229

> <Gold.Chemscore.Internal.Correction.Weighted>
   9.000000E+99

> <Gold.Protein.RotatedTorsions>
[ 6907 6896 6895 6894 ] final   28.35 input  -60.11 | X-H torsion
[ 7974 7965 7964 7962 ] final  144.06 input  175.53 | X-H torsion
[ 8008 7997 7996 7995 ] final    3.10 input   59.86 | X-H torsion
[ 10167 10162 10161 10158 ] final -134.66 input  -65.29 | X-H torsion
[ 10718 10713 10712 10709 ] final  -52.84 input   66.30 | X-H torsion
[ 10763 10752 10751 10750 ] final  -31.75 input  -60.55 | X-H torsion
[ 11005 11000 10999 10996 ] final   -2.39 input  -57.11 | X-H torsion

> <Gold.Protein.ActiveResidues>
 VAL166  LYS551  ARG553  GLY616  TRP617  ASP618  TYR619  PRO620  LYS621  CYS622 
 ASP623  PHE694  ASN695  SER759  ASP760  ASP761  ALA762  ILE779  LEU786  VAL792 
 PHE793  MET794  SER795  GLU796  ALA797  LYS798  CYS799  TRP800  GLU811  SER814 

> <Gold.Protein.RotatedAtoms>
  152.0157  134.9851  160.0569 H   0  0  0  0  0  0  0  0  0  0  0  0  # atno 6907 bound_to 6896
  152.1386  133.4445  159.4764 H   0  0  0  0  0  0  0  0  0  0  0  0  # atno 6908 bound_to 6896
  150.6863  134.2251  159.4455 H   0  0  0  0  0  0  0  0  0  0  0  0  # atno 6909 bound_to 6896
  144.8867  139.5618  143.5817 H   0  0  0  0  0  0  0  0  0  0  0  0  # atno 7974 bound_to 7965
  154.6996  140.2670  155.6733 H   0  0  0  0  0  0  0  0  0  0  0  0  # atno 8008 bound_to 7997
  156.2760  140.2775  156.1525 H   0  0  0  0  0  0  0  0  0  0  0  0  # atno 8009 bound_to 7997
  155.0783  140.0372  157.2621 H   0  0  0  0  0  0  0  0  0  0  0  0  # atno 8010 bound_to 7997
  139.8858  143.6783  152.2620 H   0  0  0  0  0  0  0  0  0  0  0  0  # atno 10167 bound_to 10162
  156.1586  130.4150  149.9829 H   0  0  0  0  0  0  0  0  0  0  0  0  # atno 10718 bound_to 10713
  153.8025  135.6889  153.4853 H   0  0  0  0  0  0  0  0  0  0  0  0  # atno 10763 bound_to 10752
  153.1679  135.4554  154.9861 H   0  0  0  0  0  0  0  0  0  0  0  0  # atno 10764 bound_to 10752
  154.8001  135.3334  154.7512 H   0  0  0  0  0  0  0  0  0  0  0  0  # atno 10765 bound_to 10752
  140.6578  133.9347  155.8418 H   0  0  0  0  0  0  0  0  0  0  0  0  # atno 11005 bound_to 11000
  146.3029  139.7484  142.9078 LP  0  0  0  0  0  0  0  0  0  0  0  0  # atno 17320 bound_to 7965
  145.3855  141.0365  143.3153 LP  0  0  0  0  0  0  0  0  0  0  0  0  # atno 17321 bound_to 7965
  139.7154  144.7612  151.1042 LP  0  0  0  0  0  0  0  0  0  0  0  0  # atno 17342 bound_to 10162
  140.7736  143.5276  150.9462 LP  0  0  0  0  0  0  0  0  0  0  0  0  # atno 17343 bound_to 10162
  156.7665  130.9170  151.3643 LP  0  0  0  0  0  0  0  0  0  0  0  0  # atno 17370 bound_to 10713
  157.6715  130.9055  150.0051 LP  0  0  0  0  0  0  0  0  0  0  0  0  # atno 17371 bound_to 10713
  141.0488  134.0515  157.3810 LP  0  0  0  0  0  0  0  0  0  0  0  0  # atno 17394 bound_to 11000
  139.9023  135.0169  156.7327 LP  0  0  0  0  0  0  0  0  0  0  0  0  # atno 17395 bound_to 11000

$$$$
