AV-unprocessed.smi:667|AV-procd|sdf|3255|dock10
  -GOLD-   22720 0203D 1   1.00000     0.00000
 Structure written by MMmdl.
 48 49  0  0  0  0  0  0  0  0  1 V2000
  153.1632  138.2500  155.1123 C   0  0  0  0  0  0  0  0  0  0  0  0
  152.1016  139.2423  155.4920 C   0  0  0  0  0  0  0  0  0  0  0  0
  152.4514  140.3177  156.1772 N   0  0  0  0  0  0  0  0  0  0  0  0
  151.3056  141.0063  156.3477 N   0  0  0  0  0  0  0  0  0  0  0  0
  151.3326  142.2677  157.0619 C   0  0  0  0  0  0  0  0  0  0  0  0
  150.2277  140.3625  155.7732 C   0  0  0  0  0  0  0  0  0  0  0  0
  148.8460  140.9310  155.8188 C   0  0  0  0  0  0  0  0  0  0  0  0
  150.7045  139.2125  155.2022 C   0  0  0  0  0  0  0  0  0  0  0  0
  149.9437  138.1712  154.4190 C   0  0  0  0  0  0  0  0  0  0  0  0
  150.0687  136.8335  155.1454 C   0  0  0  0  0  0  0  0  0  0  0  0
  150.4049  136.8045  156.3289 O   0  0  0  0  0  0  0  0  0  0  0  0
  149.7388  135.7432  154.4358 N   0  0  0  0  0  0  0  0  0  0  0  0
  149.5341  134.4059  154.9838 C   0  0  0  0  0  0  0  0  0  0  0  0
  149.0597  133.3998  153.9112 C   0  0  2  0  0  0  0  0  0  0  0  0
  147.6788  133.6774  153.3437 C   0  0  0  0  0  0  0  0  0  0  0  0
  147.2998  132.3384  152.7082 C   0  0  0  0  0  0  0  0  0  0  0  0
  148.1099  131.3474  153.3361 O   0  0  0  0  0  0  0  0  0  0  0  0
  148.8811  131.9439  154.3717 C   0  0  1  0  0  0  0  0  0  0  0  0
  150.1715  131.1448  154.6566 C   0  0  0  0  0  0  0  0  0  0  0  0
  149.9230  129.6470  154.9056 C   0  0  0  0  0  0  0  0  0  0  0  0
  150.9506  131.7702  155.8237 C   0  0  0  0  0  0  0  0  0  0  0  0
  152.8221  137.5788  154.3245 H   0  0  0  0  0  0  0  0  0  0  0  0
  153.4485  137.6383  155.9682 H   0  0  0  0  0  0  0  0  0  0  0  0
  154.0596  138.7523  154.7465 H   0  0  0  0  0  0  0  0  0  0  0  0
  150.6600  142.2186  157.9185 H   0  0  0  0  0  0  0  0  0  0  0  0
  151.0084  143.0699  156.3987 H   0  0  0  0  0  0  0  0  0  0  0  0
  152.3402  142.4893  157.4166 H   0  0  0  0  0  0  0  0  0  0  0  0
  148.1395  140.3010  155.2788 H   0  0  0  0  0  0  0  0  0  0  0  0
  148.8192  141.9220  155.3656 H   0  0  0  0  0  0  0  0  0  0  0  0
  148.4973  141.0193  156.8475 H   0  0  0  0  0  0  0  0  0  0  0  0
  148.8904  138.4320  154.3127 H   0  0  0  0  0  0  0  0  0  0  0  0
  150.3327  138.0678  153.4056 H   0  0  0  0  0  0  0  0  0  0  0  0
  149.4917  135.8749  153.4657 H   0  0  0  0  0  0  0  0  0  0  0  0
  150.4773  134.0662  155.4123 H   0  0  0  0  0  0  0  0  0  0  0  0
  148.8206  134.4237  155.8090 H   0  0  0  0  0  0  0  0  0  0  0  0
  149.7619  133.4345  153.0782 H   0  0  0  0  0  0  0  0  0  0  0  0
  146.9732  133.9161  154.1399 H   0  0  0  0  0  0  0  0  0  0  0  0
  147.6696  134.5006  152.6291 H   0  0  0  0  0  0  0  0  0  0  0  0
  146.2402  132.1159  152.8390 H   0  0  0  0  0  0  0  0  0  0  0  0
  147.5167  132.3385  151.6397 H   0  0  0  0  0  0  0  0  0  0  0  0
  148.2534  131.9249  155.2630 H   0  0  0  0  0  0  0  0  0  0  0  0
  150.8096  131.2270  153.7759 H   0  0  0  0  0  0  0  0  0  0  0  0
  149.2546  129.4892  155.7523 H   0  0  0  0  0  0  0  0  0  0  0  0
  150.8575  129.1295  155.1234 H   0  0  0  0  0  0  0  0  0  0  0  0
  149.4849  129.1584  154.0363 H   0  0  0  0  0  0  0  0  0  0  0  0
  150.3803  131.7245  156.7519 H   0  0  0  0  0  0  0  0  0  0  0  0
  151.1797  132.8172  155.6266 H   0  0  0  0  0  0  0  0  0  0  0  0
  151.8967  131.2538  155.9877 H   0  0  0  0  0  0  0  0  0  0  0  0
  1  2  1  0  0  0  0
  1 22  1  0  0  0  0
  1 23  1  0  0  0  0
  1 24  1  0  0  0  0
  2  8  1  0  0  0  0
  2  3  2  0  0  0  0
  3  4  1  0  0  0  0
  4  5  1  0  0  0  0
  4  6  1  0  0  0  0
  5 25  1  0  0  0  0
  5 26  1  0  0  0  0
  5 27  1  0  0  0  0
  6  7  1  0  0  0  0
  6  8  2  0  0  0  0
  7 28  1  0  0  0  0
  7 29  1  0  0  0  0
  7 30  1  0  0  0  0
  8  9  1  0  0  0  0
  9 10  1  0  0  0  0
  9 31  1  0  0  0  0
  9 32  1  0  0  0  0
 10 11  2  0  0  0  0
 10 12  1  0  0  0  0
 12 13  1  0  0  0  0
 12 33  1  0  0  0  0
 13 14  1  0  0  0  0
 13 34  1  0  0  0  0
 13 35  1  0  0  0  0
 14 18  1  0  0  0  0
 14 15  1  0  0  0  0
 14 36  1  0  0  0  0
 15 16  1  0  0  0  0
 15 37  1  0  0  0  0
 15 38  1  0  0  0  0
 16 17  1  0  0  0  0
 16 39  1  0  0  0  0
 16 40  1  0  0  0  0
 17 18  1  0  0  0  0
 18 19  1  0  0  0  0
 18 41  1  0  0  0  0
 19 20  1  0  0  0  0
 19 21  1  0  0  0  0
 19 42  1  0  0  0  0
 20 43  1  0  0  0  0
 20 44  1  0  0  0  0
 20 45  1  0  0  0  0
 21 46  1  0  0  0  0
 21 47  1  0  0  0  0
 21 48  1  0  0  0  0
M  END
> <s_m_source_file>
AV-unprocessed.smi

> <i_m_source_file_index>
667

> <i_lp_mmshare_version>
43012

> <i_f3d_flags>
0

> <s_epik_input>
W0NIM11jMW5uKFtDSDNdKWMoW0NIM10pYzFbQ0gyXUMoPU8pW05IXVtDSDJdW0NAQEhdMltDSDJdW0NIMl1PW0NASF0yW0NIXShbQ0gzXSlbQ0gzXQ==

> <s_epik_cmdline>
J2VwaWtfcHl0aG9uJywgJy1waCcsICc3LjAnLCAnLXRuJywgJzgnLCAnLW1hJywgJzIwMCcsICctbWV0YWxfYmluZGluZycsICctaW1hZScsICc8aW5maWxlLm1hZT4nLCAnLW9tYWUnLCAnPG91dGZpbGUubWFlPic=

> <r_lp_tautomer_probability>
1

> <r_epik_Ionization_Penalty>
0.00315488

> <r_epik_Ionization_Penalty_Charging>
0

> <r_epik_Ionization_Penalty_Neutral>
0.00315488

> <r_epik_State_Penalty>
0.00222269

> <r_epik_Charging_Adjusted_Penalty>
0.00222269

> <i_epik_Tot_Q>
0

> <i_epik_Tot_abs_Q>
0

> <r_epik_Metal_State_Penalty>
-0

> <b_epik_Metal_Only>
0

> <s_lp_Force_Field>
OPLS_2005

> <r_lp_Energy>
14.51

> <b_lp_Chiralities_Consistent>
1

> <s_lp_Variant>
AV-unprocessed.smi:667-1

> <Gold.Version>
5.8.1

> <Gold.Id.Protein>
6NUR|6NUR_protein|mol2

> <Gold.PLP.Fitness>
41.5971

> <Gold.PLP.PLP>
-36.2066

> <Gold.PLP.part.hbond>
-2.3668

> <Gold.PLP.part.metal>
0.0000

> <Gold.PLP.part.buried>
-0.0768

> <Gold.PLP.part.nonpolar>
-34.4441

> <Gold.PLP.part.repulsive>
0.1584

> <Gold.PLP.ligand.clash>
0.0000

> <Gold.PLP.ligand.torsion>
0.2926

> <Gold.PLP.Chemscore.Hbond>
1.9750

> <Gold.PLP.Chemscore.CHOScore>
0.0000

> <Gold.PLP.Chemscore.Metal>
0.0000

> <Gold.Chemscore.Hbonds>
donor molecule, donor type, donor heavy atom, donor atom, acceptor molecule, acceptor atom, score
      L1  H    12    33       P1  7948  1.00
      P1  H  7997  8008       L1     3  1.00

> <Gold.PLP.Chemscore.Internal.Correction>
0.0506

> <Gold.Rescore>
     Score         DG    S(hbond)    S(metal)    S(lipo)     H(rot)  DE(clash)    DE(int)     intcor
     17.26     -17.85       1.89        0.00      85.10       1.52       0.20       0.40       ----

> <Gold.Chemscore.Fitness>
17.2574

> <Gold.Chemscore.DG>
-17.8531

> <Gold.Chemscore.ZeroCoef>
-5.4800

> <Gold.Chemscore.Hbond>
1.8894

> <Gold.Chemscore.Metal>
0.0000

> <Gold.Chemscore.Lipo>
85.1034

> <Gold.Chemscore.Internal_Hbond>
0.0000

> <Gold.Chemscore.DEClash>
0.1971

> <Gold.Chemscore.DEInternal>
0.3986

> <Gold.Chemscore.Rot>
1.5213

> <Gold.Chemscore.Internal.Correction>
   9.000000E+99

> <Gold.Chemscore.Hbonds>
donor molecule, donor type, donor heavy atom, donor atom, acceptor molecule, acceptor atom, score
      L1  H    12    33       P1  7948  0.30
      P1  H  7997  8008       L1     3  0.38

> <Gold.Chemscore.Hbond.Weighted>
-6.3106

> <Gold.Chemscore.Metal.Weighted>
-0.0000

> <Gold.Chemscore.Lipo.Weighted>
-9.9571

> <Gold.Chemscore.Internal_Hbond.Weighted>
0.0000

> <Gold.Chemscore.DEClash.Weighted>
0.1971

> <Gold.Chemscore.DEInternal.Weighted>
0.3986

> <Gold.Chemscore.Rot.Weighted>
3.8945

> <Gold.Chemscore.Internal.Correction.Weighted>
   9.000000E+99

> <Gold.Protein.RotatedTorsions>
[ 6907 6896 6895 6894 ] final  -67.48 input  -60.11 | X-H torsion
[ 7974 7965 7964 7962 ] final  101.26 input  175.53 | X-H torsion
[ 8008 7997 7996 7995 ] final  -37.27 input   59.86 | X-H torsion
[ 10167 10162 10161 10158 ] final  -26.73 input  -65.29 | X-H torsion
[ 10718 10713 10712 10709 ] final -156.43 input   66.30 | X-H torsion
[ 10763 10752 10751 10750 ] final  140.06 input  -60.55 | X-H torsion
[ 11005 11000 10999 10996 ] final   -3.63 input  -57.11 | X-H torsion

> <Gold.Protein.ActiveResidues>
 VAL166  LYS551  ARG553  GLY616  TRP617  ASP618  TYR619  PRO620  LYS621  CYS622 
 ASP623  PHE694  ASN695  SER759  ASP760  ASP761  ALA762  ILE779  LEU786  VAL792 
 PHE793  MET794  SER795  GLU796  ALA797  LYS798  CYS799  TRP800  GLU811  SER814 

> <Gold.Protein.RotatedAtoms>
  150.7407  134.5874  159.5969 H   0  0  0  0  0  0  0  0  0  0  0  0  # atno 6907 bound_to 6896
  152.3271  134.7304  160.0308 H   0  0  0  0  0  0  0  0  0  0  0  0  # atno 6908 bound_to 6896
  151.7800  133.3313  159.3505 H   0  0  0  0  0  0  0  0  0  0  0  0  # atno 6909 bound_to 6896
  145.3747  139.2391  143.3436 H   0  0  0  0  0  0  0  0  0  0  0  0  # atno 7974 bound_to 7965
  154.4056  140.1608  156.2510 H   0  0  0  0  0  0  0  0  0  0  0  0  # atno 8008 bound_to 7997
  155.9119  140.3427  155.6083 H   0  0  0  0  0  0  0  0  0  0  0  0  # atno 8009 bound_to 7997
  155.7325  140.0782  157.2273 H   0  0  0  0  0  0  0  0  0  0  0  0  # atno 8010 bound_to 7997
  140.7281  143.4154  151.1038 H   0  0  0  0  0  0  0  0  0  0  0  0  # atno 10167 bound_to 10162
  156.5264  130.8501  151.2701 H   0  0  0  0  0  0  0  0  0  0  0  0  # atno 10718 bound_to 10713
  153.9165  135.3005  155.3448 H   0  0  0  0  0  0  0  0  0  0  0  0  # atno 10763 bound_to 10752
  154.7597  135.4940  153.9444 H   0  0  0  0  0  0  0  0  0  0  0  0  # atno 10764 bound_to 10752
  153.1165  135.6772  153.9512 H   0  0  0  0  0  0  0  0  0  0  0  0  # atno 10765 bound_to 10752
  140.6714  133.9233  155.8497 H   0  0  0  0  0  0  0  0  0  0  0  0  # atno 11005 bound_to 11000
  146.2869  140.4404  142.8754 LP  0  0  0  0  0  0  0  0  0  0  0  0  # atno 17320 bound_to 7965
  144.8551  140.7058  143.6143 LP  0  0  0  0  0  0  0  0  0  0  0  0  # atno 17321 bound_to 7965
  139.7792  143.8380  152.3135 LP  0  0  0  0  0  0  0  0  0  0  0  0  # atno 17342 bound_to 10162
  139.8325  144.7247  150.9432 LP  0  0  0  0  0  0  0  0  0  0  0  0  # atno 17343 bound_to 10162
  157.7429  130.9900  150.2549 LP  0  0  0  0  0  0  0  0  0  0  0  0  # atno 17370 bound_to 10713
  156.3101  130.3770  149.7670 LP  0  0  0  0  0  0  0  0  0  0  0  0  # atno 17371 bound_to 10713
  141.0389  134.0650  157.3926 LP  0  0  0  0  0  0  0  0  0  0  0  0  # atno 17394 bound_to 11000
  139.8980  135.0153  156.7128 LP  0  0  0  0  0  0  0  0  0  0  0  0  # atno 17395 bound_to 11000

$$$$
