AV-unprocessed.smi:753|AV-procd|sdf|3603|dock7
  -GOLD-   22720 0593D 1   1.00000     0.00000
 Structure written by MMmdl.
 44 46  0  0  0  0  0  0  0  0  2 V2000
  144.1503  144.7855  154.7930 C   0  0  0  0  0  0  0  0  0  0  0  0
  145.1221  143.6249  154.7668 C   0  0  0  0  0  0  0  0  0  0  0  0
  145.8943  143.3118  153.6273 C   0  0  0  0  0  0  0  0  0  0  0  0
  146.7764  142.2120  153.6745 C   0  0  0  0  0  0  0  0  0  0  0  0
  146.8696  141.4494  154.8594 C   0  0  0  0  0  0  0  0  0  0  0  0
  147.8012  140.2561  154.9374 C   0  0  0  0  0  0  0  0  0  0  0  0
  149.2474  140.6297  154.5745 C   0  0  0  0  0  0  0  0  0  0  0  0
  149.6439  141.8879  155.1936 N   0  0  0  0  0  0  0  0  0  0  0  0
  150.5502  142.0093  156.1783 C   0  0  0  0  0  0  0  0  0  0  0  0
  151.1452  141.0529  156.6718 O   0  0  0  0  0  0  0  0  0  0  0  0
  150.7677  143.2711  156.5887 N   0  0  0  0  0  0  0  0  0  0  0  0
  151.6853  143.7315  157.6333 C   0  0  2  0  0  0  0  0  0  0  0  0
  151.9021  142.6866  158.7539 C   0  0  0  0  0  0  0  0  0  0  0  0
  151.4641  143.4455  160.0201 C   0  0  1  0  0  0  0  0  0  0  0  0
  152.4810  144.5610  160.3314 C   0  0  0  0  0  0  0  0  0  0  0  0
  152.2000  145.5982  159.2262 C   0  0  0  0  0  0  0  0  0  0  0  0
  151.0827  144.9232  158.4088 C   0  0  2  0  0  0  0  0  0  0  0  0
  150.2716  144.2405  159.5065 C   0  0  0  0  0  0  0  0  0  0  0  0
  146.0738  141.8101  155.9675 C   0  0  0  0  0  0  0  0  0  0  0  0
  145.2401  142.8697  155.8820 N   0  3  0  0  0  0  0  0  0  0  0  0
  144.1853  145.3492  153.8603 H   0  0  0  0  0  0  0  0  0  0  0  0
  144.3905  145.4655  155.6108 H   0  0  0  0  0  0  0  0  0  0  0  0
  143.1315  144.4235  154.9342 H   0  0  0  0  0  0  0  0  0  0  0  0
  145.8131  143.9032  152.7269 H   0  0  0  0  0  0  0  0  0  0  0  0
  147.3714  141.9569  152.8094 H   0  0  0  0  0  0  0  0  0  0  0  0
  147.7587  139.8388  155.9446 H   0  0  0  0  0  0  0  0  0  0  0  0
  147.4363  139.4765  154.2669 H   0  0  0  0  0  0  0  0  0  0  0  0
  149.9312  139.8529  154.9176 H   0  0  0  0  0  0  0  0  0  0  0  0
  149.3673  140.6931  153.4914 H   0  0  0  0  0  0  0  0  0  0  0  0
  149.2037  142.7285  154.8479 H   0  0  0  0  0  0  0  0  0  0  0  0
  150.2339  143.9931  156.1263 H   0  0  0  0  0  0  0  0  0  0  0  0
  152.6314  144.0251  157.1746 H   0  0  0  0  0  0  0  0  0  0  0  0
  151.2772  141.8040  158.6070 H   0  0  0  0  0  0  0  0  0  0  0  0
  152.9381  142.3511  158.8110 H   0  0  0  0  0  0  0  0  0  0  0  0
  151.2533  142.7947  160.8691 H   0  0  0  0  0  0  0  0  0  0  0  0
  152.2981  144.9917  161.3168 H   0  0  0  0  0  0  0  0  0  0  0  0
  153.5094  144.1982  160.3103 H   0  0  0  0  0  0  0  0  0  0  0  0
  151.8494  146.5353  159.6612 H   0  0  0  0  0  0  0  0  0  0  0  0
  153.0832  145.8199  158.6261 H   0  0  0  0  0  0  0  0  0  0  0  0
  150.5225  145.6222  157.7863 H   0  0  0  0  0  0  0  0  0  0  0  0
  149.4643  143.6128  159.1252 H   0  0  0  0  0  0  0  0  0  0  0  0
  149.8657  144.9371  160.2422 H   0  0  0  0  0  0  0  0  0  0  0  0
  146.0756  141.2850  156.9117 H   0  0  0  0  0  0  0  0  0  0  0  0
  144.6729  143.1100  156.6953 H   0  0  0  0  0  0  0  0  0  0  0  0
  1  2  1  0  0  0  0
  1 21  1  0  0  0  0
  1 22  1  0  0  0  0
  1 23  1  0  0  0  0
  2 20  1  0  0  0  0
  2  3  2  0  0  0  0
  3  4  1  0  0  0  0
  3 24  1  0  0  0  0
  4  5  2  0  0  0  0
  4 25  1  0  0  0  0
  5  6  1  0  0  0  0
  5 19  1  0  0  0  0
  6  7  1  0  0  0  0
  6 26  1  0  0  0  0
  6 27  1  0  0  0  0
  7  8  1  0  0  0  0
  7 28  1  0  0  0  0
  7 29  1  0  0  0  0
  8  9  1  0  0  0  0
  8 30  1  0  0  0  0
  9 10  2  0  0  0  0
  9 11  1  0  0  0  0
 11 12  1  0  0  0  0
 11 31  1  0  0  0  0
 12 17  1  0  0  0  0
 12 13  1  0  0  0  0
 12 32  1  0  0  0  0
 13 14  1  0  0  0  0
 13 33  1  0  0  0  0
 13 34  1  0  0  0  0
 14 18  1  0  0  0  0
 14 15  1  0  0  0  0
 14 35  1  0  0  0  0
 15 16  1  0  0  0  0
 15 36  1  0  0  0  0
 15 37  1  0  0  0  0
 16 17  1  0  0  0  0
 16 38  1  0  0  0  0
 16 39  1  0  0  0  0
 17 18  1  0  0  0  0
 17 40  1  0  0  0  0
 18 41  1  0  0  0  0
 18 42  1  0  0  0  0
 19 20  2  0  0  0  0
 19 43  1  0  0  0  0
 20 44  1  0  0  0  0
M  CHG  1  20   1
M  END
> <s_m_source_file>
AV-unprocessed.smi

> <i_m_source_file_index>
753

> <i_lp_mmshare_version>
43012

> <i_f3d_flags>
0

> <s_epik_input>
W0NIM11jMVtjSF1bY0hdYyhbY0hdbjEpW0NIMl1bQ0gyXVtOSF1DKD1PKVtOSF1bQ0BIXShbQ0gyXVtDQEBIXTIzKVtDQEBIXShbQ0gyXTMpW0NIMl1bQ0gyXTI=

> <s_epik_cmdline>
J2VwaWtfcHl0aG9uJywgJy1waCcsICc3LjAnLCAnLXRuJywgJzgnLCAnLW1hJywgJzIwMCcsICctbWV0YWxfYmluZGluZycsICctaW1hZScsICc8aW5maWxlLm1hZT4nLCAnLW9tYWUnLCAnPG91dGZpbGUubWFlPic=

> <r_epik_Ionization_Penalty>
1.41708

> <r_epik_Ionization_Penalty_Charging>
1.41702

> <r_epik_Ionization_Penalty_Neutral>
5.73163e-05

> <r_epik_State_Penalty>
1.50048

> <r_epik_Charging_Adjusted_Penalty>
2.9175

> <i_epik_Tot_Q>
1

> <i_epik_Tot_abs_Q>
1

> <r_epik_Metal_State_Penalty>
1.55295

> <b_epik_Metal_Only>
0

> <s_lp_Force_Field>
OPLS_2005

> <r_lp_Energy>
57.028

> <b_lp_Chiralities_Consistent>
1

> <s_lp_Variant>
AV-unprocessed.smi:753-5

> <Gold.Version>
5.8.1

> <Gold.Id.Protein>
6NUR|6NUR_protein|mol2

> <Gold.PLP.Fitness>
46.3412

> <Gold.PLP.PLP>
-42.2933

> <Gold.PLP.part.hbond>
-1.8547

> <Gold.PLP.part.metal>
0.0000

> <Gold.PLP.part.buried>
-7.9284

> <Gold.PLP.part.nonpolar>
-31.3809

> <Gold.PLP.part.repulsive>
0.3066

> <Gold.PLP.ligand.clash>
0.0000

> <Gold.PLP.ligand.torsion>
0.4881

> <Gold.PLP.Chemscore.Hbond>
1.6669

> <Gold.PLP.Chemscore.CHOScore>
0.0000

> <Gold.PLP.Chemscore.Metal>
0.0000

> <Gold.Chemscore.Hbonds>
donor molecule, donor type, donor heavy atom, donor atom, acceptor molecule, acceptor atom, score
      L1  H     8    30       P1  8028  0.48
      L1  H    11    31       P1  8028  1.00

> <Gold.PLP.Chemscore.Internal.Correction>
0.0234

> <Gold.Rescore>
     Score         DG    S(hbond)    S(metal)    S(lipo)     H(rot)  DE(clash)    DE(int)     intcor
     18.99     -21.01       1.72        0.00     116.42       1.50       0.05       1.97       ----

> <Gold.Chemscore.Fitness>
18.9850

> <Gold.Chemscore.DG>
-21.0065

> <Gold.Chemscore.ZeroCoef>
-5.4800

> <Gold.Chemscore.Hbond>
1.7222

> <Gold.Chemscore.Metal>
0.0000

> <Gold.Chemscore.Lipo>
116.4212

> <Gold.Chemscore.Internal_Hbond>
0.0000

> <Gold.Chemscore.DEClash>
0.0518

> <Gold.Chemscore.DEInternal>
1.9697

> <Gold.Chemscore.Rot>
1.5027

> <Gold.Chemscore.Internal.Correction>
   9.000000E+99

> <Gold.Chemscore.Hbonds>
donor molecule, donor type, donor heavy atom, donor atom, acceptor molecule, acceptor atom, score
      L1  H     8    30       P1  8028  0.47
      L1  H    11    31       P1  8028  0.96

> <Gold.Chemscore.Hbond.Weighted>
-5.7520

> <Gold.Chemscore.Metal.Weighted>
-0.0000

> <Gold.Chemscore.Lipo.Weighted>
-13.6213

> <Gold.Chemscore.Internal_Hbond.Weighted>
0.0000

> <Gold.Chemscore.DEClash.Weighted>
0.0518

> <Gold.Chemscore.DEInternal.Weighted>
1.9697

> <Gold.Chemscore.Rot.Weighted>
3.8468

> <Gold.Chemscore.Internal.Correction.Weighted>
   9.000000E+99

> <Gold.Protein.RotatedTorsions>
[ 6907 6896 6895 6894 ] final  -54.57 input  -60.11 | X-H torsion
[ 7974 7965 7964 7962 ] final  133.31 input  175.53 | X-H torsion
[ 8008 7997 7996 7995 ] final  170.54 input   59.86 | X-H torsion
[ 10167 10162 10161 10158 ] final -128.56 input  -65.29 | X-H torsion
[ 10718 10713 10712 10709 ] final  -83.73 input   66.30 | X-H torsion
[ 10763 10752 10751 10750 ] final  106.95 input  -60.55 | X-H torsion
[ 11005 11000 10999 10996 ] final  174.32 input  -57.11 | X-H torsion

> <Gold.Protein.ActiveResidues>
 VAL166  LYS551  ARG553  GLY616  TRP617  ASP618  TYR619  PRO620  LYS621  CYS622 
 ASP623  PHE694  ASN695  SER759  ASP760  ASP761  ALA762  ILE779  LEU786  VAL792 
 PHE793  MET794  SER795  GLU796  ALA797  LYS798  CYS799  TRP800  GLU811  SER814 

> <Gold.Protein.RotatedAtoms>
  150.8326  134.7586  159.6866 H   0  0  0  0  0  0  0  0  0  0  0  0  # atno 6907 bound_to 6896
  152.4428  134.5552  159.9888 H   0  0  0  0  0  0  0  0  0  0  0  0  # atno 6908 bound_to 6896
  151.5709  133.3352  159.3025 H   0  0  0  0  0  0  0  0  0  0  0  0  # atno 6909 bound_to 6896
  144.9879  139.4437  143.5354 H   0  0  0  0  0  0  0  0  0  0  0  0  # atno 7974 bound_to 7965
  156.1356  140.1535  156.9000 H   0  0  0  0  0  0  0  0  0  0  0  0  # atno 8008 bound_to 7997
  154.4944  140.0842  156.7704 H   0  0  0  0  0  0  0  0  0  0  0  0  # atno 8009 bound_to 7997
  155.4175  140.3421  155.4271 H   0  0  0  0  0  0  0  0  0  0  0  0  # atno 8010 bound_to 7997
  139.9490  143.6077  152.2481 H   0  0  0  0  0  0  0  0  0  0  0  0  # atno 10167 bound_to 10162
  156.0014  130.4675  150.4302 H   0  0  0  0  0  0  0  0  0  0  0  0  # atno 10718 bound_to 10713
  153.4000  135.3860  155.1981 H   0  0  0  0  0  0  0  0  0  0  0  0  # atno 10763 bound_to 10752
  154.8728  135.3769  154.4631 H   0  0  0  0  0  0  0  0  0  0  0  0  # atno 10764 bound_to 10752
  153.5127  135.7087  153.5834 H   0  0  0  0  0  0  0  0  0  0  0  0  # atno 10765 bound_to 10752
  140.3501  134.7202  157.4262 H   0  0  0  0  0  0  0  0  0  0  0  0  # atno 11005 bound_to 11000
  146.3424  139.9192  142.8769 LP  0  0  0  0  0  0  0  0  0  0  0  0  # atno 17320 bound_to 7965
  145.2328  140.9979  143.3981 LP  0  0  0  0  0  0  0  0  0  0  0  0  # atno 17321 bound_to 7965
  139.6644  144.7662  151.1902 LP  0  0  0  0  0  0  0  0  0  0  0  0  # atno 17342 bound_to 10162
  140.7588  143.5961  150.8747 LP  0  0  0  0  0  0  0  0  0  0  0  0  # atno 17343 bound_to 10162
  157.2352  131.0513  151.2469 LP  0  0  0  0  0  0  0  0  0  0  0  0  # atno 17370 bound_to 10713
  157.3673  130.7163  149.6541 LP  0  0  0  0  0  0  0  0  0  0  0  0  # atno 17371 bound_to 10713
  140.0710  134.5862  155.8642 LP  0  0  0  0  0  0  0  0  0  0  0  0  # atno 17394 bound_to 11000
  141.2014  133.6618  156.5951 LP  0  0  0  0  0  0  0  0  0  0  0  0  # atno 17395 bound_to 11000

$$$$
