AV-unprocessed.smi:3183|AV-procd|sdf|12153|dock1
  -GOLD-   2272017593D 1   1.00000     0.00000
 Structure written by MMmdl.
 43 44  0  0  0  0  0  0  0  0  2 V2000
  152.5219  144.0107  162.1482 C   0  0  0  0  0  0  0  0  0  0  0  0
  152.4825  143.8338  160.6200 C   0  0  2  0  0  0  0  0  0  0  0  0
  151.3689  144.7182  160.0218 C   0  0  0  0  0  0  0  0  0  0  0  0
  151.2876  144.5897  158.4946 C   0  0  0  0  0  0  0  0  0  0  0  0
  151.0748  143.1270  158.0775 C   0  0  1  0  0  0  0  0  0  0  0  0
  151.0314  143.0148  156.6035 N   0  3  0  0  0  0  0  0  0  0  0  0
  150.5056  141.7314  156.0964 C   0  0  0  0  0  0  0  0  0  0  0  0
  151.5654  140.6240  156.1932 C   0  0  0  0  0  0  0  0  0  0  0  0
  151.2491  139.3945  155.3961 C   0  0  0  0  0  0  0  0  0  0  0  0
  150.2034  139.1137  154.5589 C   0  0  0  0  0  0  0  0  0  0  0  0
  150.4640  137.7920  154.1047 C   0  0  0  0  0  0  0  0  0  0  0  0
  151.5754  137.2922  154.6142 N   0  0  0  0  0  0  0  0  0  0  0  0
  152.0596  138.2714  155.4064 N   0  0  0  0  0  0  0  0  0  0  0  0
  153.2977  138.0291  156.1236 C   0  0  0  0  0  0  0  0  0  0  0  0
  152.1976  142.2450  158.6491 C   0  0  0  0  0  0  0  0  0  0  0  0
  152.3010  142.3546  160.1853 C   0  0  1  0  0  0  0  0  0  0  0  0
  153.4245  141.4363  160.6994 C   0  0  0  0  0  0  0  0  0  0  0  0
  151.6217  143.6127  162.6175 H   0  0  0  0  0  0  0  0  0  0  0  0
  152.5964  145.0648  162.4170 H   0  0  0  0  0  0  0  0  0  0  0  0
  153.3822  143.5115  162.5930 H   0  0  0  0  0  0  0  0  0  0  0  0
  153.4353  144.1897  160.2246 H   0  0  0  0  0  0  0  0  0  0  0  0
  150.4076  144.4452  160.4599 H   0  0  0  0  0  0  0  0  0  0  0  0
  151.5398  145.7621  160.2868 H   0  0  0  0  0  0  0  0  0  0  0  0
  150.4719  145.2086  158.1191 H   0  0  0  0  0  0  0  0  0  0  0  0
  152.2036  144.9782  158.0471 H   0  0  0  0  0  0  0  0  0  0  0  0
  150.1253  142.7866  158.4951 H   0  0  0  0  0  0  0  0  0  0  0  0
  150.4513  143.7604  156.2459 H   0  0  0  0  0  0  0  0  0  0  0  0
  149.6217  141.4557  156.6739 H   0  0  0  0  0  0  0  0  0  0  0  0
  150.1925  141.8605  155.0592 H   0  0  0  0  0  0  0  0  0  0  0  0
  152.5266  141.0207  155.8639 H   0  0  0  0  0  0  0  0  0  0  0  0
  151.6932  140.3439  157.2397 H   0  0  0  0  0  0  0  0  0  0  0  0
  149.3721  139.7542  154.3042 H   0  0  0  0  0  0  0  0  0  0  0  0
  149.8831  137.1861  153.4251 H   0  0  0  0  0  0  0  0  0  0  0  0
  153.5743  138.8916  156.7288 H   0  0  0  0  0  0  0  0  0  0  0  0
  154.1001  137.8288  155.4128 H   0  0  0  0  0  0  0  0  0  0  0  0
  153.1790  137.1657  156.7789 H   0  0  0  0  0  0  0  0  0  0  0  0
  152.0211  141.2061  158.3671 H   0  0  0  0  0  0  0  0  0  0  0  0
  153.1511  142.5272  158.1996 H   0  0  0  0  0  0  0  0  0  0  0  0
  151.3629  141.9901  160.6068 H   0  0  0  0  0  0  0  0  0  0  0  0
  154.4051  141.7878  160.3767 H   0  0  0  0  0  0  0  0  0  0  0  0
  153.2991  140.4192  160.3271 H   0  0  0  0  0  0  0  0  0  0  0  0
  153.4315  141.3740  161.7873 H   0  0  0  0  0  0  0  0  0  0  0  0
  151.9683  143.1406  156.2476 H   0  0  0  0  0  0  0  0  0  0  0  0
  1  2  1  0  0  0  0
  1 18  1  0  0  0  0
  1 19  1  0  0  0  0
  1 20  1  0  0  0  0
  2 16  1  0  0  0  0
  2  3  1  0  0  0  0
  2 21  1  0  0  0  0
  3  4  1  0  0  0  0
  3 22  1  0  0  0  0
  3 23  1  0  0  0  0
  4  5  1  0  0  0  0
  4 24  1  0  0  0  0
  4 25  1  0  0  0  0
  5  6  1  0  0  0  0
  5 15  1  0  0  0  0
  5 26  1  0  0  0  0
  6  7  1  0  0  0  0
  6 27  1  0  0  0  0
  6 43  1  0  0  0  0
  7  8  1  0  0  0  0
  7 28  1  0  0  0  0
  7 29  1  0  0  0  0
  8  9  1  0  0  0  0
  8 30  1  0  0  0  0
  8 31  1  0  0  0  0
  9 13  1  0  0  0  0
  9 10  2  0  0  0  0
 10 11  1  0  0  0  0
 10 32  1  0  0  0  0
 11 12  2  0  0  0  0
 11 33  1  0  0  0  0
 12 13  1  0  0  0  0
 13 14  1  0  0  0  0
 14 34  1  0  0  0  0
 14 35  1  0  0  0  0
 14 36  1  0  0  0  0
 15 16  1  0  0  0  0
 15 37  1  0  0  0  0
 15 38  1  0  0  0  0
 16 17  1  0  0  0  0
 16 39  1  0  0  0  0
 17 40  1  0  0  0  0
 17 41  1  0  0  0  0
 17 42  1  0  0  0  0
M  CHG  1   6   1
M  END
> <s_m_source_file>
AV-unprocessed.smi

> <i_m_source_file_index>
3183

> <i_lp_mmshare_version>
43012

> <i_f3d_flags>
0

> <s_epik_input>
W0NIM11bQ0BASF0xW0NIMl1bQ0gyXVtDQEhdKFtDSDJdW0NASF0xW0NIM10pW05IXVtDSDJdW0NIMl1jMltjSF1bY0hdbm4yW0NIM10=

> <s_epik_cmdline>
J2VwaWtfcHl0aG9uJywgJy1waCcsICc3LjAnLCAnLXRuJywgJzgnLCAnLW1hJywgJzIwMCcsICctbWV0YWxfYmluZGluZycsICctaW1hZScsICc8aW5maWxlLm1hZT4nLCAnLW9tYWUnLCAnPG91dGZpbGUubWFlPic=

> <r_lp_tautomer_probability>
1

> <r_epik_Ionization_Penalty>
0.000327718

> <r_epik_Ionization_Penalty_Charging>
0.000294043

> <r_epik_Ionization_Penalty_Neutral>
3.36755e-05

> <r_epik_State_Penalty>
-0

> <r_epik_Charging_Adjusted_Penalty>
0.000294043

> <i_epik_Tot_Q>
1

> <i_epik_Tot_abs_Q>
1

> <r_epik_Metal_State_Penalty>
-0

> <b_epik_Metal_Only>
0

> <s_lp_Force_Field>
OPLS_2005

> <r_lp_Energy>
14.1595

> <b_lp_Chiralities_Consistent>
1

> <s_lp_Variant>
AV-unprocessed.smi:3183-1

> <Gold.Version>
5.8.1

> <Gold.Id.Protein>
6NUR|6NUR_protein|mol2

> <Gold.PLP.Fitness>
54.7654

> <Gold.PLP.PLP>
-43.1911

> <Gold.PLP.part.hbond>
-2.0000

> <Gold.PLP.part.metal>
0.0000

> <Gold.PLP.part.buried>
-2.5904

> <Gold.PLP.part.nonpolar>
-40.0006

> <Gold.PLP.part.repulsive>
0.2043

> <Gold.PLP.ligand.clash>
0.0000

> <Gold.PLP.ligand.torsion>
0.2258

> <Gold.PLP.Chemscore.Hbond>
2.9913

> <Gold.PLP.Chemscore.CHOScore>
0.9844

> <Gold.PLP.Chemscore.Metal>
0.0000

> <Gold.Chemscore.Hbonds>
donor molecule, donor type, donor heavy atom, donor atom, acceptor molecule, acceptor atom, score
      L1  H     6    27       P1  8028  2.00
      P1  H 10752 10764       L1    12  0.71
      L1  C    11    33       P1  7948  0.96

> <Gold.PLP.Chemscore.Internal.Correction>
0.0990

> <Gold.Rescore>
     Score         DG    S(hbond)    S(metal)    S(lipo)     H(rot)  DE(clash)    DE(int)     intcor
     21.34     -23.05       1.94        0.00     124.87       1.38       0.16       1.54       ----

> <Gold.Chemscore.Fitness>
21.3437

> <Gold.Chemscore.DG>
-23.0468

> <Gold.Chemscore.ZeroCoef>
-5.4800

> <Gold.Chemscore.Hbond>
1.9406

> <Gold.Chemscore.Metal>
0.0000

> <Gold.Chemscore.Lipo>
124.8713

> <Gold.Chemscore.Internal_Hbond>
0.0000

> <Gold.Chemscore.DEClash>
0.1625

> <Gold.Chemscore.DEInternal>
1.5406

> <Gold.Chemscore.Rot>
1.3768

> <Gold.Chemscore.Internal.Correction>
   9.000000E+99

> <Gold.Chemscore.Hbonds>
donor molecule, donor type, donor heavy atom, donor atom, acceptor molecule, acceptor atom, score
      L1  H     6    27       P1  8028  0.99
      P1  H 10752 10764       L1    12  0.59

> <Gold.Chemscore.Hbond.Weighted>
-6.4816

> <Gold.Chemscore.Metal.Weighted>
-0.0000

> <Gold.Chemscore.Lipo.Weighted>
-14.6099

> <Gold.Chemscore.Internal_Hbond.Weighted>
0.0000

> <Gold.Chemscore.DEClash.Weighted>
0.1625

> <Gold.Chemscore.DEInternal.Weighted>
1.5406

> <Gold.Chemscore.Rot.Weighted>
3.5247

> <Gold.Chemscore.Internal.Correction.Weighted>
   9.000000E+99

> <Gold.Protein.RotatedTorsions>
[ 6907 6896 6895 6894 ] final  107.26 input  -60.11 | X-H torsion
[ 7974 7965 7964 7962 ] final  -77.92 input  175.53 | X-H torsion
[ 8008 7997 7996 7995 ] final   42.50 input   59.86 | X-H torsion
[ 10167 10162 10161 10158 ] final  132.76 input  -65.29 | X-H torsion
[ 10718 10713 10712 10709 ] final  -80.64 input   66.30 | X-H torsion
[ 10763 10752 10751 10750 ] final  -70.33 input  -60.55 | X-H torsion
[ 11005 11000 10999 10996 ] final  175.64 input  -57.11 | X-H torsion

> <Gold.Protein.ActiveResidues>
 VAL166  LYS551  ARG553  GLY616  TRP617  ASP618  TYR619  PRO620  LYS621  CYS622 
 ASP623  PHE694  ASN695  SER759  ASP760  ASP761  ALA762  ILE779  LEU786  VAL792 
 PHE793  MET794  SER795  GLU796  ALA797  LYS798  CYS799  TRP800  GLU811  SER814 

> <Gold.Protein.RotatedAtoms>
  152.5161  133.9261  159.7557 H   0  0  0  0  0  0  0  0  0  0  0  0  # atno 6907 bound_to 6896
  150.9621  133.6425  159.2759 H   0  0  0  0  0  0  0  0  0  0  0  0  # atno 6908 bound_to 6896
  151.3666  135.0920  159.9505 H   0  0  0  0  0  0  0  0  0  0  0  0  # atno 6909 bound_to 6896
  145.5933  140.9425  143.1280 H   0  0  0  0  0  0  0  0  0  0  0  0  # atno 7974 bound_to 7965
  155.2872  140.3376  155.4254 H   0  0  0  0  0  0  0  0  0  0  0  0  # atno 8008 bound_to 7997
  156.2063  140.1752  156.7833 H   0  0  0  0  0  0  0  0  0  0  0  0  # atno 8009 bound_to 7997
  154.5625  140.0685  156.8825 H   0  0  0  0  0  0  0  0  0  0  0  0  # atno 8010 bound_to 7997
  139.5325  144.6647  151.4899 H   0  0  0  0  0  0  0  0  0  0  0  0  # atno 10167 bound_to 10162
  156.0066  130.4580  150.3831 H   0  0  0  0  0  0  0  0  0  0  0  0  # atno 10718 bound_to 10713
  154.4161  135.5997  153.5982 H   0  0  0  0  0  0  0  0  0  0  0  0  # atno 10763 bound_to 10752
  152.9792  135.5941  154.4011 H   0  0  0  0  0  0  0  0  0  0  0  0  # atno 10764 bound_to 10752
  154.3830  135.2841  155.2178 H   0  0  0  0  0  0  0  0  0  0  0  0  # atno 10765 bound_to 10752
  140.3644  134.7084  157.4352 H   0  0  0  0  0  0  0  0  0  0  0  0  # atno 11005 bound_to 11000
  144.7342  139.7636  143.7336 LP  0  0  0  0  0  0  0  0  0  0  0  0  # atno 17320 bound_to 7965
  146.1631  139.4752  142.9976 LP  0  0  0  0  0  0  0  0  0  0  0  0  # atno 17321 bound_to 7965
  140.6513  143.8691  150.6788 LP  0  0  0  0  0  0  0  0  0  0  0  0  # atno 17342 bound_to 10162
  140.2057  143.3924  152.1757 LP  0  0  0  0  0  0  0  0  0  0  0  0  # atno 17343 bound_to 10162
  157.1910  131.0415  151.2700 LP  0  0  0  0  0  0  0  0  0  0  0  0  # atno 17370 bound_to 10713
  157.4061  130.7360  149.6803 LP  0  0  0  0  0  0  0  0  0  0  0  0  # atno 17371 bound_to 10713
  140.0601  134.6008  155.8759 LP  0  0  0  0  0  0  0  0  0  0  0  0  # atno 17394 bound_to 11000
  141.1974  133.6596  156.5739 LP  0  0  0  0  0  0  0  0  0  0  0  0  # atno 17395 bound_to 11000

$$$$
