#       Name:                AV-unprocessed.smi:54
#       Creating user name   scv26
#       Creation time:       Thu Mar 26 16:40:26 2020


#       File generated by GOLD software.
#

@<TRIPOS>MOLECULE
AV-unprocessed.smi:54
    58    60     1
SMALL
NO_CHARGES


@<TRIPOS>ATOM
      1 ****        -0.2705   4.7233  -0.7415 C.3            1 S1                 0.0000
      2 ****        -0.7097   3.8307   0.4305 C.3            1 S1                 0.0000
      3 ****         0.1395   4.0969   1.6841 C.3            1 S1                 0.0000
      4 ****        -0.6402   2.3506   0.0389 C.2            1 S1                 0.0000
      5 ****         0.4166   1.8111  -0.2887 O.2            1 S1                 0.0000
      6 ****        -1.9029   1.6374   0.0680 N.am           1 S1                 0.0000
      7 ****        -2.1075   0.3287  -0.2056 C.2            1 S1                 0.0000
      8 ****        -1.1467  -0.5828  -0.1436 N.2            1 S1                 0.0000
      9 ****        -1.5525  -1.8609  -0.4192 C.2            1 S1                 0.0000
     10 ****        -2.8336  -2.2578  -0.7477 C.2            1 S1                 0.0000
     11 ****        -2.8738  -3.6304  -0.9616 N.2            1 S1                 0.0000
     12 ****        -1.6471  -4.0177  -0.7544 C.2            1 S1                 0.0000
     13 ****        -0.7790  -3.0071  -0.4193 N.pl3          1 S1                 0.0000
     14 ****         0.6808  -3.1297  -0.1206 C.3            1 S1                 0.0000
     15 ****         0.9687  -2.3377   0.9908 O.3            1 S1                 0.0000
     16 ****         2.1776  -1.6200   0.7710 C.3            1 S1                 0.0000
     17 ****         2.1909  -0.3507   1.6372 C.3            1 S1                 0.0000
     18 ****         2.6721  -0.6499   2.9301 O.3            1 S1                 0.0000
     19 ****         2.1312  -1.3417  -0.7326 C.3            1 S1                 0.0000
     20 ****         3.4012  -1.0319  -1.2755 O.3            1 S1                 0.0000
     21 ****         1.5246  -2.6216  -1.3004 C.3            1 S1                 0.0000
     22 ****         2.5117  -3.5716  -1.6596 O.3            1 S1                 0.0000
     23 ****        -3.8827  -1.2823  -0.8200 C.2            1 S1                 0.0000
     24 ****        -5.0676  -1.4566  -1.0964 O.2            1 S1                 0.0000
     25 ****        -3.4261   0.0073  -0.5232 N.am           1 S1                 0.0000
     26 ****         0.8300  -4.1867   0.1056 H              1 S1                 0.0000
     27 ****         3.0280  -2.2667   0.9971 H              1 S1                 0.0000
     28 ****         1.4566  -0.5114  -0.9351 H              1 S1                 0.0000
     29 ****         0.9017  -2.4199  -2.1732 H              1 S1                 0.0000
     30 ****        -0.8693   4.5311  -1.6328 H              1 S1                 0.0000
     31 ****         0.7760   4.5591  -1.0017 H              1 S1                 0.0000
     32 ****        -0.3866   5.7784  -0.4919 H              1 S1                 0.0000
     33 ****        -1.7468   4.0720   0.6680 H              1 S1                 0.0000
     34 ****        -0.1666   3.4581   2.5137 H              1 S1                 0.0000
     35 ****         0.0344   5.1312   2.0129 H              1 S1                 0.0000
     36 ****         1.1993   3.9160   1.4982 H              1 S1                 0.0000
     37 ****        -2.7198   2.1909   0.2805 H              1 S1                 0.0000
     38 ****        -1.3423  -5.0505  -0.8417 H              1 S1                 0.0000
     39 ****         2.8578   0.3952   1.2037 H              1 S1                 0.0000
     40 ****         1.1993   0.0979   1.6994 H              1 S1                 0.0000
     41 ****         2.6922   0.1486   3.4350 H              1 S1                 0.0000
     42 ****         3.3089  -0.9286  -2.2103 H              1 S1                 0.0000
     43 ****         3.0882  -3.6964  -0.9210 H              1 S1                 0.0000
     44 ****        -4.1140   0.7457  -0.5479 H              1 S1                 0.0000
     45 ****         1.2644   2.3410  -0.3049 LP             1 S1                 0.0000
     46 ****         0.4272   0.8429  -0.5386 LP             1 S1                 0.0000
     47 ****        -0.2006  -0.3548   0.0863 LP             1 S1                 0.0000
     48 ****        -3.6619  -4.1911  -1.2157 LP             1 S1                 0.0000
     49 ****         1.0707  -2.9209   1.7967 LP             1 S1                 0.0000
     50 ****         0.2209  -1.6907   1.1401 LP             1 S1                 0.0000
     51 ****         3.5939  -1.0322   2.8668 LP             1 S1                 0.0000
     52 ****         2.0661  -1.3123   3.3706 LP             1 S1                 0.0000
     53 ****         4.0424  -1.7738  -1.0794 LP             1 S1                 0.0000
     54 ****         3.7419  -0.1819  -0.8738 LP             1 S1                 0.0000
     55 ****         3.0344  -3.2357  -2.4431 LP             1 S1                 0.0000
     56 ****         2.0748  -4.4391  -1.8975 LP             1 S1                 0.0000
     57 ****        -5.4020  -2.3752  -1.3071 LP             1 S1                 0.0000
     58 ****        -5.6973  -0.6798  -1.1106 LP             1 S1                 0.0000
@<TRIPOS>BOND
    1    1    2 1     
    2    1   30 1     
    3    1   31 1     
    4    1   32 1     
    5    2    3 1     
    6    2    4 1     
    7    2   33 1     
    8    3   34 1     
    9    3   35 1     
   10    3   36 1     
   11    4    5 2     
   12    4    6 am    
   13    6   37 1     
   14    6    7 1     
   15    7   25 1     
   16    7    8 2     
   17    8    9 1     
   18    9   13 1     
   19    9   10 2     
   20   10   11 1     
   21   10   23 1     
   22   11   12 2     
   23   12   13 1     
   24   12   38 1     
   25   13   14 1     
   26   14   26 1     
   27   14   21 1     
   28   14   15 1     
   29   15   16 1     
   30   16   27 1     
   31   16   17 1     
   32   16   19 1     
   33   17   18 1     
   34   17   39 1     
   35   17   40 1     
   36   18   41 1     
   37   19   28 1     
   38   19   20 1     
   39   19   21 1     
   40   20   42 1     
   41   21   29 1     
   42   21   22 1     
   43   22   43 1     
   44   23   24 2     
   45   23   25 am    
   46   25   44 1     
   47    5   45 1     
   48    5   46 1     
   49    8   47 1     
   50   11   48 1     
   51   15   49 1     
   52   15   50 1     
   53   18   51 1     
   54   18   52 1     
   55   20   53 1     
   56   20   54 1     
   57   22   55 1     
   58   22   56 1     
   59   24   57 1     
   60   24   58 1     
@<TRIPOS>SUBSTRUCTURE
      1 S1             1
@<TRIPOS>SET
LONE_PAIRS      STATIC     ATOMS    <user>   **** ""
14 45 46 47 48 49 50 51 52 53 54 55 56 57 58
DONOR_HYDROGENS      STATIC     ATOMS    <user>   **** ""
5 37 41 42 43 44
ATOM$BLUE        STATIC     ATOMS    COLORGROUP SYSTEM
14 45 46 47 48 49 50 51 52 53 54 55 56 57 58
ATOM$RED        STATIC     ATOMS    COLORGROUP SYSTEM
5 37 41 42 43 44
