#       Name:                AV-unprocessed.smi:978
#       Creating user name   scv26
#       Creation time:       Fri Mar 27 02:21:41 2020


#       File generated by GOLD software.
#

@<TRIPOS>MOLECULE
AV-unprocessed.smi:978
    44    45     1
SMALL
NO_CHARGES


@<TRIPOS>ATOM
      1 ****        -3.4305  -2.5261  -0.0393 C.3            1 S1                 0.0000
      2 ****        -3.9757  -1.1403  -0.2458 C.2            1 S1                 0.0000
      3 ****        -5.2711  -0.9870  -0.4777 N.2            1 S1                 0.0000
      4 ****        -5.4826   0.3829  -0.6971 O.3            1 S1                 0.0000
      5 ****        -4.2949   1.0338  -0.5902 C.2            1 S1                 0.0000
      6 ****        -4.3086   2.5092  -0.8076 C.3            1 S1                 0.0000
      7 ****        -3.3238   0.1276  -0.2810 C.2            1 S1                 0.0000
      8 ****        -1.9513   0.4412  -0.1177 N.am           1 S1                 0.0000
      9 ****        -1.0981  -0.1174   0.7540 C.2            1 S1                 0.0000
     10 ****        -1.3958  -0.9862   1.5729 O.2            1 S1                 0.0000
     11 ****         0.1308   0.4068   0.6417 N.am           1 S1                 0.0000
     12 ****         1.2818   0.0429   1.4676 C.3            1 S1                 0.0000
     13 ****         2.3556   1.1441   1.4097 C.3            1 S1                 0.0000
     14 ****         3.0733   1.1818   0.0478 C.3            1 S1                 0.0000
     15 ****         3.6511  -0.1429  -0.2896 N.4            1 S1                 1.0000
     16 ****         4.4521  -0.1080  -1.5321 C.3            1 S1                 0.0000
     17 ****         2.6205  -1.2102  -0.3125 C.3            1 S1                 0.0000
     18 ****         1.8950  -1.3070   1.0413 C.3            1 S1                 0.0000
     19 ****        -2.4288  -2.6220  -0.4582 H              1 S1                 0.0000
     20 ****        -4.0566  -3.2775  -0.5214 H              1 S1                 0.0000
     21 ****        -3.3780  -2.7724   1.0213 H              1 S1                 0.0000
     22 ****        -3.2960   2.9108  -0.8448 H              1 S1                 0.0000
     23 ****        -4.8413   3.0117  -0.0002 H              1 S1                 0.0000
     24 ****        -4.8044   2.7570  -1.7463 H              1 S1                 0.0000
     25 ****        -1.6123   1.2317  -0.6461 H              1 S1                 0.0000
     26 ****         0.2757   1.1242  -0.0535 H              1 S1                 0.0000
     27 ****         0.9380  -0.0384   2.5006 H              1 S1                 0.0000
     28 ****         1.9136   2.1169   1.6288 H              1 S1                 0.0000
     29 ****         3.0926   0.9644   2.1937 H              1 S1                 0.0000
     30 ****         2.3814   1.4902  -0.7376 H              1 S1                 0.0000
     31 ****         3.8678   1.9286   0.0786 H              1 S1                 0.0000
     32 ****         3.8270   0.1283  -2.3943 H              1 S1                 0.0000
     33 ****         4.9302  -1.0720  -1.7090 H              1 S1                 0.0000
     34 ****         5.2384   0.6444  -1.4628 H              1 S1                 0.0000
     35 ****         1.9050  -1.0135  -1.1124 H              1 S1                 0.0000
     36 ****         3.0917  -2.1673  -0.5391 H              1 S1                 0.0000
     37 ****         2.6075  -1.6286   1.8021 H              1 S1                 0.0000
     38 ****         1.1307  -2.0839   1.0015 H              1 S1                 0.0000
     39 ****         4.2911  -0.3765   0.4563 H              1 S1                 0.0000
     40 ****        -5.9640  -1.7079  -0.4934 LP             1 S1                 0.0000
     41 ****        -6.1223   0.7373  -0.0151 LP             1 S1                 0.0000
     42 ****        -5.8605   0.5219  -1.6125 LP             1 S1                 0.0000
     43 ****        -2.3349  -1.3265   1.6218 LP             1 S1                 0.0000
     44 ****        -0.6987  -1.3521   2.1895 LP             1 S1                 0.0000
@<TRIPOS>BOND
    1    1    2 1     
    2    1   19 1     
    3    1   20 1     
    4    1   21 1     
    5    2    7 1     
    6    2    3 2     
    7    3    4 1     
    8    4    5 1     
    9    5    6 1     
   10    5    7 2     
   11    6   22 1     
   12    6   23 1     
   13    6   24 1     
   14    7    8 1     
   15    8    9 am    
   16    8   25 1     
   17    9   10 2     
   18    9   11 am    
   19   11   12 1     
   20   11   26 1     
   21   12   18 1     
   22   12   13 1     
   23   12   27 1     
   24   13   14 1     
   25   13   28 1     
   26   13   29 1     
   27   14   15 1     
   28   14   30 1     
   29   14   31 1     
   30   15   16 1     
   31   15   17 1     
   32   15   39 1     
   33   16   32 1     
   34   16   33 1     
   35   16   34 1     
   36   17   18 1     
   37   17   35 1     
   38   17   36 1     
   39   18   37 1     
   40   18   38 1     
   41    3   40 1     
   42    4   41 1     
   43    4   42 1     
   44   10   43 1     
   45   10   44 1     
@<TRIPOS>SUBSTRUCTURE
      1 S1             1
@<TRIPOS>SET
LONE_PAIRS      STATIC     ATOMS    <user>   **** ""
5 40 41 42 43 44
DONOR_HYDROGENS      STATIC     ATOMS    <user>   **** ""
3 25 26 39
ATOM$BLUE        STATIC     ATOMS    COLORGROUP SYSTEM
5 40 41 42 43 44
ATOM$RED        STATIC     ATOMS    COLORGROUP SYSTEM
3 25 26 39
