AV-unprocessed.smi:246|AV-procd|sdf|1886|dock8
  -GOLD-   2262020543D 1   1.00000     0.00000
 Structure written by MMmdl.
 57 60  0  0  0  0  0  0  0  0  1 V2000
  142.5373  134.2432  162.8352 C   0  0  0  0  0  0  0  0  0  0  0  0
  143.4107  135.4952  162.9917 C   0  0  0  0  0  0  0  0  0  0  0  0
  143.7921  136.0246  161.7301 O   0  0  0  0  0  0  0  0  0  0  0  0
  144.1936  137.3862  161.7670 C   0  0  0  0  0  0  0  0  0  0  0  0
  145.5985  137.4660  162.3697 C   0  0  0  0  0  0  0  0  0  0  0  0
  146.5440  137.1683  161.3541 O   0  0  0  0  0  0  0  0  0  0  0  0
  147.5221  136.2118  161.7383 C   0  0  1  0  0  0  0  0  0  0  0  0
  146.8718  134.8513  162.0132 C   0  0  0  0  0  0  0  0  0  0  0  0
  146.7769  134.2234  160.6259 C   0  0  0  0  0  0  0  0  0  0  0  0
  147.9561  134.7058  159.9218 N   0  0  0  0  0  0  0  0  0  0  0  0
  148.1245  134.4757  158.5931 C   0  0  0  0  0  0  0  0  0  0  0  0
  149.3216  134.7769  158.0225 N   0  0  0  0  0  0  0  0  0  0  0  0
  149.5279  134.5615  156.7205 C   0  0  0  0  0  0  0  0  0  0  0  0
  148.6861  134.0632  155.8142 N   0  0  0  0  0  0  0  0  0  0  0  0
  147.4781  133.7673  156.3732 C   0  0  0  0  0  0  0  0  0  0  0  0
  147.1113  133.9479  157.7384 C   0  0  0  0  0  0  0  0  0  0  0  0
  145.7880  133.5589  157.9200 N   0  0  0  0  0  0  0  0  0  0  0  0
  145.4024  133.1618  156.7390 C   0  0  0  0  0  0  0  0  0  0  0  0
  146.3596  133.2374  155.7536 N   0  0  0  0  0  0  0  0  0  0  0  0
  146.2035  132.8593  154.3578 C   0  0  0  0  0  0  0  0  0  0  0  0
  146.1080  134.0508  153.3765 C   0  0  1  0  0  0  0  0  0  0  0  0
  147.2310  134.9030  153.4926 O   0  0  0  0  0  0  0  0  0  0  0  0
  145.8695  133.6714  151.8967 C   0  0  1  0  0  0  0  0  0  0  0  0
  144.7232  132.6894  151.6361 C   0  0  0  0  0  0  0  0  0  0  0  0
  144.3881  132.9927  150.1928 C   0  0  0  0  0  0  0  0  0  0  0  0
  144.5625  134.5077  150.1500 C   0  0  0  0  0  0  0  0  0  0  0  0
  145.6152  134.8001  151.0633 O   0  0  0  0  0  0  0  0  0  0  0  0
  148.4193  135.9518  160.5200 C   0  0  0  0  0  0  0  0  0  0  0  0
  148.1087  136.5759  162.5838 H   0  0  0  0  0  0  0  0  0  0  0  0
  142.3235  133.7995  163.8076 H   0  0  0  0  0  0  0  0  0  0  0  0
  143.0418  133.4900  162.2295 H   0  0  0  0  0  0  0  0  0  0  0  0
  141.5823  134.4693  162.3619 H   0  0  0  0  0  0  0  0  0  0  0  0
  142.9130  136.2504  163.6018 H   0  0  0  0  0  0  0  0  0  0  0  0
  144.3235  135.2218  163.5216 H   0  0  0  0  0  0  0  0  0  0  0  0
  144.1830  137.8409  160.7761 H   0  0  0  0  0  0  0  0  0  0  0  0
  143.4967  137.9462  162.3921 H   0  0  0  0  0  0  0  0  0  0  0  0
  145.7837  138.4762  162.7374 H   0  0  0  0  0  0  0  0  0  0  0  0
  145.6853  136.7881  163.2194 H   0  0  0  0  0  0  0  0  0  0  0  0
  147.5352  134.2517  162.6377 H   0  0  0  0  0  0  0  0  0  0  0  0
  145.9069  134.9124  162.5160 H   0  0  0  0  0  0  0  0  0  0  0  0
  146.7542  133.1342  160.6770 H   0  0  0  0  0  0  0  0  0  0  0  0
  145.8757  134.5662  160.1153 H   0  0  0  0  0  0  0  0  0  0  0  0
  150.5088  134.8247  156.3533 H   0  0  0  0  0  0  0  0  0  0  0  0
  144.4059  132.7872  156.5557 H   0  0  0  0  0  0  0  0  0  0  0  0
  147.0414  132.2187  154.0801 H   0  0  0  0  0  0  0  0  0  0  0  0
  145.3098  132.2395  154.2748 H   0  0  0  0  0  0  0  0  0  0  0  0
  145.2520  134.6483  153.6923 H   0  0  0  0  0  0  0  0  0  0  0  0
  147.6059  135.0257  152.6337 H   0  0  0  0  0  0  0  0  0  0  0  0
  146.7842  133.2186  151.5107 H   0  0  0  0  0  0  0  0  0  0  0  0
  145.0086  131.6500  151.7998 H   0  0  0  0  0  0  0  0  0  0  0  0
  143.8587  132.9077  152.2641 H   0  0  0  0  0  0  0  0  0  0  0  0
  145.1079  132.5105  149.5302 H   0  0  0  0  0  0  0  0  0  0  0  0
  143.3868  132.6700  149.9063 H   0  0  0  0  0  0  0  0  0  0  0  0
  144.7872  134.8763  149.1490 H   0  0  0  0  0  0  0  0  0  0  0  0
  143.6557  135.0038  150.4983 H   0  0  0  0  0  0  0  0  0  0  0  0
  148.3853  136.7860  159.8180 H   0  0  0  0  0  0  0  0  0  0  0  0
  149.4542  135.8172  160.8358 H   0  0  0  0  0  0  0  0  0  0  0  0
  1  2  1  0  0  0  0
  1 30  1  0  0  0  0
  1 31  1  0  0  0  0
  1 32  1  0  0  0  0
  2  3  1  0  0  0  0
  2 33  1  0  0  0  0
  2 34  1  0  0  0  0
  3  4  1  0  0  0  0
  4  5  1  0  0  0  0
  4 35  1  0  0  0  0
  4 36  1  0  0  0  0
  5  6  1  0  0  0  0
  5 37  1  0  0  0  0
  5 38  1  0  0  0  0
  6  7  1  0  0  0  0
  7 29  1  0  0  0  0
  7 28  1  0  0  0  0
  7  8  1  0  0  0  0
  8  9  1  0  0  0  0
  8 39  1  0  0  0  0
  8 40  1  0  0  0  0
  9 10  1  0  0  0  0
  9 41  1  0  0  0  0
  9 42  1  0  0  0  0
 10 11  1  0  0  0  0
 10 28  1  0  0  0  0
 11 16  1  0  0  0  0
 11 12  2  0  0  0  0
 12 13  1  0  0  0  0
 13 14  2  0  0  0  0
 13 43  1  0  0  0  0
 14 15  1  0  0  0  0
 15 19  1  0  0  0  0
 15 16  2  0  0  0  0
 16 17  1  0  0  0  0
 17 18  2  0  0  0  0
 18 19  1  0  0  0  0
 18 44  1  0  0  0  0
 19 20  1  0  0  0  0
 20 21  1  0  0  0  0
 20 45  1  0  0  0  0
 20 46  1  0  0  0  0
 21 22  1  0  0  0  0
 21 23  1  0  0  0  0
 21 47  1  0  0  0  0
 22 48  1  0  0  0  0
 23 27  1  0  0  0  0
 23 24  1  0  0  0  0
 23 49  1  0  0  0  0
 24 25  1  0  0  0  0
 24 50  1  0  0  0  0
 24 51  1  0  0  0  0
 25 26  1  0  0  0  0
 25 52  1  0  0  0  0
 25 53  1  0  0  0  0
 26 27  1  0  0  0  0
 26 54  1  0  0  0  0
 26 55  1  0  0  0  0
 28 56  1  0  0  0  0
 28 57  1  0  0  0  0
M  END
> <s_m_source_file>
AV-unprocessed.smi

> <i_m_source_file_index>
246

> <i_lp_mmshare_version>
43012

> <i_f3d_flags>
0

> <s_epik_input>
W0NIM11bQ0gyXU9bQ0gyXVtDSDJdT1tDQEhdMVtDSDJdW0NIMl1OKFtDSDJdMSljKG5bY0hdbjIpYyhjMjMpbltjSF1uM1tDSDJdW0NASF0oW09IXSlbQ0BASF00W0NIMl1bQ0gyXVtDSDJdTzQ=

> <s_epik_cmdline>
J2VwaWtfcHl0aG9uJywgJy1waCcsICc3LjAnLCAnLXRuJywgJzgnLCAnLW1hJywgJzIwMCcsICctbWV0YWxfYmluZGluZycsICctaW1hZScsICc8aW5maWxlLm1hZT4nLCAnLW9tYWUnLCAnPG91dGZpbGUubWFlPic=

> <r_lp_tautomer_probability>
1

> <r_epik_Ionization_Penalty>
0.0024631

> <r_epik_Ionization_Penalty_Charging>
0

> <r_epik_Ionization_Penalty_Neutral>
0.0024631

> <r_epik_State_Penalty>
0.00162428

> <r_epik_Charging_Adjusted_Penalty>
0.00162428

> <i_epik_Tot_Q>
0

> <i_epik_Tot_abs_Q>
0

> <r_epik_Metal_State_Penalty>
-0

> <b_epik_Metal_Only>
0

> <s_lp_Force_Field>
OPLS_2005

> <r_lp_Energy>
53.5717

> <b_lp_Chiralities_Consistent>
1

> <s_lp_Variant>
AV-unprocessed.smi:246-7

> <Gold.Version>
5.8.1

> <Gold.Id.Protein>
6NUR|6NUR_protein|mol2

> <Gold.PLP.Fitness>
46.4649

> <Gold.PLP.PLP>
-37.9206

> <Gold.PLP.part.hbond>
-3.0000

> <Gold.PLP.part.metal>
0.0000

> <Gold.PLP.part.buried>
-6.5329

> <Gold.PLP.part.nonpolar>
-29.0297

> <Gold.PLP.part.repulsive>
0.2344

> <Gold.PLP.ligand.clash>
0.0000

> <Gold.PLP.ligand.torsion>
1.2047

> <Gold.PLP.Chemscore.Hbond>
2.7200

> <Gold.PLP.Chemscore.CHOScore>
0.6613

> <Gold.PLP.Chemscore.Metal>
0.0000

> <Gold.Chemscore.Hbonds>
donor molecule, donor type, donor heavy atom, donor atom, acceptor molecule, acceptor atom, score
      L1  H    22    48       P1  7948  0.74
      P1  H  6896  6908       L1    12  1.00
      P1  H  6934  6947       L1     6  0.95
      L1  C    18    44       P1 10957  0.71

> <Gold.PLP.Chemscore.Internal.Correction>
0.8099

> <Gold.Rescore>
     Score         DG    S(hbond)    S(metal)    S(lipo)     H(rot)  DE(clash)    DE(int)     intcor
     13.02     -15.49       2.40        0.00      84.93       3.10       0.00       2.46       ----

> <Gold.Chemscore.Fitness>
13.0202

> <Gold.Chemscore.DG>
-15.4858

> <Gold.Chemscore.ZeroCoef>
-5.4800

> <Gold.Chemscore.Hbond>
2.3985

> <Gold.Chemscore.Metal>
0.0000

> <Gold.Chemscore.Lipo>
84.9344

> <Gold.Chemscore.Internal_Hbond>
0.0000

> <Gold.Chemscore.DEClash>
0.0029

> <Gold.Chemscore.DEInternal>
2.4628

> <Gold.Chemscore.Rot>
3.1026

> <Gold.Chemscore.Internal.Correction>
   9.000000E+99

> <Gold.Chemscore.Hbonds>
donor molecule, donor type, donor heavy atom, donor atom, acceptor molecule, acceptor atom, score
      L1  H    22    48       P1  7948  0.71
      P1  H  6896  6908       L1    12  0.43
      P1  H  6934  6947       L1     6  0.20

> <Gold.Chemscore.Hbond.Weighted>
-8.0111

> <Gold.Chemscore.Metal.Weighted>
-0.0000

> <Gold.Chemscore.Lipo.Weighted>
-9.9373

> <Gold.Chemscore.Internal_Hbond.Weighted>
0.0000

> <Gold.Chemscore.DEClash.Weighted>
0.0029

> <Gold.Chemscore.DEInternal.Weighted>
2.4628

> <Gold.Chemscore.Rot.Weighted>
7.9426

> <Gold.Chemscore.Internal.Correction.Weighted>
   9.000000E+99

> <Gold.Protein.RotatedTorsions>
[ 6907 6896 6895 6894 ] final  155.66 input  -60.11 | X-H torsion
[ 7974 7965 7964 7962 ] final   36.27 input  175.53 | X-H torsion
[ 8008 7997 7996 7995 ] final  -46.84 input   59.86 | X-H torsion
[ 10167 10162 10161 10158 ] final -175.87 input  -65.29 | X-H torsion
[ 10718 10713 10712 10709 ] final  156.37 input   66.30 | X-H torsion
[ 10763 10752 10751 10750 ] final   75.57 input  -60.55 | X-H torsion
[ 11005 11000 10999 10996 ] final  -83.31 input  -57.11 | X-H torsion

> <Gold.Protein.ActiveResidues>
 VAL166  LYS551  ARG553  GLY616  TRP617  ASP618  TYR619  PRO620  LYS621  CYS622 
 ASP623  PHE694  ASN695  SER759  ASP760  ASP761  ALA762  ILE779  LEU786  VAL792 
 PHE793  MET794  SER795  GLU796  ALA797  LYS798  CYS799  TRP800  GLU811  SER814 

> <Gold.Protein.RotatedAtoms>
  152.0410  133.3977  159.4336 H   0  0  0  0  0  0  0  0  0  0  0  0  # atno 6907 bound_to 6896
  150.6875  134.3415  159.4879 H   0  0  0  0  0  0  0  0  0  0  0  0  # atno 6908 bound_to 6896
  152.1213  134.9203  160.0613 H   0  0  0  0  0  0  0  0  0  0  0  0  # atno 6909 bound_to 6896
  146.1223  139.6038  142.9281 H   0  0  0  0  0  0  0  0  0  0  0  0  # atno 7974 bound_to 7965
  154.4011  140.1361  156.4078 H   0  0  0  0  0  0  0  0  0  0  0  0  # atno 8008 bound_to 7997
  155.7763  140.3482  155.5253 H   0  0  0  0  0  0  0  0  0  0  0  0  # atno 8009 bound_to 7997
  155.8718  140.0973  157.1535 H   0  0  0  0  0  0  0  0  0  0  0  0  # atno 8010 bound_to 7997
  139.5558  144.1992  152.1157 H   0  0  0  0  0  0  0  0  0  0  0  0  # atno 10167 bound_to 10162
  157.2058  131.0686  151.1998 H   0  0  0  0  0  0  0  0  0  0  0  0  # atno 10718 bound_to 10713
  153.0664  135.4984  154.8208 H   0  0  0  0  0  0  0  0  0  0  0  0  # atno 10763 bound_to 10752
  154.6959  135.2993  154.9414 H   0  0  0  0  0  0  0  0  0  0  0  0  # atno 10764 bound_to 10752
  154.0154  135.6749  153.4821 H   0  0  0  0  0  0  0  0  0  0  0  0  # atno 10765 bound_to 10752
  141.1658  133.7288  156.8701 H   0  0  0  0  0  0  0  0  0  0  0  0  # atno 11005 bound_to 11000
  145.5440  141.0418  143.2315 LP  0  0  0  0  0  0  0  0  0  0  0  0  # atno 17320 bound_to 7965
  144.7609  139.6960  143.7235 LP  0  0  0  0  0  0  0  0  0  0  0  0  # atno 17321 bound_to 7965
  140.1496  144.5127  150.6695 LP  0  0  0  0  0  0  0  0  0  0  0  0  # atno 17342 bound_to 10162
  140.6831  143.2336  151.5332 LP  0  0  0  0  0  0  0  0  0  0  0  0  # atno 17343 bound_to 10162
  157.3721  130.7187  149.6572 LP  0  0  0  0  0  0  0  0  0  0  0  0  # atno 17370 bound_to 10713
  155.9695  130.4196  150.4382 LP  0  0  0  0  0  0  0  0  0  0  0  0  # atno 17371 bound_to 10713
  140.1787  134.9048  157.2922 LP  0  0  0  0  0  0  0  0  0  0  0  0  # atno 17394 bound_to 11000
  140.2419  134.3785  155.7477 LP  0  0  0  0  0  0  0  0  0  0  0  0  # atno 17395 bound_to 11000

$$$$
