AV-unprocessed.smi:66|AV-procd|sdf|628|dock6
  -GOLD-   2262016523D 1   1.00000     0.00000
 Structure written by MMmdl.
 27 29  0  0  0  0  0  0  0  0  3 V2000
  151.3530  137.5659  158.1312 O   0  0  0  0  0  0  0  0  0  0  0  0
  152.0762  137.4956  157.1134 C   0  0  0  0  0  0  0  0  0  0  0  0
  152.5603  136.4415  156.6433 O   0  5  0  0  0  0  0  0  0  0  0  0
  152.4002  138.8192  156.4009 C   0  0  1  0  0  0  0  0  0  0  0  0
  151.8742  138.8508  154.9555 C   0  0  0  0  0  0  0  0  0  0  0  0
  150.5366  139.5799  155.0722 C   0  0  2  0  0  0  0  0  0  0  0  0
  150.1504  140.1977  153.8621 O   0  0  0  0  0  0  0  0  0  0  0  0
  150.7897  140.5930  156.1900 C   0  0  0  0  0  0  0  0  0  0  0  0
  151.7639  139.9588  157.0682 N   0  0  0  0  0  0  0  0  0  0  0  0
  152.3824  140.6344  158.1485 C   0  0  0  0  0  0  0  0  0  0  0  0
  153.4005  139.9938  158.7795 N   0  0  0  0  0  0  0  0  0  0  0  0
  153.9998  140.6080  159.8039 C   0  0  0  0  0  0  0  0  0  0  0  0
  153.7130  141.8159  160.2944 N   0  0  0  0  0  0  0  0  0  0  0  0
  152.7051  142.4711  159.6843 C   0  0  0  0  0  0  0  0  0  0  0  0
  152.1641  143.6582  159.9055 N   0  5  0  0  0  0  0  0  0  0  0  0
  151.1710  143.8243  158.9969 C   0  0  0  0  0  0  0  0  0  0  0  0
  151.0268  142.7763  158.1618 N   0  0  0  0  0  0  0  0  0  0  0  0
  152.0033  141.9280  158.6058 C   0  0  0  0  0  0  0  0  0  0  0  0
  153.4836  138.9459  156.3784 H   0  0  0  0  0  0  0  0  0  0  0  0
  152.5643  139.4289  154.3391 H   0  0  0  0  0  0  0  0  0  0  0  0
  151.7767  137.8642  154.5000 H   0  0  0  0  0  0  0  0  0  0  0  0
  149.7611  138.8773  155.3802 H   0  0  0  0  0  0  0  0  0  0  0  0
  149.3109  139.8478  153.6065 H   0  0  0  0  0  0  0  0  0  0  0  0
  151.2147  141.5171  155.7945 H   0  0  0  0  0  0  0  0  0  0  0  0
  149.8622  140.8272  156.7127 H   0  0  0  0  0  0  0  0  0  0  0  0
  154.8043  140.0708  160.2840 H   0  0  0  0  0  0  0  0  0  0  0  0
  150.5864  144.7362  158.9985 H   0  0  0  0  0  0  0  0  0  0  0  0
  1  2  2  0  0  0  0
  2  3  1  0  0  0  0
  2  4  1  0  0  0  0
  4  5  1  0  0  0  0
  4 19  1  0  0  0  0
  4  9  1  0  0  0  0
  5  6  1  0  0  0  0
  5 20  1  0  0  0  0
  5 21  1  0  0  0  0
  6  7  1  0  0  0  0
  6  8  1  0  0  0  0
  6 22  1  0  0  0  0
  7 23  1  0  0  0  0
  8 24  1  0  0  0  0
  8 25  1  0  0  0  0
  8  9  1  0  0  0  0
  9 10  1  0  0  0  0
 10 11  1  0  0  0  0
 10 18  2  0  0  0  0
 11 12  2  0  0  0  0
 12 26  1  0  0  0  0
 12 13  1  0  0  0  0
 13 14  2  0  0  0  0
 14 15  1  0  0  0  0
 14 18  1  0  0  0  0
 15 16  1  0  0  0  0
 16 17  2  0  0  0  0
 16 27  1  0  0  0  0
 17 18  1  0  0  0  0
M  CHG  1   3  -1
M  CHG  1  15  -1
M  END
> <s_m_source_file>
AV-unprocessed.smi

> <i_m_source_file_index>
66

> <i_lp_mmshare_version>
43012

> <i_f3d_flags>
0

> <s_epik_input>
Tz1DKFtPSF0pW0NAQEhdMVtDSDJdW0NAQEhdKFtPSF0pW0NIMl1OMWMobltjSF1uMiljKGMyMylbbkhdW2NIXW4z

> <s_epik_cmdline>
J2VwaWtfcHl0aG9uJywgJy1waCcsICc3LjAnLCAnLXRuJywgJzgnLCAnLW1hJywgJzIwMCcsICctbWV0YWxfYmluZGluZycsICctaW1hZScsICc8aW5maWxlLm1hZT4nLCAnLW9tYWUnLCAnPG91dGZpbGUubWFlPic=

> <r_lp_tautomer_probability>
0.955585

> <r_epik_Ionization_Penalty>
7.65809

> <r_epik_Ionization_Penalty_Charging>
3.4974

> <r_epik_Ionization_Penalty_Neutral>
4.16069

> <r_epik_State_Penalty>
3.51624

> <r_epik_Charging_Adjusted_Penalty>
7.01364

> <i_epik_Tot_Q>
-2

> <i_epik_Tot_abs_Q>
2

> <r_epik_Metal_State_Penalty>
0.522662

> <b_epik_Metal_Only>
1

> <s_lp_Force_Field>
OPLS_2005

> <r_lp_Energy>
43.3227

> <b_lp_Chiralities_Consistent>
1

> <s_lp_Variant>
AV-unprocessed.smi:66-12

> <Gold.Version>
5.8.1

> <Gold.Id.Protein>
6NUR|6NUR_protein|mol2

> <Gold.PLP.Fitness>
42.1351

> <Gold.PLP.PLP>
-30.9352

> <Gold.PLP.part.hbond>
-3.9535

> <Gold.PLP.part.metal>
0.0000

> <Gold.PLP.part.buried>
-4.5684

> <Gold.PLP.part.nonpolar>
-22.3343

> <Gold.PLP.part.repulsive>
0.0927

> <Gold.PLP.ligand.clash>
0.0000

> <Gold.PLP.ligand.torsion>
0.0854

> <Gold.PLP.Chemscore.Hbond>
3.7392

> <Gold.PLP.Chemscore.CHOScore>
0.0000

> <Gold.PLP.Chemscore.Metal>
0.0000

> <Gold.Chemscore.Hbonds>
donor molecule, donor type, donor heavy atom, donor atom, acceptor molecule, acceptor atom, score
      P1  H  7989  7998       L1     7  0.75
      P1  H  7997  8010       L1    11  0.75
      P1  H 10752 10765       L1     3  2.00

> <Gold.PLP.Chemscore.Internal.Correction>
0.1532

> <Gold.Rescore>
     Score         DG    S(hbond)    S(metal)    S(lipo)     H(rot)  DE(clash)    DE(int)     intcor
      9.91     -11.16       1.83        0.00      35.18       1.78       0.04       1.21       ----

> <Gold.Chemscore.Fitness>
9.9077

> <Gold.Chemscore.DG>
-11.1554

> <Gold.Chemscore.ZeroCoef>
-5.4800

> <Gold.Chemscore.Hbond>
1.8275

> <Gold.Chemscore.Metal>
0.0000

> <Gold.Chemscore.Lipo>
35.1849

> <Gold.Chemscore.Internal_Hbond>
0.0000

> <Gold.Chemscore.DEClash>
0.0361

> <Gold.Chemscore.DEInternal>
1.2117

> <Gold.Chemscore.Rot>
1.7754

> <Gold.Chemscore.Internal.Correction>
   9.000000E+99

> <Gold.Chemscore.Hbonds>
donor molecule, donor type, donor heavy atom, donor atom, acceptor molecule, acceptor atom, score
      P1  H  7989  7998       L1     7  0.15
      P1  H  7997  8010       L1    11  0.07
      P1  H 10752 10765       L1     3  0.94

> <Gold.Chemscore.Hbond.Weighted>
-6.1039

> <Gold.Chemscore.Metal.Weighted>
-0.0000

> <Gold.Chemscore.Lipo.Weighted>
-4.1166

> <Gold.Chemscore.Internal_Hbond.Weighted>
0.0000

> <Gold.Chemscore.DEClash.Weighted>
0.0361

> <Gold.Chemscore.DEInternal.Weighted>
1.2117

> <Gold.Chemscore.Rot.Weighted>
4.5451

> <Gold.Chemscore.Internal.Correction.Weighted>
   9.000000E+99

> <Gold.Protein.RotatedTorsions>
[ 6907 6896 6895 6894 ] final  -41.61 input  -60.11 | X-H torsion
[ 7974 7965 7964 7962 ] final -131.74 input  175.53 | X-H torsion
[ 8008 7997 7996 7995 ] final   15.78 input   59.86 | X-H torsion
[ 10167 10162 10161 10158 ] final -170.93 input  -65.29 | X-H torsion
[ 10718 10713 10712 10709 ] final -161.32 input   66.30 | X-H torsion
[ 10763 10752 10751 10750 ] final -119.38 input  -60.55 | X-H torsion
[ 11005 11000 10999 10996 ] final -102.97 input  -57.11 | X-H torsion

> <Gold.Protein.ActiveResidues>
 VAL166  LYS551  ARG553  GLY616  TRP617  ASP618  TYR619  PRO620  LYS621  CYS622 
 ASP623  PHE694  ASN695  SER759  ASP760  ASP761  ALA762  ILE779  LEU786  VAL792 
 PHE793  MET794  SER795  GLU796  ALA797  LYS798  CYS799  TRP800  GLU811  SER814 

> <Gold.Protein.RotatedAtoms>
  150.9648  134.9030  159.7751 H   0  0  0  0  0  0  0  0  0  0  0  0  # atno 6907 bound_to 6896
  152.5169  134.3623  159.9299 H   0  0  0  0  0  0  0  0  0  0  0  0  # atno 6908 bound_to 6896
  151.3634  133.3840  159.2727 H   0  0  0  0  0  0  0  0  0  0  0  0  # atno 6909 bound_to 6896
  144.9351  140.7173  143.4882 H   0  0  0  0  0  0  0  0  0  0  0  0  # atno 7974 bound_to 7965
  154.8675  140.2954  155.5501 H   0  0  0  0  0  0  0  0  0  0  0  0  # atno 8008 bound_to 7997
  156.3021  140.2466  156.3592 H   0  0  0  0  0  0  0  0  0  0  0  0  # atno 8009 bound_to 7997
  154.8852  140.0396  157.1795 H   0  0  0  0  0  0  0  0  0  0  0  0  # atno 8010 bound_to 7997
  139.5832  144.1376  152.1542 H   0  0  0  0  0  0  0  0  0  0  0  0  # atno 10167 bound_to 10162
  156.5945  130.8784  151.2898 H   0  0  0  0  0  0  0  0  0  0  0  0  # atno 10718 bound_to 10713
  154.8615  135.4240  154.2289 H   0  0  0  0  0  0  0  0  0  0  0  0  # atno 10763 bound_to 10752
  153.3278  135.6986  153.6979 H   0  0  0  0  0  0  0  0  0  0  0  0  # atno 10764 bound_to 10752
  153.6008  135.3537  155.2918 H   0  0  0  0  0  0  0  0  0  0  0  0  # atno 10765 bound_to 10752
  141.1166  133.8602  157.1428 H   0  0  0  0  0  0  0  0  0  0  0  0  # atno 11005 bound_to 11000
  145.3080  139.1828  143.4654 LP  0  0  0  0  0  0  0  0  0  0  0  0  # atno 17320 bound_to 7965
  146.3263  140.3081  142.8625 LP  0  0  0  0  0  0  0  0  0  0  0  0  # atno 17321 bound_to 7965
  140.0934  144.5601  150.7039 LP  0  0  0  0  0  0  0  0  0  0  0  0  # atno 17342 bound_to 10162
  140.7108  143.2503  151.4588 LP  0  0  0  0  0  0  0  0  0  0  0  0  # atno 17343 bound_to 10162
  157.7295  130.9672  150.1791 LP  0  0  0  0  0  0  0  0  0  0  0  0  # atno 17370 bound_to 10713
  156.2521  130.3701  149.8221 LP  0  0  0  0  0  0  0  0  0  0  0  0  # atno 17371 bound_to 10713
  140.0092  134.9995  157.0359 LP  0  0  0  0  0  0  0  0  0  0  0  0  # atno 17394 bound_to 11000
  140.4628  134.1466  155.7193 LP  0  0  0  0  0  0  0  0  0  0  0  0  # atno 17395 bound_to 11000

$$$$
