AV-unprocessed.smi:1986|AV-procd|sdf|8047|dock3
  -GOLD-   2272010243D 1   1.00000     0.00000
 Structure written by MMmdl.
 46 47  0  0  0  0  0  0  0  0  2 V2000
  149.3698  139.4254  155.0905 C   0  0  0  0  0  0  0  0  0  0  0  0
  149.6011  140.3066  156.3303 C   0  0  0  0  0  0  0  0  0  0  0  0
  150.9583  140.0754  157.0718 C   0  0  2  0  0  0  0  0  0  0  0  0
  152.0550  139.9812  155.9780 C   0  0  0  0  0  0  0  0  0  0  0  0
  150.8951  138.6929  157.7991 C   0  0  0  0  0  0  0  0  0  0  0  0
  149.5649  138.3420  158.2890 N   0  0  0  0  0  0  0  0  0  0  0  0
  149.1869  137.1091  158.6539 C   0  0  0  0  0  0  0  0  0  0  0  0
  149.9376  136.1335  158.5977 O   0  0  0  0  0  0  0  0  0  0  0  0
  147.7354  136.9760  159.1416 C   0  0  0  0  0  0  0  0  0  0  0  0
  147.6008  136.3958  160.4861 N   0  0  0  0  0  0  0  0  0  0  0  0
  147.8685  137.3413  161.5667 N   0  5  0  0  0  0  0  0  0  0  0  0
  147.7645  136.9211  162.8555 C   0  0  0  0  0  0  0  0  0  0  0  0
  147.9599  137.6625  163.8158 O   0  0  0  0  0  0  0  0  0  0  0  0
  147.4105  135.5319  163.0959 C   0  0  0  0  0  0  0  0  0  0  0  0
  147.1916  134.6754  162.0788 C   0  0  0  0  0  0  0  0  0  0  0  0
  147.2891  135.0826  160.6822 C   0  0  0  0  0  0  0  0  0  0  0  0
  147.1030  134.3025  159.7479 O   0  0  0  0  0  0  0  0  0  0  0  0
  151.2317  141.1712  158.0508 N   0  0  0  0  0  0  0  0  0  0  0  0
  152.4667  141.0174  158.8322 C   0  0  0  0  0  0  0  0  0  0  0  0
  152.6239  142.1134  159.9002 C   0  0  0  0  0  0  0  0  0  0  0  0
  152.5811  143.3942  159.2849 O   0  0  0  0  0  0  0  0  0  0  0  0
  151.3672  143.6103  158.5774 C   0  0  0  0  0  0  0  0  0  0  0  0
  151.2000  142.5312  157.4945 C   0  0  0  0  0  0  0  0  0  0  0  0
  148.3866  139.6202  154.6622 H   0  0  0  0  0  0  0  0  0  0  0  0
  149.4151  138.3644  155.3358 H   0  0  0  0  0  0  0  0  0  0  0  0
  150.1060  139.6229  154.3117 H   0  0  0  0  0  0  0  0  0  0  0  0
  149.5073  141.3485  156.0235 H   0  0  0  0  0  0  0  0  0  0  0  0
  148.7641  140.1749  157.0148 H   0  0  0  0  0  0  0  0  0  0  0  0
  151.8359  139.1934  155.2567 H   0  0  0  0  0  0  0  0  0  0  0  0
  153.0351  139.7556  156.3975 H   0  0  0  0  0  0  0  0  0  0  0  0
  152.1452  140.9029  155.4040 H   0  0  0  0  0  0  0  0  0  0  0  0
  151.1926  137.8893  157.1247 H   0  0  0  0  0  0  0  0  0  0  0  0
  151.5964  138.6709  158.6348 H   0  0  0  0  0  0  0  0  0  0  0  0
  148.8897  139.0891  158.3613 H   0  0  0  0  0  0  0  0  0  0  0  0
  147.2620  137.9593  159.1235 H   0  0  0  0  0  0  0  0  0  0  0  0
  147.1892  136.3758  158.4116 H   0  0  0  0  0  0  0  0  0  0  0  0
  147.3233  135.1784  164.1127 H   0  0  0  0  0  0  0  0  0  0  0  0
  146.9327  133.6515  162.3044 H   0  0  0  0  0  0  0  0  0  0  0  0
  152.4864  140.0617  159.3514 H   0  0  0  0  0  0  0  0  0  0  0  0
  153.3353  141.0412  158.1740 H   0  0  0  0  0  0  0  0  0  0  0  0
  151.8367  142.0356  160.6520 H   0  0  0  0  0  0  0  0  0  0  0  0
  153.5749  142.0008  160.4207 H   0  0  0  0  0  0  0  0  0  0  0  0
  150.5243  143.5972  159.2702 H   0  0  0  0  0  0  0  0  0  0  0  0
  151.3928  144.6008  158.1227 H   0  0  0  0  0  0  0  0  0  0  0  0
  151.9910  142.6560  156.7550 H   0  0  0  0  0  0  0  0  0  0  0  0
  150.2575  142.7270  156.9882 H   0  0  0  0  0  0  0  0  0  0  0  0
  1  2  1  0  0  0  0
  1 24  1  0  0  0  0
  1 25  1  0  0  0  0
  1 26  1  0  0  0  0
  2  3  1  0  0  0  0
  2 27  1  0  0  0  0
  2 28  1  0  0  0  0
  3  4  1  0  0  0  0
  3  5  1  0  0  0  0
  3 18  1  0  0  0  0
  4 29  1  0  0  0  0
  4 30  1  0  0  0  0
  4 31  1  0  0  0  0
  5  6  1  0  0  0  0
  5 32  1  0  0  0  0
  5 33  1  0  0  0  0
  6  7  1  0  0  0  0
  6 34  1  0  0  0  0
  7  8  2  0  0  0  0
  7  9  1  0  0  0  0
  9 35  1  0  0  0  0
  9 36  1  0  0  0  0
  9 10  1  0  0  0  0
 10 11  1  0  0  0  0
 10 16  1  0  0  0  0
 11 12  1  0  0  0  0
 12 13  2  0  0  0  0
 12 14  1  0  0  0  0
 14 37  1  0  0  0  0
 14 15  2  0  0  0  0
 15 38  1  0  0  0  0
 15 16  1  0  0  0  0
 16 17  2  0  0  0  0
 18 23  1  0  0  0  0
 18 19  1  0  0  0  0
 19 20  1  0  0  0  0
 19 39  1  0  0  0  0
 19 40  1  0  0  0  0
 20 21  1  0  0  0  0
 20 41  1  0  0  0  0
 20 42  1  0  0  0  0
 21 22  1  0  0  0  0
 22 23  1  0  0  0  0
 22 43  1  0  0  0  0
 22 44  1  0  0  0  0
 23 45  1  0  0  0  0
 23 46  1  0  0  0  0
M  CHG  1  11  -1
M  END
> <s_m_source_file>
AV-unprocessed.smi

> <i_m_source_file_index>
1986

> <i_lp_mmshare_version>
43012

> <i_f3d_flags>
0

> <s_epik_input>
W0NIMl0xW0NIMl1PW0NIMl1bQ0gyXU4xW0NAQF0oW0NIM10pKFtDSDJdW0NIM10pW0NIMl1bTkhdQyg9TylbQ0gyXW4yW25IXWMoPU8pW2NIXVtjSF1jMj1P

> <s_epik_cmdline>
J2VwaWtfcHl0aG9uJywgJy1waCcsICc3LjAnLCAnLXRuJywgJzgnLCAnLW1hJywgJzIwMCcsICctbWV0YWxfYmluZGluZycsICctaW1hZScsICc8aW5maWxlLm1hZT4nLCAnLW9tYWUnLCAnPG91dGZpbGUubWFlPic=

> <r_lp_tautomer_probability>
1

> <r_epik_Ionization_Penalty>
0.416475

> <r_epik_Ionization_Penalty_Charging>
0.0978085

> <r_epik_Ionization_Penalty_Neutral>
0.318667

> <r_epik_State_Penalty>
0.355037

> <r_epik_Charging_Adjusted_Penalty>
0.452845

> <i_epik_Tot_Q>
-1

> <i_epik_Tot_abs_Q>
1

> <r_epik_Metal_State_Penalty>
0.355037

> <b_epik_Metal_Only>
0

> <s_lp_Force_Field>
OPLS_2005

> <r_lp_Energy>
59.1038

> <b_lp_Chiralities_Consistent>
1

> <s_lp_Variant>
AV-unprocessed.smi:1986-2

> <Gold.Version>
5.8.1

> <Gold.Id.Protein>
6NUR|6NUR_protein|mol2

> <Gold.PLP.Fitness>
50.3659

> <Gold.PLP.PLP>
-40.2810

> <Gold.PLP.part.hbond>
-4.0000

> <Gold.PLP.part.metal>
0.0000

> <Gold.PLP.part.buried>
-4.8031

> <Gold.PLP.part.nonpolar>
-32.2287

> <Gold.PLP.part.repulsive>
0.2164

> <Gold.PLP.ligand.clash>
0.0000

> <Gold.PLP.ligand.torsion>
1.0892

> <Gold.PLP.Chemscore.Hbond>
4.0242

> <Gold.PLP.Chemscore.CHOScore>
0.0000

> <Gold.PLP.Chemscore.Metal>
0.0000

> <Gold.Chemscore.Hbonds>
donor molecule, donor type, donor heavy atom, donor atom, acceptor molecule, acceptor atom, score
      P1  H  6896  6907       L1     8  0.98
      P1  H  6931  6943       L1    11  1.15
      P1  H  6934  6947       L1    11  1.28

> <Gold.PLP.Chemscore.Internal.Correction>
0.1906

> <Gold.Rescore>
     Score         DG    S(hbond)    S(metal)    S(lipo)     H(rot)  DE(clash)    DE(int)     intcor
     13.00     -14.59       1.79        0.00      79.72       2.42       0.20       1.39       ----

> <Gold.Chemscore.Fitness>
13.0044

> <Gold.Chemscore.DG>
-14.5898

> <Gold.Chemscore.ZeroCoef>
-5.4800

> <Gold.Chemscore.Hbond>
1.7896

> <Gold.Chemscore.Metal>
0.0000

> <Gold.Chemscore.Lipo>
79.7153

> <Gold.Chemscore.Internal_Hbond>
0.0000

> <Gold.Chemscore.DEClash>
0.1970

> <Gold.Chemscore.DEInternal>
1.3883

> <Gold.Chemscore.Rot>
2.4197

> <Gold.Chemscore.Internal.Correction>
   9.000000E+99

> <Gold.Chemscore.Hbonds>
donor molecule, donor type, donor heavy atom, donor atom, acceptor molecule, acceptor atom, score
      P1  H  6896  6907       L1     8  0.92
      P1  H  6931  6943       L1    11  0.04
      P1  H  6934  6947       L1    11  0.35

> <Gold.Chemscore.Hbond.Weighted>
-5.9774

> <Gold.Chemscore.Metal.Weighted>
-0.0000

> <Gold.Chemscore.Lipo.Weighted>
-9.3267

> <Gold.Chemscore.Internal_Hbond.Weighted>
0.0000

> <Gold.Chemscore.DEClash.Weighted>
0.1970

> <Gold.Chemscore.DEInternal.Weighted>
1.3883

> <Gold.Chemscore.Rot.Weighted>
6.1943

> <Gold.Chemscore.Internal.Correction.Weighted>
   9.000000E+99

> <Gold.Protein.RotatedTorsions>
[ 6907 6896 6895 6894 ] final  -69.95 input  -60.11 | X-H torsion
[ 7974 7965 7964 7962 ] final  -91.53 input  175.53 | X-H torsion
[ 8008 7997 7996 7995 ] final  162.00 input   59.86 | X-H torsion
[ 10167 10162 10161 10158 ] final   18.06 input  -65.29 | X-H torsion
[ 10718 10713 10712 10709 ] final  -70.43 input   66.30 | X-H torsion
[ 10763 10752 10751 10750 ] final -105.55 input  -60.55 | X-H torsion
[ 11005 11000 10999 10996 ] final   22.71 input  -57.11 | X-H torsion

> <Gold.Protein.ActiveResidues>
 VAL166  LYS551  ARG553  GLY616  TRP617  ASP618  TYR619  PRO620  LYS621  CYS622 
 ASP623  PHE694  ASN695  SER759  ASP760  ASP761  ALA762  ILE779  LEU786  VAL792 
 PHE793  MET794  SER795  GLU796  ALA797  LYS798  CYS799  TRP800  GLU811  SER814 

> <Gold.Protein.RotatedAtoms>
  150.7280  134.5523  159.5800 H   0  0  0  0  0  0  0  0  0  0  0  0  # atno 6907 bound_to 6896
  152.3007  134.7611  160.0367 H   0  0  0  0  0  0  0  0  0  0  0  0  # atno 6908 bound_to 6896
  151.8193  133.3357  159.3616 H   0  0  0  0  0  0  0  0  0  0  0  0  # atno 6909 bound_to 6896
  145.4119  140.9545  143.2229 H   0  0  0  0  0  0  0  0  0  0  0  0  # atno 7974 bound_to 7965
  156.2063  140.1762  156.7792 H   0  0  0  0  0  0  0  0  0  0  0  0  # atno 8008 bound_to 7997
  154.5660  140.0691  156.8922 H   0  0  0  0  0  0  0  0  0  0  0  0  # atno 8009 bound_to 7997
  155.2760  140.3346  155.4264 H   0  0  0  0  0  0  0  0  0  0  0  0  # atno 8010 bound_to 7997
  140.5681  143.9213  150.6692 H   0  0  0  0  0  0  0  0  0  0  0  0  # atno 10167 bound_to 10162
  156.0408  130.4331  150.2295 H   0  0  0  0  0  0  0  0  0  0  0  0  # atno 10718 bound_to 10713
  154.7954  135.4745  154.0149 H   0  0  0  0  0  0  0  0  0  0  0  0  # atno 10763 bound_to 10752
  153.1695  135.6822  153.8634 H   0  0  0  0  0  0  0  0  0  0  0  0  # atno 10764 bound_to 10752
  153.8221  135.3203  155.3389 H   0  0  0  0  0  0  0  0  0  0  0  0  # atno 10765 bound_to 10752
  140.3776  134.1955  155.7664 H   0  0  0  0  0  0  0  0  0  0  0  0  # atno 11005 bound_to 11000
  144.8303  139.5640  143.6947 LP  0  0  0  0  0  0  0  0  0  0  0  0  # atno 17320 bound_to 7965
  146.2700  139.6613  142.9302 LP  0  0  0  0  0  0  0  0  0  0  0  0  # atno 17321 bound_to 7965
  140.2681  143.3476  152.1263 LP  0  0  0  0  0  0  0  0  0  0  0  0  # atno 17342 bound_to 10162
  139.5103  144.6882  151.5831 LP  0  0  0  0  0  0  0  0  0  0  0  0  # atno 17343 bound_to 10162
  157.0390  131.0029  151.3289 LP  0  0  0  0  0  0  0  0  0  0  0  0  # atno 17370 bound_to 10713
  157.5223  130.8006  149.7823 LP  0  0  0  0  0  0  0  0  0  0  0  0  # atno 17371 bound_to 10713
  141.1934  133.8151  157.0800 LP  0  0  0  0  0  0  0  0  0  0  0  0  # atno 17394 bound_to 11000
  140.0503  134.9809  157.1124 LP  0  0  0  0  0  0  0  0  0  0  0  0  # atno 17395 bound_to 11000

$$$$
