AV-unprocessed.smi:1878|AV-procd|sdf|7628|dock3
  -GOLD-   22720 9353D 1   1.00000     0.00000
 Structure written by MMmdl.
 34 35  0  0  0  0  0  0  0  0  2 V2000
  149.1466  141.3898  153.5013 O   0  0  0  0  0  0  0  0  0  0  0  0
  149.4377  140.5988  154.4013 C   0  0  0  0  0  0  0  0  0  0  0  0
  148.4671  139.9677  155.0735 N   0  0  0  0  0  0  0  0  0  0  0  0
  147.0385  140.1344  154.8350 C   0  0  0  0  0  0  0  0  0  0  0  0
  146.5817  141.5612  155.1703 C   0  0  0  0  0  0  0  0  0  0  0  0
  146.9381  142.3812  154.1823 F   0  0  0  0  0  0  0  0  0  0  0  0
  145.2560  141.6049  155.3048 F   0  0  0  0  0  0  0  0  0  0  0  0
  147.1526  141.9794  156.3001 F   0  0  0  0  0  0  0  0  0  0  0  0
  150.6858  140.2760  154.8127 N   0  5  0  0  0  0  0  0  0  0  0  0
  151.1584  140.7578  155.9729 C   0  0  0  0  0  0  0  0  0  0  0  0
  150.7676  142.0216  156.4647 C   0  0  0  0  0  0  0  0  0  0  0  0
  151.2837  142.4884  157.6883 C   0  0  0  0  0  0  0  0  0  0  0  0
  152.1841  141.6700  158.4081 C   0  0  0  0  0  0  0  0  0  0  0  0
  152.7307  142.0963  159.6352 N   0  0  0  0  0  0  0  0  0  0  0  0
  153.3804  141.1698  160.5490 C   0  0  0  0  0  0  0  0  0  0  0  0
  153.7005  142.0087  161.7852 C   0  0  0  0  0  0  0  0  0  0  0  0
  152.5550  143.0203  161.8237 C   0  0  0  0  0  0  0  0  0  0  0  0
  152.2128  143.2558  160.3477 C   0  0  0  0  0  0  0  0  0  0  0  0
  152.5657  140.4572  157.9447 N   0  0  0  0  0  0  0  0  0  0  0  0
  152.0641  140.0225  156.7692 C   0  0  0  0  0  0  0  0  0  0  0  0
  148.7407  139.3269  155.8040 H   0  0  0  0  0  0  0  0  0  0  0  0
  146.8219  139.9099  153.7895 H   0  0  0  0  0  0  0  0  0  0  0  0
  146.4828  139.4162  155.4400 H   0  0  0  0  0  0  0  0  0  0  0  0
  150.0782  142.6364  155.9042 H   0  0  0  0  0  0  0  0  0  0  0  0
  150.9889  143.4624  158.0484 H   0  0  0  0  0  0  0  0  0  0  0  0
  152.6914  140.3618  160.7992 H   0  0  0  0  0  0  0  0  0  0  0  0
  154.2801  140.7355  160.1118 H   0  0  0  0  0  0  0  0  0  0  0  0
  153.7767  141.4125  162.6947 H   0  0  0  0  0  0  0  0  0  0  0  0
  154.6476  142.5305  161.6421 H   0  0  0  0  0  0  0  0  0  0  0  0
  151.6969  142.5769  162.3306 H   0  0  0  0  0  0  0  0  0  0  0  0
  152.8158  143.9394  162.3491 H   0  0  0  0  0  0  0  0  0  0  0  0
  152.7114  144.1498  159.9724 H   0  0  0  0  0  0  0  0  0  0  0  0
  151.1379  143.3785  160.2122 H   0  0  0  0  0  0  0  0  0  0  0  0
  152.4025  139.0470  156.4512 H   0  0  0  0  0  0  0  0  0  0  0  0
  1  2  2  0  0  0  0
  2  3  1  0  0  0  0
  2  9  1  0  0  0  0
  3  4  1  0  0  0  0
  3 21  1  0  0  0  0
  4  5  1  0  0  0  0
  4 22  1  0  0  0  0
  4 23  1  0  0  0  0
  5  6  1  0  0  0  0
  5  7  1  0  0  0  0
  5  8  1  0  0  0  0
  9 10  1  0  0  0  0
 10 20  1  0  0  0  0
 10 11  2  0  0  0  0
 11 12  1  0  0  0  0
 11 24  1  0  0  0  0
 12 13  2  0  0  0  0
 12 25  1  0  0  0  0
 13 14  1  0  0  0  0
 13 19  1  0  0  0  0
 14 18  1  0  0  0  0
 14 15  1  0  0  0  0
 15 16  1  0  0  0  0
 15 26  1  0  0  0  0
 15 27  1  0  0  0  0
 16 17  1  0  0  0  0
 16 28  1  0  0  0  0
 16 29  1  0  0  0  0
 17 18  1  0  0  0  0
 17 30  1  0  0  0  0
 17 31  1  0  0  0  0
 18 32  1  0  0  0  0
 18 33  1  0  0  0  0
 19 20  2  0  0  0  0
 20 34  1  0  0  0  0
M  CHG  1   9  -1
M  END
> <s_m_source_file>
AV-unprocessed.smi

> <i_m_source_file_index>
1878

> <i_lp_mmshare_version>
43012

> <i_f3d_flags>
0

> <s_epik_input>
RkMoRikoRilbQ0gyXVtOSF1DKD1PKVtOSF1jMVtjSF1bY0hdYyhuW2NIXTEpTjJbQ0gyXVtDSDJdW0NIMl1bQ0gyXTI=

> <s_epik_cmdline>
J2VwaWtfcHl0aG9uJywgJy1waCcsICc3LjAnLCAnLXRuJywgJzgnLCAnLW1hJywgJzIwMCcsICctbWV0YWxfYmluZGluZycsICctaW1hZScsICc8aW5maWxlLm1hZT4nLCAnLW9tYWUnLCAnPG91dGZpbGUubWFlPic=

> <r_lp_tautomer_probability>
1

> <r_epik_Ionization_Penalty>
8.41125

> <r_epik_Ionization_Penalty_Charging>
6.79601

> <r_epik_Ionization_Penalty_Neutral>
1.61524

> <r_epik_State_Penalty>
6.86553

> <r_epik_Charging_Adjusted_Penalty>
13.6615

> <i_epik_Tot_Q>
-1

> <i_epik_Tot_abs_Q>
1

> <r_epik_Metal_State_Penalty>
2.85642

> <b_epik_Metal_Only>
1

> <s_lp_Force_Field>
OPLS_2005

> <r_lp_Energy>
22.1987

> <b_lp_Chiralities_Consistent>
1

> <s_lp_Variant>
AV-unprocessed.smi:1878-3

> <Gold.Version>
5.8.1

> <Gold.Id.Protein>
6NUR|6NUR_protein|mol2

> <Gold.PLP.Fitness>
48.0432

> <Gold.PLP.PLP>
-43.6976

> <Gold.PLP.part.hbond>
-3.7882

> <Gold.PLP.part.metal>
0.0000

> <Gold.PLP.part.buried>
-4.3191

> <Gold.PLP.part.nonpolar>
-37.6935

> <Gold.PLP.part.repulsive>
2.7700

> <Gold.PLP.ligand.clash>
0.0000

> <Gold.PLP.ligand.torsion>
1.2255

> <Gold.PLP.Chemscore.Hbond>
2.0114

> <Gold.PLP.Chemscore.CHOScore>
0.0000

> <Gold.PLP.Chemscore.Metal>
0.0000

> <Gold.Chemscore.Hbonds>
donor molecule, donor type, donor heavy atom, donor atom, acceptor molecule, acceptor atom, score
      P1  H  7989  7998       L1     9  1.00
      P1  H  7997  8009       L1    19  0.10
      P1  H  8011  8017       L1     1  0.91

> <Gold.PLP.Chemscore.Internal.Correction>
0.7625

> <Gold.Rescore>
     Score         DG    S(hbond)    S(metal)    S(lipo)     H(rot)  DE(clash)    DE(int)     intcor
     13.78     -16.72       1.34        0.00      79.63       1.00       0.04       2.91       ----

> <Gold.Chemscore.Fitness>
13.7789

> <Gold.Chemscore.DG>
-16.7228

> <Gold.Chemscore.ZeroCoef>
-5.4800

> <Gold.Chemscore.Hbond>
1.3433

> <Gold.Chemscore.Metal>
0.0000

> <Gold.Chemscore.Lipo>
79.6259

> <Gold.Chemscore.Internal_Hbond>
0.0000

> <Gold.Chemscore.DEClash>
0.0376

> <Gold.Chemscore.DEInternal>
2.9062

> <Gold.Chemscore.Rot>
1.0000

> <Gold.Chemscore.Internal.Correction>
   9.000000E+99

> <Gold.Chemscore.Hbonds>
donor molecule, donor type, donor heavy atom, donor atom, acceptor molecule, acceptor atom, score
      P1  H  7989  7998       L1     9  0.22
      P1  H  8011  8017       L1     1  0.88

> <Gold.Chemscore.Hbond.Weighted>
-4.4866

> <Gold.Chemscore.Metal.Weighted>
-0.0000

> <Gold.Chemscore.Lipo.Weighted>
-9.3162

> <Gold.Chemscore.Internal_Hbond.Weighted>
0.0000

> <Gold.Chemscore.DEClash.Weighted>
0.0376

> <Gold.Chemscore.DEInternal.Weighted>
2.9062

> <Gold.Chemscore.Rot.Weighted>
2.5600

> <Gold.Chemscore.Internal.Correction.Weighted>
   9.000000E+99

> <Gold.Protein.RotatedTorsions>
[ 6907 6896 6895 6894 ] final   22.62 input  -60.11 | X-H torsion
[ 7974 7965 7964 7962 ] final  -22.86 input  175.53 | X-H torsion
[ 8008 7997 7996 7995 ] final  153.05 input   59.86 | X-H torsion
[ 10167 10162 10161 10158 ] final   72.15 input  -65.29 | X-H torsion
[ 10718 10713 10712 10709 ] final  154.79 input   66.30 | X-H torsion
[ 10763 10752 10751 10750 ] final   -9.49 input  -60.55 | X-H torsion
[ 11005 11000 10999 10996 ] final   63.21 input  -57.11 | X-H torsion

> <Gold.Protein.ActiveResidues>
 VAL166  LYS551  ARG553  GLY616  TRP617  ASP618  TYR619  PRO620  LYS621  CYS622 
 ASP623  PHE694  ASN695  SER759  ASP760  ASP761  ALA762  ILE779  LEU786  VAL792 
 PHE793  MET794  SER795  GLU796  ALA797  LYS798  CYS799  TRP800  GLU811  SER814 

> <Gold.Protein.RotatedAtoms>
  151.9299  135.0261  160.0528 H   0  0  0  0  0  0  0  0  0  0  0  0  # atno 6907 bound_to 6896
  152.2128  133.4919  159.5127 H   0  0  0  0  0  0  0  0  0  0  0  0  # atno 6908 bound_to 6896
  150.6980  134.1362  159.4131 H   0  0  0  0  0  0  0  0  0  0  0  0  # atno 6909 bound_to 6896
  146.1651  140.4536  142.8555 H   0  0  0  0  0  0  0  0  0  0  0  0  # atno 7974 bound_to 7965
  156.2600  140.2004  156.6429 H   0  0  0  0  0  0  0  0  0  0  0  0  # atno 8008 bound_to 7997
  154.6595  140.0562  157.0071 H   0  0  0  0  0  0  0  0  0  0  0  0  # atno 8009 bound_to 7997
  155.1297  140.3232  155.4480 H   0  0  0  0  0  0  0  0  0  0  0  0  # atno 8010 bound_to 7997
  140.0384  144.5409  150.7453 H   0  0  0  0  0  0  0  0  0  0  0  0  # atno 10167 bound_to 10162
  157.2269  131.0730  151.1877 H   0  0  0  0  0  0  0  0  0  0  0  0  # atno 10718 bound_to 10713
  153.4555  135.7015  153.6082 H   0  0  0  0  0  0  0  0  0  0  0  0  # atno 10763 bound_to 10752
  153.4399  135.3783  155.2221 H   0  0  0  0  0  0  0  0  0  0  0  0  # atno 10764 bound_to 10752
  154.8728  135.3971  154.3974 H   0  0  0  0  0  0  0  0  0  0  0  0  # atno 10765 bound_to 10752
  140.0040  134.6398  155.9885 H   0  0  0  0  0  0  0  0  0  0  0  0  # atno 11005 bound_to 11000
  144.8081  140.6336  143.6433 LP  0  0  0  0  0  0  0  0  0  0  0  0  # atno 17320 bound_to 7965
  145.4488  139.1526  143.3929 LP  0  0  0  0  0  0  0  0  0  0  0  0  # atno 17321 bound_to 7965
  140.7271  143.2648  151.4082 LP  0  0  0  0  0  0  0  0  0  0  0  0  # atno 17342 bound_to 10162
  139.6030  144.1256  152.2218 LP  0  0  0  0  0  0  0  0  0  0  0  0  # atno 17343 bound_to 10162
  157.3518  130.7086  149.6446 LP  0  0  0  0  0  0  0  0  0  0  0  0  # atno 17370 bound_to 10713
  155.9678  130.4250  150.4635 LP  0  0  0  0  0  0  0  0  0  0  0  0  # atno 17371 bound_to 10713
  141.1663  133.6537  156.4492 LP  0  0  0  0  0  0  0  0  0  0  0  0  # atno 17394 bound_to 11000
  140.4675  134.6784  157.5114 LP  0  0  0  0  0  0  0  0  0  0  0  0  # atno 17395 bound_to 11000

$$$$
