AV-unprocessed.smi:1602|AV-procd|sdf|6442|dock3
  -GOLD-   22720 7 93D 1   1.00000     0.00000
 Structure written by MMmdl.
 35 36  0  0  0  0  0  0  0  0  2 V2000
  150.3881  140.9263  157.4529 C   0  0  0  0  0  0  0  0  0  0  0  0
  151.9066  141.1654  157.3928 C   0  0  1  0  0  0  0  0  0  0  0  0
  152.4850  141.8213  158.6759 C   0  0  0  0  0  0  0  0  0  0  0  0
  152.1240  143.2218  158.8880 N   0  0  0  0  0  0  0  0  0  0  0  0
  152.5622  144.0862  159.8734 C   0  0  0  0  0  0  0  0  0  0  0  0
  151.9280  145.2808  159.6859 C   0  0  0  0  0  0  0  0  0  0  0  0
  151.0963  145.0466  158.5559 C   0  0  0  0  0  0  0  0  0  0  0  0
  151.2063  143.8146  158.0883 N   0  0  0  0  0  0  0  0  0  0  0  0
  152.5868  139.9049  157.1312 N   0  5  0  0  0  0  0  0  0  0  0  0
  152.0407  138.9217  155.9628 S   0  0  0  0  0  0  0  0  0  0  0  0
  151.2612  139.6069  154.9188 O   0  0  0  0  0  0  0  0  0  0  0  0
  153.0488  137.9393  155.5317 O   0  0  0  0  0  0  0  0  0  0  0  0
  150.8830  138.0511  156.9220 N   0  0  0  0  0  0  0  0  0  0  0  0
  151.2221  137.8467  158.3409 C   0  0  0  0  0  0  0  0  0  0  0  0
  150.0307  137.2721  159.1242 C   0  0  0  0  0  0  0  0  0  0  0  0
  149.5609  136.0866  158.5023 O   0  0  0  0  0  0  0  0  0  0  0  0
  149.0874  136.3487  157.1904 C   0  0  0  0  0  0  0  0  0  0  0  0
  150.2310  136.8752  156.3091 C   0  0  0  0  0  0  0  0  0  0  0  0
  149.8593  141.8469  157.6991 H   0  0  0  0  0  0  0  0  0  0  0  0
  150.1244  140.1789  158.2019 H   0  0  0  0  0  0  0  0  0  0  0  0
  150.0043  140.5779  156.4939 H   0  0  0  0  0  0  0  0  0  0  0  0
  152.0898  141.8720  156.5822 H   0  0  0  0  0  0  0  0  0  0  0  0
  152.1978  141.2450  159.5572 H   0  0  0  0  0  0  0  0  0  0  0  0
  153.5737  141.7724  158.6354 H   0  0  0  0  0  0  0  0  0  0  0  0
  153.2864  143.7816  160.6145 H   0  0  0  0  0  0  0  0  0  0  0  0
  152.0387  146.1827  160.2691 H   0  0  0  0  0  0  0  0  0  0  0  0
  150.4159  145.7289  158.0681 H   0  0  0  0  0  0  0  0  0  0  0  0
  152.0751  137.1701  158.4041 H   0  0  0  0  0  0  0  0  0  0  0  0
  151.5281  138.7916  158.7893 H   0  0  0  0  0  0  0  0  0  0  0  0
  150.3340  137.0383  160.1449 H   0  0  0  0  0  0  0  0  0  0  0  0
  149.2246  138.0042  159.1943 H   0  0  0  0  0  0  0  0  0  0  0  0
  148.6881  135.4261  156.7690 H   0  0  0  0  0  0  0  0  0  0  0  0
  148.2632  137.0634  157.2227 H   0  0  0  0  0  0  0  0  0  0  0  0
  149.8396  137.1248  155.3233 H   0  0  0  0  0  0  0  0  0  0  0  0
  150.9790  136.0948  156.1641 H   0  0  0  0  0  0  0  0  0  0  0  0
  1  2  1  0  0  0  0
  1 19  1  0  0  0  0
  1 20  1  0  0  0  0
  1 21  1  0  0  0  0
  2  3  1  0  0  0  0
  2  9  1  0  0  0  0
  2 22  1  0  0  0  0
  3  4  1  0  0  0  0
  3 23  1  0  0  0  0
  3 24  1  0  0  0  0
  4  8  1  0  0  0  0
  4  5  1  0  0  0  0
  5  6  2  0  0  0  0
  5 25  1  0  0  0  0
  6  7  1  0  0  0  0
  6 26  1  0  0  0  0
  7  8  2  0  0  0  0
  7 27  1  0  0  0  0
  9 10  1  0  0  0  0
 10 11  2  0  0  0  0
 10 12  2  0  0  0  0
 10 13  1  0  0  0  0
 13 18  1  0  0  0  0
 13 14  1  0  0  0  0
 14 15  1  0  0  0  0
 14 28  1  0  0  0  0
 14 29  1  0  0  0  0
 15 16  1  0  0  0  0
 15 30  1  0  0  0  0
 15 31  1  0  0  0  0
 16 17  1  0  0  0  0
 17 18  1  0  0  0  0
 17 32  1  0  0  0  0
 17 33  1  0  0  0  0
 18 34  1  0  0  0  0
 18 35  1  0  0  0  0
M  CHG  1   9  -1
M  END
> <s_m_source_file>
AV-unprocessed.smi

> <i_m_source_file_index>
1602

> <i_lp_mmshare_version>
43012

> <i_f3d_flags>
0

> <s_epik_input>
bjFbY0hdW2NIXVtjSF1uMVtDSDJdW0NAQEhdKFtDSDNdKVtOSF1TKD1PKSg9TylOMltDSDJdW0NIMl1PW0NIMl1bQ0gyXTI=

> <s_epik_cmdline>
J2VwaWtfcHl0aG9uJywgJy1waCcsICc3LjAnLCAnLXRuJywgJzgnLCAnLW1hJywgJzIwMCcsICctbWV0YWxfYmluZGluZycsICctaW1hZScsICc8aW5maWxlLm1hZT4nLCAnLW9tYWUnLCAnPG91dGZpbGUubWFlPic=

> <r_lp_tautomer_probability>
1

> <r_epik_Ionization_Penalty>
1.03144

> <r_epik_Ionization_Penalty_Charging>
1.03142

> <r_epik_Ionization_Penalty_Neutral>
2.21579e-05

> <r_epik_State_Penalty>
1.0826

> <r_epik_Charging_Adjusted_Penalty>
2.11402

> <i_epik_Tot_Q>
-1

> <i_epik_Tot_abs_Q>
1

> <r_epik_Metal_State_Penalty>
0.386234

> <b_epik_Metal_Only>
0

> <s_lp_Force_Field>
OPLS_2005

> <r_lp_Energy>
7.84511

> <b_lp_Chiralities_Consistent>
1

> <s_lp_Variant>
AV-unprocessed.smi:1602-4

> <Gold.Version>
5.8.1

> <Gold.Id.Protein>
6NUR|6NUR_protein|mol2

> <Gold.PLP.Fitness>
45.4064

> <Gold.PLP.PLP>
-31.5731

> <Gold.PLP.part.hbond>
-3.8480

> <Gold.PLP.part.metal>
0.0000

> <Gold.PLP.part.buried>
-6.4554

> <Gold.PLP.part.nonpolar>
-21.4532

> <Gold.PLP.part.repulsive>
0.1866

> <Gold.PLP.ligand.clash>
0.0007

> <Gold.PLP.ligand.torsion>
1.3381

> <Gold.PLP.Chemscore.Hbond>
4.0000

> <Gold.PLP.Chemscore.CHOScore>
0.9975

> <Gold.PLP.Chemscore.Metal>
0.0000

> <Gold.Chemscore.Hbonds>
donor molecule, donor type, donor heavy atom, donor atom, acceptor molecule, acceptor atom, score
      P1  H  6896  6909       L1    16  0.68
      P1  H  7989  7998       L1    11  1.00
      P1  H  7997  8010       L1     9  2.00
      L1  C     7    27       P1  8029  0.69

> <Gold.PLP.Chemscore.Internal.Correction>
1.5178

> <Gold.Rescore>
     Score         DG    S(hbond)    S(metal)    S(lipo)     H(rot)  DE(clash)    DE(int)     intcor
     14.12     -17.97       2.53        0.00      71.15       1.67       0.02       3.84       ----

> <Gold.Chemscore.Fitness>
14.1200

> <Gold.Chemscore.DG>
-17.9728

> <Gold.Chemscore.ZeroCoef>
-5.4800

> <Gold.Chemscore.Hbond>
2.5270

> <Gold.Chemscore.Metal>
0.0000

> <Gold.Chemscore.Lipo>
71.1533

> <Gold.Chemscore.Internal_Hbond>
0.0000

> <Gold.Chemscore.DEClash>
0.0174

> <Gold.Chemscore.DEInternal>
3.8354

> <Gold.Chemscore.Rot>
1.6688

> <Gold.Chemscore.Internal.Correction>
   9.000000E+99

> <Gold.Chemscore.Hbonds>
donor molecule, donor type, donor heavy atom, donor atom, acceptor molecule, acceptor atom, score
      P1  H  6896  6909       L1    16  0.26
      P1  H  7989  7998       L1    11  0.99
      P1  H  7997  8010       L1     9  0.22

> <Gold.Chemscore.Hbond.Weighted>
-8.4401

> <Gold.Chemscore.Metal.Weighted>
-0.0000

> <Gold.Chemscore.Lipo.Weighted>
-8.3249

> <Gold.Chemscore.Internal_Hbond.Weighted>
0.0000

> <Gold.Chemscore.DEClash.Weighted>
0.0174

> <Gold.Chemscore.DEInternal.Weighted>
3.8354

> <Gold.Chemscore.Rot.Weighted>
4.2722

> <Gold.Chemscore.Internal.Correction.Weighted>
   9.000000E+99

> <Gold.Protein.RotatedTorsions>
[ 6907 6896 6895 6894 ] final   45.99 input  -60.11 | X-H torsion
[ 7974 7965 7964 7962 ] final  -53.13 input  175.53 | X-H torsion
[ 8008 7997 7996 7995 ] final   63.12 input   59.86 | X-H torsion
[ 10167 10162 10161 10158 ] final  -19.17 input  -65.29 | X-H torsion
[ 10718 10713 10712 10709 ] final  174.98 input   66.30 | X-H torsion
[ 10763 10752 10751 10750 ] final  165.78 input  -60.55 | X-H torsion
[ 11005 11000 10999 10996 ] final   42.81 input  -57.11 | X-H torsion

> <Gold.Protein.ActiveResidues>
 VAL166  LYS551  ARG553  GLY616  TRP617  ASP618  TYR619  PRO620  LYS621  CYS622 
 ASP623  PHE694  ASN695  SER759  ASP760  ASP761  ALA762  ILE779  LEU786  VAL792 
 PHE793  MET794  SER795  GLU796  ALA797  LYS798  CYS799  TRP800  GLU811  SER814 

> <Gold.Protein.RotatedAtoms>
  152.2511  134.8132  160.0445 H   0  0  0  0  0  0  0  0  0  0  0  0  # atno 6907 bound_to 6896
  151.8812  133.3490  159.3775 H   0  0  0  0  0  0  0  0  0  0  0  0  # atno 6908 bound_to 6896
  150.7084  134.4943  159.5575 H   0  0  0  0  0  0  0  0  0  0  0  0  # atno 6909 bound_to 6896
  145.9002  140.8000  142.9747 H   0  0  0  0  0  0  0  0  0  0  0  0  # atno 7974 bound_to 7965
  155.6252  140.3496  155.4665 H   0  0  0  0  0  0  0  0  0  0  0  0  # atno 8008 bound_to 7997
  156.0047  140.1220  157.0536 H   0  0  0  0  0  0  0  0  0  0  0  0  # atno 8009 bound_to 7997
  154.4260  140.1093  156.5732 H   0  0  0  0  0  0  0  0  0  0  0  0  # atno 8010 bound_to 7997
  140.7266  143.4845  151.0074 H   0  0  0  0  0  0  0  0  0  0  0  0  # atno 10167 bound_to 10162
  156.9417  131.0003  151.2967 H   0  0  0  0  0  0  0  0  0  0  0  0  # atno 10718 bound_to 10713
  154.3291  135.2755  155.2481 H   0  0  0  0  0  0  0  0  0  0  0  0  # atno 10763 bound_to 10752
  154.4801  135.5861  153.6386 H   0  0  0  0  0  0  0  0  0  0  0  0  # atno 10764 bound_to 10752
  152.9868  135.6109  154.3482 H   0  0  0  0  0  0  0  0  0  0  0  0  # atno 10765 bound_to 10752
  140.1704  134.4230  155.8261 H   0  0  0  0  0  0  0  0  0  0  0  0  # atno 11005 bound_to 11000
  144.6735  140.1666  143.7418 LP  0  0  0  0  0  0  0  0  0  0  0  0  # atno 17320 bound_to 7965
  145.8800  139.2318  143.1611 LP  0  0  0  0  0  0  0  0  0  0  0  0  # atno 17321 bound_to 7965
  139.8545  143.7394  152.3176 LP  0  0  0  0  0  0  0  0  0  0  0  0  # atno 17342 bound_to 10162
  139.7588  144.7512  151.0395 LP  0  0  0  0  0  0  0  0  0  0  0  0  # atno 17343 bound_to 10162
  157.5781  130.8357  149.8484 LP  0  0  0  0  0  0  0  0  0  0  0  0  # atno 17370 bound_to 10713
  156.0402  130.3741  150.1456 LP  0  0  0  0  0  0  0  0  0  0  0  0  # atno 17371 bound_to 10713
  141.2217  133.6953  156.7752 LP  0  0  0  0  0  0  0  0  0  0  0  0  # atno 17394 bound_to 11000
  140.2385  134.8632  157.3549 LP  0  0  0  0  0  0  0  0  0  0  0  0  # atno 17395 bound_to 11000

$$$$
