AV-unprocessed.smi:2078|AV-procd|sdf|8467|dock4
  -GOLD-   2272011163D 1   1.00000     0.00000
 Structure written by MMmdl.
 41 42  0  0  0  0  0  0  0  0  3 V2000
  145.4709  134.2143  159.6945 C   0  0  0  0  0  0  0  0  0  0  0  0
  146.6599  135.1041  159.8215 C   0  0  0  0  0  0  0  0  0  0  0  0
  147.9288  135.0340  159.3207 C   0  0  0  0  0  0  0  0  0  0  0  0
  148.5466  136.2062  159.8356 C   0  0  0  0  0  0  0  0  0  0  0  0
  149.8110  136.5958  159.6107 N   0  5  0  0  0  0  0  0  0  0  0  0
  150.1088  137.3496  158.5283 C   0  0  0  0  0  0  0  0  0  0  0  0
  149.5439  137.3142  157.4323 O   0  0  0  0  0  0  0  0  0  0  0  0
  151.1286  138.1971  158.7259 N   0  0  0  0  0  0  0  0  0  0  0  0
  151.6709  139.1180  157.7344 C   0  0  0  0  0  0  0  0  0  0  0  0
  150.8831  140.4413  157.7116 C   0  0  0  0  0  0  0  0  0  0  0  0
  151.6015  141.5369  158.4085 N   0  3  1  0  0  0  0  0  0  0  0  0
  150.7954  142.7831  158.4725 C   0  0  0  0  0  0  0  0  0  0  0  0
  151.6085  143.9394  159.0764 C   0  0  0  0  0  0  0  0  0  0  0  0
  152.1470  143.5671  160.4634 C   0  0  0  0  0  0  0  0  0  0  0  0
  152.9549  142.2605  160.3886 C   0  0  1  0  0  0  0  0  0  0  0  0
  153.4829  141.8479  161.7699 C   0  0  0  0  0  0  0  0  0  0  0  0
  152.1046  141.1422  159.7522 C   0  0  0  0  0  0  0  0  0  0  0  0
  147.7210  136.9319  160.5709 N   0  0  0  0  0  0  0  0  0  0  0  0
  146.5098  136.2294  160.5709 O   0  0  0  0  0  0  0  0  0  0  0  0
  144.9720  134.3728  158.7385 H   0  0  0  0  0  0  0  0  0  0  0  0
  144.7498  134.4071  160.4891 H   0  0  0  0  0  0  0  0  0  0  0  0
  145.7648  133.1662  159.7536 H   0  0  0  0  0  0  0  0  0  0  0  0
  148.3498  134.2656  158.6900 H   0  0  0  0  0  0  0  0  0  0  0  0
  151.5618  138.1957  159.6381 H   0  0  0  0  0  0  0  0  0  0  0  0
  152.7295  139.2800  157.9384 H   0  0  0  0  0  0  0  0  0  0  0  0
  151.6143  138.6351  156.7587 H   0  0  0  0  0  0  0  0  0  0  0  0
  150.7250  140.7174  156.6680 H   0  0  0  0  0  0  0  0  0  0  0  0
  149.8907  140.3201  158.1488 H   0  0  0  0  0  0  0  0  0  0  0  0
  150.4688  143.0636  157.4705 H   0  0  0  0  0  0  0  0  0  0  0  0
  149.8948  142.6056  159.0626 H   0  0  0  0  0  0  0  0  0  0  0  0
  152.4391  144.1887  158.4147 H   0  0  0  0  0  0  0  0  0  0  0  0
  150.9888  144.8340  159.1455 H   0  0  0  0  0  0  0  0  0  0  0  0
  152.7683  144.3761  160.8496 H   0  0  0  0  0  0  0  0  0  0  0  0
  151.3154  143.4523  161.1603 H   0  0  0  0  0  0  0  0  0  0  0  0
  153.8191  142.4339  159.7453 H   0  0  0  0  0  0  0  0  0  0  0  0
  152.6658  141.6576  162.4666 H   0  0  0  0  0  0  0  0  0  0  0  0
  154.1114  142.6285  162.1995 H   0  0  0  0  0  0  0  0  0  0  0  0
  154.0834  140.9400  161.7063 H   0  0  0  0  0  0  0  0  0  0  0  0
  151.2593  140.8972  160.3979 H   0  0  0  0  0  0  0  0  0  0  0  0
  152.7095  140.2395  159.6746 H   0  0  0  0  0  0  0  0  0  0  0  0
  152.4086  141.7529  157.8411 H   0  0  0  0  0  0  0  0  0  0  0  0
  1  2  1  0  0  0  0
  1 20  1  0  0  0  0
  1 21  1  0  0  0  0
  1 22  1  0  0  0  0
  2 19  1  0  0  0  0
  2  3  2  0  0  0  0
  3  4  1  0  0  0  0
  3 23  1  0  0  0  0
  4  5  1  0  0  0  0
  4 18  2  0  0  0  0
  5  6  1  0  0  0  0
  6  7  2  0  0  0  0
  6  8  1  0  0  0  0
  8  9  1  0  0  0  0
  8 24  1  0  0  0  0
  9 10  1  0  0  0  0
  9 25  1  0  0  0  0
  9 26  1  0  0  0  0
 10 11  1  0  0  0  0
 10 27  1  0  0  0  0
 10 28  1  0  0  0  0
 11 17  1  0  0  0  0
 11 12  1  0  0  0  0
 11 41  1  0  0  0  0
 12 13  1  0  0  0  0
 12 29  1  0  0  0  0
 12 30  1  0  0  0  0
 13 14  1  0  0  0  0
 13 31  1  0  0  0  0
 13 32  1  0  0  0  0
 14 15  1  0  0  0  0
 14 33  1  0  0  0  0
 14 34  1  0  0  0  0
 15 16  1  0  0  0  0
 15 17  1  0  0  0  0
 15 35  1  0  0  0  0
 16 36  1  0  0  0  0
 16 37  1  0  0  0  0
 16 38  1  0  0  0  0
 17 39  1  0  0  0  0
 17 40  1  0  0  0  0
 18 19  1  0  0  0  0
M  CHG  1   5  -1
M  CHG  1  11   1
M  END
> <s_m_source_file>
AV-unprocessed.smi

> <i_m_source_file_index>
2078

> <i_lp_mmshare_version>
43012

> <i_f3d_flags>
0

> <s_epik_input>
W0NIM11jMVtjSF1jKG5vMSlbTkhdQyg9TylbTkhdW0NIMl1bQ0gyXU4yW0NIMl1bQ0gyXVtDSDJdW0NAQEhdKFtDSDNdKVtDSDJdMg==

> <s_epik_cmdline>
J2VwaWtfcHl0aG9uJywgJy1waCcsICc3LjAnLCAnLXRuJywgJzgnLCAnLW1hJywgJzIwMCcsICctbWV0YWxfYmluZGluZycsICctaW1hZScsICc8aW5maWxlLm1hZT4nLCAnLW9tYWUnLCAnPG91dGZpbGUubWFlPic=

> <r_epik_Ionization_Penalty>
6.22434

> <r_epik_Ionization_Penalty_Charging>
6.22425

> <r_epik_Ionization_Penalty_Neutral>
9.37855e-05

> <r_epik_State_Penalty>
6.22423

> <r_epik_Charging_Adjusted_Penalty>
12.4485

> <i_epik_Tot_Q>
0

> <i_epik_Tot_abs_Q>
2

> <r_epik_Metal_State_Penalty>
2.16764

> <b_epik_Metal_Only>
1

> <s_lp_Force_Field>
OPLS_2005

> <r_lp_Energy>
3.15807

> <b_lp_Chiralities_Consistent>
1

> <s_lp_Variant>
AV-unprocessed.smi:2078-5

> <Gold.Version>
5.8.1

> <Gold.Id.Protein>
6NUR|6NUR_protein|mol2

> <Gold.PLP.Fitness>
40.4959

> <Gold.PLP.PLP>
-32.0788

> <Gold.PLP.part.hbond>
-3.1174

> <Gold.PLP.part.metal>
0.0000

> <Gold.PLP.part.buried>
-5.0658

> <Gold.PLP.part.nonpolar>
-25.0907

> <Gold.PLP.part.repulsive>
0.2176

> <Gold.PLP.ligand.clash>
0.0000

> <Gold.PLP.ligand.torsion>
1.4736

> <Gold.PLP.Chemscore.Hbond>
3.7760

> <Gold.PLP.Chemscore.CHOScore>
0.0000

> <Gold.PLP.Chemscore.Metal>
0.0000

> <Gold.Chemscore.Hbonds>
donor molecule, donor type, donor heavy atom, donor atom, acceptor molecule, acceptor atom, score
      P1  H  6896  6907       L1     5  2.00
      P1  H  6931  6943       L1    18  0.31
      P1  H  6934  6947       L1    18  0.58

> <Gold.PLP.Chemscore.Internal.Correction>
0.0363

> <Gold.Rescore>
     Score         DG    S(hbond)    S(metal)    S(lipo)     H(rot)  DE(clash)    DE(int)     intcor
     15.69     -17.24       1.83        0.00      81.97       1.54       0.03       1.52       ----

> <Gold.Chemscore.Fitness>
15.6918

> <Gold.Chemscore.DG>
-17.2447

> <Gold.Chemscore.ZeroCoef>
-5.4800

> <Gold.Chemscore.Hbond>
1.8320

> <Gold.Chemscore.Metal>
0.0000

> <Gold.Chemscore.Lipo>
81.9685

> <Gold.Chemscore.Internal_Hbond>
0.0000

> <Gold.Chemscore.DEClash>
0.0285

> <Gold.Chemscore.DEInternal>
1.5244

> <Gold.Chemscore.Rot>
1.5409

> <Gold.Chemscore.Internal.Correction>
   9.000000E+99

> <Gold.Chemscore.Hbonds>
donor molecule, donor type, donor heavy atom, donor atom, acceptor molecule, acceptor atom, score
      P1  H  6896  6907       L1     5  0.58
      P1  H  6931  6943       L1    18  0.18
      P1  H  6934  6947       L1    18  0.30

> <Gold.Chemscore.Hbond.Weighted>
-6.1190

> <Gold.Chemscore.Metal.Weighted>
-0.0000

> <Gold.Chemscore.Lipo.Weighted>
-9.5903

> <Gold.Chemscore.Internal_Hbond.Weighted>
0.0000

> <Gold.Chemscore.DEClash.Weighted>
0.0285

> <Gold.Chemscore.DEInternal.Weighted>
1.5244

> <Gold.Chemscore.Rot.Weighted>
3.9446

> <Gold.Chemscore.Internal.Correction.Weighted>
   9.000000E+99

> <Gold.Protein.RotatedTorsions>
[ 6907 6896 6895 6894 ] final  -33.32 input  -60.11 | X-H torsion
[ 7974 7965 7964 7962 ] final   26.13 input  175.53 | X-H torsion
[ 8008 7997 7996 7995 ] final    3.03 input   59.86 | X-H torsion
[ 10167 10162 10161 10158 ] final -129.78 input  -65.29 | X-H torsion
[ 10718 10713 10712 10709 ] final  178.11 input   66.30 | X-H torsion
[ 10763 10752 10751 10750 ] final    1.74 input  -60.55 | X-H torsion
[ 11005 11000 10999 10996 ] final -169.34 input  -57.11 | X-H torsion

> <Gold.Protein.ActiveResidues>
 VAL166  LYS551  ARG553  GLY616  TRP617  ASP618  TYR619  PRO620  LYS621  CYS622 
 ASP623  PHE694  ASN695  SER759  ASP760  ASP761  ALA762  ILE779  LEU786  VAL792 
 PHE793  MET794  SER795  GLU796  ALA797  LYS798  CYS799  TRP800  GLU811  SER814 

> <Gold.Protein.RotatedAtoms>
  151.0672  134.9775  159.8290 H   0  0  0  0  0  0  0  0  0  0  0  0  # atno 6907 bound_to 6896
  152.5403  134.2344  159.8847 H   0  0  0  0  0  0  0  0  0  0  0  0  # atno 6908 bound_to 6896
  151.2367  133.4378  159.2639 H   0  0  0  0  0  0  0  0  0  0  0  0  # atno 6909 bound_to 6896
  146.1853  139.7370  142.8871 H   0  0  0  0  0  0  0  0  0  0  0  0  # atno 7974 bound_to 7965
  154.6988  140.2668  155.6740 H   0  0  0  0  0  0  0  0  0  0  0  0  # atno 8008 bound_to 7997
  156.2757  140.2776  156.1514 H   0  0  0  0  0  0  0  0  0  0  0  0  # atno 8009 bound_to 7997
  155.0794  140.0372  157.2624 H   0  0  0  0  0  0  0  0  0  0  0  0  # atno 8010 bound_to 7997
  139.9362  143.6215  152.2516 H   0  0  0  0  0  0  0  0  0  0  0  0  # atno 10167 bound_to 10162
  156.8954  130.9861  151.3043 H   0  0  0  0  0  0  0  0  0  0  0  0  # atno 10718 bound_to 10713
  153.3042  135.6958  153.7175 H   0  0  0  0  0  0  0  0  0  0  0  0  # atno 10763 bound_to 10752
  153.6077  135.3450  155.2968 H   0  0  0  0  0  0  0  0  0  0  0  0  # atno 10764 bound_to 10752
  154.8559  135.4356  154.2162 H   0  0  0  0  0  0  0  0  0  0  0  0  # atno 10765 bound_to 10752
  140.5319  134.5608  157.5077 H   0  0  0  0  0  0  0  0  0  0  0  0  # atno 11005 bound_to 11000
  145.3956  141.0378  143.3099 LP  0  0  0  0  0  0  0  0  0  0  0  0  # atno 17320 bound_to 7965
  144.8387  139.5508  143.6910 LP  0  0  0  0  0  0  0  0  0  0  0  0  # atno 17321 bound_to 7965
  139.6741  144.7659  151.1728 LP  0  0  0  0  0  0  0  0  0  0  0  0  # atno 17342 bound_to 10162
  140.7624  143.5821  150.8884 LP  0  0  0  0  0  0  0  0  0  0  0  0  # atno 17343 bound_to 10162
  157.6058  130.8546  149.8874 LP  0  0  0  0  0  0  0  0  0  0  0  0  # atno 17370 bound_to 10713
  156.0608  130.3700  150.0986 LP  0  0  0  0  0  0  0  0  0  0  0  0  # atno 17371 bound_to 10713
  139.9550  134.7551  156.0363 LP  0  0  0  0  0  0  0  0  0  0  0  0  # atno 17394 bound_to 11000
  141.1276  133.6595  156.3379 LP  0  0  0  0  0  0  0  0  0  0  0  0  # atno 17395 bound_to 11000

$$$$
