AV-unprocessed.smi:1013|AV-procd|sdf|4427|dock7
  -GOLD-   22720 2383D 1   1.00000     0.00000
 Structure written by MMmdl.
 30 31  0  0  0  0  0  0  0  0  3 V2000
  151.8342  139.3433  157.4765 O   0  0  0  0  0  0  0  0  0  0  0  0
  151.6179  139.8831  156.3696 C   0  0  0  0  0  0  0  0  0  0  0  0
  152.4239  139.9088  155.4115 O   0  5  0  0  0  0  0  0  0  0  0  0
  150.2465  140.5514  156.1732 C   0  0  1  0  0  0  0  0  0  0  0  0
  150.4323  142.0671  155.9227 C   0  0  0  0  0  0  0  0  0  0  0  0
  151.0520  142.7639  157.0386 N   0  0  0  0  0  0  0  0  0  0  0  0
  151.1866  144.1230  157.2234 C   0  0  0  0  0  0  0  0  0  0  0  0
  151.8591  144.3098  158.3967 C   0  0  0  0  0  0  0  0  0  0  0  0
  152.1156  142.9881  158.8637 C   0  0  0  0  0  0  0  0  0  0  0  0
  152.8323  142.5618  160.1178 C   0  0  0  0  0  0  0  0  0  0  0  0
  152.3544  143.2319  161.1661 F   0  0  0  0  0  0  0  0  0  0  0  0
  152.6606  141.2568  160.3274 F   0  0  0  0  0  0  0  0  0  0  0  0
  154.1368  142.8093  160.0002 F   0  0  0  0  0  0  0  0  0  0  0  0
  151.6348  142.0681  158.0386 N   0  0  0  0  0  0  0  0  0  0  0  0
  149.5402  139.9153  155.0376 N   0  3  0  0  0  0  0  0  0  0  0  0
  148.5861  140.7942  154.3296 C   0  0  0  0  0  0  0  0  0  0  0  0
  147.2813  141.0034  155.0597 C   0  0  0  0  0  0  0  0  0  0  0  0
  147.3454  140.0664  153.8726 C   0  0  0  0  0  0  0  0  0  0  0  0
  149.6464  140.4166  157.0757 H   0  0  0  0  0  0  0  0  0  0  0  0
  151.0553  142.2296  155.0418 H   0  0  0  0  0  0  0  0  0  0  0  0
  149.4729  142.5451  155.7171 H   0  0  0  0  0  0  0  0  0  0  0  0
  150.7961  144.8375  156.5136 H   0  0  0  0  0  0  0  0  0  0  0  0
  152.1334  145.2503  158.8511 H   0  0  0  0  0  0  0  0  0  0  0  0
  150.2406  139.6281  154.3698 H   0  0  0  0  0  0  0  0  0  0  0  0
  149.0151  141.5663  153.6935 H   0  0  0  0  0  0  0  0  0  0  0  0
  147.1689  140.5601  156.0477 H   0  0  0  0  0  0  0  0  0  0  0  0
  146.7772  141.9575  154.9189 H   0  0  0  0  0  0  0  0  0  0  0  0
  146.8768  140.4013  152.9494 H   0  0  0  0  0  0  0  0  0  0  0  0
  147.2703  138.9988  154.0713 H   0  0  0  0  0  0  0  0  0  0  0  0
  149.0569  139.0965  155.3781 H   0  0  0  0  0  0  0  0  0  0  0  0
  1  2  2  0  0  0  0
  2  3  1  0  0  0  0
  2  4  1  0  0  0  0
  4  5  1  0  0  0  0
  4 15  1  0  0  0  0
  4 19  1  0  0  0  0
  5  6  1  0  0  0  0
  5 20  1  0  0  0  0
  5 21  1  0  0  0  0
  6 14  1  0  0  0  0
  6  7  1  0  0  0  0
  7  8  2  0  0  0  0
  7 22  1  0  0  0  0
  8  9  1  0  0  0  0
  8 23  1  0  0  0  0
  9 10  1  0  0  0  0
  9 14  2  0  0  0  0
 10 11  1  0  0  0  0
 10 12  1  0  0  0  0
 10 13  1  0  0  0  0
 15 16  1  0  0  0  0
 15 24  1  0  0  0  0
 15 30  1  0  0  0  0
 16 18  1  0  0  0  0
 16 17  1  0  0  0  0
 16 25  1  0  0  0  0
 17 18  1  0  0  0  0
 17 26  1  0  0  0  0
 17 27  1  0  0  0  0
 18 28  1  0  0  0  0
 18 29  1  0  0  0  0
M  CHG  1   3  -1
M  CHG  1  15   1
M  END
> <s_m_source_file>
AV-unprocessed.smi

> <i_m_source_file_index>
1013

> <i_lp_mmshare_version>
43012

> <i_f3d_flags>
0

> <s_epik_input>
W0NIMl0xW0NIMl1bQ0hdMVtOSF1bQ0BIXShDKD1PKVtPSF0pW0NIMl1uMltjSF1bY0hdYyhuMilDKEYpKEYpRg==

> <s_epik_cmdline>
J2VwaWtfcHl0aG9uJywgJy1waCcsICc3LjAnLCAnLXRuJywgJzgnLCAnLW1hJywgJzIwMCcsICctbWV0YWxfYmluZGluZycsICctaW1hZScsICc8aW5maWxlLm1hZT4nLCAnLW9tYWUnLCAnPG91dGZpbGUubWFlPic=

> <r_lp_tautomer_probability>
1

> <r_epik_Ionization_Penalty>
0.183175

> <r_epik_Ionization_Penalty_Charging>
0.183175

> <r_epik_Ionization_Penalty_Neutral>
3.57035e-11

> <r_epik_State_Penalty>
0.172705

> <r_epik_Charging_Adjusted_Penalty>
0.35588

> <i_epik_Tot_Q>
0

> <i_epik_Tot_abs_Q>
2

> <r_epik_Metal_State_Penalty>
0.172705

> <b_epik_Metal_Only>
0

> <s_lp_Force_Field>
OPLS_2005

> <r_lp_Energy>
10.483

> <b_lp_Chiralities_Consistent>
1

> <s_lp_Variant>
AV-unprocessed.smi:1013-2

> <Gold.Version>
5.8.1

> <Gold.Id.Protein>
6NUR|6NUR_protein|mol2

> <Gold.PLP.Fitness>
47.1871

> <Gold.PLP.PLP>
-38.5754

> <Gold.PLP.part.hbond>
-2.0000

> <Gold.PLP.part.metal>
0.0000

> <Gold.PLP.part.buried>
-1.6862

> <Gold.PLP.part.nonpolar>
-34.4357

> <Gold.PLP.part.repulsive>
0.1612

> <Gold.PLP.ligand.clash>
0.0143

> <Gold.PLP.ligand.torsion>
1.1491

> <Gold.PLP.Chemscore.Hbond>
2.5285

> <Gold.PLP.Chemscore.CHOScore>
0.8640

> <Gold.PLP.Chemscore.Metal>
0.0000

> <Gold.Chemscore.Hbonds>
donor molecule, donor type, donor heavy atom, donor atom, acceptor molecule, acceptor atom, score
      P1  H  7989  7998       L1     3  0.28
      P1  H  7997  8010       L1     3  1.72
      L1  C     7    22       P1  8028  0.91

> <Gold.PLP.Chemscore.Internal.Correction>
0.7465

> <Gold.Rescore>
     Score         DG    S(hbond)    S(metal)    S(lipo)     H(rot)  DE(clash)    DE(int)     intcor
      7.20     -12.09       1.18        0.00      79.68       2.60       0.96       3.93       ----

> <Gold.Chemscore.Fitness>
7.2019

> <Gold.Chemscore.DG>
-12.0926

> <Gold.Chemscore.ZeroCoef>
-5.4800

> <Gold.Chemscore.Hbond>
1.1792

> <Gold.Chemscore.Metal>
0.0000

> <Gold.Chemscore.Lipo>
79.6788

> <Gold.Chemscore.Internal_Hbond>
0.0000

> <Gold.Chemscore.DEClash>
0.9586

> <Gold.Chemscore.DEInternal>
3.9321

> <Gold.Chemscore.Rot>
2.5970

> <Gold.Chemscore.Internal.Correction>
   9.000000E+99

> <Gold.Chemscore.Hbonds>
donor molecule, donor type, donor heavy atom, donor atom, acceptor molecule, acceptor atom, score
      P1  H  7989  7998       L1     3  0.27
      P1  H  7997  8010       L1     3  0.76

> <Gold.Chemscore.Hbond.Weighted>
-3.9386

> <Gold.Chemscore.Metal.Weighted>
-0.0000

> <Gold.Chemscore.Lipo.Weighted>
-9.3224

> <Gold.Chemscore.Internal_Hbond.Weighted>
0.0000

> <Gold.Chemscore.DEClash.Weighted>
0.9586

> <Gold.Chemscore.DEInternal.Weighted>
3.9321

> <Gold.Chemscore.Rot.Weighted>
6.6484

> <Gold.Chemscore.Internal.Correction.Weighted>
   9.000000E+99

> <Gold.Protein.RotatedTorsions>
[ 6907 6896 6895 6894 ] final  125.07 input  -60.11 | X-H torsion
[ 7974 7965 7964 7962 ] final    8.76 input  175.53 | X-H torsion
[ 8008 7997 7996 7995 ] final  100.47 input   59.86 | X-H torsion
[ 10167 10162 10161 10158 ] final  108.98 input  -65.29 | X-H torsion
[ 10718 10713 10712 10709 ] final  124.83 input   66.30 | X-H torsion
[ 10763 10752 10751 10750 ] final -167.75 input  -60.55 | X-H torsion
[ 11005 11000 10999 10996 ] final   18.64 input  -57.11 | X-H torsion

> <Gold.Protein.ActiveResidues>
 VAL166  LYS551  ARG553  GLY616  TRP617  ASP618  TYR619  PRO620  LYS621  CYS622 
 ASP623  PHE694  ASN695  SER759  ASP760  ASP761  ALA762  ILE779  LEU786  VAL792 
 PHE793  MET794  SER795  GLU796  ALA797  LYS798  CYS799  TRP800  GLU811  SER814 

> <Gold.Protein.RotatedAtoms>
  152.4023  133.6837  159.6326 H   0  0  0  0  0  0  0  0  0  0  0  0  # atno 6907 bound_to 6896
  150.7913  133.8769  159.3283 H   0  0  0  0  0  0  0  0  0  0  0  0  # atno 6908 bound_to 6896
  151.6532  135.1000  160.0216 H   0  0  0  0  0  0  0  0  0  0  0  0  # atno 6909 bound_to 6896
  146.2412  139.9885  142.8428 H   0  0  0  0  0  0  0  0  0  0  0  0  # atno 7974 bound_to 7965
  156.1206  140.3213  155.8203 H   0  0  0  0  0  0  0  0  0  0  0  0  # atno 8008 bound_to 7997
  155.4510  140.0532  157.3018 H   0  0  0  0  0  0  0  0  0  0  0  0  # atno 8009 bound_to 7997
  154.4825  140.2059  155.9744 H   0  0  0  0  0  0  0  0  0  0  0  0  # atno 8010 bound_to 7997
  139.6803  144.7119  151.1527 H   0  0  0  0  0  0  0  0  0  0  0  0  # atno 10167 bound_to 10162
  157.5553  131.1092  150.8632 H   0  0  0  0  0  0  0  0  0  0  0  0  # atno 10718 bound_to 10713
  154.6700  135.2938  154.9754 H   0  0  0  0  0  0  0  0  0  0  0  0  # atno 10763 bound_to 10752
  154.0785  135.6608  153.4838 H   0  0  0  0  0  0  0  0  0  0  0  0  # atno 10764 bound_to 10752
  153.0481  135.5191  154.7691 H   0  0  0  0  0  0  0  0  0  0  0  0  # atno 10765 bound_to 10752
  140.4226  134.1503  155.7674 H   0  0  0  0  0  0  0  0  0  0  0  0  # atno 11005 bound_to 11000
  145.1525  140.9630  143.4424 LP  0  0  0  0  0  0  0  0  0  0  0  0  # atno 17320 bound_to 7965
  145.0191  139.3440  143.6081 LP  0  0  0  0  0  0  0  0  0  0  0  0  # atno 17321 bound_to 7965
  140.7650  143.5709  150.8997 LP  0  0  0  0  0  0  0  0  0  0  0  0  # atno 17342 bound_to 10162
  139.9381  143.6414  152.3060 LP  0  0  0  0  0  0  0  0  0  0  0  0  # atno 17343 bound_to 10162
  156.9146  130.5293  149.5280 LP  0  0  0  0  0  0  0  0  0  0  0  0  # atno 17370 bound_to 10713
  156.0613  130.5665  150.9198 LP  0  0  0  0  0  0  0  0  0  0  0  0  # atno 17371 bound_to 10713
  141.1778  133.8478  157.1362 LP  0  0  0  0  0  0  0  0  0  0  0  0  # atno 17394 bound_to 11000
  140.0190  134.9954  157.0552 LP  0  0  0  0  0  0  0  0  0  0  0  0  # atno 17395 bound_to 11000

$$$$
