AV-unprocessed.smi:34|AV-procd|sdf|245|dock5
  -GOLD-   2262016 03D 1   1.00000     0.00000
 Structure written by MMmdl.
 54 58  0  0  0  0  0  0  0  0  2 V2000
  153.4309  141.9041  162.1179 O   0  0  0  0  0  0  0  0  0  0  0  0
  153.6111  142.1889  160.9320 C   0  0  0  0  0  0  0  0  0  0  0  0
  154.2906  141.4765  159.9977 N   0  5  0  0  0  0  0  0  0  0  0  0
  153.6628  140.5209  159.2957 C   0  0  0  0  0  0  0  0  0  0  0  0
  154.2497  139.3122  159.1039 N   0  0  0  0  0  0  0  0  0  0  0  0
  153.6162  138.3556  158.4156 C   0  0  0  0  0  0  0  0  0  0  0  0
  152.4074  138.3903  157.8473 N   0  0  0  0  0  0  0  0  0  0  0  0
  151.8033  139.6001  158.0345 C   0  0  0  0  0  0  0  0  0  0  0  0
  152.3637  140.7013  158.7462 C   0  0  0  0  0  0  0  0  0  0  0  0
  151.4882  141.7769  158.7607 N   0  0  0  0  0  0  0  0  0  0  0  0
  150.4584  141.2930  158.0709 C   0  0  0  0  0  0  0  0  0  0  0  0
  150.5565  140.0314  157.6062 N   0  0  0  0  0  0  0  0  0  0  0  0
  149.5311  139.2832  156.8110 C   0  0  2  0  0  0  0  0  0  0  0  0
  149.2498  138.0830  157.4656 O   0  0  0  0  0  0  0  0  0  0  0  0
  149.1298  137.0463  156.4997 C   0  0  2  0  0  0  0  0  0  0  0  0
  149.3281  135.6708  157.1501 C   0  0  0  0  0  0  0  0  0  0  0  0
  148.4785  135.5538  158.2803 O   0  0  0  0  0  0  0  0  0  0  0  0
  148.8888  136.0081  159.4810 C   0  0  0  0  0  0  0  0  0  0  0  0
  149.8918  136.7074  159.6388 O   0  0  0  0  0  0  0  0  0  0  0  0
  147.9986  135.5822  160.5995 C   0  0  0  0  0  0  0  0  0  0  0  0
  147.1595  134.4564  160.4268 C   0  0  0  0  0  0  0  0  0  0  0  0
  146.3113  134.0272  161.4660 C   0  0  0  0  0  0  0  0  0  0  0  0
  146.2905  134.7197  162.6907 C   0  0  0  0  0  0  0  0  0  0  0  0
  147.1183  135.8427  162.8743 C   0  0  0  0  0  0  0  0  0  0  0  0
  147.9680  136.2729  161.8363 C   0  0  0  0  0  0  0  0  0  0  0  0
  150.1615  137.4238  155.4348 C   0  0  2  0  0  0  0  0  0  0  0  0
  151.3820  137.0792  155.8511 F   0  0  0  0  0  0  0  0  0  0  0  0
  150.0049  138.9366  155.3826 C   0  0  2  0  0  0  0  0  0  0  0  0
  151.1833  139.5887  154.9430 O   0  0  0  0  0  0  0  0  0  0  0  0
  152.9729  143.4355  160.3798 C   0  0  0  0  0  0  0  0  0  0  0  0
  153.2797  143.8568  159.0657 C   0  0  0  0  0  0  0  0  0  0  0  0
  152.6728  145.0057  158.5216 C   0  0  0  0  0  0  0  0  0  0  0  0
  151.7445  145.7403  159.2829 C   0  0  0  0  0  0  0  0  0  0  0  0
  151.4205  145.3228  160.5873 C   0  0  0  0  0  0  0  0  0  0  0  0
  152.0272  144.1743  161.1321 C   0  0  0  0  0  0  0  0  0  0  0  0
  154.1551  137.4263  158.3067 H   0  0  0  0  0  0  0  0  0  0  0  0
  149.5793  141.8937  157.8902 H   0  0  0  0  0  0  0  0  0  0  0  0
  148.6551  139.9335  156.8170 H   0  0  0  0  0  0  0  0  0  0  0  0
  148.1266  137.1094  156.0737 H   0  0  0  0  0  0  0  0  0  0  0  0
  149.1271  134.8709  156.4362 H   0  0  0  0  0  0  0  0  0  0  0  0
  150.3653  135.5656  157.4709 H   0  0  0  0  0  0  0  0  0  0  0  0
  147.1592  133.9080  159.4958 H   0  0  0  0  0  0  0  0  0  0  0  0
  145.6766  133.1651  161.3229 H   0  0  0  0  0  0  0  0  0  0  0  0
  145.6403  134.3901  163.4878 H   0  0  0  0  0  0  0  0  0  0  0  0
  147.1019  136.3758  163.8137 H   0  0  0  0  0  0  0  0  0  0  0  0
  148.5900  137.1387  162.0105 H   0  0  0  0  0  0  0  0  0  0  0  0
  149.9914  136.9368  154.4742 H   0  0  0  0  0  0  0  0  0  0  0  0
  149.1911  139.1896  154.7018 H   0  0  0  0  0  0  0  0  0  0  0  0
  151.8791  138.9518  154.8874 H   0  0  0  0  0  0  0  0  0  0  0  0
  153.9884  143.3022  158.4674 H   0  0  0  0  0  0  0  0  0  0  0  0
  152.9193  145.3214  157.5188 H   0  0  0  0  0  0  0  0  0  0  0  0
  151.2782  146.6205  158.8658 H   0  0  0  0  0  0  0  0  0  0  0  0
  150.7034  145.8811  161.1705 H   0  0  0  0  0  0  0  0  0  0  0  0
  151.7560  143.8645  162.1311 H   0  0  0  0  0  0  0  0  0  0  0  0
  1  2  2  0  0  0  0
  2  3  1  0  0  0  0
  2 30  1  0  0  0  0
  3  4  1  0  0  0  0
  4  9  1  0  0  0  0
  4  5  2  0  0  0  0
  5  6  1  0  0  0  0
  6  7  2  0  0  0  0
  6 36  1  0  0  0  0
  7  8  1  0  0  0  0
  8 12  1  0  0  0  0
  8  9  2  0  0  0  0
  9 10  1  0  0  0  0
 10 11  2  0  0  0  0
 11 12  1  0  0  0  0
 11 37  1  0  0  0  0
 12 13  1  0  0  0  0
 13 28  1  0  0  0  0
 13 14  1  0  0  0  0
 13 38  1  0  0  0  0
 14 15  1  0  0  0  0
 15 16  1  0  0  0  0
 15 26  1  0  0  0  0
 15 39  1  0  0  0  0
 16 17  1  0  0  0  0
 16 40  1  0  0  0  0
 16 41  1  0  0  0  0
 17 18  1  0  0  0  0
 18 19  2  0  0  0  0
 18 20  1  0  0  0  0
 20 25  1  0  0  0  0
 20 21  2  0  0  0  0
 21 22  1  0  0  0  0
 21 42  1  0  0  0  0
 22 23  2  0  0  0  0
 22 43  1  0  0  0  0
 23 24  1  0  0  0  0
 23 44  1  0  0  0  0
 24 25  2  0  0  0  0
 24 45  1  0  0  0  0
 25 46  1  0  0  0  0
 26 27  1  0  0  0  0
 26 28  1  0  0  0  0
 26 47  1  0  0  0  0
 28 29  1  0  0  0  0
 28 48  1  0  0  0  0
 29 49  1  0  0  0  0
 30 35  1  0  0  0  0
 30 31  2  0  0  0  0
 31 32  1  0  0  0  0
 31 50  1  0  0  0  0
 32 33  2  0  0  0  0
 32 51  1  0  0  0  0
 33 34  1  0  0  0  0
 33 52  1  0  0  0  0
 34 35  2  0  0  0  0
 34 53  1  0  0  0  0
 35 54  1  0  0  0  0
M  CHG  1   3  -1
M  END
> <s_m_source_file>
AV-unprocessed.smi

> <i_m_source_file_index>
34

> <i_lp_mmshare_version>
43012

> <i_f3d_flags>
0

> <s_epik_input>
W2NIXTFbY0hdW2NIXVtjSF1bY0hdYzFDKD1PKVtOSF1jKG5bY0hdbjIpYyhjMjMpbltjSF1uM1tDQEBIXTRPW0NASF0oW0NAQEhdKEYpW0NASF00W09IXSlbQ0gyXU9DKD1PKWM1W2NIXVtjSF1bY0hdW2NIXVtjSF01

> <s_epik_cmdline>
J2VwaWtfcHl0aG9uJywgJy1waCcsICc3LjAnLCAnLXRuJywgJzgnLCAnLW1hJywgJzIwMCcsICctbWV0YWxfYmluZGluZycsICctaW1hZScsICc8aW5maWxlLm1hZT4nLCAnLW9tYWUnLCAnPG91dGZpbGUubWFlPic=

> <r_lp_tautomer_probability>
1

> <r_epik_Ionization_Penalty>
4.33227

> <r_epik_Ionization_Penalty_Charging>
3.41027

> <r_epik_Ionization_Penalty_Neutral>
0.922001

> <r_epik_State_Penalty>
3.41358

> <r_epik_Charging_Adjusted_Penalty>
6.82385

> <i_epik_Tot_Q>
-1

> <i_epik_Tot_abs_Q>
1

> <r_epik_Metal_State_Penalty>
0.496292

> <b_epik_Metal_Only>
1

> <s_epik_Chemistry_Notes>
This compound has an ester and may undergo hydrolysis at high or low pH. This compound contains an acetal/aminal-like group ( X-CH(R)-Y where X, Y are N, S, or O) that may be acid/base labile, releasing an aldehyde.

> <s_lp_Force_Field>
OPLS_2005

> <r_lp_Energy>
53.545

> <b_lp_Chiralities_Consistent>
1

> <s_lp_Variant>
AV-unprocessed.smi:34-31

> <Gold.Version>
5.8.1

> <Gold.Id.Protein>
6NUR|6NUR_protein|mol2

> <Gold.PLP.Fitness>
64.0493

> <Gold.PLP.PLP>
-60.2054

> <Gold.PLP.part.hbond>
-3.0000

> <Gold.PLP.part.metal>
0.0000

> <Gold.PLP.part.buried>
-6.7468

> <Gold.PLP.part.nonpolar>
-51.0841

> <Gold.PLP.part.repulsive>
0.0258

> <Gold.PLP.ligand.clash>
0.0403

> <Gold.PLP.ligand.torsion>
1.7089

> <Gold.PLP.Chemscore.Hbond>
2.2152

> <Gold.PLP.Chemscore.CHOScore>
0.0000

> <Gold.PLP.Chemscore.Metal>
0.0000

> <Gold.Chemscore.Hbonds>
donor molecule, donor type, donor heavy atom, donor atom, acceptor molecule, acceptor atom, score
      P1  H  6896  6909       L1    19  0.59
      P1  H  7989  7998       L1    29  1.00
      P1  H  7997  8009       L1     5  0.24

> <Gold.PLP.Chemscore.Internal.Correction>
0.6564

> <Gold.Rescore>
     Score         DG    S(hbond)    S(metal)    S(lipo)     H(rot)  DE(clash)    DE(int)     intcor
     13.69     -20.60       1.95        0.00     132.53       2.69       0.10       6.81       ----

> <Gold.Chemscore.Fitness>
13.6874

> <Gold.Chemscore.DG>
-20.6003

> <Gold.Chemscore.ZeroCoef>
-5.4800

> <Gold.Chemscore.Hbond>
1.9497

> <Gold.Chemscore.Metal>
0.0000

> <Gold.Chemscore.Lipo>
132.5277

> <Gold.Chemscore.Internal_Hbond>
0.0000

> <Gold.Chemscore.DEClash>
0.1017

> <Gold.Chemscore.DEInternal>
6.8112

> <Gold.Chemscore.Rot>
2.6944

> <Gold.Chemscore.Internal.Correction>
   9.000000E+99

> <Gold.Chemscore.Hbonds>
donor molecule, donor type, donor heavy atom, donor atom, acceptor molecule, acceptor atom, score
      P1  H  6896  6909       L1    19  0.04
      P1  H  7989  7998       L1    29  0.39

> <Gold.Chemscore.Hbond.Weighted>
-6.5121

> <Gold.Chemscore.Metal.Weighted>
-0.0000

> <Gold.Chemscore.Lipo.Weighted>
-15.5057

> <Gold.Chemscore.Internal_Hbond.Weighted>
0.0000

> <Gold.Chemscore.DEClash.Weighted>
0.1017

> <Gold.Chemscore.DEInternal.Weighted>
6.8112

> <Gold.Chemscore.Rot.Weighted>
6.8975

> <Gold.Chemscore.Internal.Correction.Weighted>
   9.000000E+99

> <Gold.Protein.RotatedTorsions>
[ 6907 6896 6895 6894 ] final   92.11 input  -60.11 | X-H torsion
[ 7974 7965 7964 7962 ] final  129.58 input  175.53 | X-H torsion
[ 8008 7997 7996 7995 ] final  104.09 input   59.86 | X-H torsion
[ 10167 10162 10161 10158 ] final  -87.23 input  -65.29 | X-H torsion
[ 10718 10713 10712 10709 ] final  -71.44 input   66.30 | X-H torsion
[ 10763 10752 10751 10750 ] final  -50.43 input  -60.55 | X-H torsion
[ 11005 11000 10999 10996 ] final  105.17 input  -57.11 | X-H torsion

> <Gold.Protein.ActiveResidues>
 VAL166  LYS551  ARG553  GLY616  TRP617  ASP618  TYR619  PRO620  LYS621  CYS622 
 ASP623  PHE694  ASN695  SER759  ASP760  ASP761  ALA762  ILE779  LEU786  VAL792 
 PHE793  MET794  SER795  GLU796  ALA797  LYS798  CYS799  TRP800  GLU811  SER814 

> <Gold.Protein.RotatedAtoms>
  152.5452  134.1553  159.8535 H   0  0  0  0  0  0  0  0  0  0  0  0  # atno 6907 bound_to 6896
  151.1576  133.4859  159.2602 H   0  0  0  0  0  0  0  0  0  0  0  0  # atno 6908 bound_to 6896
  151.1406  135.0188  159.8679 H   0  0  0  0  0  0  0  0  0  0  0  0  # atno 6909 bound_to 6896
  145.0272  139.4079  143.5168 H   0  0  0  0  0  0  0  0  0  0  0  0  # atno 7974 bound_to 7965
  156.1542  140.3154  155.8698 H   0  0  0  0  0  0  0  0  0  0  0  0  # atno 8008 bound_to 7997
  155.3911  140.0493  157.3057 H   0  0  0  0  0  0  0  0  0  0  0  0  # atno 8009 bound_to 7997
  154.5086  140.2156  155.9213 H   0  0  0  0  0  0  0  0  0  0  0  0  # atno 8010 bound_to 7997
  140.3865  143.2724  151.9318 H   0  0  0  0  0  0  0  0  0  0  0  0  # atno 10167 bound_to 10162
  156.0363  130.4351  150.2444 H   0  0  0  0  0  0  0  0  0  0  0  0  # atno 10718 bound_to 10713
  154.1102  135.6550  153.4884 H   0  0  0  0  0  0  0  0  0  0  0  0  # atno 10763 bound_to 10752
  153.0259  135.5246  154.7199 H   0  0  0  0  0  0  0  0  0  0  0  0  # atno 10764 bound_to 10752
  154.6377  135.2984  155.0110 H   0  0  0  0  0  0  0  0  0  0  0  0  # atno 10765 bound_to 10752
  139.8799  134.9326  156.5474 H   0  0  0  0  0  0  0  0  0  0  0  0  # atno 11005 bound_to 11000
  146.3494  139.9801  142.8696 LP  0  0  0  0  0  0  0  0  0  0  0  0  # atno 17320 bound_to 7965
  145.1818  140.9771  143.4261 LP  0  0  0  0  0  0  0  0  0  0  0  0  # atno 17321 bound_to 7965
  139.4791  144.5769  151.7997 LP  0  0  0  0  0  0  0  0  0  0  0  0  # atno 17342 bound_to 10162
  140.4884  144.1347  150.5945 LP  0  0  0  0  0  0  0  0  0  0  0  0  # atno 17343 bound_to 10162
  157.0543  131.0071  151.3243 LP  0  0  0  0  0  0  0  0  0  0  0  0  # atno 17370 bound_to 10713
  157.5118  130.7943  149.7713 LP  0  0  0  0  0  0  0  0  0  0  0  0  # atno 17371 bound_to 10713
  140.8265  133.8312  155.8944 LP  0  0  0  0  0  0  0  0  0  0  0  0  # atno 17394 bound_to 11000
  140.9369  134.1951  157.4825 LP  0  0  0  0  0  0  0  0  0  0  0  0  # atno 17395 bound_to 11000

$$$$
