AV-unprocessed.smi:1769|AV-procd|sdf|7152|dock2
  -GOLD-   22720 8393D 1   1.00000     0.00000
 Structure written by MMmdl.
 41 42  0  0  0  0  0  0  0  0  1 V2000
  150.6273  145.2848  160.3283 C   0  0  0  0  0  0  0  0  0  0  0  0
  150.6244  144.2560  159.1953 C   0  0  0  0  0  0  0  0  0  0  0  0
  149.5702  144.0673  158.5879 O   0  0  0  0  0  0  0  0  0  0  0  0
  151.7675  143.5902  158.9025 N   0  0  0  0  0  0  0  0  0  0  0  0
  153.0310  143.7031  159.6424 C   0  0  0  0  0  0  0  0  0  0  0  0
  153.2592  142.4007  160.4309 C   0  0  0  0  0  0  0  0  0  0  0  0
  153.2374  141.1770  159.4940 C   0  0  0  0  0  0  0  0  0  0  0  0
  151.9806  141.1691  158.5917 C   0  0  2  0  0  0  0  0  0  0  0  0
  152.0294  140.0335  157.5622 C   0  0  0  0  0  0  0  0  0  0  0  0
  153.0173  139.3016  157.4926 O   0  0  0  0  0  0  0  0  0  0  0  0
  150.9652  139.9170  156.7515 N   0  0  0  0  0  0  0  0  0  0  0  0
  150.8419  138.9743  155.6421 C   0  0  0  0  0  0  0  0  0  0  0  0
  150.8035  139.6875  154.2763 C   0  0  0  0  0  0  0  0  0  0  0  0
  149.4402  140.2585  153.9259 C   0  0  0  0  0  0  0  0  0  0  0  0
  148.4133  139.4325  153.4233 C   0  0  0  0  0  0  0  0  0  0  0  0
  147.1569  140.0040  153.1466 C   0  0  0  0  0  0  0  0  0  0  0  0
  146.9819  141.3827  153.3795 C   0  0  0  0  0  0  0  0  0  0  0  0
  147.9593  142.1848  153.8537 N   0  0  0  0  0  0  0  0  0  0  0  0
  149.1602  141.6277  154.1202 C   0  0  0  0  0  0  0  0  0  0  0  0
  151.8300  142.5347  157.8844 C   0  0  0  0  0  0  0  0  0  0  0  0
  150.9207  144.8221  161.2712 H   0  0  0  0  0  0  0  0  0  0  0  0
  149.6326  145.7110  160.4636 H   0  0  0  0  0  0  0  0  0  0  0  0
  151.3125  146.1029  160.1054 H   0  0  0  0  0  0  0  0  0  0  0  0
  153.8465  143.8568  158.9345 H   0  0  0  0  0  0  0  0  0  0  0  0
  153.0684  144.5574  160.3168 H   0  0  0  0  0  0  0  0  0  0  0  0
  154.2099  142.4456  160.9627 H   0  0  0  0  0  0  0  0  0  0  0  0
  152.4835  142.2945  161.1902 H   0  0  0  0  0  0  0  0  0  0  0  0
  154.1379  141.1952  158.8780 H   0  0  0  0  0  0  0  0  0  0  0  0
  153.2870  140.2600  160.0825 H   0  0  0  0  0  0  0  0  0  0  0  0
  151.1074  141.0176  159.2295 H   0  0  0  0  0  0  0  0  0  0  0  0
  150.2008  140.5636  156.8834 H   0  0  0  0  0  0  0  0  0  0  0  0
  151.6554  138.2470  155.6612 H   0  0  0  0  0  0  0  0  0  0  0  0
  149.9240  138.4030  155.7812 H   0  0  0  0  0  0  0  0  0  0  0  0
  151.5346  140.4967  154.2659 H   0  0  0  0  0  0  0  0  0  0  0  0
  151.1096  138.9943  153.4919 H   0  0  0  0  0  0  0  0  0  0  0  0
  148.5786  138.3766  153.2665 H   0  0  0  0  0  0  0  0  0  0  0  0
  146.3453  139.3992  152.7697 H   0  0  0  0  0  0  0  0  0  0  0  0
  146.0309  141.8538  153.1796 H   0  0  0  0  0  0  0  0  0  0  0  0
  149.9179  142.2925  154.5080 H   0  0  0  0  0  0  0  0  0  0  0  0
  150.9531  142.5314  157.2353 H   0  0  0  0  0  0  0  0  0  0  0  0
  152.6800  142.7231  157.2262 H   0  0  0  0  0  0  0  0  0  0  0  0
  1  2  1  0  0  0  0
  1 21  1  0  0  0  0
  1 22  1  0  0  0  0
  1 23  1  0  0  0  0
  2  3  2  0  0  0  0
  2  4  1  0  0  0  0
  4 20  1  0  0  0  0
  4  5  1  0  0  0  0
  5  6  1  0  0  0  0
  5 24  1  0  0  0  0
  5 25  1  0  0  0  0
  6  7  1  0  0  0  0
  6 26  1  0  0  0  0
  6 27  1  0  0  0  0
  7  8  1  0  0  0  0
  7 28  1  0  0  0  0
  7 29  1  0  0  0  0
  8  9  1  0  0  0  0
  8 20  1  0  0  0  0
  8 30  1  0  0  0  0
  9 10  2  0  0  0  0
  9 11  1  0  0  0  0
 11 12  1  0  0  0  0
 11 31  1  0  0  0  0
 12 13  1  0  0  0  0
 12 32  1  0  0  0  0
 12 33  1  0  0  0  0
 13 14  1  0  0  0  0
 13 34  1  0  0  0  0
 13 35  1  0  0  0  0
 14 19  1  0  0  0  0
 14 15  2  0  0  0  0
 15 16  1  0  0  0  0
 15 36  1  0  0  0  0
 16 17  2  0  0  0  0
 16 37  1  0  0  0  0
 17 18  1  0  0  0  0
 17 38  1  0  0  0  0
 18 19  2  0  0  0  0
 19 39  1  0  0  0  0
 20 40  1  0  0  0  0
 20 41  1  0  0  0  0
M  END
> <s_m_source_file>
AV-unprocessed.smi

> <i_m_source_file_index>
1769

> <i_lp_mmshare_version>
43012

> <i_f3d_flags>
0

> <s_epik_input>
W0NIM11DKD1PKU4xW0NIMl1bQ0gyXVtDSDJdW0NASF0oW0NIMl0xKUMoPU8pW05IXVtDSDJdW0NIMl1jMltjSF1bY0hdW2NIXW5bY0hdMg==

> <s_epik_cmdline>
J2VwaWtfcHl0aG9uJywgJy1waCcsICc3LjAnLCAnLXRuJywgJzgnLCAnLW1hJywgJzIwMCcsICctbWV0YWxfYmluZGluZycsICctaW1hZScsICc8aW5maWxlLm1hZT4nLCAnLW9tYWUnLCAnPG91dGZpbGUubWFlPic=

> <r_epik_Ionization_Penalty>
0.0134099

> <r_epik_Ionization_Penalty_Charging>
0

> <r_epik_Ionization_Penalty_Neutral>
0.0134099

> <r_epik_State_Penalty>
0.010434

> <r_epik_Charging_Adjusted_Penalty>
0.010434

> <i_epik_Tot_Q>
0

> <i_epik_Tot_abs_Q>
0

> <r_epik_Metal_State_Penalty>
0.0102025

> <b_epik_Metal_Only>
0

> <s_lp_Force_Field>
OPLS_2005

> <r_lp_Energy>
22.8084

> <b_lp_Chiralities_Consistent>
1

> <s_lp_Variant>
AV-unprocessed.smi:1769-2

> <Gold.Version>
5.8.1

> <Gold.Id.Protein>
6NUR|6NUR_protein|mol2

> <Gold.PLP.Fitness>
42.3350

> <Gold.PLP.PLP>
-36.7890

> <Gold.PLP.part.hbond>
-1.0000

> <Gold.PLP.part.metal>
0.0000

> <Gold.PLP.part.buried>
-0.8047

> <Gold.PLP.part.nonpolar>
-35.4280

> <Gold.PLP.part.repulsive>
1.4849

> <Gold.PLP.ligand.clash>
0.0000

> <Gold.PLP.ligand.torsion>
0.4179

> <Gold.PLP.Chemscore.Hbond>
1.0000

> <Gold.PLP.Chemscore.CHOScore>
1.1163

> <Gold.PLP.Chemscore.Metal>
0.0000

> <Gold.Chemscore.Hbonds>
donor molecule, donor type, donor heavy atom, donor atom, acceptor molecule, acceptor atom, score
      P1  H  7997  8009       L1    10  1.00
      L1  C    17    38       P1 10175  0.15
      L1  C    19    39       P1  8028  0.11

> <Gold.PLP.Chemscore.Internal.Correction>
0.0329

> <Gold.Rescore>
     Score         DG    S(hbond)    S(metal)    S(lipo)     H(rot)  DE(clash)    DE(int)     intcor
     16.58     -17.07       0.95        0.00     105.27       1.52       0.02       0.46       ----

> <Gold.Chemscore.Fitness>
16.5840

> <Gold.Chemscore.DG>
-17.0655

> <Gold.Chemscore.ZeroCoef>
-5.4800

> <Gold.Chemscore.Hbond>
0.9467

> <Gold.Chemscore.Metal>
0.0000

> <Gold.Chemscore.Lipo>
105.2650

> <Gold.Chemscore.Internal_Hbond>
0.0000

> <Gold.Chemscore.DEClash>
0.0192

> <Gold.Chemscore.DEInternal>
0.4622

> <Gold.Chemscore.Rot>
1.5205

> <Gold.Chemscore.Internal.Correction>
   9.000000E+99

> <Gold.Chemscore.Hbonds>
donor molecule, donor type, donor heavy atom, donor atom, acceptor molecule, acceptor atom, score
      P1  H  7997  8009       L1    10  0.93

> <Gold.Chemscore.Hbond.Weighted>
-3.1620

> <Gold.Chemscore.Metal.Weighted>
-0.0000

> <Gold.Chemscore.Lipo.Weighted>
-12.3160

> <Gold.Chemscore.Internal_Hbond.Weighted>
0.0000

> <Gold.Chemscore.DEClash.Weighted>
0.0192

> <Gold.Chemscore.DEInternal.Weighted>
0.4622

> <Gold.Chemscore.Rot.Weighted>
3.8926

> <Gold.Chemscore.Internal.Correction.Weighted>
   9.000000E+99

> <Gold.Protein.RotatedTorsions>
[ 6907 6896 6895 6894 ] final  166.61 input  -60.11 | X-H torsion
[ 7974 7965 7964 7962 ] final  -86.62 input  175.53 | X-H torsion
[ 8008 7997 7996 7995 ] final  163.13 input   59.86 | X-H torsion
[ 10167 10162 10161 10158 ] final -165.19 input  -65.29 | X-H torsion
[ 10718 10713 10712 10709 ] final  130.80 input   66.30 | X-H torsion
[ 10763 10752 10751 10750 ] final   81.09 input  -60.55 | X-H torsion
[ 11005 11000 10999 10996 ] final -159.58 input  -57.11 | X-H torsion

> <Gold.Protein.ActiveResidues>
 VAL166  LYS551  ARG553  GLY616  TRP617  ASP618  TYR619  PRO620  LYS621  CYS622 
 ASP623  PHE694  ASN695  SER759  ASP760  ASP761  ALA762  ILE779  LEU786  VAL792 
 PHE793  MET794  SER795  GLU796  ALA797  LYS798  CYS799  TRP800  GLU811  SER814 

> <Gold.Protein.RotatedAtoms>
  151.8762  133.3485  159.3750 H   0  0  0  0  0  0  0  0  0  0  0  0  # atno 6907 bound_to 6896
  150.7139  134.5064  159.5595 H   0  0  0  0  0  0  0  0  0  0  0  0  # atno 6908 bound_to 6896
  152.2606  134.8038  160.0482 H   0  0  0  0  0  0  0  0  0  0  0  0  # atno 6909 bound_to 6896
  145.4774  140.9558  143.1883 H   0  0  0  0  0  0  0  0  0  0  0  0  # atno 7974 bound_to 7965
  156.1980  140.1732  156.7958 H   0  0  0  0  0  0  0  0  0  0  0  0  # atno 8008 bound_to 7997
  154.5554  140.0709  156.8766 H   0  0  0  0  0  0  0  0  0  0  0  0  # atno 8009 bound_to 7997
  155.2948  140.3357  155.4253 H   0  0  0  0  0  0  0  0  0  0  0  0  # atno 8010 bound_to 7997
  139.6199  144.0645  152.1923 H   0  0  0  0  0  0  0  0  0  0  0  0  # atno 10167 bound_to 10162
  157.5028  131.1094  150.9403 H   0  0  0  0  0  0  0  0  0  0  0  0  # atno 10718 bound_to 10713
  153.1087  135.4778  154.8997 H   0  0  0  0  0  0  0  0  0  0  0  0  # atno 10763 bound_to 10752
  154.7458  135.3093  154.8650 H   0  0  0  0  0  0  0  0  0  0  0  0  # atno 10764 bound_to 10752
  153.9245  135.6851  153.4800 H   0  0  0  0  0  0  0  0  0  0  0  0  # atno 10765 bound_to 10752
  140.6410  134.4551  157.5233 H   0  0  0  0  0  0  0  0  0  0  0  0  # atno 11005 bound_to 11000
  144.7909  139.6330  143.7114 LP  0  0  0  0  0  0  0  0  0  0  0  0  # atno 17320 bound_to 7965
  146.2361  139.5908  142.9523 LP  0  0  0  0  0  0  0  0  0  0  0  0  # atno 17321 bound_to 7965
  140.0285  144.6099  150.7508 LP  0  0  0  0  0  0  0  0  0  0  0  0  # atno 17342 bound_to 10162
  140.7375  143.2766  151.3723 LP  0  0  0  0  0  0  0  0  0  0  0  0  # atno 17343 bound_to 10162
  157.0069  130.5621  149.5317 LP  0  0  0  0  0  0  0  0  0  0  0  0  # atno 17370 bound_to 10713
  156.0239  130.5334  150.8354 LP  0  0  0  0  0  0  0  0  0  0  0  0  # atno 17371 bound_to 10713
  139.9080  134.8406  156.1632 LP  0  0  0  0  0  0  0  0  0  0  0  0  # atno 17394 bound_to 11000
  141.0607  133.6843  156.1946 LP  0  0  0  0  0  0  0  0  0  0  0  0  # atno 17395 bound_to 11000

$$$$
