#       Name:                AV-unprocessed.smi:1732
#       Creating user name   scv26
#       Creation time:       Fri Mar 27 08:19:05 2020


#       File generated by GOLD software.
#

@<TRIPOS>MOLECULE
AV-unprocessed.smi:1732
    42    43     1
SMALL
NO_CHARGES


@<TRIPOS>ATOM
      1 ****        -1.1350   2.0347   1.0386 O.2            1 S1                 0.0000
      2 ****        -0.5075   0.9793   0.9572 C.2            1 S1                 0.0000
      3 ****         1.0182   1.0166   0.9603 C.3            1 S1                 0.0000
      4 ****         1.4759   0.7794  -0.3623 O.3            1 S1                 0.0000
      5 ****         2.8906   0.7658  -0.4828 C.3            1 S1                 0.0000
      6 ****         3.3011   0.7830  -1.9544 C.3            1 S1                 0.0000
      7 ****         4.7211   0.2066  -1.9744 C.3            1 S1                 0.0000
      8 ****         4.8598  -0.6406  -0.6994 C.3            1 S1                 0.0000
      9 ****         3.5231  -0.5260   0.0423 C.3            1 S1                 0.0000
     10 ****        -1.0521  -0.2510   0.8853 N.am           1 S1                 0.0000
     11 ****        -2.4059  -0.6243   0.8381 C.2            1 S1                 0.0000
     12 ****        -3.4261   0.2050   0.4829 C.2            1 S1                 0.0000
     13 ****        -4.8130  -0.2409   0.4345 C.2            1 S1                 0.0000
     14 ****        -5.9859   0.6749   0.1324 C.3            1 S1                 0.0000
     15 ****        -7.0345   0.3757   0.8994 F              1 S1                 0.0000
     16 ****        -5.6638   1.9519   0.3392 F              1 S1                 0.0000
     17 ****        -6.3517   0.5386  -1.1414 F              1 S1                 0.0000
     18 ****        -4.9501  -1.5676   0.7937 C.2            1 S1                 0.0000
     19 ****        -3.9940  -2.4609   1.1309 N.pl3          1 S1                -1.0000
     20 ****        -2.6999  -2.0343   1.1687 C.2            1 S1                 0.0000
     21 ****        -1.7793  -2.7947   1.4705 O.2            1 S1                 0.0000
     22 ****         1.3633   1.9899   1.3131 H              1 S1                 0.0000
     23 ****         1.3971   0.2611   1.6500 H              1 S1                 0.0000
     24 ****         3.3315   1.6312   0.0161 H              1 S1                 0.0000
     25 ****         2.6394   0.1322  -2.5281 H              1 S1                 0.0000
     26 ****         3.2454   1.7796  -2.3935 H              1 S1                 0.0000
     27 ****         4.8995  -0.3798  -2.8764 H              1 S1                 0.0000
     28 ****         5.4537   1.0146  -1.9610 H              1 S1                 0.0000
     29 ****         5.0995  -1.6801  -0.9250 H              1 S1                 0.0000
     30 ****         5.6677  -0.2469  -0.0817 H              1 S1                 0.0000
     31 ****         3.6462  -0.5268   1.1256 H              1 S1                 0.0000
     32 ****         2.8901  -1.3753  -0.2192 H              1 S1                 0.0000
     33 ****        -0.4066  -1.0274   0.9052 H              1 S1                 0.0000
     34 ****        -3.2326   1.2267   0.2002 H              1 S1                 0.0000
     35 ****        -5.9851  -1.9710   0.8148 H              1 S1                 0.0000
     36 ****        -0.6450   2.9039   1.1058 LP             1 S1                 0.0000
     37 ****        -2.1349   2.0233   1.0376 LP             1 S1                 0.0000
     38 ****         1.1154   1.4996  -0.9550 LP             1 S1                 0.0000
     39 ****         1.1248  -0.1071  -0.6636 LP             1 S1                 0.0000
     40 ****        -4.2292  -3.4086   1.3467 LP             1 S1                 0.0000
     41 ****        -0.8382  -2.4571   1.4910 LP             1 S1                 0.0000
     42 ****        -1.9729  -3.7497   1.6951 LP             1 S1                 0.0000
@<TRIPOS>BOND
    1    1    2 2     
    2    2    3 1     
    3    2   10 am    
    4    3    4 1     
    5    3   22 1     
    6    3   23 1     
    7    4    5 1     
    8    5    9 1     
    9    5    6 1     
   10    5   24 1     
   11    6    7 1     
   12    6   25 1     
   13    6   26 1     
   14    7    8 1     
   15    7   27 1     
   16    7   28 1     
   17    8    9 1     
   18    8   29 1     
   19    8   30 1     
   20    9   31 1     
   21    9   32 1     
   22   10   11 1     
   23   10   33 1     
   24   11   20 1     
   25   11   12 2     
   26   12   13 1     
   27   12   34 1     
   28   13   14 1     
   29   13   18 2     
   30   14   15 1     
   31   14   16 1     
   32   14   17 1     
   33   18   19 1     
   34   18   35 1     
   35   19   20 1     
   36   20   21 2     
   37    1   36 1     
   38    1   37 1     
   39    4   38 1     
   40    4   39 1     
   41   19   40 1     
   42   21   41 1     
   43   21   42 1     
@<TRIPOS>SUBSTRUCTURE
      1 S1             1
@<TRIPOS>SET
LONE_PAIRS      STATIC     ATOMS    <user>   **** ""
7 36 37 38 39 40 41 42
DONOR_HYDROGENS      STATIC     ATOMS    <user>   **** ""
1 33
ATOM$BLUE        STATIC     ATOMS    COLORGROUP SYSTEM
7 36 37 38 39 40 41 42
ATOM$RED        STATIC     ATOMS    COLORGROUP SYSTEM
1 33
