#       Name:                AV-unprocessed.smi:2465
#       Creating user name   scv26
#       Creation time:       Fri Mar 27 13:36:16 2020


#       File generated by GOLD software.
#

@<TRIPOS>MOLECULE
AV-unprocessed.smi:2465
    45    46     1
SMALL
NO_CHARGES


@<TRIPOS>ATOM
      1 ****        -4.8968  -1.3110  -0.0689 C.3            1 S1                 0.0000
      2 ****        -4.7920  -0.0214  -0.8637 C.ar           1 S1                 0.0000
      3 ****        -5.9247   0.8062  -1.0074 C.ar           1 S1                 0.0000
      4 ****        -5.8030   1.9946  -1.7519 C.ar           1 S1                 0.0000
      5 ****        -4.6550   2.3815  -2.3440 N.ar           1 S1                 0.0000
      6 ****        -3.5711   1.5891  -2.2043 C.ar           1 S1                 0.0000
      7 ****        -3.5742   0.3787  -1.4657 C.ar           1 S1                 0.0000
      8 ****        -2.4340  -0.4648  -1.3400 N.am           1 S1                 0.0000
      9 ****        -1.1348  -0.1474  -1.4743 C.2            1 S1                 0.0000
     10 ****        -0.6960   0.9782  -1.7099 O.2            1 S1                 0.0000
     11 ****        -0.3538  -1.2221  -1.2955 N.am           1 S1                 0.0000
     12 ****         1.1029  -1.2182  -1.3657 C.3            1 S1                 0.0000
     13 ****         1.7310  -0.6988  -0.0629 C.3            1 S1                 0.0000
     14 ****         3.2669  -0.6927  -0.1160 C.3            1 S1                 0.0000
     15 ****         3.8413  -0.1676   1.1191 N.am           1 S1                 0.0000
     16 ****         4.3795   1.1812   1.1721 C.3            1 S1                 0.0000
     17 ****         4.6690   1.4350   2.6584 C.3            1 S1                 0.0000
     18 ****         4.6170   0.0596   3.3325 C.3            1 S1                 0.0000
     19 ****         3.9707  -0.8235   2.2785 C.2            1 S1                 0.0000
     20 ****         3.6250  -1.9833   2.4991 O.2            1 S1                 0.0000
     21 ****        -5.9087  -1.4645   0.3073 H              1 S1                 0.0000
     22 ****        -4.2192  -1.2869   0.7850 H              1 S1                 0.0000
     23 ****        -4.6369  -2.1660  -0.6936 H              1 S1                 0.0000
     24 ****        -6.8706   0.5401  -0.5592 H              1 S1                 0.0000
     25 ****        -6.6525   2.6491  -1.8797 H              1 S1                 0.0000
     26 ****        -2.6933   1.9395  -2.7240 H              1 S1                 0.0000
     27 ****        -2.6293  -1.4145  -1.0596 H              1 S1                 0.0000
     28 ****        -0.7976  -2.1072  -1.0985 H              1 S1                 0.0000
     29 ****         1.4353  -2.2389  -1.5563 H              1 S1                 0.0000
     30 ****         1.4337  -0.6197  -2.2162 H              1 S1                 0.0000
     31 ****         1.3772   0.3135   0.1378 H              1 S1                 0.0000
     32 ****         1.3921  -1.3145   0.7714 H              1 S1                 0.0000
     33 ****         3.6430  -1.7017  -0.2919 H              1 S1                 0.0000
     34 ****         3.6073  -0.0864  -0.9565 H              1 S1                 0.0000
     35 ****         5.2955   1.2267   0.5815 H              1 S1                 0.0000
     36 ****         3.6736   1.9075   0.7671 H              1 S1                 0.0000
     37 ****         5.6314   1.9268   2.8043 H              1 S1                 0.0000
     38 ****         3.9014   2.0831   3.0832 H              1 S1                 0.0000
     39 ****         5.6172  -0.3133   3.5549 H              1 S1                 0.0000
     40 ****         4.0339   0.0733   4.2538 H              1 S1                 0.0000
     41 ****        -4.6080   3.2301  -2.8709 LP             1 S1                 0.0000
     42 ****        -1.3254   1.7478  -1.8173 LP             1 S1                 0.0000
     43 ****         0.2898   1.1231  -1.7939 LP             1 S1                 0.0000
     44 ****         3.2028  -2.5259   1.7729 LP             1 S1                 0.0000
     45 ****         3.7661  -2.3835   3.4046 LP             1 S1                 0.0000
@<TRIPOS>BOND
    1    1    2 1     
    2    1   21 1     
    3    1   22 1     
    4    1   23 1     
    5    2    7 ar    
    6    2    3 ar    
    7    3    4 ar    
    8    3   24 1     
    9    4    5 ar    
   10    4   25 1     
   11    5    6 ar    
   12    6    7 ar    
   13    6   26 1     
   14    7    8 1     
   15    8    9 am    
   16    8   27 1     
   17    9   10 2     
   18    9   11 am    
   19   11   12 1     
   20   11   28 1     
   21   12   13 1     
   22   12   29 1     
   23   12   30 1     
   24   13   14 1     
   25   13   31 1     
   26   13   32 1     
   27   14   15 1     
   28   14   33 1     
   29   14   34 1     
   30   15   19 am    
   31   15   16 1     
   32   16   17 1     
   33   16   35 1     
   34   16   36 1     
   35   17   18 1     
   36   17   37 1     
   37   17   38 1     
   38   18   19 1     
   39   18   39 1     
   40   18   40 1     
   41   19   20 2     
   42    5   41 1     
   43   10   42 1     
   44   10   43 1     
   45   20   44 1     
   46   20   45 1     
@<TRIPOS>SUBSTRUCTURE
      1 S1             1
@<TRIPOS>SET
LONE_PAIRS      STATIC     ATOMS    <user>   **** ""
5 41 42 43 44 45
DONOR_HYDROGENS      STATIC     ATOMS    <user>   **** ""
2 27 28
ATOM$BLUE        STATIC     ATOMS    COLORGROUP SYSTEM
5 41 42 43 44 45
ATOM$RED        STATIC     ATOMS    COLORGROUP SYSTEM
2 27 28
