AV-unprocessed.smi:579|AV-procd|sdf|2988|dock2
  -GOLD-   2262023493D 1   1.00000     0.00000
 Structure written by MMmdl.
 27 28  0  0  0  0  0  0  0  0  2 V2000
  149.6655  139.1592  153.5906 N   0  0  0  0  0  0  0  0  0  0  0  0
  150.0919  139.9531  154.6534 C   0  0  0  0  0  0  0  0  0  0  0  0
  150.9238  139.4192  155.6601 C   0  0  0  0  0  0  0  0  0  0  0  0
  151.3390  140.2470  156.7239 C   0  0  0  0  0  0  0  0  0  0  0  0
  150.9130  141.5957  156.7596 C   0  0  0  0  0  0  0  0  0  0  0  0
  151.2711  142.4926  157.7746 N   0  0  0  0  0  0  0  0  0  0  0  0
  152.0209  141.8645  158.8550 C   0  0  0  0  0  0  0  0  0  0  0  0
  152.2829  142.8848  159.9762 C   0  0  0  0  0  0  0  0  0  0  0  0
  152.9523  144.0213  159.4379 O   0  0  0  0  0  0  0  0  0  0  0  0
  152.1780  144.6748  158.4366 C   0  0  0  0  0  0  0  0  0  0  0  0
  151.9143  143.7012  157.2751 C   0  0  0  0  0  0  0  0  0  0  0  0
  150.1162  142.0634  155.7730 N   0  3  0  0  0  0  0  0  0  0  0  0
  149.6969  141.3038  154.7376 C   0  0  0  0  0  0  0  0  0  0  0  0
  149.0697  139.5244  152.8609 H   0  0  0  0  0  0  0  0  0  0  0  0
  149.9336  138.1880  153.5156 H   0  0  0  0  0  0  0  0  0  0  0  0
  151.2418  138.3875  155.6213 H   0  0  0  0  0  0  0  0  0  0  0  0
  151.9752  139.8470  157.4996 H   0  0  0  0  0  0  0  0  0  0  0  0
  151.4625  141.0133  159.2470 H   0  0  0  0  0  0  0  0  0  0  0  0
  152.9692  141.4824  158.4747 H   0  0  0  0  0  0  0  0  0  0  0  0
  151.3493  143.1904  160.4515 H   0  0  0  0  0  0  0  0  0  0  0  0
  152.9052  142.4399  160.7526 H   0  0  0  0  0  0  0  0  0  0  0  0
  151.2410  145.0357  158.8637 H   0  0  0  0  0  0  0  0  0  0  0  0
  152.7230  145.5487  158.0794 H   0  0  0  0  0  0  0  0  0  0  0  0
  152.8560  143.4461  156.7870 H   0  0  0  0  0  0  0  0  0  0  0  0
  151.2791  144.1758  156.5260 H   0  0  0  0  0  0  0  0  0  0  0  0
  149.0630  141.7983  154.0156 H   0  0  0  0  0  0  0  0  0  0  0  0
  149.8165  143.0379  155.8118 H   0  0  0  0  0  0  0  0  0  0  0  0
  1  2  1  0  0  0  0
  1 14  1  0  0  0  0
  1 15  1  0  0  0  0
  2 13  1  0  0  0  0
  2  3  2  0  0  0  0
  3  4  1  0  0  0  0
  3 16  1  0  0  0  0
  4  5  2  0  0  0  0
  4 17  1  0  0  0  0
  5  6  1  0  0  0  0
  5 12  1  0  0  0  0
  6 11  1  0  0  0  0
  6  7  1  0  0  0  0
  7  8  1  0  0  0  0
  7 18  1  0  0  0  0
  7 19  1  0  0  0  0
  8  9  1  0  0  0  0
  8 20  1  0  0  0  0
  8 21  1  0  0  0  0
  9 10  1  0  0  0  0
 10 11  1  0  0  0  0
 10 22  1  0  0  0  0
 10 23  1  0  0  0  0
 11 24  1  0  0  0  0
 11 25  1  0  0  0  0
 12 13  2  0  0  0  0
 12 27  1  0  0  0  0
 13 26  1  0  0  0  0
M  CHG  1  12   1
M  END
> <s_m_source_file>
AV-unprocessed.smi

> <i_m_source_file_index>
579

> <i_lp_mmshare_version>
43012

> <i_f3d_flags>
0

> <s_epik_input>
W05IMl1jMVtjSF1bY0hdYyhuW2NIXTEpTjJbQ0gyXVtDSDJdT1tDSDJdW0NIMl0y

> <s_epik_cmdline>
J2VwaWtfcHl0aG9uJywgJy1waCcsICc3LjAnLCAnLXRuJywgJzgnLCAnLW1hJywgJzIwMCcsICctbWV0YWxfYmluZGluZycsICctaW1hZScsICc8aW5maWxlLm1hZT4nLCAnLW9tYWUnLCAnPG91dGZpbGUubWFlPic=

> <r_lp_tautomer_probability>
0.999846

> <r_epik_Ionization_Penalty>
2.4501

> <r_epik_Ionization_Penalty_Charging>
2.4501

> <r_epik_Ionization_Penalty_Neutral>
1.10725e-07

> <r_epik_State_Penalty>
2.61152

> <r_epik_Charging_Adjusted_Penalty>
5.06162

> <i_epik_Tot_Q>
1

> <i_epik_Tot_abs_Q>
1

> <r_epik_Metal_State_Penalty>
6.69701

> <b_epik_Metal_Only>
0

> <s_lp_Force_Field>
OPLS_2005

> <r_lp_Energy>
25.3444

> <b_lp_Chiralities_Consistent>
1

> <s_lp_Variant>
AV-unprocessed.smi:579-2

> <Gold.Version>
5.8.1

> <Gold.Id.Protein>
6NUR|6NUR_protein|mol2

> <Gold.PLP.Fitness>
37.2897

> <Gold.PLP.PLP>
-30.2353

> <Gold.PLP.part.hbond>
-2.0000

> <Gold.PLP.part.metal>
0.0000

> <Gold.PLP.part.buried>
-3.6607

> <Gold.PLP.part.nonpolar>
-25.0649

> <Gold.PLP.part.repulsive>
0.3045

> <Gold.PLP.ligand.clash>
0.0000

> <Gold.PLP.ligand.torsion>
0.0482

> <Gold.PLP.Chemscore.Hbond>
2.3520

> <Gold.PLP.Chemscore.CHOScore>
0.0000

> <Gold.PLP.Chemscore.Metal>
0.0000

> <Gold.Chemscore.Hbonds>
donor molecule, donor type, donor heavy atom, donor atom, acceptor molecule, acceptor atom, score
      L1  H     1    14       P1  7957  0.53
      L1  H    12    27       P1  8028  2.00

> <Gold.PLP.Chemscore.Internal.Correction>
0.0949

> <Gold.Rescore>
     Score         DG    S(hbond)    S(metal)    S(lipo)     H(rot)  DE(clash)    DE(int)     intcor
     15.58     -15.82       1.47        0.00      68.38       1.00       0.03       0.21       ----

> <Gold.Chemscore.Fitness>
15.5841

> <Gold.Chemscore.DG>
-15.8159

> <Gold.Chemscore.ZeroCoef>
-5.4800

> <Gold.Chemscore.Hbond>
1.4657

> <Gold.Chemscore.Metal>
0.0000

> <Gold.Chemscore.Lipo>
68.3789

> <Gold.Chemscore.Internal_Hbond>
0.0000

> <Gold.Chemscore.DEClash>
0.0256

> <Gold.Chemscore.DEInternal>
0.2062

> <Gold.Chemscore.Rot>
1.0000

> <Gold.Chemscore.Internal.Correction>
   9.000000E+99

> <Gold.Chemscore.Hbonds>
donor molecule, donor type, donor heavy atom, donor atom, acceptor molecule, acceptor atom, score
      L1  H     1    14       P1  7957  0.52
      L1  H    12    27       P1  8028  1.00

> <Gold.Chemscore.Hbond.Weighted>
-4.8956

> <Gold.Chemscore.Metal.Weighted>
-0.0000

> <Gold.Chemscore.Lipo.Weighted>
-8.0003

> <Gold.Chemscore.Internal_Hbond.Weighted>
0.0000

> <Gold.Chemscore.DEClash.Weighted>
0.0256

> <Gold.Chemscore.DEInternal.Weighted>
0.2062

> <Gold.Chemscore.Rot.Weighted>
2.5600

> <Gold.Chemscore.Internal.Correction.Weighted>
   9.000000E+99

> <Gold.Protein.RotatedTorsions>
[ 6907 6896 6895 6894 ] final   47.10 input  -60.11 | X-H torsion
[ 7974 7965 7964 7962 ] final  -18.96 input  175.53 | X-H torsion
[ 8008 7997 7996 7995 ] final   48.94 input   59.86 | X-H torsion
[ 10167 10162 10161 10158 ] final   -7.86 input  -65.29 | X-H torsion
[ 10718 10713 10712 10709 ] final   33.52 input   66.30 | X-H torsion
[ 10763 10752 10751 10750 ] final -149.92 input  -60.55 | X-H torsion
[ 11005 11000 10999 10996 ] final -144.16 input  -57.11 | X-H torsion

> <Gold.Protein.ActiveResidues>
 VAL166  LYS551  ARG553  GLY616  TRP617  ASP618  TYR619  PRO620  LYS621  CYS622 
 ASP623  PHE694  ASN695  SER759  ASP760  ASP761  ALA762  ILE779  LEU786  VAL792 
 PHE793  MET794  SER795  GLU796  ALA797  LYS798  CYS799  TRP800  GLU811  SER814 

> <Gold.Protein.RotatedAtoms>
  152.2642  134.8002  160.0425 H   0  0  0  0  0  0  0  0  0  0  0  0  # atno 6907 bound_to 6896
  151.8638  133.3457  159.3720 H   0  0  0  0  0  0  0  0  0  0  0  0  # atno 6908 bound_to 6896
  150.7127  134.5108  159.5650 H   0  0  0  0  0  0  0  0  0  0  0  0  # atno 6909 bound_to 6896
  146.1866  140.3995  142.8474 H   0  0  0  0  0  0  0  0  0  0  0  0  # atno 7974 bound_to 7965
  155.3939  140.3434  155.4253 H   0  0  0  0  0  0  0  0  0  0  0  0  # atno 8008 bound_to 7997
  156.1542  140.1580  156.8753 H   0  0  0  0  0  0  0  0  0  0  0  0  # atno 8009 bound_to 7997
  154.5079  140.0797  156.7913 H   0  0  0  0  0  0  0  0  0  0  0  0  # atno 8010 bound_to 7997
  140.7042  143.6033  150.8776 H   0  0  0  0  0  0  0  0  0  0  0  0  # atno 10167 bound_to 10162
  157.2989  130.7340  149.6655 H   0  0  0  0  0  0  0  0  0  0  0  0  # atno 10718 bound_to 10713
  154.8149  135.3297  154.7203 H   0  0  0  0  0  0  0  0  0  0  0  0  # atno 10763 bound_to 10752
  153.7845  135.6916  153.4887 H   0  0  0  0  0  0  0  0  0  0  0  0  # atno 10764 bound_to 10752
  153.1958  135.4534  155.0152 H   0  0  0  0  0  0  0  0  0  0  0  0  # atno 10765 bound_to 10752
  140.8052  134.2809  157.4963 H   0  0  0  0  0  0  0  0  0  0  0  0  # atno 11005 bound_to 11000
  144.8408  140.6854  143.6230 LP  0  0  0  0  0  0  0  0  0  0  0  0  # atno 17320 bound_to 7965
  145.3921  139.1614  143.4223 LP  0  0  0  0  0  0  0  0  0  0  0  0  # atno 17321 bound_to 7965
  139.9757  143.6006  152.2959 LP  0  0  0  0  0  0  0  0  0  0  0  0  # atno 17342 bound_to 10162
  139.6609  144.7662  151.1964 LP  0  0  0  0  0  0  0  0  0  0  0  0  # atno 17343 bound_to 10162
  155.9670  130.4286  150.4795 LP  0  0  0  0  0  0  0  0  0  0  0  0  # atno 17370 bound_to 10713
  157.2772  131.0599  151.2221 LP  0  0  0  0  0  0  0  0  0  0  0  0  # atno 17371 bound_to 10713
  139.8718  134.9452  156.3903 LP  0  0  0  0  0  0  0  0  0  0  0  0  # atno 17394 bound_to 11000
  140.9254  133.7616  155.9958 LP  0  0  0  0  0  0  0  0  0  0  0  0  # atno 17395 bound_to 11000

$$$$
