AV-unprocessed.smi:2032|AV-procd|sdf|8251|dock2
  -GOLD-   2272010523D 1   1.00000     0.00000
 Structure written by MMmdl.
 42 43  0  0  0  0  0  0  0  0  3 V2000
  145.4812  132.2292  149.6496 C   0  0  0  0  0  0  0  0  0  0  0  0
  145.9949  133.3343  150.5793 C   0  0  2  0  0  0  0  0  0  0  0  0
  147.0138  132.8013  151.6005 C   0  0  0  0  0  0  0  0  0  0  0  0
  147.4457  133.8760  152.5324 N   0  3  2  0  0  0  0  0  0  0  0  0
  148.5583  133.4336  153.4336 C   0  0  2  0  0  0  0  0  0  0  0  0
  148.3315  132.0408  154.0704 C   0  0  0  0  0  0  0  0  0  0  0  0
  148.7946  134.4955  154.5391 C   0  0  0  0  0  0  0  0  0  0  0  0
  149.7521  135.5235  154.1434 N   0  0  0  0  0  0  0  0  0  0  0  0
  150.7924  135.9432  154.8772 C   0  0  0  0  0  0  0  0  0  0  0  0
  151.0115  135.4342  155.9791 O   0  0  0  0  0  0  0  0  0  0  0  0
  151.5073  136.9296  154.2917 N   0  5  0  0  0  0  0  0  0  0  0  0
  151.3906  138.1939  154.7290 C   0  0  0  0  0  0  0  0  0  0  0  0
  152.2754  138.7647  155.5544 N   0  0  0  0  0  0  0  0  0  0  0  0
  151.9623  140.0867  155.8759 C   0  0  0  0  0  0  0  0  0  0  0  0
  150.8167  140.5358  155.2741 C   0  0  0  0  0  0  0  0  0  0  0  0
  150.0928  139.3042  154.2798 S   0  0  0  0  0  0  0  0  0  0  0  0
  146.2502  134.4534  153.2056 C   0  0  0  0  0  0  0  0  0  0  0  0
  145.1935  134.9233  152.1848 C   0  0  1  0  0  0  0  0  0  0  0  0
  145.5759  136.2270  151.4610 C   0  0  0  0  0  0  0  0  0  0  0  0
  144.8754  133.8749  151.2724 O   0  0  0  0  0  0  0  0  0  0  0  0
  146.2988  131.7777  149.0872 H   0  0  0  0  0  0  0  0  0  0  0  0
  144.7639  132.6264  148.9308 H   0  0  0  0  0  0  0  0  0  0  0  0
  144.9851  131.4378  150.2125 H   0  0  0  0  0  0  0  0  0  0  0  0
  146.4594  134.1043  149.9631 H   0  0  0  0  0  0  0  0  0  0  0  0
  146.5767  131.9811  152.1727 H   0  0  0  0  0  0  0  0  0  0  0  0
  147.8644  132.3860  151.0628 H   0  0  0  0  0  0  0  0  0  0  0  0
  149.4589  133.3507  152.8229 H   0  0  0  0  0  0  0  0  0  0  0  0
  149.1520  131.7636  154.7324 H   0  0  0  0  0  0  0  0  0  0  0  0
  148.2804  131.2517  153.3203 H   0  0  0  0  0  0  0  0  0  0  0  0
  147.4149  132.0152  154.6605 H   0  0  0  0  0  0  0  0  0  0  0  0
  147.8707  134.9887  154.8392 H   0  0  0  0  0  0  0  0  0  0  0  0
  149.1794  134.0108  155.4368 H   0  0  0  0  0  0  0  0  0  0  0  0
  149.6115  135.9624  153.2450 H   0  0  0  0  0  0  0  0  0  0  0  0
  152.6128  140.6344  156.5413 H   0  0  0  0  0  0  0  0  0  0  0  0
  150.3576  141.5096  155.3530 H   0  0  0  0  0  0  0  0  0  0  0  0
  145.8162  133.7005  153.8654 H   0  0  0  0  0  0  0  0  0  0  0  0
  146.5186  135.3090  153.8247 H   0  0  0  0  0  0  0  0  0  0  0  0
  144.2743  135.1298  152.7337 H   0  0  0  0  0  0  0  0  0  0  0  0
  145.6712  137.0490  152.1711 H   0  0  0  0  0  0  0  0  0  0  0  0
  144.8119  136.5071  150.7354 H   0  0  0  0  0  0  0  0  0  0  0  0
  146.5257  136.1453  150.9332 H   0  0  0  0  0  0  0  0  0  0  0  0
  147.8279  134.6206  151.9670 H   0  0  0  0  0  0  0  0  0  0  0  0
  1  2  1  0  0  0  0
  1 21  1  0  0  0  0
  1 22  1  0  0  0  0
  1 23  1  0  0  0  0
  2 20  1  0  0  0  0
  2  3  1  0  0  0  0
  2 24  1  0  0  0  0
  3  4  1  0  0  0  0
  3 25  1  0  0  0  0
  3 26  1  0  0  0  0
  4  5  1  0  0  0  0
  4 17  1  0  0  0  0
  4 42  1  0  0  0  0
  5  6  1  0  0  0  0
  5  7  1  0  0  0  0
  5 27  1  0  0  0  0
  6 28  1  0  0  0  0
  6 29  1  0  0  0  0
  6 30  1  0  0  0  0
  7  8  1  0  0  0  0
  7 31  1  0  0  0  0
  7 32  1  0  0  0  0
  8  9  1  0  0  0  0
  8 33  1  0  0  0  0
  9 10  2  0  0  0  0
  9 11  1  0  0  0  0
 11 12  1  0  0  0  0
 12 16  1  0  0  0  0
 12 13  2  0  0  0  0
 13 14  1  0  0  0  0
 14 15  2  0  0  0  0
 14 34  1  0  0  0  0
 15 16  1  0  0  0  0
 15 35  1  0  0  0  0
 17 18  1  0  0  0  0
 17 36  1  0  0  0  0
 17 37  1  0  0  0  0
 18 19  1  0  0  0  0
 18 20  1  0  0  0  0
 18 38  1  0  0  0  0
 19 39  1  0  0  0  0
 19 40  1  0  0  0  0
 19 41  1  0  0  0  0
M  CHG  1   4   1
M  CHG  1  11  -1
M  END
> <s_m_source_file>
AV-unprocessed.smi

> <i_m_source_file_index>
2032

> <i_lp_mmshare_version>
43012

> <i_f3d_flags>
0

> <s_epik_input>
W0NIM11bQ0BASF0xW0NIMl1OKFtDSDJdW0NASF0oTzEpW0NIM10pW0NASF0oW0NIM10pW0NIMl1bTkhdQyg9TylbTkhdYzJuW2NIXVtjSF1zMg==

> <s_epik_cmdline>
J2VwaWtfcHl0aG9uJywgJy1waCcsICc3LjAnLCAnLXRuJywgJzgnLCAnLW1hJywgJzIwMCcsICctbWV0YWxfYmluZGluZycsICctaW1hZScsICc8aW5maWxlLm1hZT4nLCAnLW9tYWUnLCAnPG91dGZpbGUubWFlPic=

> <r_lp_tautomer_probability>
0.999

> <r_epik_Ionization_Penalty>
6.71699

> <r_epik_Ionization_Penalty_Charging>
5.88592

> <r_epik_Ionization_Penalty_Neutral>
0.831074

> <r_epik_State_Penalty>
6.08365

> <r_epik_Charging_Adjusted_Penalty>
11.9696

> <i_epik_Tot_Q>
0

> <i_epik_Tot_abs_Q>
2

> <r_epik_Metal_State_Penalty>
2.0947

> <b_epik_Metal_Only>
1

> <s_lp_Force_Field>
OPLS_2005

> <r_lp_Energy>
13.7972

> <b_lp_Chiralities_Consistent>
1

> <s_lp_Variant>
AV-unprocessed.smi:2032-21

> <Gold.Version>
5.8.1

> <Gold.Id.Protein>
6NUR|6NUR_protein|mol2

> <Gold.PLP.Fitness>
45.2208

> <Gold.PLP.PLP>
-34.4114

> <Gold.PLP.part.hbond>
-3.1610

> <Gold.PLP.part.metal>
0.0000

> <Gold.PLP.part.buried>
-3.5263

> <Gold.PLP.part.nonpolar>
-29.3546

> <Gold.PLP.part.repulsive>
0.3488

> <Gold.PLP.ligand.clash>
0.0000

> <Gold.PLP.ligand.torsion>
2.1467

> <Gold.PLP.Chemscore.Hbond>
5.0000

> <Gold.PLP.Chemscore.CHOScore>
0.0000

> <Gold.PLP.Chemscore.Metal>
0.0000

> <Gold.Chemscore.Hbonds>
donor molecule, donor type, donor heavy atom, donor atom, acceptor molecule, acceptor atom, score
      L1  H     4    42       P1  7948  1.98
      L1  H     8    33       P1  7948  0.77
      P1  H 10752 10763       L1    11  0.80

> <Gold.PLP.Chemscore.Internal.Correction>
0.1028

> <Gold.Rescore>
     Score         DG    S(hbond)    S(metal)    S(lipo)     H(rot)  DE(clash)    DE(int)     intcor
     13.62     -15.71       2.05        0.00      63.44       1.58       0.05       2.04       ----

> <Gold.Chemscore.Fitness>
13.6208

> <Gold.Chemscore.DG>
-15.7102

> <Gold.Chemscore.ZeroCoef>
-5.4800

> <Gold.Chemscore.Hbond>
2.0509

> <Gold.Chemscore.Metal>
0.0000

> <Gold.Chemscore.Lipo>
63.4406

> <Gold.Chemscore.Internal_Hbond>
0.0000

> <Gold.Chemscore.DEClash>
0.0534

> <Gold.Chemscore.DEInternal>
2.0361

> <Gold.Chemscore.Rot>
1.5791

> <Gold.Chemscore.Internal.Correction>
   9.000000E+99

> <Gold.Chemscore.Hbonds>
donor molecule, donor type, donor heavy atom, donor atom, acceptor molecule, acceptor atom, score
      L1  H     4    42       P1  7948  0.32
      L1  H     8    33       P1  7948  0.11
      P1  H 10752 10763       L1    11  0.01

> <Gold.Chemscore.Hbond.Weighted>
-6.8502

> <Gold.Chemscore.Metal.Weighted>
-0.0000

> <Gold.Chemscore.Lipo.Weighted>
-7.4226

> <Gold.Chemscore.Internal_Hbond.Weighted>
0.0000

> <Gold.Chemscore.DEClash.Weighted>
0.0534

> <Gold.Chemscore.DEInternal.Weighted>
2.0361

> <Gold.Chemscore.Rot.Weighted>
4.0425

> <Gold.Chemscore.Internal.Correction.Weighted>
   9.000000E+99

> <Gold.Protein.RotatedTorsions>
[ 6907 6896 6895 6894 ] final  141.39 input  -60.11 | X-H torsion
[ 7974 7965 7964 7962 ] final   25.60 input  175.53 | X-H torsion
[ 8008 7997 7996 7995 ] final -104.14 input   59.86 | X-H torsion
[ 10167 10162 10161 10158 ] final  -11.70 input  -65.29 | X-H torsion
[ 10718 10713 10712 10709 ] final -140.30 input   66.30 | X-H torsion
[ 10763 10752 10751 10750 ] final   31.89 input  -60.55 | X-H torsion
[ 11005 11000 10999 10996 ] final  164.33 input  -57.11 | X-H torsion

> <Gold.Protein.ActiveResidues>
 VAL166  LYS551  ARG553  GLY616  TRP617  ASP618  TYR619  PRO620  LYS621  CYS622 
 ASP623  PHE694  ASN695  SER759  ASP760  ASP761  ALA762  ILE779  LEU786  VAL792 
 PHE793  MET794  SER795  GLU796  ALA797  LYS798  CYS799  TRP800  GLU811  SER814 

> <Gold.Protein.RotatedAtoms>
  152.2315  133.5062  159.5218 H   0  0  0  0  0  0  0  0  0  0  0  0  # atno 6907 bound_to 6896
  150.7039  134.1210  159.4044 H   0  0  0  0  0  0  0  0  0  0  0  0  # atno 6908 bound_to 6896
  151.9131  135.0330  160.0567 H   0  0  0  0  0  0  0  0  0  0  0  0  # atno 6909 bound_to 6896
  146.1880  139.7443  142.8852 H   0  0  0  0  0  0  0  0  0  0  0  0  # atno 7974 bound_to 7965
  154.8810  140.0419  157.1782 H   0  0  0  0  0  0  0  0  0  0  0  0  # atno 8008 bound_to 7997
  154.8639  140.2948  155.5501 H   0  0  0  0  0  0  0  0  0  0  0  0  # atno 8009 bound_to 7997
  156.2999  140.2441  156.3618 H   0  0  0  0  0  0  0  0  0  0  0  0  # atno 8010 bound_to 7997
  140.7144  143.5611  150.9194 H   0  0  0  0  0  0  0  0  0  0  0  0  # atno 10167 bound_to 10162
  156.3207  130.7533  151.1630 H   0  0  0  0  0  0  0  0  0  0  0  0  # atno 10718 bound_to 10713
  153.0291  135.6427  154.1270 H   0  0  0  0  0  0  0  0  0  0  0  0  # atno 10763 bound_to 10752
  154.0995  135.2860  155.3256 H   0  0  0  0  0  0  0  0  0  0  0  0  # atno 10764 bound_to 10752
  154.6408  135.5460  153.7851 H   0  0  0  0  0  0  0  0  0  0  0  0  # atno 10765 bound_to 10752
  140.2448  134.8023  157.3445 H   0  0  0  0  0  0  0  0  0  0  0  0  # atno 11005 bound_to 11000
  145.3879  141.0368  143.3140 LP  0  0  0  0  0  0  0  0  0  0  0  0  # atno 17320 bound_to 7965
  144.8433  139.5436  143.6890 LP  0  0  0  0  0  0  0  0  0  0  0  0  # atno 17321 bound_to 7965
  139.9336  143.6464  152.3070 LP  0  0  0  0  0  0  0  0  0  0  0  0  # atno 17342 bound_to 10162
  139.6923  144.7645  151.1416 LP  0  0  0  0  0  0  0  0  0  0  0  0  # atno 17343 bound_to 10162
  157.7411  131.0508  150.5119 LP  0  0  0  0  0  0  0  0  0  0  0  0  # atno 17370 bound_to 10713
  156.5271  130.4176  149.6220 LP  0  0  0  0  0  0  0  0  0  0  0  0  # atno 17371 bound_to 10713
  140.1617  134.4720  155.7890 LP  0  0  0  0  0  0  0  0  0  0  0  0  # atno 17394 bound_to 11000
  141.2207  133.6904  156.7556 LP  0  0  0  0  0  0  0  0  0  0  0  0  # atno 17395 bound_to 11000

$$$$
