AV-unprocessed.smi:682|AV-procd|sdf|3328|dock1
  -GOLD-   22720 0293D 1   1.00000     0.00000
 Structure written by MMmdl.
 41 42  0  0  0  0  0  0  0  0  1 V2000
  152.5318  143.7815  161.9163 C   0  0  0  0  0  0  0  0  0  0  0  0
  151.8718  142.8071  161.1173 O   0  0  0  0  0  0  0  0  0  0  0  0
  152.2737  142.6984  159.7447 C   0  0  1  0  0  0  0  0  0  0  0  0
  153.8024  142.7419  159.6272 C   0  0  0  0  0  0  0  0  0  0  0  0
  151.4942  141.5661  159.0483 C   0  0  0  0  0  0  0  0  0  0  0  0
  150.3610  142.5704  158.8492 C   0  0  2  0  0  0  0  0  0  0  0  0
  149.6858  142.4124  157.5656 N   0  0  0  0  0  0  0  0  0  0  0  0
  148.9909  141.3244  157.2088 C   0  0  0  0  0  0  0  0  0  0  0  0
  148.8527  140.3383  157.9327 O   0  0  0  0  0  0  0  0  0  0  0  0
  148.4731  141.4580  155.9775 N   0  0  0  0  0  0  0  0  0  0  0  0
  147.6727  140.5205  155.2789 C   0  0  0  0  0  0  0  0  0  0  0  0
  146.5398  139.7866  155.7317 C   0  0  0  0  0  0  0  0  0  0  0  0
  146.0636  139.0081  154.7716 N   0  0  0  0  0  0  0  0  0  0  0  0
  146.8719  139.2281  153.7065 N   0  0  0  0  0  0  0  0  0  0  0  0
  146.6218  138.5198  152.4695 C   0  0  0  0  0  0  0  0  0  0  0  0
  147.8639  140.1477  153.9825 C   0  0  0  0  0  0  0  0  0  0  0  0
  151.4211  143.7008  158.8994 C   0  0  0  0  0  0  0  0  0  0  0  0
  150.9888  144.9939  159.5995 C   0  0  0  0  0  0  0  0  0  0  0  0
  152.0320  144.1386  157.5546 C   0  0  0  0  0  0  0  0  0  0  0  0
  152.2390  143.6449  162.9570 H   0  0  0  0  0  0  0  0  0  0  0  0
  152.2459  144.7943  161.6328 H   0  0  0  0  0  0  0  0  0  0  0  0
  153.6167  143.6968  161.8657 H   0  0  0  0  0  0  0  0  0  0  0  0
  154.1292  142.7638  158.5882 H   0  0  0  0  0  0  0  0  0  0  0  0
  154.2701  141.8640  160.0715 H   0  0  0  0  0  0  0  0  0  0  0  0
  154.2121  143.6256  160.1166 H   0  0  0  0  0  0  0  0  0  0  0  0
  151.9611  141.2424  158.1163 H   0  0  0  0  0  0  0  0  0  0  0  0
  151.2281  140.7107  159.6680 H   0  0  0  0  0  0  0  0  0  0  0  0
  149.6825  142.5856  159.7058 H   0  0  0  0  0  0  0  0  0  0  0  0
  149.7519  143.1792  156.9123 H   0  0  0  0  0  0  0  0  0  0  0  0
  148.6697  142.3202  155.4907 H   0  0  0  0  0  0  0  0  0  0  0  0
  146.0513  139.7857  156.6948 H   0  0  0  0  0  0  0  0  0  0  0  0
  147.4258  138.7131  151.7586 H   0  0  0  0  0  0  0  0  0  0  0  0
  145.6780  138.8546  152.0383 H   0  0  0  0  0  0  0  0  0  0  0  0
  146.5691  137.4474  152.6607 H   0  0  0  0  0  0  0  0  0  0  0  0
  148.5996  140.4478  153.2507 H   0  0  0  0  0  0  0  0  0  0  0  0
  150.3414  145.5981  158.9629 H   0  0  0  0  0  0  0  0  0  0  0  0
  151.8490  145.6058  159.8720 H   0  0  0  0  0  0  0  0  0  0  0  0
  150.4282  144.7954  160.5130 H   0  0  0  0  0  0  0  0  0  0  0  0
  151.3155  144.6931  156.9480 H   0  0  0  0  0  0  0  0  0  0  0  0
  152.3641  143.2898  156.9566 H   0  0  0  0  0  0  0  0  0  0  0  0
  152.8970  144.7861  157.7014 H   0  0  0  0  0  0  0  0  0  0  0  0
  1  2  1  0  0  0  0
  1 20  1  0  0  0  0
  1 21  1  0  0  0  0
  1 22  1  0  0  0  0
  2  3  1  0  0  0  0
  3 17  1  0  0  0  0
  3  4  1  0  0  0  0
  3  5  1  0  0  0  0
  4 23  1  0  0  0  0
  4 24  1  0  0  0  0
  4 25  1  0  0  0  0
  5  6  1  0  0  0  0
  5 26  1  0  0  0  0
  5 27  1  0  0  0  0
  6  7  1  0  0  0  0
  6 17  1  0  0  0  0
  6 28  1  0  0  0  0
  7  8  1  0  0  0  0
  7 29  1  0  0  0  0
  8  9  2  0  0  0  0
  8 10  1  0  0  0  0
 10 11  1  0  0  0  0
 10 30  1  0  0  0  0
 11 16  2  0  0  0  0
 11 12  1  0  0  0  0
 12 13  2  0  0  0  0
 12 31  1  0  0  0  0
 13 14  1  0  0  0  0
 14 15  1  0  0  0  0
 14 16  1  0  0  0  0
 15 32  1  0  0  0  0
 15 33  1  0  0  0  0
 15 34  1  0  0  0  0
 16 35  1  0  0  0  0
 17 18  1  0  0  0  0
 17 19  1  0  0  0  0
 18 36  1  0  0  0  0
 18 37  1  0  0  0  0
 18 38  1  0  0  0  0
 19 39  1  0  0  0  0
 19 40  1  0  0  0  0
 19 41  1  0  0  0  0
M  END
> <s_m_source_file>
AV-unprocessed.smi

> <i_m_source_file_index>
682

> <i_lp_mmshare_version>
43012

> <i_f3d_flags>
0

> <s_epik_input>
W0NIM11PW0NAQF0xKFtDSDNdKVtDSDJdW0NASF0oQzEoW0NIM10pW0NIM10pW05IXUMoPU8pW05IXWMyW2NIXW5uKFtDSDNdKVtjSF0y

> <s_epik_cmdline>
J2VwaWtfcHl0aG9uJywgJy1waCcsICc3LjAnLCAnLXRuJywgJzgnLCAnLW1hJywgJzIwMCcsICctbWV0YWxfYmluZGluZycsICctaW1hZScsICc8aW5maWxlLm1hZT4nLCAnLW9tYWUnLCAnPG91dGZpbGUubWFlPic=

> <r_lp_tautomer_probability>
1

> <r_epik_Ionization_Penalty>
0.000192302

> <r_epik_Ionization_Penalty_Charging>
0

> <r_epik_Ionization_Penalty_Neutral>
0.000192302

> <r_epik_State_Penalty>
-0

> <r_epik_Charging_Adjusted_Penalty>
0

> <i_epik_Tot_Q>
0

> <i_epik_Tot_abs_Q>
0

> <r_epik_Metal_State_Penalty>
-0

> <b_epik_Metal_Only>
0

> <s_lp_Force_Field>
OPLS_2005

> <r_lp_Energy>
24.1869

> <b_lp_Chiralities_Consistent>
1

> <s_lp_Variant>
AV-unprocessed.smi:682-3

> <Gold.Version>
5.8.1

> <Gold.Id.Protein>
6NUR|6NUR_protein|mol2

> <Gold.PLP.Fitness>
46.5622

> <Gold.PLP.PLP>
-38.8377

> <Gold.PLP.part.hbond>
-3.0000

> <Gold.PLP.part.metal>
0.0000

> <Gold.PLP.part.buried>
-2.5779

> <Gold.PLP.part.nonpolar>
-34.1138

> <Gold.PLP.part.repulsive>
0.3263

> <Gold.PLP.ligand.clash>
0.0000

> <Gold.PLP.ligand.torsion>
0.7534

> <Gold.PLP.Chemscore.Hbond>
2.0270

> <Gold.PLP.Chemscore.CHOScore>
0.9245

> <Gold.PLP.Chemscore.Metal>
0.0000

> <Gold.Chemscore.Hbonds>
donor molecule, donor type, donor heavy atom, donor atom, acceptor molecule, acceptor atom, score
      L1  H     7    29       P1  8028  0.67
      L1  H    10    30       P1  8028  0.06
      P1  H  6933  6945       L1     2  0.06
      L1  C    16    35       P1  7957  1.00

> <Gold.PLP.Chemscore.Internal.Correction>
0.3768

> <Gold.Rescore>
     Score         DG    S(hbond)    S(metal)    S(lipo)     H(rot)  DE(clash)    DE(int)     intcor
     17.63     -20.80       1.73        0.00     108.49       1.23       1.95       1.22       ----

> <Gold.Chemscore.Fitness>
17.6259

> <Gold.Chemscore.DG>
-20.8008

> <Gold.Chemscore.ZeroCoef>
-5.4800

> <Gold.Chemscore.Hbond>
1.7323

> <Gold.Chemscore.Metal>
0.0000

> <Gold.Chemscore.Lipo>
108.4880

> <Gold.Chemscore.Internal_Hbond>
0.0000

> <Gold.Chemscore.DEClash>
1.9542

> <Gold.Chemscore.DEInternal>
1.2207

> <Gold.Chemscore.Rot>
1.2336

> <Gold.Chemscore.Internal.Correction>
   9.000000E+99

> <Gold.Chemscore.Hbonds>
donor molecule, donor type, donor heavy atom, donor atom, acceptor molecule, acceptor atom, score
      L1  H     7    29       P1  8028  0.65
      L1  H    10    30       P1  8028  0.09
      P1  H  6933  6945       L1     2  0.06

> <Gold.Chemscore.Hbond.Weighted>
-5.7858

> <Gold.Chemscore.Metal.Weighted>
-0.0000

> <Gold.Chemscore.Lipo.Weighted>
-12.6931

> <Gold.Chemscore.Internal_Hbond.Weighted>
0.0000

> <Gold.Chemscore.DEClash.Weighted>
1.9542

> <Gold.Chemscore.DEInternal.Weighted>
1.2207

> <Gold.Chemscore.Rot.Weighted>
3.1581

> <Gold.Chemscore.Internal.Correction.Weighted>
   9.000000E+99

> <Gold.Protein.RotatedTorsions>
[ 6907 6896 6895 6894 ] final  157.49 input  -60.11 | X-H torsion
[ 7974 7965 7964 7962 ] final  135.59 input  175.53 | X-H torsion
[ 8008 7997 7996 7995 ] final   56.12 input   59.86 | X-H torsion
[ 10167 10162 10161 10158 ] final  -98.22 input  -65.29 | X-H torsion
[ 10718 10713 10712 10709 ] final  -65.30 input   66.30 | X-H torsion
[ 10763 10752 10751 10750 ] final   94.12 input  -60.55 | X-H torsion
[ 11005 11000 10999 10996 ] final   40.08 input  -57.11 | X-H torsion

> <Gold.Protein.ActiveResidues>
 VAL166  LYS551  ARG553  GLY616  TRP617  ASP618  TYR619  PRO620  LYS621  CYS622 
 ASP623  PHE694  ASN695  SER759  ASP760  ASP761  ALA762  ILE779  LEU786  VAL792 
 PHE793  MET794  SER795  GLU796  ALA797  LYS798  CYS799  TRP800  GLU811  SER814 

> <Gold.Protein.RotatedAtoms>
  152.0144  133.3874  159.4232 H   0  0  0  0  0  0  0  0  0  0  0  0  # atno 6907 bound_to 6896
  150.6896  134.3695  159.4995 H   0  0  0  0  0  0  0  0  0  0  0  0  # atno 6908 bound_to 6896
  152.1460  134.9025  160.0601 H   0  0  0  0  0  0  0  0  0  0  0  0  # atno 6909 bound_to 6896
  144.9649  139.4669  143.5461 H   0  0  0  0  0  0  0  0  0  0  0  0  # atno 7974 bound_to 7965
  155.5122  140.3477  155.4390 H   0  0  0  0  0  0  0  0  0  0  0  0  # atno 8008 bound_to 7997
  156.0841  140.1394  156.9702 H   0  0  0  0  0  0  0  0  0  0  0  0  # atno 8009 bound_to 7997
  154.4597  140.0940  156.6834 H   0  0  0  0  0  0  0  0  0  0  0  0  # atno 8010 bound_to 7997
  140.2752  143.3318  152.0495 H   0  0  0  0  0  0  0  0  0  0  0  0  # atno 10167 bound_to 10162
  156.0678  130.4245  150.1544 H   0  0  0  0  0  0  0  0  0  0  0  0  # atno 10718 bound_to 10713
  153.2381  135.4301  155.0668 H   0  0  0  0  0  0  0  0  0  0  0  0  # atno 10763 bound_to 10752
  154.8328  135.3396  154.6690 H   0  0  0  0  0  0  0  0  0  0  0  0  # atno 10764 bound_to 10752
  153.7114  135.7022  153.5093 H   0  0  0  0  0  0  0  0  0  0  0  0  # atno 10765 bound_to 10752
  140.1966  134.3922  155.8118 H   0  0  0  0  0  0  0  0  0  0  0  0  # atno 11005 bound_to 11000
  146.3364  139.8823  142.8822 LP  0  0  0  0  0  0  0  0  0  0  0  0  # atno 17320 bound_to 7965
  145.2645  141.0088  143.3807 LP  0  0  0  0  0  0  0  0  0  0  0  0  # atno 17321 bound_to 7965
  139.4978  144.6629  151.6423 LP  0  0  0  0  0  0  0  0  0  0  0  0  # atno 17342 bound_to 10162
  140.5857  143.9868  150.6294 LP  0  0  0  0  0  0  0  0  0  0  0  0  # atno 17343 bound_to 10162
  156.9600  130.9802  151.3481 LP  0  0  0  0  0  0  0  0  0  0  0  0  # atno 17370 bound_to 10713
  157.5730  130.8324  149.8417 LP  0  0  0  0  0  0  0  0  0  0  0  0  # atno 17371 bound_to 10713
  141.2227  133.7073  156.8186 LP  0  0  0  0  0  0  0  0  0  0  0  0  # atno 17394 bound_to 11000
  140.2101  134.8834  157.3265 LP  0  0  0  0  0  0  0  0  0  0  0  0  # atno 17395 bound_to 11000

$$$$
