AV-unprocessed.smi:1240|AV-procd|sdf|5212|dock7
  -GOLD-   22720 4303D 1   1.00000     0.00000
 Structure written by MMmdl.
 48 50  0  0  0  0  0  0  0  0  4 V2000
  146.4117  134.9758  154.9025 O   0  0  0  0  0  0  0  0  0  0  0  0
  147.3550  134.6070  154.1933 C   0  0  0  0  0  0  0  0  0  0  0  0
  148.6720  134.5553  154.5265 N   0  5  0  0  0  0  0  0  0  0  0  0
  149.2005  134.8089  155.8666 C   0  0  0  0  0  0  0  0  0  0  0  0
  148.9037  136.2836  156.3162 C   0  0  1  0  0  0  0  0  0  0  0  0
  149.0933  136.5537  157.8460 C   0  0  2  0  0  0  0  0  0  0  0  0
  148.2652  135.7041  158.8055 C   0  0  0  0  0  0  0  0  0  0  0  0
  148.2966  136.5195  160.0940 C   0  0  0  0  0  0  0  0  0  0  0  0
  148.4219  137.8781  159.6913 O   0  0  0  0  0  0  0  0  0  0  0  0
  148.6253  137.9473  158.2856 C   0  0  0  0  0  0  0  0  0  0  0  0
  149.6405  137.3324  155.5253 N   0  3  0  0  0  0  0  0  0  0  0  0
  149.0150  138.6784  155.3893 C   0  0  0  0  0  0  0  0  0  0  0  0
  149.7593  139.4916  154.3181 C   0  0  0  0  0  0  0  0  0  0  0  0
  151.1380  139.5847  154.6581 O   0  0  0  0  0  0  0  0  0  0  0  0
  151.7660  138.3088  154.7113 C   0  0  0  0  0  0  0  0  0  0  0  0
  151.0989  137.4457  155.7946 C   0  0  0  0  0  0  0  0  0  0  0  0
  147.1326  134.1679  152.9416 N   0  0  0  0  0  0  0  0  0  0  0  0
  145.9022  134.0592  152.2398 C   0  0  0  0  0  0  0  0  0  0  0  0
  145.9149  133.3987  150.9917 C   0  0  0  0  0  0  0  0  0  0  0  0
  144.7187  133.2832  150.2550 C   0  0  0  0  0  0  0  0  0  0  0  0
  143.5763  133.8158  150.7397 N   0  3  0  0  0  0  0  0  0  0  0  0
  143.5194  134.4729  151.9182 C   0  0  0  0  0  0  0  0  0  0  0  0
  144.6836  134.6191  152.6995 C   0  0  0  0  0  0  0  0  0  0  0  0
  148.7914  134.1197  156.6058 H   0  0  0  0  0  0  0  0  0  0  0  0
  150.2785  134.6475  155.8887 H   0  0  0  0  0  0  0  0  0  0  0  0
  147.8495  136.4734  156.1065 H   0  0  0  0  0  0  0  0  0  0  0  0
  150.1437  136.4488  158.1256 H   0  0  0  0  0  0  0  0  0  0  0  0
  147.2389  135.6155  158.4458 H   0  0  0  0  0  0  0  0  0  0  0  0
  148.6623  134.6988  158.9493 H   0  0  0  0  0  0  0  0  0  0  0  0
  147.4067  136.3644  160.7042 H   0  0  0  0  0  0  0  0  0  0  0  0
  149.1689  136.2542  160.6923 H   0  0  0  0  0  0  0  0  0  0  0  0
  149.3426  138.7298  158.0368 H   0  0  0  0  0  0  0  0  0  0  0  0
  147.6747  138.2008  157.8139 H   0  0  0  0  0  0  0  0  0  0  0  0
  147.9658  138.5890  155.1096 H   0  0  0  0  0  0  0  0  0  0  0  0
  149.0510  139.2174  156.3369 H   0  0  0  0  0  0  0  0  0  0  0  0
  149.6447  139.0352  153.3335 H   0  0  0  0  0  0  0  0  0  0  0  0
  149.3429  140.4968  154.2532 H   0  0  0  0  0  0  0  0  0  0  0  0
  151.7098  137.8217  153.7364 H   0  0  0  0  0  0  0  0  0  0  0  0
  152.8236  138.4446  154.9384 H   0  0  0  0  0  0  0  0  0  0  0  0
  151.2736  137.8932  156.7735 H   0  0  0  0  0  0  0  0  0  0  0  0
  151.5578  136.4565  155.8061 H   0  0  0  0  0  0  0  0  0  0  0  0
  147.9404  133.7919  152.4674 H   0  0  0  0  0  0  0  0  0  0  0  0
  146.8309  132.9757  150.6050 H   0  0  0  0  0  0  0  0  0  0  0  0
  144.6430  132.7859  149.2992 H   0  0  0  0  0  0  0  0  0  0  0  0
  142.5524  134.8649  152.1974 H   0  0  0  0  0  0  0  0  0  0  0  0
  144.6263  135.1654  153.6290 H   0  0  0  0  0  0  0  0  0  0  0  0
  149.6089  136.9580  154.5883 H   0  0  0  0  0  0  0  0  0  0  0  0
  142.7217  133.7226  150.1904 H   0  0  0  0  0  0  0  0  0  0  0  0
  1  2  2  0  0  0  0
  2  3  1  0  0  0  0
  2 17  1  0  0  0  0
  3  4  1  0  0  0  0
  4  5  1  0  0  0  0
  4 24  1  0  0  0  0
  4 25  1  0  0  0  0
  5  6  1  0  0  0  0
  5 11  1  0  0  0  0
  5 26  1  0  0  0  0
  6 10  1  0  0  0  0
  6  7  1  0  0  0  0
  6 27  1  0  0  0  0
  7  8  1  0  0  0  0
  7 28  1  0  0  0  0
  7 29  1  0  0  0  0
  8  9  1  0  0  0  0
  8 30  1  0  0  0  0
  8 31  1  0  0  0  0
  9 10  1  0  0  0  0
 10 32  1  0  0  0  0
 10 33  1  0  0  0  0
 11 16  1  0  0  0  0
 11 12  1  0  0  0  0
 11 47  1  0  0  0  0
 12 13  1  0  0  0  0
 12 34  1  0  0  0  0
 12 35  1  0  0  0  0
 13 14  1  0  0  0  0
 13 36  1  0  0  0  0
 13 37  1  0  0  0  0
 14 15  1  0  0  0  0
 15 16  1  0  0  0  0
 15 38  1  0  0  0  0
 15 39  1  0  0  0  0
 16 40  1  0  0  0  0
 16 41  1  0  0  0  0
 17 18  1  0  0  0  0
 17 42  1  0  0  0  0
 18 23  1  0  0  0  0
 18 19  2  0  0  0  0
 19 20  1  0  0  0  0
 19 43  1  0  0  0  0
 20 21  2  0  0  0  0
 20 44  1  0  0  0  0
 21 22  1  0  0  0  0
 21 48  1  0  0  0  0
 22 23  2  0  0  0  0
 22 45  1  0  0  0  0
 23 46  1  0  0  0  0
M  CHG  1   3  -1
M  CHG  1  11   1
M  CHG  1  21   1
M  END
> <s_m_source_file>
AV-unprocessed.smi

> <i_m_source_file_index>
1240

> <i_lp_mmshare_version>
43012

> <i_f3d_flags>
0

> <s_epik_input>
W2NIXTFbY0hdbltjSF1bY0hdYzFbTkhdQyg9TylbTkhdW0NIMl1bQ0BIXShbQ0BASF0yW0NIMl1bQ0gyXU9bQ0gyXTIpTjNbQ0gyXVtDSDJdT1tDSDJdW0NIMl0z

> <s_epik_cmdline>
J2VwaWtfcHl0aG9uJywgJy1waCcsICc3LjAnLCAnLXRuJywgJzgnLCAnLW1hJywgJzIwMCcsICctbWV0YWxfYmluZGluZycsICctaW1hZScsICc8aW5maWxlLm1hZT4nLCAnLW9tYWUnLCAnPG91dGZpbGUubWFlPic=

> <r_epik_Ionization_Penalty>
8.41087

> <r_epik_Ionization_Penalty_Charging>
8.41087

> <r_epik_Ionization_Penalty_Neutral>
3.12936e-06

> <r_epik_State_Penalty>
8.81894

> <r_epik_Charging_Adjusted_Penalty>
17.2298

> <i_epik_Tot_Q>
1

> <i_epik_Tot_abs_Q>
3

> <r_epik_Metal_State_Penalty>
4.82983

> <b_epik_Metal_Only>
1

> <s_lp_Force_Field>
OPLS_2005

> <r_lp_Energy>
48.6891

> <b_lp_Chiralities_Consistent>
1

> <s_lp_Variant>
AV-unprocessed.smi:1240-18

> <Gold.Version>
5.8.1

> <Gold.Id.Protein>
6NUR|6NUR_protein|mol2

> <Gold.PLP.Fitness>
39.3106

> <Gold.PLP.PLP>
-30.3859

> <Gold.PLP.part.hbond>
-5.0000

> <Gold.PLP.part.metal>
0.0000

> <Gold.PLP.part.buried>
-6.4144

> <Gold.PLP.part.nonpolar>
-19.8379

> <Gold.PLP.part.repulsive>
0.7941

> <Gold.PLP.ligand.clash>
0.0000

> <Gold.PLP.ligand.torsion>
0.4278

> <Gold.PLP.Chemscore.Hbond>
3.1477

> <Gold.PLP.Chemscore.CHOScore>
0.0000

> <Gold.PLP.Chemscore.Metal>
0.0000

> <Gold.Chemscore.Hbonds>
donor molecule, donor type, donor heavy atom, donor atom, acceptor molecule, acceptor atom, score
      L1  H    21    48       P1 10186  2.00
      P1  H  6931  6943       L1     9  0.02
      P1  H  6934  6947       L1     9  0.28
      P1  H  7989  7998       L1    14  0.95

> <Gold.PLP.Chemscore.Internal.Correction>
0.3372

> <Gold.Rescore>
     Score         DG    S(hbond)    S(metal)    S(lipo)     H(rot)  DE(clash)    DE(int)     intcor
     12.95     -15.14       1.73        0.00      70.52       1.70       0.29       1.90       ----

> <Gold.Chemscore.Fitness>
12.9519

> <Gold.Chemscore.DG>
-15.1358

> <Gold.Chemscore.ZeroCoef>
-5.4800

> <Gold.Chemscore.Hbond>
1.7255

> <Gold.Chemscore.Metal>
0.0000

> <Gold.Chemscore.Lipo>
70.5155

> <Gold.Chemscore.Internal_Hbond>
0.0000

> <Gold.Chemscore.DEClash>
0.2862

> <Gold.Chemscore.DEInternal>
1.8978

> <Gold.Chemscore.Rot>
1.7021

> <Gold.Chemscore.Internal.Correction>
   9.000000E+99

> <Gold.Chemscore.Hbonds>
donor molecule, donor type, donor heavy atom, donor atom, acceptor molecule, acceptor atom, score
      L1  H    21    48       P1 10186  0.94
      P1  H  6934  6947       L1     9  0.19
      P1  H  7989  7998       L1    14  0.21

> <Gold.Chemscore.Hbond.Weighted>
-5.7630

> <Gold.Chemscore.Metal.Weighted>
-0.0000

> <Gold.Chemscore.Lipo.Weighted>
-8.2503

> <Gold.Chemscore.Internal_Hbond.Weighted>
0.0000

> <Gold.Chemscore.DEClash.Weighted>
0.2862

> <Gold.Chemscore.DEInternal.Weighted>
1.8978

> <Gold.Chemscore.Rot.Weighted>
4.3575

> <Gold.Chemscore.Internal.Correction.Weighted>
   9.000000E+99

> <Gold.Protein.RotatedTorsions>
[ 6907 6896 6895 6894 ] final -145.11 input  -60.11 | X-H torsion
[ 7974 7965 7964 7962 ] final  152.99 input  175.53 | X-H torsion
[ 8008 7997 7996 7995 ] final -157.92 input   59.86 | X-H torsion
[ 10167 10162 10161 10158 ] final  -74.06 input  -65.29 | X-H torsion
[ 10718 10713 10712 10709 ] final   87.51 input   66.30 | X-H torsion
[ 10763 10752 10751 10750 ] final  -27.18 input  -60.55 | X-H torsion
[ 11005 11000 10999 10996 ] final  -63.10 input  -57.11 | X-H torsion

> <Gold.Protein.ActiveResidues>
 VAL166  LYS551  ARG553  GLY616  TRP617  ASP618  TYR619  PRO620  LYS621  CYS622 
 ASP623  PHE694  ASN695  SER759  ASP760  ASP761  ALA762  ILE779  LEU786  VAL792 
 PHE793  MET794  SER795  GLU796  ALA797  LYS798  CYS799  TRP800  GLU811  SER814 

> <Gold.Protein.RotatedAtoms>
  151.1232  133.5089  159.2601 H   0  0  0  0  0  0  0  0  0  0  0  0  # atno 6907 bound_to 6896
  151.1839  135.0372  159.8814 H   0  0  0  0  0  0  0  0  0  0  0  0  # atno 6908 bound_to 6896
  152.5456  134.1081  159.8400 H   0  0  0  0  0  0  0  0  0  0  0  0  # atno 6909 bound_to 6896
  144.8185  139.6741  143.6111 H   0  0  0  0  0  0  0  0  0  0  0  0  # atno 7974 bound_to 7965
  155.7397  140.0812  157.2251 H   0  0  0  0  0  0  0  0  0  0  0  0  # atno 8008 bound_to 7997
  154.4023  140.1580  156.2657 H   0  0  0  0  0  0  0  0  0  0  0  0  # atno 8009 bound_to 7997
  155.9032  140.3408  155.6045 H   0  0  0  0  0  0  0  0  0  0  0  0  # atno 8010 bound_to 7997
  140.5058  143.2353  151.7676 H   0  0  0  0  0  0  0  0  0  0  0  0  # atno 10167 bound_to 10162
  157.6941  131.0258  150.3134 H   0  0  0  0  0  0  0  0  0  0  0  0  # atno 10718 bound_to 10713
  153.7280  135.6940  153.4996 H   0  0  0  0  0  0  0  0  0  0  0  0  # atno 10763 bound_to 10752
  153.2156  135.4387  155.0429 H   0  0  0  0  0  0  0  0  0  0  0  0  # atno 10764 bound_to 10752
  154.8262  135.3448  154.6811 H   0  0  0  0  0  0  0  0  0  0  0  0  # atno 10765 bound_to 10752
  141.1382  133.6648  156.5628 H   0  0  0  0  0  0  0  0  0  0  0  0  # atno 11005 bound_to 11000
  146.2489  139.6158  142.9440 LP  0  0  0  0  0  0  0  0  0  0  0  0  # atno 17320 bound_to 7965
  145.5159  141.0434  143.2462 LP  0  0  0  0  0  0  0  0  0  0  0  0  # atno 17321 bound_to 7965
  139.4883  144.4459  151.9711 LP  0  0  0  0  0  0  0  0  0  0  0  0  # atno 17342 bound_to 10162
  140.3549  144.3043  150.5943 LP  0  0  0  0  0  0  0  0  0  0  0  0  # atno 17343 bound_to 10162
  156.3632  130.3850  149.7234 LP  0  0  0  0  0  0  0  0  0  0  0  0  # atno 17370 bound_to 10713
  156.4673  130.7980  151.2999 LP  0  0  0  0  0  0  0  0  0  0  0  0  # atno 17371 bound_to 10713
  140.3974  134.7386  157.4759 LP  0  0  0  0  0  0  0  0  0  0  0  0  # atno 17394 bound_to 11000
  140.0521  134.6116  155.8849 LP  0  0  0  0  0  0  0  0  0  0  0  0  # atno 17395 bound_to 11000

$$$$
