AV-unprocessed.smi:2124|AV-procd|sdf|8669|dock2
  -GOLD-   2272011423D 1   1.00000     0.00000
 Structure written by MMmdl.
 46 48  0  0  0  0  0  0  0  0  2 V2000
  148.0162  136.0806  161.1107 C   0  0  0  0  0  0  0  0  0  0  0  0
  148.6148  136.6871  159.8598 C   0  0  0  0  0  0  0  0  0  0  0  0
  147.8560  137.3199  159.0485 N   0  0  0  0  0  0  0  0  0  0  0  0
  148.4065  137.8873  157.8868 C   0  0  0  0  0  0  0  0  0  0  0  0
  147.4328  138.6226  156.9823 C   0  0  0  0  0  0  0  0  0  0  0  0
  149.7368  137.7745  157.6085 C   0  0  0  0  0  0  0  0  0  0  0  0
  150.3855  138.3763  156.3618 C   0  0  0  0  0  0  0  0  0  0  0  0
  151.2952  139.5876  156.5835 C   0  0  0  0  0  0  0  0  0  0  0  0
  152.4635  139.5761  156.1955 O   0  0  0  0  0  0  0  0  0  0  0  0
  150.7275  140.6332  157.2081 N   0  0  0  0  0  0  0  0  0  0  0  0
  151.3424  141.9254  157.5269 C   0  0  1  0  0  0  0  0  0  0  0  0
  150.6539  143.0609  156.7438 C   0  0  0  0  0  0  0  0  0  0  0  0
  151.4063  142.1843  159.0576 C   0  0  1  0  0  0  0  0  0  0  0  0
  152.1660  141.0918  159.8524 C   0  0  0  0  0  0  0  0  0  0  0  0
  153.2053  141.8936  160.6549 C   0  0  2  0  0  0  0  0  0  0  0  0
  152.4941  142.7276  161.7360 C   0  0  0  0  0  0  0  0  0  0  0  0
  151.8104  143.8350  160.9129 C   0  0  0  0  0  0  0  0  0  0  0  0
  152.1834  143.4622  159.4651 C   0  0  1  0  0  0  0  0  0  0  0  0
  153.6118  142.9572  159.6446 C   0  0  0  0  0  0  0  0  0  0  0  0
  150.5756  137.0320  158.5658 C   0  0  0  0  0  0  0  0  0  0  0  0
  151.7792  136.8876  158.3548 O   0  0  0  0  0  0  0  0  0  0  0  0
  149.9684  136.5184  159.6736 N   0  5  0  0  0  0  0  0  0  0  0  0
  146.9273  136.0509  161.0494 H   0  0  0  0  0  0  0  0  0  0  0  0
  148.2957  136.6701  161.9840 H   0  0  0  0  0  0  0  0  0  0  0  0
  148.3756  135.0607  161.2514 H   0  0  0  0  0  0  0  0  0  0  0  0
  147.6736  139.6850  156.9473 H   0  0  0  0  0  0  0  0  0  0  0  0
  146.4082  138.5229  157.3421 H   0  0  0  0  0  0  0  0  0  0  0  0
  147.4702  138.2234  155.9688 H   0  0  0  0  0  0  0  0  0  0  0  0
  150.9785  137.6014  155.8757 H   0  0  0  0  0  0  0  0  0  0  0  0
  149.6251  138.6431  155.6271 H   0  0  0  0  0  0  0  0  0  0  0  0
  149.7623  140.5269  157.4842 H   0  0  0  0  0  0  0  0  0  0  0  0
  152.3638  141.8501  157.1533 H   0  0  0  0  0  0  0  0  0  0  0  0
  151.2182  143.9906  156.8041 H   0  0  0  0  0  0  0  0  0  0  0  0
  149.6507  143.2616  157.1205 H   0  0  0  0  0  0  0  0  0  0  0  0
  150.5666  142.8097  155.6863 H   0  0  0  0  0  0  0  0  0  0  0  0
  150.3850  142.2575  159.4335 H   0  0  0  0  0  0  0  0  0  0  0  0
  151.5022  140.5096  160.4925 H   0  0  0  0  0  0  0  0  0  0  0  0
  152.6769  140.3936  159.1885 H   0  0  0  0  0  0  0  0  0  0  0  0
  154.0245  141.2852  161.0391 H   0  0  0  0  0  0  0  0  0  0  0  0
  151.7811  142.1352  162.3105 H   0  0  0  0  0  0  0  0  0  0  0  0
  153.2134  143.1573  162.4341 H   0  0  0  0  0  0  0  0  0  0  0  0
  150.7322  143.8707  161.0735 H   0  0  0  0  0  0  0  0  0  0  0  0
  152.2169  144.8124  161.1764 H   0  0  0  0  0  0  0  0  0  0  0  0
  152.0809  144.2993  158.7759 H   0  0  0  0  0  0  0  0  0  0  0  0
  154.2883  143.7084  160.0562 H   0  0  0  0  0  0  0  0  0  0  0  0
  154.0487  142.5457  158.7335 H   0  0  0  0  0  0  0  0  0  0  0  0
  1  2  1  0  0  0  0
  1 23  1  0  0  0  0
  1 24  1  0  0  0  0
  1 25  1  0  0  0  0
  2 22  1  0  0  0  0
  2  3  2  0  0  0  0
  3  4  1  0  0  0  0
  4  5  1  0  0  0  0
  4  6  2  0  0  0  0
  5 26  1  0  0  0  0
  5 27  1  0  0  0  0
  5 28  1  0  0  0  0
  6  7  1  0  0  0  0
  6 20  1  0  0  0  0
  7  8  1  0  0  0  0
  7 29  1  0  0  0  0
  7 30  1  0  0  0  0
  8  9  2  0  0  0  0
  8 10  1  0  0  0  0
 10 11  1  0  0  0  0
 10 31  1  0  0  0  0
 11 12  1  0  0  0  0
 11 13  1  0  0  0  0
 11 32  1  0  0  0  0
 12 33  1  0  0  0  0
 12 34  1  0  0  0  0
 12 35  1  0  0  0  0
 13 18  1  0  0  0  0
 13 14  1  0  0  0  0
 13 36  1  0  0  0  0
 14 15  1  0  0  0  0
 14 37  1  0  0  0  0
 14 38  1  0  0  0  0
 15 19  1  0  0  0  0
 15 16  1  0  0  0  0
 15 39  1  0  0  0  0
 16 17  1  0  0  0  0
 16 40  1  0  0  0  0
 16 41  1  0  0  0  0
 17 18  1  0  0  0  0
 17 42  1  0  0  0  0
 17 43  1  0  0  0  0
 18 19  1  0  0  0  0
 18 44  1  0  0  0  0
 19 45  1  0  0  0  0
 19 46  1  0  0  0  0
 20 21  2  0  0  0  0
 20 22  1  0  0  0  0
M  CHG  1  22  -1
M  END
> <s_m_source_file>
AV-unprocessed.smi

> <i_m_source_file_index>
2124

> <i_lp_mmshare_version>
43012

> <i_f3d_flags>
0

> <s_epik_input>
W0NIM11jMW5jKFtDSDNdKWMoYyg9TylbbkhdMSlbQ0gyXUMoPU8pW05IXVtDQEhdKFtDSDNdKVtDQEhdKFtDSDJdW0NASF0yMylbQ0BIXShbQ0gyXTMpW0NIMl1bQ0gyXTI=

> <s_epik_cmdline>
J2VwaWtfcHl0aG9uJywgJy1waCcsICc3LjAnLCAnLXRuJywgJzgnLCAnLW1hJywgJzIwMCcsICctbWV0YWxfYmluZGluZycsICctaW1hZScsICc8aW5maWxlLm1hZT4nLCAnLW9tYWUnLCAnPG91dGZpbGUubWFlPic=

> <r_lp_tautomer_probability>
0.839158

> <r_epik_Ionization_Penalty>
6.63797

> <r_epik_Ionization_Penalty_Charging>
7.48558e-08

> <r_epik_Ionization_Penalty_Neutral>
6.63797

> <r_epik_State_Penalty>
4.49496

> <r_epik_Charging_Adjusted_Penalty>
4.49496

> <i_epik_Tot_Q>
-1

> <i_epik_Tot_abs_Q>
1

> <r_epik_Metal_State_Penalty>
0.841241

> <b_epik_Metal_Only>
1

> <s_lp_Force_Field>
OPLS_2005

> <r_lp_Energy>
56.2785

> <b_lp_Chiralities_Consistent>
1

> <s_lp_Variant>
AV-unprocessed.smi:2124-20

> <Gold.Version>
5.8.1

> <Gold.Id.Protein>
6NUR|6NUR_protein|mol2

> <Gold.PLP.Fitness>
45.9618

> <Gold.PLP.PLP>
-37.2249

> <Gold.PLP.part.hbond>
-2.3213

> <Gold.PLP.part.metal>
0.0000

> <Gold.PLP.part.buried>
-2.4783

> <Gold.PLP.part.nonpolar>
-32.1600

> <Gold.PLP.part.repulsive>
0.0470

> <Gold.PLP.ligand.clash>
0.0000

> <Gold.PLP.ligand.torsion>
0.1612

> <Gold.PLP.Chemscore.Hbond>
3.0000

> <Gold.PLP.Chemscore.CHOScore>
0.0000

> <Gold.PLP.Chemscore.Metal>
0.0000

> <Gold.Chemscore.Hbonds>
donor molecule, donor type, donor heavy atom, donor atom, acceptor molecule, acceptor atom, score
      P1  H  6896  6909       L1    22  1.80
      P1  H  7997  8010       L1     9  0.90

> <Gold.PLP.Chemscore.Internal.Correction>
0.0594

> <Gold.Rescore>
     Score         DG    S(hbond)    S(metal)    S(lipo)     H(rot)  DE(clash)    DE(int)     intcor
     18.63     -20.23       1.91        0.00     106.61       1.61       1.45       0.15       ----

> <Gold.Chemscore.Fitness>
18.6334

> <Gold.Chemscore.DG>
-20.2334

> <Gold.Chemscore.ZeroCoef>
-5.4800

> <Gold.Chemscore.Hbond>
1.9130

> <Gold.Chemscore.Metal>
0.0000

> <Gold.Chemscore.Lipo>
106.6064

> <Gold.Chemscore.Internal_Hbond>
0.0000

> <Gold.Chemscore.DEClash>
1.4520

> <Gold.Chemscore.DEInternal>
0.1481

> <Gold.Chemscore.Rot>
1.6051

> <Gold.Chemscore.Internal.Correction>
   9.000000E+99

> <Gold.Chemscore.Hbonds>
donor molecule, donor type, donor heavy atom, donor atom, acceptor molecule, acceptor atom, score
      P1  H  6896  6909       L1    22  0.18
      P1  H  7997  8010       L1     9  0.83

> <Gold.Chemscore.Hbond.Weighted>
-6.3895

> <Gold.Chemscore.Metal.Weighted>
-0.0000

> <Gold.Chemscore.Lipo.Weighted>
-12.4729

> <Gold.Chemscore.Internal_Hbond.Weighted>
0.0000

> <Gold.Chemscore.DEClash.Weighted>
1.4520

> <Gold.Chemscore.DEInternal.Weighted>
0.1481

> <Gold.Chemscore.Rot.Weighted>
4.1090

> <Gold.Chemscore.Internal.Correction.Weighted>
   9.000000E+99

> <Gold.Protein.RotatedTorsions>
[ 6907 6896 6895 6894 ] final   70.13 input  -60.11 | X-H torsion
[ 7974 7965 7964 7962 ] final   49.08 input  175.53 | X-H torsion
[ 8008 7997 7996 7995 ] final  100.12 input   59.86 | X-H torsion
[ 10167 10162 10161 10158 ] final -140.01 input  -65.29 | X-H torsion
[ 10718 10713 10712 10709 ] final    9.84 input   66.30 | X-H torsion
[ 10763 10752 10751 10750 ] final  -48.66 input  -60.55 | X-H torsion
[ 11005 11000 10999 10996 ] final  153.10 input  -57.11 | X-H torsion

> <Gold.Protein.ActiveResidues>
 VAL166  LYS551  ARG553  GLY616  TRP617  ASP618  TYR619  PRO620  LYS621  CYS622 
 ASP623  PHE694  ASN695  SER759  ASP760  ASP761  ALA762  ILE779  LEU786  VAL792 
 PHE793  MET794  SER795  GLU796  ALA797  LYS798  CYS799  TRP800  GLU811  SER814 

> <Gold.Protein.RotatedAtoms>
  152.4730  134.4913  159.9695 H   0  0  0  0  0  0  0  0  0  0  0  0  # atno 6907 bound_to 6896
  151.4935  133.3513  159.2865 H   0  0  0  0  0  0  0  0  0  0  0  0  # atno 6908 bound_to 6896
  150.8752  134.8160  159.7245 H   0  0  0  0  0  0  0  0  0  0  0  0  # atno 6909 bound_to 6896
  146.0143  139.4579  142.9936 H   0  0  0  0  0  0  0  0  0  0  0  0  # atno 7974 bound_to 7965
  156.1172  140.3218  155.8157 H   0  0  0  0  0  0  0  0  0  0  0  0  # atno 8008 bound_to 7997
  155.4568  140.0536  157.3012 H   0  0  0  0  0  0  0  0  0  0  0  0  # atno 8009 bound_to 7997
  154.4801  140.2049  155.9797 H   0  0  0  0  0  0  0  0  0  0  0  0  # atno 8010 bound_to 7997
  139.8323  143.7430  152.2665 H   0  0  0  0  0  0  0  0  0  0  0  0  # atno 10167 bound_to 10162
  156.9722  130.5973  149.5670 H   0  0  0  0  0  0  0  0  0  0  0  0  # atno 10718 bound_to 10713
  154.0814  135.6590  153.4838 H   0  0  0  0  0  0  0  0  0  0  0  0  # atno 10763 bound_to 10752
  153.0354  135.5181  154.7470 H   0  0  0  0  0  0  0  0  0  0  0  0  # atno 10764 bound_to 10752
  154.6566  135.3009  154.9888 H   0  0  0  0  0  0  0  0  0  0  0  0  # atno 10765 bound_to 10752
  140.1367  134.8766  157.2276 H   0  0  0  0  0  0  0  0  0  0  0  0  # atno 11005 bound_to 11000
  145.7293  141.0048  143.1360 LP  0  0  0  0  0  0  0  0  0  0  0  0  # atno 17320 bound_to 7965
  144.6965  139.8964  143.7456 LP  0  0  0  0  0  0  0  0  0  0  0  0  # atno 17321 bound_to 7965
  139.7642  144.7497  151.0319 LP  0  0  0  0  0  0  0  0  0  0  0  0  # atno 17342 bound_to 10162
  140.7805  143.4717  151.0137 LP  0  0  0  0  0  0  0  0  0  0  0  0  # atno 17343 bound_to 10162
  156.0278  130.5371  150.8454 LP  0  0  0  0  0  0  0  0  0  0  0  0  # atno 17370 bound_to 10713
  157.5584  131.0945  150.9594 LP  0  0  0  0  0  0  0  0  0  0  0  0  # atno 17371 bound_to 10713
  140.2774  134.3390  155.7354 LP  0  0  0  0  0  0  0  0  0  0  0  0  # atno 17394 bound_to 11000
  141.2179  133.7458  156.9312 LP  0  0  0  0  0  0  0  0  0  0  0  0  # atno 17395 bound_to 11000

$$$$
