AV-unprocessed.smi:1047|AV-procd|sdf|4590|dock8
  -GOLD-   22720 3 73D 1   1.00000     0.00000
 Structure written by MMmdl.
 57 59  0  0  0  0  0  0  0  0  3 V2000
  153.5884  131.1139  155.7531 C   0  0  0  0  0  0  0  0  0  0  0  0
  152.0541  131.1630  155.7823 C   0  0  0  0  0  0  0  0  0  0  0  0
  151.4531  132.1750  154.9149 N   0  0  0  0  0  0  0  0  0  0  0  0
  150.0122  131.9931  154.7568 C   0  0  0  0  0  0  0  0  0  0  0  0
  149.3924  133.0842  153.8673 C   0  0  0  0  0  0  0  0  0  0  0  0
  149.6960  134.3678  154.4039 O   0  0  0  0  0  0  0  0  0  0  0  0
  151.0968  134.6063  154.5191 C   0  0  1  0  0  0  0  0  0  0  0  0
  151.2959  136.0134  155.0983 C   0  0  0  0  0  0  0  0  0  0  0  0
  151.4072  137.0188  154.0233 N   0  3  0  0  0  0  0  0  0  0  0  0
  151.4966  138.4103  154.5086 C   0  0  0  0  0  0  0  0  0  0  0  0
  152.5136  138.5477  155.6586 C   0  0  1  0  0  0  0  0  0  0  0  0
  153.5144  139.4729  155.2838 O   0  0  0  0  0  0  0  0  0  0  0  0
  151.8987  139.0574  156.9783 C   0  0  0  0  0  0  0  0  0  0  0  0
  151.4534  140.4565  156.9096 N   0  0  0  0  0  0  0  0  0  0  0  0
  150.6220  141.0560  156.0140 C   0  0  0  0  0  0  0  0  0  0  0  0
  150.4987  142.3623  156.3773 N   0  3  0  0  0  0  0  0  0  0  0  0
  151.2588  142.6013  157.5239 C   0  0  0  0  0  0  0  0  0  0  0  0
  151.4495  143.7631  158.2624 C   0  0  0  0  0  0  0  0  0  0  0  0
  152.2920  143.6778  159.3936 C   0  0  0  0  0  0  0  0  0  0  0  0
  152.5192  144.9296  160.2246 C   0  0  0  0  0  0  0  0  0  0  0  0
  152.9137  142.4530  159.7493 C   0  0  0  0  0  0  0  0  0  0  0  0
  153.8199  142.3726  160.9662 C   0  0  0  0  0  0  0  0  0  0  0  0
  152.7072  141.2822  158.9851 C   0  0  0  0  0  0  0  0  0  0  0  0
  151.8724  141.3823  157.8740 C   0  0  0  0  0  0  0  0  0  0  0  0
  151.7078  133.5180  155.4239 C   0  0  0  0  0  0  0  0  0  0  0  0
  153.9624  130.4164  156.5028 H   0  0  0  0  0  0  0  0  0  0  0  0
  154.0183  132.0925  155.9690 H   0  0  0  0  0  0  0  0  0  0  0  0
  153.9676  130.7826  154.7870 H   0  0  0  0  0  0  0  0  0  0  0  0
  151.6542  130.1780  155.5370 H   0  0  0  0  0  0  0  0  0  0  0  0
  151.7541  131.3597  156.8125 H   0  0  0  0  0  0  0  0  0  0  0  0
  149.7990  131.0204  154.3143 H   0  0  0  0  0  0  0  0  0  0  0  0
  149.5275  132.0059  155.7344 H   0  0  0  0  0  0  0  0  0  0  0  0
  149.7700  133.0108  152.8461 H   0  0  0  0  0  0  0  0  0  0  0  0
  148.3100  132.9643  153.8183 H   0  0  0  0  0  0  0  0  0  0  0  0
  151.5569  134.5542  153.5303 H   0  0  0  0  0  0  0  0  0  0  0  0
  150.4663  136.2693  155.7591 H   0  0  0  0  0  0  0  0  0  0  0  0
  152.2065  136.0413  155.6980 H   0  0  0  0  0  0  0  0  0  0  0  0
  152.2271  136.8125  153.4705 H   0  0  0  0  0  0  0  0  0  0  0  0
  151.7637  139.0732  153.6840 H   0  0  0  0  0  0  0  0  0  0  0  0
  150.5037  138.7053  154.8478 H   0  0  0  0  0  0  0  0  0  0  0  0
  152.9924  137.5846  155.8414 H   0  0  0  0  0  0  0  0  0  0  0  0
  153.1816  140.0262  154.5938 H   0  0  0  0  0  0  0  0  0  0  0  0
  151.0199  138.4615  157.2301 H   0  0  0  0  0  0  0  0  0  0  0  0
  152.5914  138.9373  157.8114 H   0  0  0  0  0  0  0  0  0  0  0  0
  150.1417  140.5798  155.1710 H   0  0  0  0  0  0  0  0  0  0  0  0
  150.9731  144.6921  157.9849 H   0  0  0  0  0  0  0  0  0  0  0  0
  152.2050  144.7680  161.2560 H   0  0  0  0  0  0  0  0  0  0  0  0
  151.9531  145.7760  159.8339 H   0  0  0  0  0  0  0  0  0  0  0  0
  153.5744  145.2047  160.2222 H   0  0  0  0  0  0  0  0  0  0  0  0
  154.2376  141.3728  161.0879 H   0  0  0  0  0  0  0  0  0  0  0  0
  153.2650  142.6141  161.8731 H   0  0  0  0  0  0  0  0  0  0  0  0
  154.6519  143.0709  160.8722 H   0  0  0  0  0  0  0  0  0  0  0  0
  153.1831  140.3528  159.2599 H   0  0  0  0  0  0  0  0  0  0  0  0
  151.3015  133.6130  156.4323 H   0  0  0  0  0  0  0  0  0  0  0  0
  152.7833  133.6806  155.5062 H   0  0  0  0  0  0  0  0  0  0  0  0
  150.5909  136.9384  153.4332 H   0  0  0  0  0  0  0  0  0  0  0  0
  149.9305  143.0377  155.8816 H   0  0  0  0  0  0  0  0  0  0  0  0
  1  2  1  0  0  0  0
  1 26  1  0  0  0  0
  1 27  1  0  0  0  0
  1 28  1  0  0  0  0
  2  3  1  0  0  0  0
  2 29  1  0  0  0  0
  2 30  1  0  0  0  0
  3 25  1  0  0  0  0
  3  4  1  0  0  0  0
  4  5  1  0  0  0  0
  4 31  1  0  0  0  0
  4 32  1  0  0  0  0
  5  6  1  0  0  0  0
  5 33  1  0  0  0  0
  5 34  1  0  0  0  0
  6  7  1  0  0  0  0
  7  8  1  0  0  0  0
  7 25  1  0  0  0  0
  7 35  1  0  0  0  0
  8  9  1  0  0  0  0
  8 36  1  0  0  0  0
  8 37  1  0  0  0  0
  9 10  1  0  0  0  0
  9 38  1  0  0  0  0
  9 56  1  0  0  0  0
 10 11  1  0  0  0  0
 10 39  1  0  0  0  0
 10 40  1  0  0  0  0
 11 12  1  0  0  0  0
 11 13  1  0  0  0  0
 11 41  1  0  0  0  0
 12 42  1  0  0  0  0
 13 14  1  0  0  0  0
 13 43  1  0  0  0  0
 13 44  1  0  0  0  0
 14 24  1  0  0  0  0
 14 15  1  0  0  0  0
 15 16  2  0  0  0  0
 15 45  1  0  0  0  0
 16 17  1  0  0  0  0
 16 57  1  0  0  0  0
 17 24  2  0  0  0  0
 17 18  1  0  0  0  0
 18 19  2  0  0  0  0
 18 46  1  0  0  0  0
 19 20  1  0  0  0  0
 19 21  1  0  0  0  0
 20 47  1  0  0  0  0
 20 48  1  0  0  0  0
 20 49  1  0  0  0  0
 21 22  1  0  0  0  0
 21 23  2  0  0  0  0
 22 50  1  0  0  0  0
 22 51  1  0  0  0  0
 22 52  1  0  0  0  0
 23 24  1  0  0  0  0
 23 53  1  0  0  0  0
 25 54  1  0  0  0  0
 25 55  1  0  0  0  0
M  CHG  1   9   1
M  CHG  1  16   1
M  END
> <s_m_source_file>
AV-unprocessed.smi

> <i_m_source_file_index>
1047

> <i_lp_mmshare_version>
43012

> <i_f3d_flags>
0

> <s_epik_input>
W0NIM11bQ0gyXU4xW0NIMl1bQ0gyXU9bQ0BIXShbQ0gyXTEpW0NIMl1bTkhdW0NIMl1bQ0BIXShbT0hdKVtDSDJdbihbY0hdbjIpYyhjMjMpW2NIXWMoW0NIM10pYyhbY0hdMylbQ0gzXQ==

> <s_epik_cmdline>
J2VwaWtfcHl0aG9uJywgJy1waCcsICc3LjAnLCAnLXRuJywgJzgnLCAnLW1hJywgJzIwMCcsICctbWV0YWxfYmluZGluZycsICctaW1hZScsICc8aW5maWxlLm1hZT4nLCAnLW9tYWUnLCAnPG91dGZpbGUubWFlPic=

> <r_epik_Ionization_Penalty>
1.75732

> <r_epik_Ionization_Penalty_Charging>
1.18089

> <r_epik_Ionization_Penalty_Neutral>
0.576429

> <r_epik_State_Penalty>
1.69377

> <r_epik_Charging_Adjusted_Penalty>
2.87466

> <i_epik_Tot_Q>
2

> <i_epik_Tot_abs_Q>
2

> <r_epik_Metal_State_Penalty>
5.70174

> <b_epik_Metal_Only>
0

> <s_lp_Force_Field>
OPLS_2005

> <r_lp_Energy>
42.3107

> <b_lp_Chiralities_Consistent>
1

> <s_lp_Variant>
AV-unprocessed.smi:1047-31

> <Gold.Version>
5.8.1

> <Gold.Id.Protein>
6NUR|6NUR_protein|mol2

> <Gold.PLP.Fitness>
65.0433

> <Gold.PLP.PLP>
-51.6281

> <Gold.PLP.part.hbond>
-4.0000

> <Gold.PLP.part.metal>
0.0000

> <Gold.PLP.part.buried>
-7.5398

> <Gold.PLP.part.nonpolar>
-41.8486

> <Gold.PLP.part.repulsive>
1.0290

> <Gold.PLP.ligand.clash>
0.0000

> <Gold.PLP.ligand.torsion>
1.3413

> <Gold.PLP.Chemscore.Hbond>
5.3424

> <Gold.PLP.Chemscore.CHOScore>
0.0000

> <Gold.PLP.Chemscore.Metal>
0.0000

> <Gold.Chemscore.Hbonds>
donor molecule, donor type, donor heavy atom, donor atom, acceptor molecule, acceptor atom, score
      L1  H     9    56       P1  7948  0.19
      L1  H    16    57       P1  8028  2.00
      P1  H  7997  8008       L1    12  0.60

> <Gold.PLP.Chemscore.Internal.Correction>
0.0706

> <Gold.Rescore>
     Score         DG    S(hbond)    S(metal)    S(lipo)     H(rot)  DE(clash)    DE(int)     intcor
     21.50     -23.21       2.63        0.00     135.39       2.69       0.31       1.39       ----

> <Gold.Chemscore.Fitness>
21.5016

> <Gold.Chemscore.DG>
-23.2061

> <Gold.Chemscore.ZeroCoef>
-5.4800

> <Gold.Chemscore.Hbond>
2.6277

> <Gold.Chemscore.Metal>
0.0000

> <Gold.Chemscore.Lipo>
135.3863

> <Gold.Chemscore.Internal_Hbond>
0.0000

> <Gold.Chemscore.DEClash>
0.3102

> <Gold.Chemscore.DEInternal>
1.3943

> <Gold.Chemscore.Rot>
2.6917

> <Gold.Chemscore.Internal.Correction>
   9.000000E+99

> <Gold.Chemscore.Hbonds>
donor molecule, donor type, donor heavy atom, donor atom, acceptor molecule, acceptor atom, score
      L1  H     9    38       P1  7949  0.01
      L1  H    16    57       P1  8028  0.95
      P1  H  7997  8008       L1    12  0.48

> <Gold.Chemscore.Hbond.Weighted>
-8.7766

> <Gold.Chemscore.Metal.Weighted>
-0.0000

> <Gold.Chemscore.Lipo.Weighted>
-15.8402

> <Gold.Chemscore.Internal_Hbond.Weighted>
0.0000

> <Gold.Chemscore.DEClash.Weighted>
0.3102

> <Gold.Chemscore.DEInternal.Weighted>
1.3943

> <Gold.Chemscore.Rot.Weighted>
6.8907

> <Gold.Chemscore.Internal.Correction.Weighted>
   9.000000E+99

> <Gold.Protein.RotatedTorsions>
[ 6907 6896 6895 6894 ] final  106.51 input  -60.11 | X-H torsion
[ 7974 7965 7964 7962 ] final  -22.09 input  175.53 | X-H torsion
[ 8008 7997 7996 7995 ] final  -31.27 input   59.86 | X-H torsion
[ 10167 10162 10161 10158 ] final   23.37 input  -65.29 | X-H torsion
[ 10718 10713 10712 10709 ] final   52.75 input   66.30 | X-H torsion
[ 10763 10752 10751 10750 ] final  -83.30 input  -60.55 | X-H torsion
[ 11005 11000 10999 10996 ] final  -35.67 input  -57.11 | X-H torsion

> <Gold.Protein.ActiveResidues>
 VAL166  LYS551  ARG553  GLY616  TRP617  ASP618  TYR619  PRO620  LYS621  CYS622 
 ASP623  PHE694  ASN695  SER759  ASP760  ASP761  ALA762  ILE779  LEU786  VAL792 
 PHE793  MET794  SER795  GLU796  ALA797  LYS798  CYS799  TRP800  GLU811  SER814 

> <Gold.Protein.RotatedAtoms>
  152.5191  133.9370  159.7607 H   0  0  0  0  0  0  0  0  0  0  0  0  # atno 6907 bound_to 6896
  150.9708  133.6338  159.2745 H   0  0  0  0  0  0  0  0  0  0  0  0  # atno 6908 bound_to 6896
  151.3550  135.0898  159.9468 H   0  0  0  0  0  0  0  0  0  0  0  0  # atno 6909 bound_to 6896
  146.1696  140.4431  142.8538 H   0  0  0  0  0  0  0  0  0  0  0  0  # atno 7974 bound_to 7965
  154.4220  140.1769  156.1539 H   0  0  0  0  0  0  0  0  0  0  0  0  # atno 8008 bound_to 7997
  155.9893  140.3370  155.6713 H   0  0  0  0  0  0  0  0  0  0  0  0  # atno 8009 bound_to 7997
  155.6395  140.0678  157.2614 H   0  0  0  0  0  0  0  0  0  0  0  0  # atno 8010 bound_to 7997
  140.5274  143.9900  150.6447 H   0  0  0  0  0  0  0  0  0  0  0  0  # atno 10167 bound_to 10162
  157.5104  130.8497  149.8427 H   0  0  0  0  0  0  0  0  0  0  0  0  # atno 10718 bound_to 10713
  154.5861  135.5561  153.7232 H   0  0  0  0  0  0  0  0  0  0  0  0  # atno 10763 bound_to 10752
  153.0099  135.6332  154.1915 H   0  0  0  0  0  0  0  0  0  0  0  0  # atno 10764 bound_to 10752
  154.1855  135.2885  155.3018 H   0  0  0  0  0  0  0  0  0  0  0  0  # atno 10765 bound_to 10752
  140.9814  133.7054  156.1691 H   0  0  0  0  0  0  0  0  0  0  0  0  # atno 11005 bound_to 11000
  144.8142  140.6440  143.6395 LP  0  0  0  0  0  0  0  0  0  0  0  0  # atno 17320 bound_to 7965
  145.4377  139.1540  143.3987 LP  0  0  0  0  0  0  0  0  0  0  0  0  # atno 17321 bound_to 7965
  140.3265  143.3104  152.0731 LP  0  0  0  0  0  0  0  0  0  0  0  0  # atno 17342 bound_to 10162
  139.4943  144.6538  151.6617 LP  0  0  0  0  0  0  0  0  0  0  0  0  # atno 17343 bound_to 10162
  156.0285  130.3772  150.1754 LP  0  0  0  0  0  0  0  0  0  0  0  0  # atno 17370 bound_to 10713
  156.9944  130.9903  151.3407 LP  0  0  0  0  0  0  0  0  0  0  0  0  # atno 17371 bound_to 10713
  140.7180  134.4389  157.5577 LP  0  0  0  0  0  0  0  0  0  0  0  0  # atno 17394 bound_to 11000
  139.8952  134.8689  156.2143 LP  0  0  0  0  0  0  0  0  0  0  0  0  # atno 17395 bound_to 11000

$$$$
