AV-unprocessed.smi:1986|AV-procd|sdf|8052|dock2
  -GOLD-   2272010253D 1   1.00000     0.00000
 Structure written by MMmdl.
 48 49  0  0  0  0  0  0  0  0  2 V2000
  150.3350  132.1888  154.4243 C   0  0  0  0  0  0  0  0  0  0  0  0
  149.6358  133.2740  153.5863 C   0  0  0  0  0  0  0  0  0  0  0  0
  148.2671  133.7829  154.1332 C   0  0  1  0  0  0  0  0  0  0  0  0
  147.5814  132.6385  154.9246 C   0  0  0  0  0  0  0  0  0  0  0  0
  148.5110  134.9682  155.1239 C   0  0  0  0  0  0  0  0  0  0  0  0
  149.4802  135.9493  154.6391 N   0  0  0  0  0  0  0  0  0  0  0  0
  150.5232  136.4350  155.3269 C   0  0  0  0  0  0  0  0  0  0  0  0
  150.8490  136.0369  156.4448 O   0  0  0  0  0  0  0  0  0  0  0  0
  151.3113  137.5597  154.6462 C   0  0  0  0  0  0  0  0  0  0  0  0
  150.8528  138.8870  155.0786 N   0  0  0  0  0  0  0  0  0  0  0  0
  149.6980  139.3232  154.4478 N   0  0  0  0  0  0  0  0  0  0  0  0
  149.2018  140.4783  154.7381 C   0  0  0  0  0  0  0  0  0  0  0  0
  148.0579  140.8721  154.0887 O   0  0  0  0  0  0  0  0  0  0  0  0
  149.8287  141.3372  155.7188 C   0  0  0  0  0  0  0  0  0  0  0  0
  150.9512  140.9021  156.3319 C   0  0  0  0  0  0  0  0  0  0  0  0
  151.5396  139.5970  156.0274 C   0  0  0  0  0  0  0  0  0  0  0  0
  152.5620  139.1747  156.5696 O   0  0  0  0  0  0  0  0  0  0  0  0
  147.3630  134.2215  153.0053 N   0  3  0  0  0  0  0  0  0  0  0  0
  147.1046  133.2013  151.9506 C   0  0  0  0  0  0  0  0  0  0  0  0
  146.3758  133.8416  150.7590 C   0  0  0  0  0  0  0  0  0  0  0  0
  145.1471  134.3978  151.2049 O   0  0  0  0  0  0  0  0  0  0  0  0
  145.3509  135.4274  152.1627 C   0  0  0  0  0  0  0  0  0  0  0  0
  146.0760  134.8642  153.3981 C   0  0  0  0  0  0  0  0  0  0  0  0
  148.2265  140.7230  153.1710 H   0  0  0  0  0  0  0  0  0  0  0  0
  151.2806  131.9053  153.9616 H   0  0  0  0  0  0  0  0  0  0  0  0
  149.7339  131.2835  154.5034 H   0  0  0  0  0  0  0  0  0  0  0  0
  150.5620  132.5352  155.4322 H   0  0  0  0  0  0  0  0  0  0  0  0
  150.3328  134.1063  153.4933 H   0  0  0  0  0  0  0  0  0  0  0  0
  149.5110  132.8786  152.5787 H   0  0  0  0  0  0  0  0  0  0  0  0
  148.0624  132.4652  155.8874 H   0  0  0  0  0  0  0  0  0  0  0  0
  147.6183  131.6898  154.3884 H   0  0  0  0  0  0  0  0  0  0  0  0
  146.5334  132.8602  155.1285 H   0  0  0  0  0  0  0  0  0  0  0  0
  147.5756  135.4688  155.3792 H   0  0  0  0  0  0  0  0  0  0  0  0
  148.8929  134.5914  156.0728 H   0  0  0  0  0  0  0  0  0  0  0  0
  149.3154  136.3271  153.7171 H   0  0  0  0  0  0  0  0  0  0  0  0
  152.3691  137.4220  154.8771 H   0  0  0  0  0  0  0  0  0  0  0  0
  151.2339  137.4785  153.5599 H   0  0  0  0  0  0  0  0  0  0  0  0
  149.4006  142.3019  155.9489 H   0  0  0  0  0  0  0  0  0  0  0  0
  151.4291  141.5339  157.0662 H   0  0  0  0  0  0  0  0  0  0  0  0
  148.0285  132.7544  151.5880 H   0  0  0  0  0  0  0  0  0  0  0  0
  146.4928  132.3917  152.3488 H   0  0  0  0  0  0  0  0  0  0  0  0
  146.9931  134.6083  150.2873 H   0  0  0  0  0  0  0  0  0  0  0  0
  146.1654  133.0891  149.9989 H   0  0  0  0  0  0  0  0  0  0  0  0
  145.9151  136.2473  151.7168 H   0  0  0  0  0  0  0  0  0  0  0  0
  144.3814  135.8337  152.4517 H   0  0  0  0  0  0  0  0  0  0  0  0
  145.4306  134.1418  153.8980 H   0  0  0  0  0  0  0  0  0  0  0  0
  146.2311  135.6904  154.0894 H   0  0  0  0  0  0  0  0  0  0  0  0
  147.8835  134.9535  152.5420 H   0  0  0  0  0  0  0  0  0  0  0  0
  1  2  1  0  0  0  0
  1 25  1  0  0  0  0
  1 26  1  0  0  0  0
  1 27  1  0  0  0  0
  2  3  1  0  0  0  0
  2 28  1  0  0  0  0
  2 29  1  0  0  0  0
  3  4  1  0  0  0  0
  3  5  1  0  0  0  0
  3 18  1  0  0  0  0
  4 30  1  0  0  0  0
  4 31  1  0  0  0  0
  4 32  1  0  0  0  0
  5  6  1  0  0  0  0
  5 33  1  0  0  0  0
  5 34  1  0  0  0  0
  6  7  1  0  0  0  0
  6 35  1  0  0  0  0
  7  8  2  0  0  0  0
  7  9  1  0  0  0  0
  9 36  1  0  0  0  0
  9 37  1  0  0  0  0
  9 10  1  0  0  0  0
 10 11  1  0  0  0  0
 10 16  1  0  0  0  0
 11 12  2  0  0  0  0
 12 13  1  0  0  0  0
 12 14  1  0  0  0  0
 13 24  1  0  0  0  0
 14 38  1  0  0  0  0
 14 15  2  0  0  0  0
 15 39  1  0  0  0  0
 15 16  1  0  0  0  0
 16 17  2  0  0  0  0
 18 23  1  0  0  0  0
 18 19  1  0  0  0  0
 18 48  1  0  0  0  0
 19 20  1  0  0  0  0
 19 40  1  0  0  0  0
 19 41  1  0  0  0  0
 20 21  1  0  0  0  0
 20 42  1  0  0  0  0
 20 43  1  0  0  0  0
 21 22  1  0  0  0  0
 22 23  1  0  0  0  0
 22 44  1  0  0  0  0
 22 45  1  0  0  0  0
 23 46  1  0  0  0  0
 23 47  1  0  0  0  0
M  CHG  1  18   1
M  END
> <s_m_source_file>
AV-unprocessed.smi

> <i_m_source_file_index>
1986

> <i_lp_mmshare_version>
43012

> <i_f3d_flags>
0

> <s_epik_input>
W0NIMl0xW0NIMl1PW0NIMl1bQ0gyXU4xW0NAQF0oW0NIM10pKFtDSDJdW0NIM10pW0NIMl1bTkhdQyg9TylbQ0gyXW4yW25IXWMoPU8pW2NIXVtjSF1jMj1P

> <s_epik_cmdline>
J2VwaWtfcHl0aG9uJywgJy1waCcsICc3LjAnLCAnLXRuJywgJzgnLCAnLW1hJywgJzIwMCcsICctbWV0YWxfYmluZGluZycsICctaW1hZScsICc8aW5maWxlLm1hZT4nLCAnLW9tYWUnLCAnPG91dGZpbGUubWFlPic=

> <r_lp_tautomer_probability>
0.9996

> <r_epik_Ionization_Penalty>
2.73198

> <r_epik_Ionization_Penalty_Charging>
0.519658

> <r_epik_Ionization_Penalty_Neutral>
2.21233

> <r_epik_State_Penalty>
2.2852

> <r_epik_Charging_Adjusted_Penalty>
2.80486

> <i_epik_Tot_Q>
1

> <i_epik_Tot_abs_Q>
1

> <r_epik_Metal_State_Penalty>
2.2852

> <b_epik_Metal_Only>
0

> <s_lp_Force_Field>
OPLS_2005

> <r_lp_Energy>
43.5621

> <b_lp_Chiralities_Consistent>
1

> <s_lp_Variant>
AV-unprocessed.smi:1986-7

> <Gold.Version>
5.8.1

> <Gold.Id.Protein>
6NUR|6NUR_protein|mol2

> <Gold.PLP.Fitness>
51.2053

> <Gold.PLP.PLP>
-38.8626

> <Gold.PLP.part.hbond>
-4.0000

> <Gold.PLP.part.metal>
0.0000

> <Gold.PLP.part.buried>
-5.6416

> <Gold.PLP.part.nonpolar>
-28.8724

> <Gold.PLP.part.repulsive>
0.4750

> <Gold.PLP.ligand.clash>
0.0000

> <Gold.PLP.ligand.torsion>
1.4800

> <Gold.PLP.Chemscore.Hbond>
4.9913

> <Gold.PLP.Chemscore.CHOScore>
0.0000

> <Gold.PLP.Chemscore.Metal>
0.0000

> <Gold.Chemscore.Hbonds>
donor molecule, donor type, donor heavy atom, donor atom, acceptor molecule, acceptor atom, score
      L1  H     6    35       P1  7948  1.00
      L1  H    18    48       P1  7948  2.00
      P1  H  7997  8008       L1    17  0.74

> <Gold.PLP.Chemscore.Internal.Correction>
0.3290

> <Gold.Rescore>
     Score         DG    S(hbond)    S(metal)    S(lipo)     H(rot)  DE(clash)    DE(int)     intcor
     15.27     -17.33       3.80        0.00      61.66       3.15       0.25       1.81       ----

> <Gold.Chemscore.Fitness>
15.2657

> <Gold.Chemscore.DG>
-17.3265

> <Gold.Chemscore.ZeroCoef>
-5.4800

> <Gold.Chemscore.Hbond>
3.8003

> <Gold.Chemscore.Metal>
0.0000

> <Gold.Chemscore.Lipo>
61.6561

> <Gold.Chemscore.Internal_Hbond>
0.0000

> <Gold.Chemscore.DEClash>
0.2473

> <Gold.Chemscore.DEInternal>
1.8135

> <Gold.Chemscore.Rot>
3.1485

> <Gold.Chemscore.Internal.Correction>
   9.000000E+99

> <Gold.Chemscore.Hbonds>
donor molecule, donor type, donor heavy atom, donor atom, acceptor molecule, acceptor atom, score
      L1  H     6    35       P1  7948  0.86
      L1  H    13    24       P1  7957  0.01
      L1  H    18    48       P1  7948  0.91
      P1  H  7997  8008       L1    17  0.66

> <Gold.Chemscore.Hbond.Weighted>
-12.6929

> <Gold.Chemscore.Metal.Weighted>
-0.0000

> <Gold.Chemscore.Lipo.Weighted>
-7.2138

> <Gold.Chemscore.Internal_Hbond.Weighted>
0.0000

> <Gold.Chemscore.DEClash.Weighted>
0.2473

> <Gold.Chemscore.DEInternal.Weighted>
1.8135

> <Gold.Chemscore.Rot.Weighted>
8.0601

> <Gold.Chemscore.Internal.Correction.Weighted>
   9.000000E+99

> <Gold.Protein.RotatedTorsions>
[ 6907 6896 6895 6894 ] final  116.96 input  -60.11 | X-H torsion
[ 7974 7965 7964 7962 ] final  176.57 input  175.53 | X-H torsion
[ 8008 7997 7996 7995 ] final  -26.67 input   59.86 | X-H torsion
[ 10167 10162 10161 10158 ] final -145.04 input  -65.29 | X-H torsion
[ 10718 10713 10712 10709 ] final  146.96 input   66.30 | X-H torsion
[ 10763 10752 10751 10750 ] final   87.76 input  -60.55 | X-H torsion
[ 11005 11000 10999 10996 ] final   -5.92 input  -57.11 | X-H torsion

> <Gold.Protein.ActiveResidues>
 VAL166  LYS551  ARG553  GLY616  TRP617  ASP618  TYR619  PRO620  LYS621  CYS622 
 ASP623  PHE694  ASN695  SER759  ASP760  ASP761  ALA762  ILE779  LEU786  VAL792 
 PHE793  MET794  SER795  GLU796  ALA797  LYS798  CYS799  TRP800  GLU811  SER814 

> <Gold.Protein.RotatedAtoms>
  152.4643  133.7889  159.6891 H   0  0  0  0  0  0  0  0  0  0  0  0  # atno 6907 bound_to 6896
  150.8601  133.7647  159.3002 H   0  0  0  0  0  0  0  0  0  0  0  0  # atno 6908 bound_to 6896
  151.5215  135.1070  159.9931 H   0  0  0  0  0  0  0  0  0  0  0  0  # atno 6909 bound_to 6896
  144.7182  140.0117  143.6440 H   0  0  0  0  0  0  0  0  0  0  0  0  # atno 7974 bound_to 7965
  154.4414  140.1893  156.0811 H   0  0  0  0  0  0  0  0  0  0  0  0  # atno 8008 bound_to 7997
  156.0438  140.3316  155.7247 H   0  0  0  0  0  0  0  0  0  0  0  0  # atno 8009 bound_to 7997
  155.5660  140.0608  157.2808 H   0  0  0  0  0  0  0  0  0  0  0  0  # atno 8010 bound_to 7997
  139.7843  143.8056  152.2642 H   0  0  0  0  0  0  0  0  0  0  0  0  # atno 10167 bound_to 10162
  157.3269  131.0913  151.1195 H   0  0  0  0  0  0  0  0  0  0  0  0  # atno 10718 bound_to 10713
  153.1701  135.4531  154.9890 H   0  0  0  0  0  0  0  0  0  0  0  0  # atno 10763 bound_to 10752
  154.7960  135.3237  154.7669 H   0  0  0  0  0  0  0  0  0  0  0  0  # atno 10764 bound_to 10752
  153.8146  135.6952  153.4890 H   0  0  0  0  0  0  0  0  0  0  0  0  # atno 10765 bound_to 10752
  140.6963  133.9028  155.8652 H   0  0  0  0  0  0  0  0  0  0  0  0  # atno 11005 bound_to 11000
  146.0253  139.3286  143.0788 LP  0  0  0  0  0  0  0  0  0  0  0  0  # atno 17320 bound_to 7965
  145.8519  140.9524  143.0745 LP  0  0  0  0  0  0  0  0  0  0  0  0  # atno 17321 bound_to 7965
  139.8128  144.7328  150.9674 LP  0  0  0  0  0  0  0  0  0  0  0  0  # atno 17342 bound_to 10162
  140.7819  143.4234  151.0806 LP  0  0  0  0  0  0  0  0  0  0  0  0  # atno 17343 bound_to 10162
  157.2458  130.6591  149.5910 LP  0  0  0  0  0  0  0  0  0  0  0  0  # atno 17370 bound_to 10713
  155.9691  130.4554  150.5885 LP  0  0  0  0  0  0  0  0  0  0  0  0  # atno 17371 bound_to 10713
  141.0200  134.0902  157.4131 LP  0  0  0  0  0  0  0  0  0  0  0  0  # atno 17394 bound_to 11000
  139.8909  135.0115  156.6762 LP  0  0  0  0  0  0  0  0  0  0  0  0  # atno 17395 bound_to 11000

$$$$
