AV-unprocessed.smi:438|AV-procd|sdf|2565|dock4
  -GOLD-   2262022533D 1   1.00000     0.00000
 Structure written by MMmdl.
 48 49  0  0  0  0  0  0  0  0  1 V2000
  145.2918  129.2164  152.0159 C   0  0  0  0  0  0  0  0  0  0  0  0
  146.0213  130.4696  152.4660 C   0  0  0  0  0  0  0  0  0  0  0  0
  146.7303  130.3581  153.6688 N   0  0  0  0  0  0  0  0  0  0  0  0
  147.3867  131.3732  154.1320 C   0  0  0  0  0  0  0  0  0  0  0  0
  148.3900  131.5026  155.6385 S   0  0  0  0  0  0  0  0  0  0  0  0
  147.5812  132.8888  156.4875 C   0  0  0  0  0  0  0  0  0  0  0  0
  148.2624  133.2243  157.8101 C   0  0  0  0  0  0  0  0  0  0  0  0
  149.4681  133.4683  157.8415 O   0  0  0  0  0  0  0  0  0  0  0  0
  147.4745  133.2236  158.8960 N   0  0  0  0  0  0  0  0  0  0  0  0
  147.9123  133.4554  160.2719 C   0  0  2  0  0  0  0  0  0  0  0  0
  147.3924  132.3401  161.2052 C   0  0  0  0  0  0  0  0  0  0  0  0
  145.8663  132.4052  161.3904 C   0  0  0  0  0  0  0  0  0  0  0  0
  145.4259  133.7899  161.8884 C   0  0  0  0  0  0  0  0  0  0  0  0
  145.9265  134.9065  160.9578 C   0  0  0  0  0  0  0  0  0  0  0  0
  147.4577  134.8489  160.7722 C   0  0  2  0  0  0  0  0  0  0  0  0
  147.9634  135.9968  159.8813 C   0  0  0  0  0  0  0  0  0  0  0  0
  147.3899  132.5875  153.4448 N   0  0  0  0  0  0  0  0  0  0  0  0
  146.7365  132.7983  152.2808 C   0  0  0  0  0  0  0  0  0  0  0  0
  146.7795  133.8981  151.7319 O   0  0  0  0  0  0  0  0  0  0  0  0
  145.9980  131.6354  151.7611 C   0  0  0  0  0  0  0  0  0  0  0  0
  145.2599  131.7976  150.4351 C   0  0  0  0  0  0  0  0  0  0  0  0
  144.1567  132.8630  150.5110 C   0  0  0  0  0  0  0  0  0  0  0  0
  143.2599  132.6991  149.4341 O   0  0  0  0  0  0  0  0  0  0  0  0
  144.2445  129.4346  151.8062 H   0  0  0  0  0  0  0  0  0  0  0  0
  145.3227  128.4428  152.7842 H   0  0  0  0  0  0  0  0  0  0  0  0
  145.7511  128.8117  151.1138 H   0  0  0  0  0  0  0  0  0  0  0  0
  146.5378  132.6379  156.6815 H   0  0  0  0  0  0  0  0  0  0  0  0
  147.5875  133.7626  155.8346 H   0  0  0  0  0  0  0  0  0  0  0  0
  146.4951  133.0150  158.7653 H   0  0  0  0  0  0  0  0  0  0  0  0
  149.0036  133.4345  160.2894 H   0  0  0  0  0  0  0  0  0  0  0  0
  147.6799  131.3585  160.8264 H   0  0  0  0  0  0  0  0  0  0  0  0
  147.8732  132.4374  162.1792 H   0  0  0  0  0  0  0  0  0  0  0  0
  145.3689  132.1794  160.4463 H   0  0  0  0  0  0  0  0  0  0  0  0
  145.5459  131.6386  162.0963 H   0  0  0  0  0  0  0  0  0  0  0  0
  144.3388  133.8291  161.9643 H   0  0  0  0  0  0  0  0  0  0  0  0
  145.8112  133.9548  162.8955 H   0  0  0  0  0  0  0  0  0  0  0  0
  145.4293  134.8242  159.9903 H   0  0  0  0  0  0  0  0  0  0  0  0
  145.6378  135.8750  161.3675 H   0  0  0  0  0  0  0  0  0  0  0  0
  147.9068  134.9966  161.7557 H   0  0  0  0  0  0  0  0  0  0  0  0
  147.5150  135.9674  158.8878 H   0  0  0  0  0  0  0  0  0  0  0  0
  149.0458  135.9504  159.7601 H   0  0  0  0  0  0  0  0  0  0  0  0
  147.7239  136.9654  160.3208 H   0  0  0  0  0  0  0  0  0  0  0  0
  147.9079  133.3607  153.8363 H   0  0  0  0  0  0  0  0  0  0  0  0
  144.8274  130.8464  150.1255 H   0  0  0  0  0  0  0  0  0  0  0  0
  145.9749  132.0533  149.6517 H   0  0  0  0  0  0  0  0  0  0  0  0
  143.6053  132.7808  151.4481 H   0  0  0  0  0  0  0  0  0  0  0  0
  144.5812  133.8664  150.4679 H   0  0  0  0  0  0  0  0  0  0  0  0
  142.5998  133.3734  149.4870 H   0  0  0  0  0  0  0  0  0  0  0  0
  1 24  1  0  0  0  0
  1 25  1  0  0  0  0
  1 26  1  0  0  0  0
  1  2  1  0  0  0  0
  2 20  2  0  0  0  0
  2  3  1  0  0  0  0
  3  4  2  0  0  0  0
  4  5  1  0  0  0  0
  4 17  1  0  0  0  0
  5  6  1  0  0  0  0
  6  7  1  0  0  0  0
  6 27  1  0  0  0  0
  6 28  1  0  0  0  0
  7  8  2  0  0  0  0
  7  9  1  0  0  0  0
  9 10  1  0  0  0  0
  9 29  1  0  0  0  0
 10 15  1  0  0  0  0
 10 11  1  0  0  0  0
 10 30  1  0  0  0  0
 11 12  1  0  0  0  0
 11 31  1  0  0  0  0
 11 32  1  0  0  0  0
 12 13  1  0  0  0  0
 12 33  1  0  0  0  0
 12 34  1  0  0  0  0
 13 14  1  0  0  0  0
 13 35  1  0  0  0  0
 13 36  1  0  0  0  0
 14 15  1  0  0  0  0
 14 37  1  0  0  0  0
 14 38  1  0  0  0  0
 15 16  1  0  0  0  0
 15 39  1  0  0  0  0
 16 40  1  0  0  0  0
 16 41  1  0  0  0  0
 16 42  1  0  0  0  0
 17 43  1  0  0  0  0
 17 18  1  0  0  0  0
 18 19  2  0  0  0  0
 18 20  1  0  0  0  0
 20 21  1  0  0  0  0
 21 22  1  0  0  0  0
 21 44  1  0  0  0  0
 21 45  1  0  0  0  0
 22 23  1  0  0  0  0
 22 46  1  0  0  0  0
 22 47  1  0  0  0  0
 23 48  1  0  0  0  0
M  END
> <s_m_source_file>
AV-unprocessed.smi

> <i_m_source_file_index>
438

> <i_lp_mmshare_version>
43012

> <i_f3d_flags>
0

> <s_epik_input>
W09IXVtDSDJdW0NIMl1jMWMoW09IXSluYyhuYzFbQ0gzXSlTW0NIMl1DKD1PKVtOSF1bQ0BASF0yW0NIMl1bQ0gyXVtDSDJdW0NIMl1bQ0BIXTJbQ0gzXQ==

> <s_epik_cmdline>
J2VwaWtfcHl0aG9uJywgJy1waCcsICc3LjAnLCAnLXRuJywgJzgnLCAnLW1hJywgJzIwMCcsICctbWV0YWxfYmluZGluZycsICctaW1hZScsICc8aW5maWxlLm1hZT4nLCAnLW9tYWUnLCAnPG91dGZpbGUubWFlPic=

> <r_lp_tautomer_probability>
0.660323

> <r_epik_Ionization_Penalty>
0.00860626

> <r_epik_Ionization_Penalty_Charging>
0.00860522

> <r_epik_Ionization_Penalty_Neutral>
1.04215e-06

> <r_epik_State_Penalty>
0.156825

> <r_epik_Charging_Adjusted_Penalty>
0.16543

> <i_epik_Tot_Q>
0

> <i_epik_Tot_abs_Q>
0

> <r_epik_Metal_State_Penalty>
0.752038

> <b_epik_Metal_Only>
0

> <s_lp_Force_Field>
OPLS_2005

> <r_lp_Energy>
12.4019

> <b_lp_Chiralities_Consistent>
1

> <s_lp_Variant>
AV-unprocessed.smi:438-3

> <Gold.Version>
5.8.1

> <Gold.Id.Protein>
6NUR|6NUR_protein|mol2

> <Gold.PLP.Fitness>
40.7468

> <Gold.PLP.PLP>
-34.0614

> <Gold.PLP.part.hbond>
-3.4671

> <Gold.PLP.part.metal>
0.0000

> <Gold.PLP.part.buried>
-6.5780

> <Gold.PLP.part.nonpolar>
-24.6297

> <Gold.PLP.part.repulsive>
0.3136

> <Gold.PLP.ligand.clash>
0.0000

> <Gold.PLP.ligand.torsion>
0.2271

> <Gold.PLP.Chemscore.Hbond>
2.3725

> <Gold.PLP.Chemscore.CHOScore>
0.0000

> <Gold.PLP.Chemscore.Metal>
0.0000

> <Gold.Chemscore.Hbonds>
donor molecule, donor type, donor heavy atom, donor atom, acceptor molecule, acceptor atom, score
      L1  H    23    48       P1 10186  1.00
      P1  H  6896  6908       L1     8  1.00

> <Gold.PLP.Chemscore.Internal.Correction>
0.0222

> <Gold.Rescore>
     Score         DG    S(hbond)    S(metal)    S(lipo)     H(rot)  DE(clash)    DE(int)     intcor
     14.54     -15.08       1.96        0.00      88.82       2.86       0.09       0.45       ----

> <Gold.Chemscore.Fitness>
14.5362

> <Gold.Chemscore.DG>
-15.0790

> <Gold.Chemscore.ZeroCoef>
-5.4800

> <Gold.Chemscore.Hbond>
1.9582

> <Gold.Chemscore.Metal>
0.0000

> <Gold.Chemscore.Lipo>
88.8186

> <Gold.Chemscore.Internal_Hbond>
0.0000

> <Gold.Chemscore.DEClash>
0.0930

> <Gold.Chemscore.DEInternal>
0.4498

> <Gold.Chemscore.Rot>
2.8645

> <Gold.Chemscore.Internal.Correction>
   9.000000E+99

> <Gold.Chemscore.Hbonds>
donor molecule, donor type, donor heavy atom, donor atom, acceptor molecule, acceptor atom, score
      L1  H    23    48       P1 10186  1.00
      P1  H  6896  6908       L1     8  0.98

> <Gold.Chemscore.Hbond.Weighted>
-6.5403

> <Gold.Chemscore.Metal.Weighted>
-0.0000

> <Gold.Chemscore.Lipo.Weighted>
-10.3918

> <Gold.Chemscore.Internal_Hbond.Weighted>
0.0000

> <Gold.Chemscore.DEClash.Weighted>
0.0930

> <Gold.Chemscore.DEInternal.Weighted>
0.4498

> <Gold.Chemscore.Rot.Weighted>
7.3331

> <Gold.Chemscore.Internal.Correction.Weighted>
   9.000000E+99

> <Gold.Protein.RotatedTorsions>
[ 6907 6896 6895 6894 ] final  116.76 input  -60.11 | X-H torsion
[ 7974 7965 7964 7962 ] final -155.31 input  175.53 | X-H torsion
[ 8008 7997 7996 7995 ] final  174.02 input   59.86 | X-H torsion
[ 10167 10162 10161 10158 ] final  128.84 input  -65.29 | X-H torsion
[ 10718 10713 10712 10709 ] final  -85.95 input   66.30 | X-H torsion
[ 10763 10752 10751 10750 ] final  -61.58 input  -60.55 | X-H torsion
[ 11005 11000 10999 10996 ] final  -53.41 input  -57.11 | X-H torsion

> <Gold.Protein.ActiveResidues>
 VAL166  LYS551  ARG553  GLY616  TRP617  ASP618  TYR619  PRO620  LYS621  CYS622 
 ASP623  PHE694  ASN695  SER759  ASP760  ASP761  ALA762  ILE779  LEU786  VAL792 
 PHE793  MET794  SER795  GLU796  ALA797  LYS798  CYS799  TRP800  GLU811  SER814 

> <Gold.Protein.RotatedAtoms>
  152.4657  133.7917  159.6905 H   0  0  0  0  0  0  0  0  0  0  0  0  # atno 6907 bound_to 6896
  150.8620  133.7620  159.2995 H   0  0  0  0  0  0  0  0  0  0  0  0  # atno 6908 bound_to 6896
  151.5182  135.1070  159.9923 H   0  0  0  0  0  0  0  0  0  0  0  0  # atno 6909 bound_to 6896
  144.7646  140.4267  143.5951 H   0  0  0  0  0  0  0  0  0  0  0  0  # atno 7974 bound_to 7965
  156.1016  140.1445  156.9460 H   0  0  0  0  0  0  0  0  0  0  0  0  # atno 8008 bound_to 7997
  154.4706  140.0911  156.7180 H   0  0  0  0  0  0  0  0  0  0  0  0  # atno 8009 bound_to 7997
  155.4750  140.3443  155.4333 H   0  0  0  0  0  0  0  0  0  0  0  0  # atno 8010 bound_to 7997
  139.5507  144.6810  151.4333 H   0  0  0  0  0  0  0  0  0  0  0  0  # atno 10167 bound_to 10162
  155.9993  130.4748  150.4640 H   0  0  0  0  0  0  0  0  0  0  0  0  # atno 10718 bound_to 10713
  154.2868  135.6261  153.5369 H   0  0  0  0  0  0  0  0  0  0  0  0  # atno 10763 bound_to 10752
  152.9858  135.5646  154.5434 H   0  0  0  0  0  0  0  0  0  0  0  0  # atno 10764 bound_to 10752
  154.5037  135.2873  155.1376 H   0  0  0  0  0  0  0  0  0  0  0  0  # atno 10765 bound_to 10752
  141.0975  133.6622  156.4169 H   0  0  0  0  0  0  0  0  0  0  0  0  # atno 11005 bound_to 11000
  145.6510  139.1565  143.2862 LP  0  0  0  0  0  0  0  0  0  0  0  0  # atno 17320 bound_to 7965
  146.1742  140.6599  142.9219 LP  0  0  0  0  0  0  0  0  0  0  0  0  # atno 17321 bound_to 7965
  140.6768  143.8171  150.7069 LP  0  0  0  0  0  0  0  0  0  0  0  0  # atno 17342 bound_to 10162
  140.1612  143.4274  152.2065 LP  0  0  0  0  0  0  0  0  0  0  0  0  # atno 17343 bound_to 10162
  157.2661  131.0577  151.2289 LP  0  0  0  0  0  0  0  0  0  0  0  0  # atno 17370 bound_to 10713
  157.3386  130.7022  149.6368 LP  0  0  0  0  0  0  0  0  0  0  0  0  # atno 17371 bound_to 10713
  140.5105  134.6400  157.5282 LP  0  0  0  0  0  0  0  0  0  0  0  0  # atno 17394 bound_to 11000
  139.9815  134.7129  155.9850 LP  0  0  0  0  0  0  0  0  0  0  0  0  # atno 17395 bound_to 11000

$$$$
