#       Name:                AV-unprocessed.smi:790
#       Creating user name   scv26
#       Creation time:       Fri Mar 27 01:17:27 2020


#       File generated by GOLD software.
#

@<TRIPOS>MOLECULE
AV-unprocessed.smi:790
    43    45     1
SMALL
NO_CHARGES


@<TRIPOS>ATOM
      1 ****        -0.3206   1.9405   0.6504 O.2            1 S1                 0.0000
      2 ****        -0.8232   0.8188   0.5864 C.2            1 S1                 0.0000
      3 ****        -2.1401   0.5532   0.6194 N.am           1 S1                 0.0000
      4 ****        -3.2246   1.4684   0.6969 C.ar           1 S1                 0.0000
      5 ****        -3.1502   2.8271   0.3049 C.ar           1 S1                 0.0000
      6 ****        -4.3027   3.6292   0.4121 C.ar           1 S1                 0.0000
      7 ****        -5.4872   3.0439   0.8994 C.ar           1 S1                 0.0000
      8 ****        -5.5762   1.7472   1.2634 N.ar           1 S1                 0.0000
      9 ****        -4.4675   0.9840   1.1572 C.ar           1 S1                 0.0000
     10 ****        -0.1049  -0.3086   0.4848 N.am           1 S1                 0.0000
     11 ****         1.3567  -0.3813   0.4554 C.3            1 S1                 0.0000
     12 ****         1.8344  -1.7378   1.0177 C.3            1 S1                 0.0000
     13 ****         3.3360  -1.6459   1.3448 C.3            1 S1                 0.0000
     14 ****         3.9808  -1.6168  -0.0540 C.3            1 S1                 0.0000
     15 ****         2.7628  -1.6979  -0.9961 C.3            1 S1                 0.0000
     16 ****         1.8411  -2.6287  -0.2187 C.3            1 S1                 0.0000
     17 ****         1.9981  -0.3515  -0.9659 C.3            1 S1                 0.0000
     18 ****         1.0248  -0.1751  -2.1540 C.3            1 S1                 0.0000
     19 ****         1.7409  -0.0786  -3.3673 O.3            1 S1                 0.0000
     20 ****        -2.3961  -0.4231   0.6437 H              1 S1                 0.0000
     21 ****        -2.2448   3.2640  -0.0864 H              1 S1                 0.0000
     22 ****        -4.2799   4.6695   0.1223 H              1 S1                 0.0000
     23 ****        -6.3885   3.6313   0.9936 H              1 S1                 0.0000
     24 ****        -4.5762  -0.0487   1.4552 H              1 S1                 0.0000
     25 ****        -0.6017  -1.1861   0.4396 H              1 S1                 0.0000
     26 ****         1.7590   0.4275   1.0687 H              1 S1                 0.0000
     27 ****         1.2369  -2.1095   1.8511 H              1 S1                 0.0000
     28 ****         3.5823  -0.7640   1.9372 H              1 S1                 0.0000
     29 ****         3.6668  -2.5241   1.9008 H              1 S1                 0.0000
     30 ****         4.5772  -0.7189  -0.2198 H              1 S1                 0.0000
     31 ****         4.6344  -2.4793  -0.1911 H              1 S1                 0.0000
     32 ****         3.0218  -2.0431  -1.9974 H              1 S1                 0.0000
     33 ****         2.2737  -3.6146  -0.0391 H              1 S1                 0.0000
     34 ****         0.8568  -2.7507  -0.6728 H              1 S1                 0.0000
     35 ****         2.7112   0.4735  -1.0095 H              1 S1                 0.0000
     36 ****         0.3173  -1.0016  -2.2211 H              1 S1                 0.0000
     37 ****         0.4467   0.7421  -2.0422 H              1 S1                 0.0000
     38 ****         1.1251   0.0655  -4.0695 H              1 S1                 0.0000
     39 ****        -0.9062   2.7467   0.7345 LP             1 S1                 0.0000
     40 ****         0.6733   2.0456   0.6183 LP             1 S1                 0.0000
     41 ****        -6.4360   1.3640   1.6010 LP             1 S1                 0.0000
     42 ****         2.2448  -0.9270  -3.5297 LP             1 S1                 0.0000
     43 ****         2.3830   0.6866  -3.3198 LP             1 S1                 0.0000
@<TRIPOS>BOND
    1    1    2 2     
    2    2    3 am    
    3    2   10 am    
    4    3    4 1     
    5    3   20 1     
    6    4    9 ar    
    7    4    5 ar    
    8    5    6 ar    
    9    5   21 1     
   10    6    7 ar    
   11    6   22 1     
   12    7    8 ar    
   13    7   23 1     
   14    8    9 ar    
   15    9   24 1     
   16   10   11 1     
   17   10   25 1     
   18   11   17 1     
   19   11   12 1     
   20   11   26 1     
   21   12   16 1     
   22   12   13 1     
   23   12   27 1     
   24   13   14 1     
   25   13   28 1     
   26   13   29 1     
   27   14   15 1     
   28   14   30 1     
   29   14   31 1     
   30   15   16 1     
   31   15   17 1     
   32   15   32 1     
   33   16   33 1     
   34   16   34 1     
   35   17   18 1     
   36   17   35 1     
   37   18   19 1     
   38   18   36 1     
   39   18   37 1     
   40   19   38 1     
   41    1   39 1     
   42    1   40 1     
   43    8   41 1     
   44   19   42 1     
   45   19   43 1     
@<TRIPOS>SUBSTRUCTURE
      1 S1             1
@<TRIPOS>SET
LONE_PAIRS      STATIC     ATOMS    <user>   **** ""
5 39 40 41 42 43
DONOR_HYDROGENS      STATIC     ATOMS    <user>   **** ""
3 20 25 38
ATOM$BLUE        STATIC     ATOMS    COLORGROUP SYSTEM
5 39 40 41 42 43
ATOM$RED        STATIC     ATOMS    COLORGROUP SYSTEM
3 20 25 38
