AV-unprocessed.smi:817|AV-procd|sdf|3828|dock7
  -GOLD-   22720 1273D 1   1.00000     0.00000
 Structure written by MMmdl.
 48 49  0  0  0  0  0  0  0  0  2 V2000
  145.9759  132.1303  150.0022 C   0  0  0  0  0  0  0  0  0  0  0  0
  145.8289  132.3741  151.5108 C   0  0  2  0  0  0  0  0  0  0  0  0
  144.8942  133.5641  151.7948 C   0  0  0  0  0  0  0  0  0  0  0  0
  144.7919  133.8608  153.2979 C   0  0  0  0  0  0  0  0  0  0  0  0
  146.1866  134.0543  153.9206 C   0  0  0  0  0  0  0  0  0  0  0  0
  147.1116  132.8156  153.7215 C   0  0  1  0  0  0  0  0  0  0  0  0
  148.5284  133.1166  154.2992 C   0  0  0  0  0  0  0  0  0  0  0  0
  148.9890  134.4788  154.0223 N   0  0  0  0  0  0  0  0  0  0  0  0
  149.6985  135.2846  154.8311 C   0  0  0  0  0  0  0  0  0  0  0  0
  150.0272  134.9211  155.9576 O   0  0  0  0  0  0  0  0  0  0  0  0
  149.9768  136.4906  154.2978 N   0  0  0  0  0  0  0  0  0  0  0  0
  150.7060  137.5690  154.8673 C   0  0  0  0  0  0  0  0  0  0  0  0
  151.1927  137.4138  156.1818 C   0  0  0  0  0  0  0  0  0  0  0  0
  151.9054  138.4701  156.7798 C   0  0  0  0  0  0  0  0  0  0  0  0
  152.0980  139.6515  156.0383 C   0  0  0  0  0  0  0  0  0  0  0  0
  151.6261  139.8238  154.7858 N   0  0  0  0  0  0  0  0  0  0  0  0
  150.9442  138.8060  154.2176 C   0  0  0  0  0  0  0  0  0  0  0  0
  146.5157  131.6006  154.3946 N   0  3  0  0  0  0  0  0  0  0  0  0
  146.2841  131.7154  155.8590 C   0  0  0  0  0  0  0  0  0  0  0  0
  147.1599  130.2986  154.0755 C   0  0  0  0  0  0  0  0  0  0  0  0
  147.2039  132.5987  152.1792 C   0  0  0  0  0  0  0  0  0  0  0  0
  146.4302  132.9873  149.5036 H   0  0  0  0  0  0  0  0  0  0  0  0
  145.0063  131.9508  149.5369 H   0  0  0  0  0  0  0  0  0  0  0  0
  146.6022  131.2601  149.8037 H   0  0  0  0  0  0  0  0  0  0  0  0
  145.3744  131.4787  151.9362 H   0  0  0  0  0  0  0  0  0  0  0  0
  145.2639  134.4514  151.2787 H   0  0  0  0  0  0  0  0  0  0  0  0
  143.9006  133.3662  151.3909 H   0  0  0  0  0  0  0  0  0  0  0  0
  144.1930  134.7588  153.4523 H   0  0  0  0  0  0  0  0  0  0  0  0
  144.2611  133.0517  153.8006 H   0  0  0  0  0  0  0  0  0  0  0  0
  146.6345  134.9293  153.4483 H   0  0  0  0  0  0  0  0  0  0  0  0
  146.0982  134.3303  154.9704 H   0  0  0  0  0  0  0  0  0  0  0  0
  148.5358  132.9804  155.3808 H   0  0  0  0  0  0  0  0  0  0  0  0
  149.2632  132.4265  153.8845 H   0  0  0  0  0  0  0  0  0  0  0  0
  148.7400  134.8556  153.1189 H   0  0  0  0  0  0  0  0  0  0  0  0
  149.5727  136.6754  153.3918 H   0  0  0  0  0  0  0  0  0  0  0  0
  151.0269  136.4960  156.7267 H   0  0  0  0  0  0  0  0  0  0  0  0
  152.2955  138.3777  157.7825 H   0  0  0  0  0  0  0  0  0  0  0  0
  152.6407  140.4823  156.4643 H   0  0  0  0  0  0  0  0  0  0  0  0
  150.5721  139.0147  153.2270 H   0  0  0  0  0  0  0  0  0  0  0  0
  147.2177  131.8035  156.4134 H   0  0  0  0  0  0  0  0  0  0  0  0
  145.7740  130.8253  156.2289 H   0  0  0  0  0  0  0  0  0  0  0  0
  145.6418  132.5547  156.1185 H   0  0  0  0  0  0  0  0  0  0  0  0
  148.1921  130.2582  154.4222 H   0  0  0  0  0  0  0  0  0  0  0  0
  147.1388  130.0709  153.0112 H   0  0  0  0  0  0  0  0  0  0  0  0
  146.6242  129.4834  154.5632 H   0  0  0  0  0  0  0  0  0  0  0  0
  147.8863  131.7856  151.9338 H   0  0  0  0  0  0  0  0  0  0  0  0
  147.6533  133.4760  151.7119 H   0  0  0  0  0  0  0  0  0  0  0  0
  145.5896  131.5269  153.9973 H   0  0  0  0  0  0  0  0  0  0  0  0
  1  2  1  0  0  0  0
  1 22  1  0  0  0  0
  1 23  1  0  0  0  0
  1 24  1  0  0  0  0
  2 21  1  0  0  0  0
  2  3  1  0  0  0  0
  2 25  1  0  0  0  0
  3  4  1  0  0  0  0
  3 26  1  0  0  0  0
  3 27  1  0  0  0  0
  4  5  1  0  0  0  0
  4 28  1  0  0  0  0
  4 29  1  0  0  0  0
  5  6  1  0  0  0  0
  5 30  1  0  0  0  0
  5 31  1  0  0  0  0
  6  7  1  0  0  0  0
  6 18  1  0  0  0  0
  6 21  1  0  0  0  0
  7  8  1  0  0  0  0
  7 32  1  0  0  0  0
  7 33  1  0  0  0  0
  8  9  1  0  0  0  0
  8 34  1  0  0  0  0
  9 10  2  0  0  0  0
  9 11  1  0  0  0  0
 11 12  1  0  0  0  0
 11 35  1  0  0  0  0
 12 17  1  0  0  0  0
 12 13  2  0  0  0  0
 13 14  1  0  0  0  0
 13 36  1  0  0  0  0
 14 15  2  0  0  0  0
 14 37  1  0  0  0  0
 15 16  1  0  0  0  0
 15 38  1  0  0  0  0
 16 17  2  0  0  0  0
 17 39  1  0  0  0  0
 18 19  1  0  0  0  0
 18 20  1  0  0  0  0
 18 48  1  0  0  0  0
 19 40  1  0  0  0  0
 19 41  1  0  0  0  0
 19 42  1  0  0  0  0
 20 43  1  0  0  0  0
 20 44  1  0  0  0  0
 20 45  1  0  0  0  0
 21 46  1  0  0  0  0
 21 47  1  0  0  0  0
M  CHG  1  18   1
M  END
> <s_m_source_file>
AV-unprocessed.smi

> <i_m_source_file_index>
817

> <i_lp_mmshare_version>
43012

> <i_f3d_flags>
0

> <s_epik_input>
W0NIM11bQ0BASF0oW0NIMl0xKVtDSDJdW0NIMl1bQ0gyXVtDQF0xKE4oW0NIM10pW0NIM10pW0NIMl1bTkhdQyg9TylbTkhdYzJbY0hdW2NIXVtjSF1uW2NIXTI=

> <s_epik_cmdline>
J2VwaWtfcHl0aG9uJywgJy1waCcsICc3LjAnLCAnLXRuJywgJzgnLCAnLW1hJywgJzIwMCcsICctbWV0YWxfYmluZGluZycsICctaW1hZScsICc8aW5maWxlLm1hZT4nLCAnLW9tYWUnLCAnPG91dGZpbGUubWFlPic=

> <r_lp_tautomer_probability>
1

> <r_epik_Ionization_Penalty>
0.00584939

> <r_epik_Ionization_Penalty_Charging>
0.00160539

> <r_epik_Ionization_Penalty_Neutral>
0.004244

> <r_epik_State_Penalty>
-0

> <r_epik_Charging_Adjusted_Penalty>
0.00160539

> <i_epik_Tot_Q>
1

> <i_epik_Tot_abs_Q>
1

> <r_epik_Metal_State_Penalty>
-0

> <b_epik_Metal_Only>
0

> <s_lp_Force_Field>
OPLS_2005

> <r_lp_Energy>
44.2375

> <b_lp_Chiralities_Consistent>
1

> <s_lp_Variant>
AV-unprocessed.smi:817-1

> <Gold.Version>
5.8.1

> <Gold.Id.Protein>
6NUR|6NUR_protein|mol2

> <Gold.PLP.Fitness>
39.2549

> <Gold.PLP.PLP>
-28.5287

> <Gold.PLP.part.hbond>
-4.0000

> <Gold.PLP.part.metal>
0.0000

> <Gold.PLP.part.buried>
0.1110

> <Gold.PLP.part.nonpolar>
-24.5531

> <Gold.PLP.part.repulsive>
0.1699

> <Gold.PLP.ligand.clash>
0.0000

> <Gold.PLP.ligand.torsion>
0.4626

> <Gold.PLP.Chemscore.Hbond>
2.8440

> <Gold.PLP.Chemscore.CHOScore>
1.0000

> <Gold.PLP.Chemscore.Metal>
0.0000

> <Gold.Chemscore.Hbonds>
donor molecule, donor type, donor heavy atom, donor atom, acceptor molecule, acceptor atom, score
      L1  H     8    34       P1  7948  0.96
      L1  H    11    35       P1  7948  1.00
      P1  H  7989  7998       L1    16  0.95
      L1  C    17    39       P1  7957  1.00

> <Gold.PLP.Chemscore.Internal.Correction>
0.1194

> <Gold.Rescore>
     Score         DG    S(hbond)    S(metal)    S(lipo)     H(rot)  DE(clash)    DE(int)     intcor
     14.30     -17.07       1.87        0.00      77.35       1.44       0.80       1.97       ----

> <Gold.Chemscore.Fitness>
14.3037

> <Gold.Chemscore.DG>
-17.0713

> <Gold.Chemscore.ZeroCoef>
-5.4800

> <Gold.Chemscore.Hbond>
1.8650

> <Gold.Chemscore.Metal>
0.0000

> <Gold.Chemscore.Lipo>
77.3502

> <Gold.Chemscore.Internal_Hbond>
0.0000

> <Gold.Chemscore.DEClash>
0.8001

> <Gold.Chemscore.DEInternal>
1.9675

> <Gold.Chemscore.Rot>
1.4405

> <Gold.Chemscore.Internal.Correction>
   9.000000E+99

> <Gold.Chemscore.Hbonds>
donor molecule, donor type, donor heavy atom, donor atom, acceptor molecule, acceptor atom, score
      L1  H     8    34       P1  7948  0.32
      L1  H    11    35       P1  7948  0.64
      P1  H  7989  7998       L1    16  0.21

> <Gold.Chemscore.Hbond.Weighted>
-6.2291

> <Gold.Chemscore.Metal.Weighted>
-0.0000

> <Gold.Chemscore.Lipo.Weighted>
-9.0500

> <Gold.Chemscore.Internal_Hbond.Weighted>
0.0000

> <Gold.Chemscore.DEClash.Weighted>
0.8001

> <Gold.Chemscore.DEInternal.Weighted>
1.9675

> <Gold.Chemscore.Rot.Weighted>
3.6878

> <Gold.Chemscore.Internal.Correction.Weighted>
   9.000000E+99

> <Gold.Protein.RotatedTorsions>
[ 6907 6896 6895 6894 ] final  -53.59 input  -60.11 | X-H torsion
[ 7974 7965 7964 7962 ] final -165.99 input  175.53 | X-H torsion
[ 8008 7997 7996 7995 ] final   83.22 input   59.86 | X-H torsion
[ 10167 10162 10161 10158 ] final -166.98 input  -65.29 | X-H torsion
[ 10718 10713 10712 10709 ] final  136.30 input   66.30 | X-H torsion
[ 10763 10752 10751 10750 ] final    0.12 input  -60.55 | X-H torsion
[ 11005 11000 10999 10996 ] final   33.10 input  -57.11 | X-H torsion

> <Gold.Protein.ActiveResidues>
 VAL166  LYS551  ARG553  GLY616  TRP617  ASP618  TYR619  PRO620  LYS621  CYS622 
 ASP623  PHE694  ASN695  SER759  ASP760  ASP761  ALA762  ILE779  LEU786  VAL792 
 PHE793  MET794  SER795  GLU796  ALA797  LYS798  CYS799  TRP800  GLU811  SER814 

> <Gold.Protein.RotatedAtoms>
  150.8413  134.7705  159.6934 H   0  0  0  0  0  0  0  0  0  0  0  0  # atno 6907 bound_to 6896
  152.4499  134.5412  159.9849 H   0  0  0  0  0  0  0  0  0  0  0  0  # atno 6908 bound_to 6896
  151.5551  133.3373  159.2996 H   0  0  0  0  0  0  0  0  0  0  0  0  # atno 6909 bound_to 6896
  144.7256  140.2733  143.6247 H   0  0  0  0  0  0  0  0  0  0  0  0  # atno 7974 bound_to 7965
  155.9210  140.3421  155.6173 H   0  0  0  0  0  0  0  0  0  0  0  0  # atno 8008 bound_to 7997
  155.7273  140.0791  157.2323 H   0  0  0  0  0  0  0  0  0  0  0  0  # atno 8009 bound_to 7997
  154.4069  140.1594  156.2456 H   0  0  0  0  0  0  0  0  0  0  0  0  # atno 8010 bound_to 7997
  139.6079  144.0874  152.1812 H   0  0  0  0  0  0  0  0  0  0  0  0  # atno 10167 bound_to 10162
  157.4481  131.1063  151.0066 H   0  0  0  0  0  0  0  0  0  0  0  0  # atno 10718 bound_to 10713
  153.3247  135.6971  153.7000 H   0  0  0  0  0  0  0  0  0  0  0  0  # atno 10763 bound_to 10752
  153.5826  135.3495  155.2881 H   0  0  0  0  0  0  0  0  0  0  0  0  # atno 10764 bound_to 10752
  154.8605  135.4298  154.2420 H   0  0  0  0  0  0  0  0  0  0  0  0  # atno 10765 bound_to 10752
  140.2666  134.3131  155.7841 H   0  0  0  0  0  0  0  0  0  0  0  0  # atno 11005 bound_to 11000
  145.8021  139.1969  143.2042 LP  0  0  0  0  0  0  0  0  0  0  0  0  # atno 17320 bound_to 7965
  146.0667  140.7913  142.9708 LP  0  0  0  0  0  0  0  0  0  0  0  0  # atno 17321 bound_to 7965
  140.0486  144.5950  150.7354 LP  0  0  0  0  0  0  0  0  0  0  0  0  # atno 17342 bound_to 10162
  140.7298  143.2676  151.3992 LP  0  0  0  0  0  0  0  0  0  0  0  0  # atno 17343 bound_to 10162
  157.0906  130.5940  149.5439 LP  0  0  0  0  0  0  0  0  0  0  0  0  # atno 17370 bound_to 10713
  155.9975  130.5047  150.7538 LP  0  0  0  0  0  0  0  0  0  0  0  0  # atno 17371 bound_to 10713
  141.2183  133.7441  156.9269 LP  0  0  0  0  0  0  0  0  0  0  0  0  # atno 17394 bound_to 11000
  140.1413  134.9291  157.2471 LP  0  0  0  0  0  0  0  0  0  0  0  0  # atno 17395 bound_to 11000

$$$$
