AV-unprocessed.smi:103|AV-procd|sdf|981|dock8
  -GOLD-   2262017543D 1   1.00000     0.00000
 Structure written by MMmdl.
 53 55  0  0  0  0  0  0  0  0  1 V2000
  151.4300  142.0364  157.1063 C   0  0  0  0  0  0  0  0  0  0  0  0
  150.4770  141.1327  156.3355 C   0  0  0  0  0  0  0  0  0  0  0  0
  150.8270  140.5742  155.2957 O   0  0  0  0  0  0  0  0  0  0  0  0
  149.2736  141.0331  156.9265 O   0  0  0  0  0  0  0  0  0  0  0  0
  148.2570  140.2140  156.3663 C   0  0  0  0  0  0  0  0  0  0  0  0
  147.2771  139.7652  157.4620 C   0  0  2  0  0  0  0  0  0  0  0  0
  147.8566  138.7393  158.2611 O   0  0  0  0  0  0  0  0  0  0  0  0
  147.4620  137.5052  157.7724 C   0  0  1  0  0  0  0  0  0  0  0  0
  147.7228  136.4594  158.8329 N   0  0  0  0  0  0  0  0  0  0  0  0
  148.4367  135.2747  158.7157 C   0  0  0  0  0  0  0  0  0  0  0  0
  149.2712  134.6286  157.2622 S   0  0  0  0  0  0  0  0  0  0  0  0
  147.8785  133.9964  156.2402 C   0  0  0  0  0  0  0  0  0  0  0  0
  149.9157  135.7585  156.5787 O   0  0  0  0  0  0  0  0  0  0  0  0
  150.0780  133.4822  157.7104 O   0  0  0  0  0  0  0  0  0  0  0  0
  148.4723  134.5004  159.7645 N   0  0  0  0  0  0  0  0  0  0  0  0
  147.7234  135.1915  160.6984 C   0  0  0  0  0  0  0  0  0  0  0  0
  147.3541  134.9257  162.0413 C   0  0  0  0  0  0  0  0  0  0  0  0
  147.7351  133.8220  162.6990 N   0  0  0  0  0  0  0  0  0  0  0  0
  146.5778  135.8224  162.6899 N   0  0  0  0  0  0  0  0  0  0  0  0
  146.1800  136.9253  162.0519 C   0  0  0  0  0  0  0  0  0  0  0  0
  146.4473  137.3042  160.8005 N   0  0  0  0  0  0  0  0  0  0  0  0
  147.2391  136.4093  160.1368 C   0  0  0  0  0  0  0  0  0  0  0  0
  145.9971  137.7062  157.3827 C   0  0  2  0  0  0  0  0  0  0  0  0
  145.6309  136.7899  156.3582 O   0  0  0  0  0  0  0  0  0  0  0  0
  144.3869  136.8070  155.8489 C   0  0  0  0  0  0  0  0  0  0  0  0
  144.1850  135.7453  154.7765 C   0  0  0  0  0  0  0  0  0  0  0  0
  143.4783  137.5689  156.1792 O   0  0  0  0  0  0  0  0  0  0  0  0
  146.0061  139.1387  156.8628 C   0  0  1  0  0  0  0  0  0  0  0  0
  144.8328  139.8062  157.3094 O   0  0  0  0  0  0  0  0  0  0  0  0
  144.6407  140.0349  158.6189 C   0  0  0  0  0  0  0  0  0  0  0  0
  143.2892  140.6761  158.9025 C   0  0  0  0  0  0  0  0  0  0  0  0
  145.4323  139.7721  159.5243 O   0  0  0  0  0  0  0  0  0  0  0  0
  152.0007  141.4503  157.8269 H   0  0  0  0  0  0  0  0  0  0  0  0
  150.8798  142.8085  157.6447 H   0  0  0  0  0  0  0  0  0  0  0  0
  152.1283  142.5225  156.4250 H   0  0  0  0  0  0  0  0  0  0  0  0
  147.7245  140.8183  155.6315 H   0  0  0  0  0  0  0  0  0  0  0  0
  148.6514  139.3515  155.8274 H   0  0  0  0  0  0  0  0  0  0  0  0
  147.0327  140.6126  158.1043 H   0  0  0  0  0  0  0  0  0  0  0  0
  148.0829  137.2123  156.9264 H   0  0  0  0  0  0  0  0  0  0  0  0
  148.2789  133.5153  155.3484 H   0  0  0  0  0  0  0  0  0  0  0  0
  147.2306  134.8161  155.9383 H   0  0  0  0  0  0  0  0  0  0  0  0
  147.3058  133.2705  156.8165 H   0  0  0  0  0  0  0  0  0  0  0  0
  148.3122  133.1345  162.2358 H   0  0  0  0  0  0  0  0  0  0  0  0
  147.4482  133.6817  163.6568 H   0  0  0  0  0  0  0  0  0  0  0  0
  145.5606  137.6006  162.6233 H   0  0  0  0  0  0  0  0  0  0  0  0
  145.3758  137.6419  158.2762 H   0  0  0  0  0  0  0  0  0  0  0  0
  144.2115  134.7506  155.2216 H   0  0  0  0  0  0  0  0  0  0  0  0
  144.9709  135.8110  154.0239 H   0  0  0  0  0  0  0  0  0  0  0  0
  143.2223  135.8781  154.2828 H   0  0  0  0  0  0  0  0  0  0  0  0
  146.0642  139.1311  155.7726 H   0  0  0  0  0  0  0  0  0  0  0  0
  143.2589  141.6873  158.4959 H   0  0  0  0  0  0  0  0  0  0  0  0
  143.1074  140.7286  159.9760 H   0  0  0  0  0  0  0  0  0  0  0  0
  142.4891  140.0940  158.4450 H   0  0  0  0  0  0  0  0  0  0  0  0
  1  2  1  0  0  0  0
  1 33  1  0  0  0  0
  1 34  1  0  0  0  0
  1 35  1  0  0  0  0
  2  3  2  0  0  0  0
  2  4  1  0  0  0  0
  4  5  1  0  0  0  0
  5  6  1  0  0  0  0
  5 36  1  0  0  0  0
  5 37  1  0  0  0  0
  6 28  1  0  0  0  0
  6  7  1  0  0  0  0
  6 38  1  0  0  0  0
  7  8  1  0  0  0  0
  8  9  1  0  0  0  0
  8 23  1  0  0  0  0
  8 39  1  0  0  0  0
  9 22  1  0  0  0  0
  9 10  1  0  0  0  0
 10 11  1  0  0  0  0
 10 15  2  0  0  0  0
 11 12  1  0  0  0  0
 11 13  2  0  0  0  0
 11 14  2  0  0  0  0
 12 40  1  0  0  0  0
 12 41  1  0  0  0  0
 12 42  1  0  0  0  0
 15 16  1  0  0  0  0
 16 22  2  0  0  0  0
 16 17  1  0  0  0  0
 17 18  1  0  0  0  0
 17 19  2  0  0  0  0
 18 43  1  0  0  0  0
 18 44  1  0  0  0  0
 19 20  1  0  0  0  0
 20 21  2  0  0  0  0
 20 45  1  0  0  0  0
 21 22  1  0  0  0  0
 23 24  1  0  0  0  0
 23 28  1  0  0  0  0
 23 46  1  0  0  0  0
 24 25  1  0  0  0  0
 25 26  1  0  0  0  0
 25 27  2  0  0  0  0
 26 47  1  0  0  0  0
 26 48  1  0  0  0  0
 26 49  1  0  0  0  0
 28 29  1  0  0  0  0
 28 50  1  0  0  0  0
 29 30  1  0  0  0  0
 30 31  1  0  0  0  0
 30 32  2  0  0  0  0
 31 51  1  0  0  0  0
 31 52  1  0  0  0  0
 31 53  1  0  0  0  0
M  END
> <s_m_source_file>
AV-unprocessed.smi

> <i_m_source_file_index>
103

> <i_lp_mmshare_version>
43012

> <i_f3d_flags>
0

> <s_epik_input>
W0NIM11DKD1PKU9bQ0gyXVtDQEBIXTFPW0NASF0oW0NAQEhdKE9DKD1PKVtDSDNdKVtDQEhdMU9DKD1PKVtDSDNdKW4oYyhuMilTKD1PKSg9TylbQ0gzXSljKGMyMyluW2NIXW5jM1tOSDJd

> <s_epik_cmdline>
J2VwaWtfcHl0aG9uJywgJy1waCcsICc3LjAnLCAnLXRuJywgJzgnLCAnLW1hJywgJzIwMCcsICctbWV0YWxfYmluZGluZycsICctaW1hZScsICc8aW5maWxlLm1hZT4nLCAnLW9tYWUnLCAnPG91dGZpbGUubWFlPic=

> <r_lp_tautomer_probability>
1

> <r_epik_Ionization_Penalty>
1.51338e-05

> <r_epik_Ionization_Penalty_Charging>
0

> <r_epik_Ionization_Penalty_Neutral>
1.51338e-05

> <r_epik_State_Penalty>
-0

> <r_epik_Charging_Adjusted_Penalty>
0

> <i_epik_Tot_Q>
0

> <i_epik_Tot_abs_Q>
0

> <r_epik_Metal_State_Penalty>
-0

> <b_epik_Metal_Only>
0

> <s_epik_Chemistry_Notes>
This compound has an ester and may undergo hydrolysis at high or low pH. This compound contains an acetal/aminal-like group ( X-CH(R)-Y where X, Y are N, S, or O) that may be acid/base labile, releasing an aldehyde.

> <s_lp_Force_Field>
OPLS_2005

> <r_lp_Energy>
16.7775

> <b_lp_Chiralities_Consistent>
1

> <s_lp_Variant>
AV-unprocessed.smi:103-5

> <Gold.Version>
5.8.1

> <Gold.Id.Protein>
6NUR|6NUR_protein|mol2

> <Gold.PLP.Fitness>
32.2550

> <Gold.PLP.PLP>
-23.8724

> <Gold.PLP.part.hbond>
-5.3383

> <Gold.PLP.part.metal>
0.0000

> <Gold.PLP.part.buried>
-5.6019

> <Gold.PLP.part.nonpolar>
-13.2531

> <Gold.PLP.part.repulsive>
0.3278

> <Gold.PLP.ligand.clash>
0.0000

> <Gold.PLP.ligand.torsion>
1.3656

> <Gold.PLP.Chemscore.Hbond>
2.9835

> <Gold.PLP.Chemscore.CHOScore>
0.0000

> <Gold.PLP.Chemscore.Metal>
0.0000

> <Gold.Chemscore.Hbonds>
donor molecule, donor type, donor heavy atom, donor atom, acceptor molecule, acceptor atom, score
      P1  H  6896  6907       L1    14  1.00
      P1  H  6934  6946       L1    32  0.04
      P1  H  6934  6947       L1    21  1.00
      P1  H  7989  7998       L1     3  0.94

> <Gold.PLP.Chemscore.Internal.Correction>
2.1634

> <Gold.Rescore>
     Score         DG    S(hbond)    S(metal)    S(lipo)     H(rot)  DE(clash)    DE(int)     intcor
      0.41      -6.30       2.83        0.00      18.98       4.25       0.17       5.72       ----

> <Gold.Chemscore.Fitness>
0.4051

> <Gold.Chemscore.DG>
-6.2973

> <Gold.Chemscore.ZeroCoef>
-5.4800

> <Gold.Chemscore.Hbond>
2.8338

> <Gold.Chemscore.Metal>
0.0000

> <Gold.Chemscore.Lipo>
18.9831

> <Gold.Chemscore.Internal_Hbond>
0.0000

> <Gold.Chemscore.DEClash>
0.1730

> <Gold.Chemscore.DEInternal>
5.7192

> <Gold.Chemscore.Rot>
4.2456

> <Gold.Chemscore.Internal.Correction>
   9.000000E+99

> <Gold.Chemscore.Hbonds>
donor molecule, donor type, donor heavy atom, donor atom, acceptor molecule, acceptor atom, score
      P1  H  6896  6907       L1    14  0.94
      P1  H  6934  6946       L1    32  0.06
      P1  H  6934  6947       L1    21  0.50
      P1  H  7989  7998       L1     3  0.89

> <Gold.Chemscore.Hbond.Weighted>
-9.4649

> <Gold.Chemscore.Metal.Weighted>
-0.0000

> <Gold.Chemscore.Lipo.Weighted>
-2.2210

> <Gold.Chemscore.Internal_Hbond.Weighted>
0.0000

> <Gold.Chemscore.DEClash.Weighted>
0.1730

> <Gold.Chemscore.DEInternal.Weighted>
5.7192

> <Gold.Chemscore.Rot.Weighted>
10.8687

> <Gold.Chemscore.Internal.Correction.Weighted>
   9.000000E+99

> <Gold.Protein.RotatedTorsions>
[ 6907 6896 6895 6894 ] final -134.04 input  -60.11 | X-H torsion
[ 7974 7965 7964 7962 ] final   53.39 input  175.53 | X-H torsion
[ 8008 7997 7996 7995 ] final -103.70 input   59.86 | X-H torsion
[ 10167 10162 10161 10158 ] final  130.85 input  -65.29 | X-H torsion
[ 10718 10713 10712 10709 ] final  142.69 input   66.30 | X-H torsion
[ 10763 10752 10751 10750 ] final   95.15 input  -60.55 | X-H torsion
[ 11005 11000 10999 10996 ] final -104.03 input  -57.11 | X-H torsion

> <Gold.Protein.ActiveResidues>
 VAL166  LYS551  ARG553  GLY616  TRP617  ASP618  TYR619  PRO620  LYS621  CYS622 
 ASP623  PHE694  ASN695  SER759  ASP760  ASP761  ALA762  ILE779  LEU786  VAL792 
 PHE793  MET794  SER795  GLU796  ALA797  LYS798  CYS799  TRP800  GLU811  SER814 

> <Gold.Protein.RotatedAtoms>
  150.9811  133.6244  159.2722 H   0  0  0  0  0  0  0  0  0  0  0  0  # atno 6907 bound_to 6896
  151.3499  135.0881  159.9409 H   0  0  0  0  0  0  0  0  0  0  0  0  # atno 6908 bound_to 6896
  152.5216  133.9406  159.7679 H   0  0  0  0  0  0  0  0  0  0  0  0  # atno 6909 bound_to 6896
  145.9717  139.4155  143.0186 H   0  0  0  0  0  0  0  0  0  0  0  0  # atno 7974 bound_to 7965
  154.8747  140.0421  157.1746 H   0  0  0  0  0  0  0  0  0  0  0  0  # atno 8008 bound_to 7997
  154.8702  140.2957  155.5465 H   0  0  0  0  0  0  0  0  0  0  0  0  # atno 8009 bound_to 7997
  156.2999  140.2430  156.3689 H   0  0  0  0  0  0  0  0  0  0  0  0  # atno 8010 bound_to 7997
  139.5411  144.6731  151.4623 H   0  0  0  0  0  0  0  0  0  0  0  0  # atno 10167 bound_to 10162
  157.3776  131.0988  151.0769 H   0  0  0  0  0  0  0  0  0  0  0  0  # atno 10718 bound_to 10713
  153.2499  135.4264  155.0786 H   0  0  0  0  0  0  0  0  0  0  0  0  # atno 10763 bound_to 10752
  154.8377  135.3423  154.6528 H   0  0  0  0  0  0  0  0  0  0  0  0  # atno 10764 bound_to 10752
  153.6949  135.7031  153.5136 H   0  0  0  0  0  0  0  0  0  0  0  0  # atno 10765 bound_to 10752
  141.1119  133.8689  157.1560 H   0  0  0  0  0  0  0  0  0  0  0  0  # atno 11005 bound_to 11000
  145.7897  140.9820  143.1055 LP  0  0  0  0  0  0  0  0  0  0  0  0  # atno 17320 bound_to 7965
  144.6838  139.9667  143.7481 LP  0  0  0  0  0  0  0  0  0  0  0  0  # atno 17321 bound_to 7965
  140.6641  143.8436  150.6921 LP  0  0  0  0  0  0  0  0  0  0  0  0  # atno 17342 bound_to 10162
  140.1840  143.4091  152.1912 LP  0  0  0  0  0  0  0  0  0  0  0  0  # atno 17343 bound_to 10162
  157.1850  130.6326  149.5684 LP  0  0  0  0  0  0  0  0  0  0  0  0  # atno 17370 bound_to 10713
  155.9769  130.4741  150.6556 LP  0  0  0  0  0  0  0  0  0  0  0  0  # atno 17371 bound_to 10713
  140.0018  135.0025  157.0205 LP  0  0  0  0  0  0  0  0  0  0  0  0  # atno 17394 bound_to 11000
  140.4752  134.1345  155.7209 LP  0  0  0  0  0  0  0  0  0  0  0  0  # atno 17395 bound_to 11000

$$$$
