#       Name:                AV-unprocessed.smi:1536
#       Creating user name   scv26
#       Creation time:       Fri Mar 27 06:35:04 2020


#       File generated by GOLD software.
#

@<TRIPOS>MOLECULE
AV-unprocessed.smi:1536
    53    54     1
SMALL
NO_CHARGES


@<TRIPOS>ATOM
      1 ****        -1.8961  -2.0178  -3.8328 C.3            1 S1                 0.0000
      2 ****        -1.1469  -1.4029  -2.6426 C.3            1 S1                 0.0000
      3 ****        -1.9183  -1.5943  -1.3246 C.3            1 S1                 0.0000
      4 ****        -1.1745  -0.9530  -0.1415 C.3            1 S1                 0.0000
      5 ****        -0.9181   0.4886  -0.4035 N.4            1 S1                 1.0000
      6 ****        -0.4829   1.2849   0.7882 C.3            1 S1                 0.0000
      7 ****         1.0567   1.2942   1.0103 C.3            1 S1                 0.0000
      8 ****         1.6193  -0.0482   1.1126 N.am           1 S1                 0.0000
      9 ****         2.7641  -0.4659   0.5483 C.2            1 S1                 0.0000
     10 ****         3.4997   0.2672  -0.1108 O.2            1 S1                 0.0000
     11 ****         3.1200  -1.9458   0.7181 C.3            1 S1                 0.0000
     12 ****         3.0586  -2.3666   2.1063 N.pl3          1 S1                 0.0000
     13 ****         3.9455  -2.2558   3.0975 C.2            1 S1                 0.0000
     14 ****         3.4797  -2.7645   4.2280 N.2            1 S1                 0.0000
     15 ****         2.2174  -3.2131   3.8758 N.2            1 S1                 0.0000
     16 ****         1.9622  -2.9807   2.6177 N.2            1 S1                 0.0000
     17 ****        -1.0935   2.7151   0.7186 C.3            1 S1                 0.0000
     18 ****        -0.7368   3.5818   1.9408 C.3            1 S1                 0.0000
     19 ****        -2.6278   2.6778   0.5671 C.3            1 S1                 0.0000
     20 ****        -0.1393   0.7066  -1.6523 C.3            1 S1                 0.0000
     21 ****        -0.8694   0.0955  -2.8588 C.3            1 S1                 0.0000
     22 ****        -2.8665  -1.5427  -3.9800 H              1 S1                 0.0000
     23 ****        -2.0673  -3.0839  -3.6810 H              1 S1                 0.0000
     24 ****        -1.3270  -1.9041  -4.7561 H              1 S1                 0.0000
     25 ****        -0.1885  -1.9168  -2.5528 H              1 S1                 0.0000
     26 ****        -2.9128  -1.1538  -1.4103 H              1 S1                 0.0000
     27 ****        -2.0670  -2.6571  -1.1297 H              1 S1                 0.0000
     28 ****        -1.7766  -1.0674   0.7605 H              1 S1                 0.0000
     29 ****        -0.2407  -1.4865   0.0302 H              1 S1                 0.0000
     30 ****        -0.9244   0.8148   1.6685 H              1 S1                 0.0000
     31 ****         1.5447   1.8720   0.2239 H              1 S1                 0.0000
     32 ****         1.3018   1.7925   1.9474 H              1 S1                 0.0000
     33 ****         1.0889  -0.7219   1.6466 H              1 S1                 0.0000
     34 ****         2.4363  -2.5548   0.1249 H              1 S1                 0.0000
     35 ****         4.1268  -2.1338   0.3427 H              1 S1                 0.0000
     36 ****         4.9206  -1.8032   2.9928 H              1 S1                 0.0000
     37 ****        -0.6922   3.2240  -0.1582 H              1 S1                 0.0000
     38 ****        -1.0211   3.0916   2.8726 H              1 S1                 0.0000
     39 ****        -1.2515   4.5426   1.9037 H              1 S1                 0.0000
     40 ****         0.3288   3.8047   1.9861 H              1 S1                 0.0000
     41 ****        -3.0954   2.1529   1.4008 H              1 S1                 0.0000
     42 ****        -2.9379   2.1840  -0.3539 H              1 S1                 0.0000
     43 ****        -3.0439   3.6854   0.5369 H              1 S1                 0.0000
     44 ****         0.0074   1.7728  -1.8235 H              1 S1                 0.0000
     45 ****         0.8507   0.2599  -1.5656 H              1 S1                 0.0000
     46 ****        -0.2714   0.2391  -3.7595 H              1 S1                 0.0000
     47 ****        -1.8079   0.6271  -3.0235 H              1 S1                 0.0000
     48 ****        -1.8358   0.8584  -0.6070 H              1 S1                 0.0000
     49 ****         3.2558   1.2272  -0.2484 LP             1 S1                 0.0000
     50 ****         4.3417  -0.0967  -0.5090 LP             1 S1                 0.0000
     51 ****         3.9300  -2.8130   5.1196 LP             1 S1                 0.0000
     52 ****         1.5820  -3.6588   4.5063 LP             1 S1                 0.0000
     53 ****         1.1223  -3.2104   2.1261 LP             1 S1                 0.0000
@<TRIPOS>BOND
    1    1    2 1     
    2    1   22 1     
    3    1   23 1     
    4    1   24 1     
    5    2   21 1     
    6    2    3 1     
    7    2   25 1     
    8    3    4 1     
    9    3   26 1     
   10    3   27 1     
   11    4    5 1     
   12    4   28 1     
   13    4   29 1     
   14    5    6 1     
   15    5   20 1     
   16    5   48 1     
   17    6    7 1     
   18    6   17 1     
   19    6   30 1     
   20    7    8 1     
   21    7   31 1     
   22    7   32 1     
   23    8    9 am    
   24    8   33 1     
   25    9   10 2     
   26    9   11 1     
   27   11   12 1     
   28   11   34 1     
   29   11   35 1     
   30   12   16 1     
   31   12   13 1     
   32   13   14 2     
   33   13   36 1     
   34   14   15 1     
   35   15   16 2     
   36   17   18 1     
   37   17   19 1     
   38   17   37 1     
   39   18   38 1     
   40   18   39 1     
   41   18   40 1     
   42   19   41 1     
   43   19   42 1     
   44   19   43 1     
   45   20   21 1     
   46   20   44 1     
   47   20   45 1     
   48   21   46 1     
   49   21   47 1     
   50   10   49 1     
   51   10   50 1     
   52   14   51 1     
   53   15   52 1     
   54   16   53 1     
@<TRIPOS>SUBSTRUCTURE
      1 S1             1
@<TRIPOS>SET
LONE_PAIRS      STATIC     ATOMS    <user>   **** ""
5 49 50 51 52 53
DONOR_HYDROGENS      STATIC     ATOMS    <user>   **** ""
2 48 33
ATOM$BLUE        STATIC     ATOMS    COLORGROUP SYSTEM
5 49 50 51 52 53
ATOM$RED        STATIC     ATOMS    COLORGROUP SYSTEM
2 48 33
