AV-unprocessed.smi:1768|AV-procd|sdf|7150|dock10
  -GOLD-   22720 8393D 1   1.00000     0.00000
 Structure written by MMmdl.
 32 33  0  0  0  0  0  0  0  0  2 V2000
  148.5279  140.5558  154.8898 C   0  0  0  0  0  0  0  0  0  0  0  0
  149.5429  139.4702  154.7808 C   0  0  0  0  0  0  0  0  0  0  0  0
  150.8202  139.7055  154.4710 N   0  0  0  0  0  0  0  0  0  0  0  0
  151.5716  138.5398  154.4311 N   0  0  0  0  0  0  0  0  0  0  0  0
  150.8529  137.4413  154.7028 C   0  0  0  0  0  0  0  0  0  0  0  0
  151.3942  136.2121  154.7174 N   0  5  0  0  0  0  0  0  0  0  0  0
  150.6453  135.1481  155.0871 C   0  0  0  0  0  0  0  0  0  0  0  0
  150.8496  134.4153  156.0574 O   0  0  0  0  0  0  0  0  0  0  0  0
  149.6025  134.9173  154.2755 N   0  0  0  0  0  0  0  0  0  0  0  0
  148.6169  133.8434  154.3977 C   0  0  1  0  0  0  0  0  0  0  0  0
  147.3434  134.2554  153.6449 C   0  0  0  0  0  0  0  0  0  0  0  0
  149.1943  132.5178  153.8598 C   0  0  1  0  0  0  0  0  0  0  0  0
  150.3556  131.9373  154.6674 C   0  0  0  0  0  0  0  0  0  0  0  0
  150.3317  130.4639  154.3002 C   0  0  0  0  0  0  0  0  0  0  0  0
  148.9113  130.2371  153.7739 C   0  0  0  0  0  0  0  0  0  0  0  0
  148.2344  131.4757  153.9479 O   0  0  0  0  0  0  0  0  0  0  0  0
  149.1587  137.7798  155.0572 S   0  0  0  0  0  0  0  0  0  0  0  0
  148.5989  141.2251  154.0321 H   0  0  0  0  0  0  0  0  0  0  0  0
  148.6947  141.1313  155.8005 H   0  0  0  0  0  0  0  0  0  0  0  0
  147.5232  140.1342  154.9204 H   0  0  0  0  0  0  0  0  0  0  0  0
  149.4839  135.5487  153.4972 H   0  0  0  0  0  0  0  0  0  0  0  0
  148.3458  133.7051  155.4458 H   0  0  0  0  0  0  0  0  0  0  0  0
  146.5661  133.4970  153.7400 H   0  0  0  0  0  0  0  0  0  0  0  0
  147.5390  134.3999  152.5817 H   0  0  0  0  0  0  0  0  0  0  0  0
  146.9397  135.1886  154.0394 H   0  0  0  0  0  0  0  0  0  0  0  0
  149.4939  132.6316  152.8160 H   0  0  0  0  0  0  0  0  0  0  0  0
  151.3099  132.4156  154.4444 H   0  0  0  0  0  0  0  0  0  0  0  0
  150.1635  132.0504  155.7353 H   0  0  0  0  0  0  0  0  0  0  0  0
  151.0629  130.2446  153.5212 H   0  0  0  0  0  0  0  0  0  0  0  0
  150.5584  129.8345  155.1613 H   0  0  0  0  0  0  0  0  0  0  0  0
  148.9314  129.9813  152.7137 H   0  0  0  0  0  0  0  0  0  0  0  0
  148.3931  129.4392  154.3060 H   0  0  0  0  0  0  0  0  0  0  0  0
  1  2  1  0  0  0  0
  1 18  1  0  0  0  0
  1 19  1  0  0  0  0
  1 20  1  0  0  0  0
  2 17  1  0  0  0  0
  2  3  2  0  0  0  0
  3  4  1  0  0  0  0
  4  5  2  0  0  0  0
  5  6  1  0  0  0  0
  5 17  1  0  0  0  0
  6  7  1  0  0  0  0
  7  8  2  0  0  0  0
  7  9  1  0  0  0  0
  9 10  1  0  0  0  0
  9 21  1  0  0  0  0
 10 11  1  0  0  0  0
 10 12  1  0  0  0  0
 10 22  1  0  0  0  0
 11 23  1  0  0  0  0
 11 24  1  0  0  0  0
 11 25  1  0  0  0  0
 12 16  1  0  0  0  0
 12 13  1  0  0  0  0
 12 26  1  0  0  0  0
 13 14  1  0  0  0  0
 13 27  1  0  0  0  0
 13 28  1  0  0  0  0
 14 15  1  0  0  0  0
 14 29  1  0  0  0  0
 14 30  1  0  0  0  0
 15 16  1  0  0  0  0
 15 31  1  0  0  0  0
 15 32  1  0  0  0  0
M  CHG  1   6  -1
M  END
> <s_m_source_file>
AV-unprocessed.smi

> <i_m_source_file_index>
1768

> <i_lp_mmshare_version>
43012

> <i_f3d_flags>
0

> <s_epik_input>
W0NIM11jMW5uYyhzMSlbTkhdQyg9TylbTkhdW0NASF0oW0NIM10pW0NAQEhdMltDSDJdW0NIMl1bQ0gyXU8y

> <s_epik_cmdline>
J2VwaWtfcHl0aG9uJywgJy1waCcsICc3LjAnLCAnLXRuJywgJzgnLCAnLW1hJywgJzIwMCcsICctbWV0YWxfYmluZGluZycsICctaW1hZScsICc8aW5maWxlLm1hZT4nLCAnLW9tYWUnLCAnPG91dGZpbGUubWFlPic=

> <r_lp_tautomer_probability>
1

> <r_epik_Ionization_Penalty>
4.3376

> <r_epik_Ionization_Penalty_Charging>
4.19392

> <r_epik_Ionization_Penalty_Neutral>
0.143681

> <r_epik_State_Penalty>
4.19342

> <r_epik_Charging_Adjusted_Penalty>
8.38735

> <i_epik_Tot_Q>
-1

> <i_epik_Tot_abs_Q>
1

> <r_epik_Metal_State_Penalty>
0.686065

> <b_epik_Metal_Only>
1

> <s_lp_Force_Field>
OPLS_2005

> <r_lp_Energy>
15.6479

> <b_lp_Chiralities_Consistent>
1

> <s_lp_Variant>
AV-unprocessed.smi:1768-8

> <Gold.Version>
5.8.1

> <Gold.Id.Protein>
6NUR|6NUR_protein|mol2

> <Gold.PLP.Fitness>
35.9822

> <Gold.PLP.PLP>
-25.9128

> <Gold.PLP.part.hbond>
-3.0000

> <Gold.PLP.part.metal>
0.0000

> <Gold.PLP.part.buried>
-3.9864

> <Gold.PLP.part.nonpolar>
-20.0134

> <Gold.PLP.part.repulsive>
0.4943

> <Gold.PLP.ligand.clash>
0.0000

> <Gold.PLP.ligand.torsion>
0.9103

> <Gold.PLP.Chemscore.Hbond>
3.9500

> <Gold.PLP.Chemscore.CHOScore>
0.0000

> <Gold.PLP.Chemscore.Metal>
0.0000

> <Gold.Chemscore.Hbonds>
donor molecule, donor type, donor heavy atom, donor atom, acceptor molecule, acceptor atom, score
      L1  H     9    21       P1  7948  0.90
      P1  H  7989  7998       L1     3  1.00
      P1  H 10752 10765       L1     6  2.00

> <Gold.PLP.Chemscore.Internal.Correction>
0.0401

> <Gold.Rescore>
     Score         DG    S(hbond)    S(metal)    S(lipo)     H(rot)  DE(clash)    DE(int)     intcor
     11.68     -15.06       2.28        0.00      44.66       1.28       0.07       3.31       ----

> <Gold.Chemscore.Fitness>
11.6781

> <Gold.Chemscore.DG>
-15.0649

> <Gold.Chemscore.ZeroCoef>
-5.4800

> <Gold.Chemscore.Hbond>
2.2845

> <Gold.Chemscore.Metal>
0.0000

> <Gold.Chemscore.Lipo>
44.6599

> <Gold.Chemscore.Internal_Hbond>
0.0000

> <Gold.Chemscore.DEClash>
0.0727

> <Gold.Chemscore.DEInternal>
3.3141

> <Gold.Chemscore.Rot>
1.2776

> <Gold.Chemscore.Internal.Correction>
   9.000000E+99

> <Gold.Chemscore.Hbonds>
donor molecule, donor type, donor heavy atom, donor atom, acceptor molecule, acceptor atom, score
      L1  H     9    21       P1  7948  0.18
      P1  H  7989  7998       L1     3  0.60
      P1  H 10752 10765       L1     6  0.55

> <Gold.Chemscore.Hbond.Weighted>
-7.6303

> <Gold.Chemscore.Metal.Weighted>
-0.0000

> <Gold.Chemscore.Lipo.Weighted>
-5.2252

> <Gold.Chemscore.Internal_Hbond.Weighted>
0.0000

> <Gold.Chemscore.DEClash.Weighted>
0.0727

> <Gold.Chemscore.DEInternal.Weighted>
3.3141

> <Gold.Chemscore.Rot.Weighted>
3.2706

> <Gold.Chemscore.Internal.Correction.Weighted>
   9.000000E+99

> <Gold.Protein.RotatedTorsions>
[ 6907 6896 6895 6894 ] final   12.44 input  -60.11 | X-H torsion
[ 7974 7965 7964 7962 ] final   10.71 input  175.53 | X-H torsion
[ 8008 7997 7996 7995 ] final  134.10 input   59.86 | X-H torsion
[ 10167 10162 10161 10158 ] final    0.99 input  -65.29 | X-H torsion
[ 10718 10713 10712 10709 ] final  154.91 input   66.30 | X-H torsion
[ 10763 10752 10751 10750 ] final  171.18 input  -60.55 | X-H torsion
[ 11005 11000 10999 10996 ] final   32.74 input  -57.11 | X-H torsion

> <Gold.Protein.ActiveResidues>
 VAL166  LYS551  ARG553  GLY616  TRP617  ASP618  TYR619  PRO620  LYS621  CYS622 
 ASP623  PHE694  ASN695  SER759  ASP760  ASP761  ALA762  ILE779  LEU786  VAL792 
 PHE793  MET794  SER795  GLU796  ALA797  LYS798  CYS799  TRP800  GLU811  SER814 

> <Gold.Protein.RotatedAtoms>
  151.7704  135.0788  160.0358 H   0  0  0  0  0  0  0  0  0  0  0  0  # atno 6907 bound_to 6896
  152.3292  133.5935  159.5806 H   0  0  0  0  0  0  0  0  0  0  0  0  # atno 6908 bound_to 6896
  150.7413  133.9809  159.3618 H   0  0  0  0  0  0  0  0  0  0  0  0  # atno 6909 bound_to 6896
  146.2384  139.9594  142.8460 H   0  0  0  0  0  0  0  0  0  0  0  0  # atno 7974 bound_to 7965
  156.2997  140.2504  156.3362 H   0  0  0  0  0  0  0  0  0  0  0  0  # atno 8008 bound_to 7997
  154.9098  140.0403  157.1959 H   0  0  0  0  0  0  0  0  0  0  0  0  # atno 8009 bound_to 7997
  154.8417  140.2892  155.5659 H   0  0  0  0  0  0  0  0  0  0  0  0  # atno 8010 bound_to 7997
  140.6703  143.7066  150.7910 H   0  0  0  0  0  0  0  0  0  0  0  0  # atno 10167 bound_to 10162
  157.2254  131.0727  151.1886 H   0  0  0  0  0  0  0  0  0  0  0  0  # atno 10718 bound_to 10713
  154.4082  135.2756  155.2053 H   0  0  0  0  0  0  0  0  0  0  0  0  # atno 10763 bound_to 10752
  154.4050  135.6035  153.5923 H   0  0  0  0  0  0  0  0  0  0  0  0  # atno 10764 bound_to 10752
  152.9831  135.5935  154.4360 H   0  0  0  0  0  0  0  0  0  0  0  0  # atno 10765 bound_to 10752
  140.2703  134.3089  155.7830 H   0  0  0  0  0  0  0  0  0  0  0  0  # atno 11005 bound_to 11000
  145.1785  140.9756  143.4280 LP  0  0  0  0  0  0  0  0  0  0  0  0  # atno 17320 bound_to 7965
  144.9963  139.3641  143.6189 LP  0  0  0  0  0  0  0  0  0  0  0  0  # atno 17321 bound_to 7965
  140.0750  143.5024  152.2560 LP  0  0  0  0  0  0  0  0  0  0  0  0  # atno 17342 bound_to 10162
  139.5969  144.7570  151.3265 LP  0  0  0  0  0  0  0  0  0  0  0  0  # atno 17343 bound_to 10162
  157.3533  130.7093  149.6455 LP  0  0  0  0  0  0  0  0  0  0  0  0  # atno 17370 bound_to 10713
  155.9679  130.4246  150.4616 LP  0  0  0  0  0  0  0  0  0  0  0  0  # atno 17371 bound_to 10713
  141.2178  133.7463  156.9325 LP  0  0  0  0  0  0  0  0  0  0  0  0  # atno 17394 bound_to 11000
  140.1379  134.9313  157.2427 LP  0  0  0  0  0  0  0  0  0  0  0  0  # atno 17395 bound_to 11000

$$$$
