AV-unprocessed.smi:72|AV-procd|sdf|673|dock4
  -GOLD-   2262016583D 1   1.00000     0.00000
 Structure written by MMmdl.
 29 30  0  0  0  0  0  0  0  0  1 V2000
  154.1749  138.1696  154.8813 N   0  0  0  0  0  0  0  0  0  0  0  0
  152.9029  138.3365  154.7987 C   0  0  0  0  0  0  0  0  0  0  0  0
  152.0167  137.4918  154.1133 N   0  0  0  0  0  0  0  0  0  0  0  0
  150.7519  137.7817  154.1145 C   0  0  0  0  0  0  0  0  0  0  0  0
  150.2256  138.9549  154.7985 N   0  0  0  0  0  0  0  0  0  0  0  0
  148.7464  139.3008  154.8053 C   0  0  2  0  0  0  0  0  0  0  0  0
  148.0160  138.3016  154.1535 O   0  0  0  0  0  0  0  0  0  0  0  0
  147.5473  138.7771  152.8949 C   0  0  1  0  0  0  0  0  0  0  0  0
  146.3352  137.9638  152.4089 C   0  0  0  0  0  0  0  0  0  0  0  0
  146.3562  137.8598  151.0013 O   0  0  0  0  0  0  0  0  0  0  0  0
  147.2834  140.2628  153.1678 C   0  0  1  0  0  0  0  0  0  0  0  0
  146.0357  140.4514  153.8112 O   0  0  0  0  0  0  0  0  0  0  0  0
  148.4246  140.6432  154.1019 C   0  0  2  0  0  0  0  0  0  0  0  0
  149.5020  141.1707  153.3470 O   0  0  0  0  0  0  0  0  0  0  0  0
  151.1085  139.8178  155.4925 C   0  0  0  0  0  0  0  0  0  0  0  0
  150.7176  140.8281  156.0769 O   0  0  0  0  0  0  0  0  0  0  0  0
  152.4123  139.4678  155.4642 N   0  0  0  0  0  0  0  0  0  0  0  0
  148.4499  139.2872  155.8555 H   0  0  0  0  0  0  0  0  0  0  0  0
  148.3558  138.7112  152.1646 H   0  0  0  0  0  0  0  0  0  0  0  0
  147.2784  140.8507  152.2486 H   0  0  0  0  0  0  0  0  0  0  0  0
  148.1270  141.3869  154.8424 H   0  0  0  0  0  0  0  0  0  0  0  0
  154.4566  137.3394  154.3811 H   0  0  0  0  0  0  0  0  0  0  0  0
  150.0134  137.1636  153.6046 H   0  0  0  0  0  0  0  0  0  0  0  0
  146.3137  136.9716  152.8607 H   0  0  0  0  0  0  0  0  0  0  0  0
  145.4088  138.4689  152.6841 H   0  0  0  0  0  0  0  0  0  0  0  0
  145.5679  138.2529  150.6587 H   0  0  0  0  0  0  0  0  0  0  0  0
  145.3476  140.3230  153.1766 H   0  0  0  0  0  0  0  0  0  0  0  0
  149.7085  140.5603  152.6558 H   0  0  0  0  0  0  0  0  0  0  0  0
  153.0647  140.0649  155.9506 H   0  0  0  0  0  0  0  0  0  0  0  0
  1  2  2  0  0  0  0
  1 22  1  0  0  0  0
  2 17  1  0  0  0  0
  2  3  1  0  0  0  0
  3  4  2  0  0  0  0
  4  5  1  0  0  0  0
  4 23  1  0  0  0  0
  5  6  1  0  0  0  0
  5 15  1  0  0  0  0
  6 18  1  0  0  0  0
  6 13  1  0  0  0  0
  6  7  1  0  0  0  0
  7  8  1  0  0  0  0
  8 19  1  0  0  0  0
  8  9  1  0  0  0  0
  8 11  1  0  0  0  0
  9 10  1  0  0  0  0
  9 24  1  0  0  0  0
  9 25  1  0  0  0  0
 10 26  1  0  0  0  0
 11 20  1  0  0  0  0
 11 12  1  0  0  0  0
 11 13  1  0  0  0  0
 12 27  1  0  0  0  0
 13 21  1  0  0  0  0
 13 14  1  0  0  0  0
 14 28  1  0  0  0  0
 15 16  2  0  0  0  0
 15 17  1  0  0  0  0
 17 29  1  0  0  0  0
M  END
> <s_m_source_file>
AV-unprocessed.smi

> <i_m_source_file_index>
72

> <i_lp_mmshare_version>
43012

> <i_f3d_flags>
0

> <s_epik_input>
W05IMl1jMW5bY0hdbihjKD1PKW4xKVtDQEBIXTJPW0NASF0oW0NIMl1bT0hdKVtDQEBIXShbT0hdKVtDQEhdMltPSF0=

> <s_epik_cmdline>
J2VwaWtfcHl0aG9uJywgJy1waCcsICc3LjAnLCAnLXRuJywgJzgnLCAnLW1hJywgJzIwMCcsICctbWV0YWxfYmluZGluZycsICctaW1hZScsICc8aW5maWxlLm1hZT4nLCAnLW9tYWUnLCAnPG91dGZpbGUubWFlPic=

> <r_lp_tautomer_probability>
7.17554e-07

> <r_epik_Ionization_Penalty>
0.0066451

> <r_epik_Ionization_Penalty_Charging>
0.00663793

> <r_epik_Ionization_Penalty_Neutral>
7.17052e-06

> <r_epik_State_Penalty>
0.419231

> <r_epik_Charging_Adjusted_Penalty>
0.425868

> <i_epik_Tot_Q>
0

> <i_epik_Tot_abs_Q>
0

> <r_epik_Metal_State_Penalty>
1.44144

> <b_epik_Metal_Only>
0

> <s_epik_Chemistry_Notes>
This compound contains an acetal/aminal-like group ( X-CH(R)-Y where X, Y are N, S, or O) that may be acid/base labile, releasing an aldehyde.

> <s_lp_Force_Field>
OPLS_2005

> <r_lp_Energy>
44.6425

> <b_lp_Chiralities_Consistent>
1

> <s_lp_Variant>
AV-unprocessed.smi:72-11

> <Gold.Version>
5.8.1

> <Gold.Id.Protein>
6NUR|6NUR_protein|mol2

> <Gold.PLP.Fitness>
48.6598

> <Gold.PLP.PLP>
-29.7956

> <Gold.PLP.part.hbond>
-9.5709

> <Gold.PLP.part.metal>
0.0000

> <Gold.PLP.part.buried>
-0.2061

> <Gold.PLP.part.nonpolar>
-21.5457

> <Gold.PLP.part.repulsive>
0.5252

> <Gold.PLP.ligand.clash>
0.0000

> <Gold.PLP.ligand.torsion>
0.5063

> <Gold.PLP.Chemscore.Hbond>
5.5930

> <Gold.PLP.Chemscore.CHOScore>
1.0030

> <Gold.PLP.Chemscore.Metal>
0.0000

> <Gold.Chemscore.Hbonds>
donor molecule, donor type, donor heavy atom, donor atom, acceptor molecule, acceptor atom, score
      L1  H    10    26       P1 10171  1.00
      L1  H    12    27       P1 10175  1.00
      L1  H    14    28       P1  7957  1.00
      P1  H  7954  7966       L1    10  0.78
      P1  H  7997  8010       L1     1  0.10
      P1  H  8011  8017       L1    14  0.50
      P1  H 10752 10764       L1     3  0.83
      L1  C     4    23       P1  7948  1.00
      L1  C     4    23       P1  7949  0.01

> <Gold.PLP.Chemscore.Internal.Correction>
0.0889

> <Gold.Rescore>
     Score         DG    S(hbond)    S(metal)    S(lipo)     H(rot)  DE(clash)    DE(int)     intcor
     11.33     -12.15       4.10        0.00      28.82       4.06       0.24       0.58       ----

> <Gold.Chemscore.Fitness>
11.3324

> <Gold.Chemscore.DG>
-12.1507

> <Gold.Chemscore.ZeroCoef>
-5.4800

> <Gold.Chemscore.Hbond>
4.0996

> <Gold.Chemscore.Metal>
0.0000

> <Gold.Chemscore.Lipo>
28.8166

> <Gold.Chemscore.Internal_Hbond>
0.0000

> <Gold.Chemscore.DEClash>
0.2432

> <Gold.Chemscore.DEInternal>
0.5750

> <Gold.Chemscore.Rot>
4.0600

> <Gold.Chemscore.Internal.Correction>
   9.000000E+99

> <Gold.Chemscore.Hbonds>
donor molecule, donor type, donor heavy atom, donor atom, acceptor molecule, acceptor atom, score
      L1  H    10    26       P1 10171  1.00
      L1  H    12    27       P1 10175  0.97
      L1  H    14    28       P1  7957  0.94
      P1  H  7954  7966       L1    10  0.74
      P1  H  7997  8010       L1     1  0.01
      P1  H  8011  8017       L1    14  0.02
      P1  H 10752 10764       L1     3  0.27

> <Gold.Chemscore.Hbond.Weighted>
-13.6928

> <Gold.Chemscore.Metal.Weighted>
-0.0000

> <Gold.Chemscore.Lipo.Weighted>
-3.3715

> <Gold.Chemscore.Internal_Hbond.Weighted>
0.0000

> <Gold.Chemscore.DEClash.Weighted>
0.2432

> <Gold.Chemscore.DEInternal.Weighted>
0.5750

> <Gold.Chemscore.Rot.Weighted>
10.3936

> <Gold.Chemscore.Internal.Correction.Weighted>
   9.000000E+99

> <Gold.Protein.RotatedTorsions>
[ 6907 6896 6895 6894 ] final  174.74 input  -60.11 | X-H torsion
[ 7974 7965 7964 7962 ] final   89.61 input  175.53 | X-H torsion
[ 8008 7997 7996 7995 ] final   93.28 input   59.86 | X-H torsion
[ 10167 10162 10161 10158 ] final   35.04 input  -65.29 | X-H torsion
[ 10718 10713 10712 10709 ] final -100.89 input   66.30 | X-H torsion
[ 10763 10752 10751 10750 ] final  -76.24 input  -60.55 | X-H torsion
[ 11005 11000 10999 10996 ] final   42.39 input  -57.11 | X-H torsion

> <Gold.Protein.ActiveResidues>
 VAL166  LYS551  ARG553  GLY616  TRP617  ASP618  TYR619  PRO620  LYS621  CYS622 
 ASP623  PHE694  ASN695  SER759  ASP760  ASP761  ALA762  ILE779  LEU786  VAL792 
 PHE793  MET794  SER795  GLU796  ALA797  LYS798  CYS799  TRP800  GLU811  SER814 

> <Gold.Protein.RotatedAtoms>
  151.7475  133.3325  159.3382 H   0  0  0  0  0  0  0  0  0  0  0  0  # atno 6907 bound_to 6896
  150.7548  134.6223  159.6152 H   0  0  0  0  0  0  0  0  0  0  0  0  # atno 6908 bound_to 6896
  152.3490  134.7033  160.0293 H   0  0  0  0  0  0  0  0  0  0  0  0  # atno 6909 bound_to 6896
  145.5301  139.2283  143.2624 H   0  0  0  0  0  0  0  0  0  0  0  0  # atno 7974 bound_to 7965
  156.0449  140.3315  155.7285 H   0  0  0  0  0  0  0  0  0  0  0  0  # atno 8008 bound_to 7997
  155.5688  140.0626  157.2829 H   0  0  0  0  0  0  0  0  0  0  0  0  # atno 8009 bound_to 7997
  154.4409  140.1864  156.0846 H   0  0  0  0  0  0  0  0  0  0  0  0  # atno 8010 bound_to 7997
  140.4259  144.1393  150.6153 H   0  0  0  0  0  0  0  0  0  0  0  0  # atno 10167 bound_to 10162
  156.0177  130.5348  150.6884 H   0  0  0  0  0  0  0  0  0  0  0  0  # atno 10718 bound_to 10713
  154.4972  135.5804  153.6504 H   0  0  0  0  0  0  0  0  0  0  0  0  # atno 10763 bound_to 10752
  152.9872  135.6127  154.3049 H   0  0  0  0  0  0  0  0  0  0  0  0  # atno 10764 bound_to 10752
  154.2953  135.2848  155.2615 H   0  0  0  0  0  0  0  0  0  0  0  0  # atno 10765 bound_to 10752
  140.1744  134.4182  155.8238 H   0  0  0  0  0  0  0  0  0  0  0  0  # atno 11005 bound_to 11000
  146.2050  140.6117  142.9085 LP  0  0  0  0  0  0  0  0  0  0  0  0  # atno 17320 bound_to 7965
  144.7630  140.5467  143.6722 LP  0  0  0  0  0  0  0  0  0  0  0  0  # atno 17321 bound_to 7965
  140.4481  143.2498  151.9384 LP  0  0  0  0  0  0  0  0  0  0  0  0  # atno 17342 bound_to 10162
  139.4783  144.5589  151.8271 LP  0  0  0  0  0  0  0  0  0  0  0  0  # atno 17343 bound_to 10162
  157.4571  131.0879  151.0785 LP  0  0  0  0  0  0  0  0  0  0  0  0  # atno 17370 bound_to 10713
  157.1284  130.6092  149.5523 LP  0  0  0  0  0  0  0  0  0  0  0  0  # atno 17371 bound_to 10713
  141.2219  133.6971  156.7820 LP  0  0  0  0  0  0  0  0  0  0  0  0  # atno 17394 bound_to 11000
  140.2340  134.8664  157.3506 LP  0  0  0  0  0  0  0  0  0  0  0  0  # atno 17395 bound_to 11000

$$$$
