AV-unprocessed.smi:1269|AV-procd|sdf|5328|dock10
  -GOLD-   22720 4453D 1   1.00000     0.00000
 Structure written by MMmdl.
 43 44  0  0  0  0  0  0  0  0  1 V2000
  144.3307  132.3157  149.9427 C   0  0  0  0  0  0  0  0  0  0  0  0
  143.5105  132.9938  150.8881 O   0  0  0  0  0  0  0  0  0  0  0  0
  143.8873  134.2575  151.2946 C   0  0  0  0  0  0  0  0  0  0  0  0
  142.9759  135.0230  152.0484 C   0  0  0  0  0  0  0  0  0  0  0  0
  143.3561  136.3124  152.4658 C   0  0  0  0  0  0  0  0  0  0  0  0
  144.6356  136.7965  152.1272 C   0  0  0  0  0  0  0  0  0  0  0  0
  144.9837  138.1085  152.5484 N   0  0  0  0  0  0  0  0  0  0  0  0
  146.1607  138.5524  153.0223 C   0  0  0  0  0  0  0  0  0  0  0  0
  147.1624  137.8610  153.2033 O   0  0  0  0  0  0  0  0  0  0  0  0
  146.1051  139.8630  153.3022 N   0  0  0  0  0  0  0  0  0  0  0  0
  147.2043  140.6659  153.8342 C   0  0  1  0  0  0  0  0  0  0  0  0
  146.7172  142.1205  153.9267 C   0  0  0  0  0  0  0  0  0  0  0  0
  147.6805  140.0471  155.1723 C   0  0  0  0  0  0  0  0  0  0  0  0
  149.1153  139.7705  155.2901 N   0  0  0  0  0  0  0  0  0  0  0  0
  149.8672  141.0044  155.5050 C   0  0  0  0  0  0  0  0  0  0  0  0
  151.3779  140.7463  155.6391 C   0  0  0  0  0  0  0  0  0  0  0  0
  151.8520  140.0761  154.4765 O   0  0  0  0  0  0  0  0  0  0  0  0
  151.1747  138.8467  154.2405 C   0  0  0  0  0  0  0  0  0  0  0  0
  149.6640  139.1065  154.1072 C   0  0  0  0  0  0  0  0  0  0  0  0
  145.4748  135.9554  151.3559 C   0  0  0  0  0  0  0  0  0  0  0  0
  145.1153  134.7185  150.9512 N   0  0  0  0  0  0  0  0  0  0  0  0
  143.8992  131.3383  149.7265 H   0  0  0  0  0  0  0  0  0  0  0  0
  145.3373  132.1544  150.3314 H   0  0  0  0  0  0  0  0  0  0  0  0
  144.3938  132.8644  149.0019 H   0  0  0  0  0  0  0  0  0  0  0  0
  142.0029  134.6285  152.3009 H   0  0  0  0  0  0  0  0  0  0  0  0
  142.6720  136.9184  153.0418 H   0  0  0  0  0  0  0  0  0  0  0  0
  144.2306  138.7804  152.5338 H   0  0  0  0  0  0  0  0  0  0  0  0
  145.2366  140.3471  153.1285 H   0  0  0  0  0  0  0  0  0  0  0  0
  148.0285  140.6362  153.1190 H   0  0  0  0  0  0  0  0  0  0  0  0
  147.5491  142.8137  154.0396 H   0  0  0  0  0  0  0  0  0  0  0  0
  146.0298  142.2620  154.7612 H   0  0  0  0  0  0  0  0  0  0  0  0
  146.1977  142.4181  153.0150 H   0  0  0  0  0  0  0  0  0  0  0  0
  147.3428  140.6535  156.0142 H   0  0  0  0  0  0  0  0  0  0  0  0
  147.1474  139.1007  155.2767 H   0  0  0  0  0  0  0  0  0  0  0  0
  149.6904  141.6957  154.6791 H   0  0  0  0  0  0  0  0  0  0  0  0
  149.5124  141.5016  156.4087 H   0  0  0  0  0  0  0  0  0  0  0  0
  151.9155  141.6878  155.7520 H   0  0  0  0  0  0  0  0  0  0  0  0
  151.5900  140.1467  156.5256 H   0  0  0  0  0  0  0  0  0  0  0  0
  151.5635  138.3961  153.3274 H   0  0  0  0  0  0  0  0  0  0  0  0
  151.3764  138.1487  155.0545 H   0  0  0  0  0  0  0  0  0  0  0  0
  149.1690  138.1577  153.9246 H   0  0  0  0  0  0  0  0  0  0  0  0
  149.4857  139.7202  153.2228 H   0  0  0  0  0  0  0  0  0  0  0  0
  146.4526  136.2685  151.0257 H   0  0  0  0  0  0  0  0  0  0  0  0
  1  2  1  0  0  0  0
  1 22  1  0  0  0  0
  1 23  1  0  0  0  0
  1 24  1  0  0  0  0
  2  3  1  0  0  0  0
  3 21  1  0  0  0  0
  3  4  2  0  0  0  0
  4  5  1  0  0  0  0
  4 25  1  0  0  0  0
  5  6  2  0  0  0  0
  5 26  1  0  0  0  0
  6  7  1  0  0  0  0
  6 20  1  0  0  0  0
  7  8  1  0  0  0  0
  7 27  1  0  0  0  0
  8  9  2  0  0  0  0
  8 10  1  0  0  0  0
 10 11  1  0  0  0  0
 10 28  1  0  0  0  0
 11 12  1  0  0  0  0
 11 13  1  0  0  0  0
 11 29  1  0  0  0  0
 12 30  1  0  0  0  0
 12 31  1  0  0  0  0
 12 32  1  0  0  0  0
 13 14  1  0  0  0  0
 13 33  1  0  0  0  0
 13 34  1  0  0  0  0
 14 19  1  0  0  0  0
 14 15  1  0  0  0  0
 15 16  1  0  0  0  0
 15 35  1  0  0  0  0
 15 36  1  0  0  0  0
 16 17  1  0  0  0  0
 16 37  1  0  0  0  0
 16 38  1  0  0  0  0
 17 18  1  0  0  0  0
 18 19  1  0  0  0  0
 18 39  1  0  0  0  0
 18 40  1  0  0  0  0
 19 41  1  0  0  0  0
 19 42  1  0  0  0  0
 20 21  2  0  0  0  0
 20 43  1  0  0  0  0
M  END
> <s_m_source_file>
AV-unprocessed.smi

> <i_m_source_file_index>
1269

> <i_lp_mmshare_version>
43012

> <i_f3d_flags>
0

> <s_epik_input>
W0NIM11PYzFbY0hdW2NIXWMoW2NIXW4xKVtOSF1DKD1PKVtOSF1bQ0BIXShbQ0gzXSlbQ0gyXU4yW0NIMl1bQ0gyXU9bQ0gyXVtDSDJdMg==

> <s_epik_cmdline>
J2VwaWtfcHl0aG9uJywgJy1waCcsICc3LjAnLCAnLXRuJywgJzgnLCAnLW1hJywgJzIwMCcsICctbWV0YWxfYmluZGluZycsICctaW1hZScsICc8aW5maWxlLm1hZT4nLCAnLW9tYWUnLCAnPG91dGZpbGUubWFlPic=

> <r_lp_tautomer_probability>
1

> <r_epik_Ionization_Penalty>
0.266086

> <r_epik_Ionization_Penalty_Charging>
0

> <r_epik_Ionization_Penalty_Neutral>
0.266086

> <r_epik_State_Penalty>
0.257924

> <r_epik_Charging_Adjusted_Penalty>
0.257924

> <i_epik_Tot_Q>
0

> <i_epik_Tot_abs_Q>
0

> <r_epik_Metal_State_Penalty>
0.25792

> <b_epik_Metal_Only>
0

> <s_lp_Force_Field>
OPLS_2005

> <r_lp_Energy>
29.6845

> <b_lp_Chiralities_Consistent>
1

> <s_lp_Variant>
AV-unprocessed.smi:1269-2

> <Gold.Version>
5.8.1

> <Gold.Id.Protein>
6NUR|6NUR_protein|mol2

> <Gold.PLP.Fitness>
44.7564

> <Gold.PLP.PLP>
-35.2767

> <Gold.PLP.part.hbond>
-3.6960

> <Gold.PLP.part.metal>
0.0000

> <Gold.PLP.part.buried>
-7.2725

> <Gold.PLP.part.nonpolar>
-26.4706

> <Gold.PLP.part.repulsive>
2.2164

> <Gold.PLP.ligand.clash>
0.0000

> <Gold.PLP.ligand.torsion>
1.2481

> <Gold.PLP.Chemscore.Hbond>
2.9760

> <Gold.PLP.Chemscore.CHOScore>
1.0000

> <Gold.PLP.Chemscore.Metal>
0.0000

> <Gold.Chemscore.Hbonds>
donor molecule, donor type, donor heavy atom, donor atom, acceptor molecule, acceptor atom, score
      L1  H     7    27       P1 10175  1.00
      L1  H    10    28       P1 10175  1.00
      P1  H  7989  7998       L1    17  0.32
      L1  C    20    43       P1  7948  0.85

> <Gold.PLP.Chemscore.Internal.Correction>
0.0481

> <Gold.Rescore>
     Score         DG    S(hbond)    S(metal)    S(lipo)     H(rot)  DE(clash)    DE(int)     intcor
     14.69     -17.72       2.44        0.00      72.72       1.72       1.20       1.83       ----

> <Gold.Chemscore.Fitness>
14.6904

> <Gold.Chemscore.DG>
-17.7236

> <Gold.Chemscore.ZeroCoef>
-5.4800

> <Gold.Chemscore.Hbond>
2.4358

> <Gold.Chemscore.Metal>
0.0000

> <Gold.Chemscore.Lipo>
72.7223

> <Gold.Chemscore.Internal_Hbond>
0.0000

> <Gold.Chemscore.DEClash>
1.2041

> <Gold.Chemscore.DEInternal>
1.8291

> <Gold.Chemscore.Rot>
1.7189

> <Gold.Chemscore.Internal.Correction>
   9.000000E+99

> <Gold.Chemscore.Hbonds>
donor molecule, donor type, donor heavy atom, donor atom, acceptor molecule, acceptor atom, score
      L1  H     7    27       P1 10175  0.95
      L1  H    10    28       P1 10175  0.96
      P1  H  7989  7998       L1    17  0.13

> <Gold.Chemscore.Hbond.Weighted>
-8.1356

> <Gold.Chemscore.Metal.Weighted>
-0.0000

> <Gold.Chemscore.Lipo.Weighted>
-8.5085

> <Gold.Chemscore.Internal_Hbond.Weighted>
0.0000

> <Gold.Chemscore.DEClash.Weighted>
1.2041

> <Gold.Chemscore.DEInternal.Weighted>
1.8291

> <Gold.Chemscore.Rot.Weighted>
4.4004

> <Gold.Chemscore.Internal.Correction.Weighted>
   9.000000E+99

> <Gold.Protein.RotatedTorsions>
[ 6907 6896 6895 6894 ] final  -88.43 input  -60.11 | X-H torsion
[ 7974 7965 7964 7962 ] final  129.42 input  175.53 | X-H torsion
[ 8008 7997 7996 7995 ] final -112.45 input   59.86 | X-H torsion
[ 10167 10162 10161 10158 ] final   27.64 input  -65.29 | X-H torsion
[ 10718 10713 10712 10709 ] final   73.75 input   66.30 | X-H torsion
[ 10763 10752 10751 10750 ] final   98.70 input  -60.55 | X-H torsion
[ 11005 11000 10999 10996 ] final  117.49 input  -57.11 | X-H torsion

> <Gold.Protein.ActiveResidues>
 VAL166  LYS551  ARG553  GLY616  TRP617  ASP618  TYR619  PRO620  LYS621  CYS622 
 ASP623  PHE694  ASN695  SER759  ASP760  ASP761  ALA762  ILE779  LEU786  VAL792 
 PHE793  MET794  SER795  GLU796  ALA797  LYS798  CYS799  TRP800  GLU811  SER814 

> <Gold.Protein.RotatedAtoms>
  150.6869  134.2742  159.4600 H   0  0  0  0  0  0  0  0  0  0  0  0  # atno 6907 bound_to 6896
  152.0662  134.9560  160.0584 H   0  0  0  0  0  0  0  0  0  0  0  0  # atno 6908 bound_to 6896
  152.0968  133.4194  159.4605 H   0  0  0  0  0  0  0  0  0  0  0  0  # atno 6909 bound_to 6896
  145.0288  139.4064  143.5160 H   0  0  0  0  0  0  0  0  0  0  0  0  # atno 7974 bound_to 7965
  155.0055  140.0394  157.2377 H   0  0  0  0  0  0  0  0  0  0  0  0  # atno 8008 bound_to 7997
  154.7506  140.2766  155.6272 H   0  0  0  0  0  0  0  0  0  0  0  0  # atno 8009 bound_to 7997
  156.2884  140.2647  156.2259 H   0  0  0  0  0  0  0  0  0  0  0  0  # atno 8010 bound_to 7997
  140.4921  144.0450  150.6301 H   0  0  0  0  0  0  0  0  0  0  0  0  # atno 10167 bound_to 10162
  157.6562  130.9644  150.1114 H   0  0  0  0  0  0  0  0  0  0  0  0  # atno 10718 bound_to 10713
  153.2923  135.4139  155.1178 H   0  0  0  0  0  0  0  0  0  0  0  0  # atno 10763 bound_to 10752
  154.8524  135.3521  154.5964 H   0  0  0  0  0  0  0  0  0  0  0  0  # atno 10764 bound_to 10752
  153.6387  135.7058  153.5307 H   0  0  0  0  0  0  0  0  0  0  0  0  # atno 10765 bound_to 10752
  139.9076  134.9610  156.7358 H   0  0  0  0  0  0  0  0  0  0  0  0  # atno 11005 bound_to 11000
  146.3496  139.9827  142.8694 LP  0  0  0  0  0  0  0  0  0  0  0  0  # atno 17320 bound_to 7965
  145.1798  140.9761  143.4273 LP  0  0  0  0  0  0  0  0  0  0  0  0  # atno 17321 bound_to 7965
  140.3722  143.2848  152.0265 LP  0  0  0  0  0  0  0  0  0  0  0  0  # atno 17342 bound_to 10162
  139.4853  144.6221  151.7235 LP  0  0  0  0  0  0  0  0  0  0  0  0  # atno 17343 bound_to 10162
  156.2009  130.3660  149.8789 LP  0  0  0  0  0  0  0  0  0  0  0  0  # atno 17370 bound_to 10713
  156.6693  130.8814  151.3559 LP  0  0  0  0  0  0  0  0  0  0  0  0  # atno 17371 bound_to 10713
  140.6888  133.9408  155.7954 LP  0  0  0  0  0  0  0  0  0  0  0  0  # atno 17394 bound_to 11000
  141.0456  134.0558  157.3848 LP  0  0  0  0  0  0  0  0  0  0  0  0  # atno 17395 bound_to 11000

$$$$
