AV-unprocessed.smi:1870|AV-procd|sdf|7598|dock8
  -GOLD-   22720 9313D 1   1.00000     0.00000
 Structure written by MMmdl.
 47 49  0  0  0  0  0  0  0  0  1 V2000
  146.9122  137.1686  162.8400 C   0  0  0  0  0  0  0  0  0  0  0  0
  147.5418  136.4430  161.6817 C   0  0  0  0  0  0  0  0  0  0  0  0
  148.2193  137.1604  160.8468 N   0  0  0  0  0  0  0  0  0  0  0  0
  148.8321  136.5965  159.7456 N   0  0  0  0  0  0  0  0  0  0  0  0
  149.5527  137.5611  158.9047 C   0  0  0  0  0  0  0  0  0  0  0  0
  151.0716  137.5568  159.1903 C   0  0  1  0  0  0  0  0  0  0  0  0
  151.5839  136.3000  158.7947 O   0  0  0  0  0  0  0  0  0  0  0  0
  151.8831  138.6136  158.4121 C   0  0  0  0  0  0  0  0  0  0  0  0
  151.3864  139.9844  158.5465 N   0  0  0  0  0  0  0  0  0  0  0  0
  151.1170  140.6079  157.2515 C   0  0  0  0  0  0  0  0  0  0  0  0
  150.3385  141.9228  157.4120 C   0  0  0  0  0  0  0  0  0  0  0  0
  150.9415  142.8150  158.4854 C   0  0  0  0  0  0  0  0  0  0  0  0
  150.5509  144.1659  158.5847 C   0  0  0  0  0  0  0  0  0  0  0  0
  151.0904  144.9838  159.5963 C   0  0  0  0  0  0  0  0  0  0  0  0
  152.0212  144.4533  160.5102 C   0  0  0  0  0  0  0  0  0  0  0  0
  152.4146  143.1043  160.4140 C   0  0  0  0  0  0  0  0  0  0  0  0
  151.8735  142.2791  159.4068 C   0  0  0  0  0  0  0  0  0  0  0  0
  152.3262  140.8285  159.2877 C   0  0  0  0  0  0  0  0  0  0  0  0
  148.7898  135.2707  159.4270 C   0  0  0  0  0  0  0  0  0  0  0  0
  149.3435  134.8106  158.4272 O   0  0  0  0  0  0  0  0  0  0  0  0
  148.0258  134.4626  160.3803 C   0  0  0  0  0  0  0  0  0  0  0  0
  147.9572  133.0675  160.0858 C   0  0  0  0  0  0  0  0  0  0  0  0
  147.9210  131.9367  159.8405 N   0  0  0  0  0  0  0  0  0  0  0  0
  147.4225  135.0043  161.4678 C   0  0  0  0  0  0  0  0  0  0  0  0
  146.6156  134.2089  162.4850 C   0  0  0  0  0  0  0  0  0  0  0  0
  145.8393  136.9796  162.8792 H   0  0  0  0  0  0  0  0  0  0  0  0
  147.0520  138.2484  162.7679 H   0  0  0  0  0  0  0  0  0  0  0  0
  147.3489  136.8413  163.7838 H   0  0  0  0  0  0  0  0  0  0  0  0
  149.3619  137.3790  157.8452 H   0  0  0  0  0  0  0  0  0  0  0  0
  149.1330  138.5456  159.1053 H   0  0  0  0  0  0  0  0  0  0  0  0
  151.2615  137.6856  160.2567 H   0  0  0  0  0  0  0  0  0  0  0  0
  152.4324  136.4342  158.4007 H   0  0  0  0  0  0  0  0  0  0  0  0
  152.9037  138.5674  158.7962 H   0  0  0  0  0  0  0  0  0  0  0  0
  151.9645  138.3379  157.3592 H   0  0  0  0  0  0  0  0  0  0  0  0
  152.0613  140.8044  156.7410 H   0  0  0  0  0  0  0  0  0  0  0  0
  150.5597  139.9419  156.5956 H   0  0  0  0  0  0  0  0  0  0  0  0
  150.3066  142.4578  156.4624 H   0  0  0  0  0  0  0  0  0  0  0  0
  149.3065  141.7071  157.6907 H   0  0  0  0  0  0  0  0  0  0  0  0
  149.8341  144.5762  157.8887 H   0  0  0  0  0  0  0  0  0  0  0  0
  150.7891  146.0182  159.6717 H   0  0  0  0  0  0  0  0  0  0  0  0
  152.4352  145.0822  161.2846 H   0  0  0  0  0  0  0  0  0  0  0  0
  153.1339  142.7052  161.1141 H   0  0  0  0  0  0  0  0  0  0  0  0
  152.4662  140.4255  160.2917 H   0  0  0  0  0  0  0  0  0  0  0  0
  153.3039  140.8167  158.8032 H   0  0  0  0  0  0  0  0  0  0  0  0
  146.6709  133.1354  162.3065 H   0  0  0  0  0  0  0  0  0  0  0  0
  145.5647  134.4970  162.4455 H   0  0  0  0  0  0  0  0  0  0  0  0
  146.9839  134.3877  163.4958 H   0  0  0  0  0  0  0  0  0  0  0  0
  1  2  1  0  0  0  0
  1 26  1  0  0  0  0
  1 27  1  0  0  0  0
  1 28  1  0  0  0  0
  2 24  1  0  0  0  0
  2  3  2  0  0  0  0
  3  4  1  0  0  0  0
  4  5  1  0  0  0  0
  4 19  1  0  0  0  0
  5  6  1  0  0  0  0
  5 29  1  0  0  0  0
  5 30  1  0  0  0  0
  6  7  1  0  0  0  0
  6  8  1  0  0  0  0
  6 31  1  0  0  0  0
  7 32  1  0  0  0  0
  8  9  1  0  0  0  0
  8 33  1  0  0  0  0
  8 34  1  0  0  0  0
  9 18  1  0  0  0  0
  9 10  1  0  0  0  0
 10 11  1  0  0  0  0
 10 35  1  0  0  0  0
 10 36  1  0  0  0  0
 11 12  1  0  0  0  0
 11 37  1  0  0  0  0
 11 38  1  0  0  0  0
 12 17  2  0  0  0  0
 12 13  1  0  0  0  0
 13 14  2  0  0  0  0
 13 39  1  0  0  0  0
 14 15  1  0  0  0  0
 14 40  1  0  0  0  0
 15 16  2  0  0  0  0
 15 41  1  0  0  0  0
 16 17  1  0  0  0  0
 16 42  1  0  0  0  0
 17 18  1  0  0  0  0
 18 43  1  0  0  0  0
 18 44  1  0  0  0  0
 19 20  2  0  0  0  0
 19 21  1  0  0  0  0
 21 22  1  0  0  0  0
 21 24  2  0  0  0  0
 22 23  3  0  0  0  0
 24 25  1  0  0  0  0
 25 45  1  0  0  0  0
 25 46  1  0  0  0  0
 25 47  1  0  0  0  0
M  END
> <s_m_source_file>
AV-unprocessed.smi

> <i_m_source_file_index>
1870

> <i_lp_mmshare_version>
43012

> <i_f3d_flags>
0

> <s_epik_input>
TiNDYyhjMVtDSDNdKWMoPU8pbihuYzFbQ0gzXSlbQ0gyXVtDQEhdKFtPSF0pW0NIMl1OKFtDSDJdW0NIMl0yKVtDSDJdYyhjMjMpW2NIXVtjSF1bY0hdW2NIXTM=

> <s_epik_cmdline>
J2VwaWtfcHl0aG9uJywgJy1waCcsICc3LjAnLCAnLXRuJywgJzgnLCAnLW1hJywgJzIwMCcsICctbWV0YWxfYmluZGluZycsICctaW1hZScsICc8aW5maWxlLm1hZT4nLCAnLW9tYWUnLCAnPG91dGZpbGUubWFlPic=

> <r_epik_Ionization_Penalty>
2.30251

> <r_epik_Ionization_Penalty_Charging>
1.06171e-10

> <r_epik_Ionization_Penalty_Neutral>
2.30251

> <r_epik_State_Penalty>
2.45335

> <r_epik_Charging_Adjusted_Penalty>
2.45335

> <i_epik_Tot_Q>
0

> <i_epik_Tot_abs_Q>
0

> <r_epik_Metal_State_Penalty>
2.45335

> <b_epik_Metal_Only>
0

> <s_lp_Force_Field>
OPLS_2005

> <r_lp_Energy>
48.2343

> <b_lp_Chiralities_Consistent>
1

> <s_lp_Variant>
AV-unprocessed.smi:1870-6

> <Gold.Version>
5.8.1

> <Gold.Id.Protein>
6NUR|6NUR_protein|mol2

> <Gold.PLP.Fitness>
56.3819

> <Gold.PLP.PLP>
-49.9214

> <Gold.PLP.part.hbond>
-3.6950

> <Gold.PLP.part.metal>
0.0000

> <Gold.PLP.part.buried>
-5.8490

> <Gold.PLP.part.nonpolar>
-41.5483

> <Gold.PLP.part.repulsive>
0.0000

> <Gold.PLP.ligand.clash>
0.0000

> <Gold.PLP.ligand.torsion>
1.0634

> <Gold.PLP.Chemscore.Hbond>
2.8576

> <Gold.PLP.Chemscore.CHOScore>
0.0000

> <Gold.PLP.Chemscore.Metal>
0.0000

> <Gold.Chemscore.Hbonds>
donor molecule, donor type, donor heavy atom, donor atom, acceptor molecule, acceptor atom, score
      P1  H  6896  6907       L1    20  0.72
      P1  H  6896  6908       L1     7  0.56
      P1  H  6931  6943       L1     3  0.91
      P1  H  6934  6947       L1     3  0.50

> <Gold.PLP.Chemscore.Internal.Correction>
0.0144

> <Gold.Rescore>
     Score         DG    S(hbond)    S(metal)    S(lipo)     H(rot)  DE(clash)    DE(int)     intcor
     20.52     -21.54       1.73        0.00     133.66       2.10       0.07       0.94       ----

> <Gold.Chemscore.Fitness>
20.5221

> <Gold.Chemscore.DG>
-21.5408

> <Gold.Chemscore.ZeroCoef>
-5.4800

> <Gold.Chemscore.Hbond>
1.7337

> <Gold.Chemscore.Metal>
0.0000

> <Gold.Chemscore.Lipo>
133.6643

> <Gold.Chemscore.Internal_Hbond>
0.0000

> <Gold.Chemscore.DEClash>
0.0742

> <Gold.Chemscore.DEInternal>
0.9445

> <Gold.Chemscore.Rot>
2.0971

> <Gold.Chemscore.Internal.Correction>
   9.000000E+99

> <Gold.Chemscore.Hbonds>
donor molecule, donor type, donor heavy atom, donor atom, acceptor molecule, acceptor atom, score
      P1  H  6896  6907       L1    20  0.10
      P1  H  6896  6908       L1     7  0.34
      P1  H  6931  6943       L1     3  0.31
      P1  H  6934  6947       L1     3  0.18

> <Gold.Chemscore.Hbond.Weighted>
-5.7906

> <Gold.Chemscore.Metal.Weighted>
-0.0000

> <Gold.Chemscore.Lipo.Weighted>
-15.6387

> <Gold.Chemscore.Internal_Hbond.Weighted>
0.0000

> <Gold.Chemscore.DEClash.Weighted>
0.0742

> <Gold.Chemscore.DEInternal.Weighted>
0.9445

> <Gold.Chemscore.Rot.Weighted>
5.3685

> <Gold.Chemscore.Internal.Correction.Weighted>
   9.000000E+99

> <Gold.Protein.RotatedTorsions>
[ 6907 6896 6895 6894 ] final -109.12 input  -60.11 | X-H torsion
[ 7974 7965 7964 7962 ] final  157.93 input  175.53 | X-H torsion
[ 8008 7997 7996 7995 ] final   67.09 input   59.86 | X-H torsion
[ 10167 10162 10161 10158 ] final  -57.75 input  -65.29 | X-H torsion
[ 10718 10713 10712 10709 ] final  116.25 input   66.30 | X-H torsion
[ 10763 10752 10751 10750 ] final   51.18 input  -60.55 | X-H torsion
[ 11005 11000 10999 10996 ] final  105.38 input  -57.11 | X-H torsion

> <Gold.Protein.ActiveResidues>
 VAL166  LYS551  ARG553  GLY616  TRP617  ASP618  TYR619  PRO620  LYS621  CYS622 
 ASP623  PHE694  ASN695  SER759  ASP760  ASP761  ALA762  ILE779  LEU786  VAL792 
 PHE793  MET794  SER795  GLU796  ALA797  LYS798  CYS799  TRP800  GLU811  SER814 

> <Gold.Protein.RotatedAtoms>
  150.7542  133.9577  159.3505 H   0  0  0  0  0  0  0  0  0  0  0  0  # atno 6907 bound_to 6896
  151.7500  135.0833  160.0338 H   0  0  0  0  0  0  0  0  0  0  0  0  # atno 6908 bound_to 6896
  152.3473  133.6100  159.5955 H   0  0  0  0  0  0  0  0  0  0  0  0  # atno 6909 bound_to 6896
  144.7875  139.7408  143.6235 H   0  0  0  0  0  0  0  0  0  0  0  0  # atno 7974 bound_to 7965
  155.6876  140.3496  155.4880 H   0  0  0  0  0  0  0  0  0  0  0  0  # atno 8008 bound_to 7997
  155.9553  140.1127  157.0965 H   0  0  0  0  0  0  0  0  0  0  0  0  # atno 8009 bound_to 7997
  154.4131  140.1186  156.5092 H   0  0  0  0  0  0  0  0  0  0  0  0  # atno 8010 bound_to 7997
  140.6239  143.2430  151.5412 H   0  0  0  0  0  0  0  0  0  0  0  0  # atno 10167 bound_to 10162
  157.6172  131.1023  150.7446 H   0  0  0  0  0  0  0  0  0  0  0  0  # atno 10718 bound_to 10713
  152.9785  135.5854  154.4373 H   0  0  0  0  0  0  0  0  0  0  0  0  # atno 10763 bound_to 10752
  154.3979  135.2768  155.2117 H   0  0  0  0  0  0  0  0  0  0  0  0  # atno 10764 bound_to 10752
  154.3960  135.6114  153.5924 H   0  0  0  0  0  0  0  0  0  0  0  0  # atno 10765 bound_to 10752
  139.8801  134.9334  156.5506 H   0  0  0  0  0  0  0  0  0  0  0  0  # atno 11005 bound_to 11000
  146.2113  139.5471  142.9679 LP  0  0  0  0  0  0  0  0  0  0  0  0  # atno 17320 bound_to 7965
  145.5883  141.0373  143.2084 LP  0  0  0  0  0  0  0  0  0  0  0  0  # atno 17321 bound_to 7965
  139.5463  144.2513  152.1448 LP  0  0  0  0  0  0  0  0  0  0  0  0  # atno 17342 bound_to 10162
  140.1740  144.4908  150.6564 LP  0  0  0  0  0  0  0  0  0  0  0  0  # atno 17343 bound_to 10162
  156.7811  130.4859  149.5401 LP  0  0  0  0  0  0  0  0  0  0  0  0  # atno 17370 bound_to 10713
  156.1300  130.6171  151.0319 LP  0  0  0  0  0  0  0  0  0  0  0  0  # atno 17371 bound_to 10713
  140.8243  133.8329  155.8925 LP  0  0  0  0  0  0  0  0  0  0  0  0  # atno 17394 bound_to 11000
  140.9389  134.1927  157.4812 LP  0  0  0  0  0  0  0  0  0  0  0  0  # atno 17395 bound_to 11000

$$$$
