AV-unprocessed.smi:2340|AV-procd|sdf|9351|dock9
  -GOLD-   2272012573D 1   1.00000     0.00000
 Structure written by MMmdl.
 40 41  0  0  0  0  0  0  0  0  1 V2000
  153.5289  142.7824  163.4339 C   0  0  0  0  0  0  0  0  0  0  0  0
  153.3479  142.3682  162.0078 C   0  0  0  0  0  0  0  0  0  0  0  0
  153.9198  141.2907  161.3788 C   0  0  0  0  0  0  0  0  0  0  0  0
  153.4177  141.1684  159.7148 S   0  0  0  0  0  0  0  0  0  0  0  0
  152.4403  142.6175  159.9338 C   0  0  0  0  0  0  0  0  0  0  0  0
  151.5594  143.1993  158.8675 C   0  0  1  0  0  0  0  0  0  0  0  0
  151.8720  144.6789  158.6020 C   0  0  0  0  0  0  0  0  0  0  0  0
  151.5498  142.3588  157.5684 C   0  0  0  0  0  0  0  0  0  0  0  0
  150.3908  142.6281  156.7211 N   0  0  0  0  0  0  0  0  0  0  0  0
  149.6470  141.6946  156.1133 C   0  0  0  0  0  0  0  0  0  0  0  0
  149.7890  140.4829  156.2783 O   0  0  0  0  0  0  0  0  0  0  0  0
  148.7636  142.2421  155.2686 N   0  0  0  0  0  0  0  0  0  0  0  0
  147.9154  141.4942  154.3466 C   0  0  1  0  0  0  0  0  0  0  0  0
  148.6251  140.2743  153.7943 C   0  0  0  0  0  0  0  0  0  0  0  0
  147.4670  139.3433  153.4381 C   0  0  0  0  0  0  0  0  0  0  0  0
  146.3573  139.7508  154.2339 O   0  0  0  0  0  0  0  0  0  0  0  0
  146.7233  140.8485  155.0617 C   0  0  2  0  0  0  0  0  0  0  0  0
  145.5219  141.7782  155.2732 C   0  0  0  0  0  0  0  0  0  0  0  0
  152.5141  143.1146  161.1720 N   0  0  0  0  0  0  0  0  0  0  0  0
  154.1616  142.0798  163.9766 H   0  0  0  0  0  0  0  0  0  0  0  0
  152.5713  142.8315  163.9531 H   0  0  0  0  0  0  0  0  0  0  0  0
  153.9936  143.7662  163.5020 H   0  0  0  0  0  0  0  0  0  0  0  0
  154.5982  140.5598  161.7934 H   0  0  0  0  0  0  0  0  0  0  0  0
  150.5431  143.1758  159.2642 H   0  0  0  0  0  0  0  0  0  0  0  0
  151.7886  145.2670  159.5164 H   0  0  0  0  0  0  0  0  0  0  0  0
  151.1788  145.1009  157.8738 H   0  0  0  0  0  0  0  0  0  0  0  0
  152.8817  144.8097  158.2118 H   0  0  0  0  0  0  0  0  0  0  0  0
  152.4713  142.5097  157.0042 H   0  0  0  0  0  0  0  0  0  0  0  0
  151.5140  141.2993  157.8231 H   0  0  0  0  0  0  0  0  0  0  0  0
  150.1926  143.5972  156.5194 H   0  0  0  0  0  0  0  0  0  0  0  0
  148.7255  143.2490  155.2066 H   0  0  0  0  0  0  0  0  0  0  0  0
  147.5734  142.1154  153.5162 H   0  0  0  0  0  0  0  0  0  0  0  0
  149.2659  140.5010  152.9415 H   0  0  0  0  0  0  0  0  0  0  0  0
  149.2407  139.8091  154.5660 H   0  0  0  0  0  0  0  0  0  0  0  0
  147.1959  139.4516  152.3874 H   0  0  0  0  0  0  0  0  0  0  0  0
  147.7157  138.2968  153.6161 H   0  0  0  0  0  0  0  0  0  0  0  0
  147.0448  140.4394  156.0214 H   0  0  0  0  0  0  0  0  0  0  0  0
  145.7780  142.6119  155.9268 H   0  0  0  0  0  0  0  0  0  0  0  0
  144.6920  141.2421  155.7340 H   0  0  0  0  0  0  0  0  0  0  0  0
  145.1695  142.1898  154.3271 H   0  0  0  0  0  0  0  0  0  0  0  0
  1  2  1  0  0  0  0
  1 20  1  0  0  0  0
  1 21  1  0  0  0  0
  1 22  1  0  0  0  0
  2 19  1  0  0  0  0
  2  3  2  0  0  0  0
  3  4  1  0  0  0  0
  3 23  1  0  0  0  0
  4  5  1  0  0  0  0
  5  6  1  0  0  0  0
  5 19  2  0  0  0  0
  6  7  1  0  0  0  0
  6  8  1  0  0  0  0
  6 24  1  0  0  0  0
  7 25  1  0  0  0  0
  7 26  1  0  0  0  0
  7 27  1  0  0  0  0
  8  9  1  0  0  0  0
  8 28  1  0  0  0  0
  8 29  1  0  0  0  0
  9 10  1  0  0  0  0
  9 30  1  0  0  0  0
 10 11  2  0  0  0  0
 10 12  1  0  0  0  0
 12 13  1  0  0  0  0
 12 31  1  0  0  0  0
 13 17  1  0  0  0  0
 13 14  1  0  0  0  0
 13 32  1  0  0  0  0
 14 15  1  0  0  0  0
 14 33  1  0  0  0  0
 14 34  1  0  0  0  0
 15 16  1  0  0  0  0
 15 35  1  0  0  0  0
 15 36  1  0  0  0  0
 16 17  1  0  0  0  0
 17 18  1  0  0  0  0
 17 37  1  0  0  0  0
 18 38  1  0  0  0  0
 18 39  1  0  0  0  0
 18 40  1  0  0  0  0
M  END
> <s_m_source_file>
AV-unprocessed.smi

> <i_m_source_file_index>
2340

> <i_lp_mmshare_version>
43012

> <i_f3d_flags>
0

> <s_epik_input>
W0NIM11jMVtjSF1zYyhuMSlbQ0BIXShbQ0gzXSlbQ0gyXVtOSF1DKD1PKVtOSF1bQ0BASF0yW0NIMl1bQ0gyXU9bQ0BIXTJbQ0gzXQ==

> <s_epik_cmdline>
J2VwaWtfcHl0aG9uJywgJy1waCcsICc3LjAnLCAnLXRuJywgJzgnLCAnLW1hJywgJzIwMCcsICctbWV0YWxfYmluZGluZycsICctaW1hZScsICc8aW5maWxlLm1hZT4nLCAnLW9tYWUnLCAnPG91dGZpbGUubWFlPic=

> <r_epik_Ionization_Penalty>
0.00156622

> <r_epik_Ionization_Penalty_Charging>
0

> <r_epik_Ionization_Penalty_Neutral>
0.00156622

> <r_epik_State_Penalty>
0.00101902

> <r_epik_Charging_Adjusted_Penalty>
0.00101902

> <i_epik_Tot_Q>
0

> <i_epik_Tot_abs_Q>
0

> <r_epik_Metal_State_Penalty>
-0

> <b_epik_Metal_Only>
0

> <s_lp_Force_Field>
OPLS_2005

> <r_lp_Energy>
3.95119

> <b_lp_Chiralities_Consistent>
1

> <s_lp_Variant>
AV-unprocessed.smi:2340-8

> <Gold.Version>
5.8.1

> <Gold.Id.Protein>
6NUR|6NUR_protein|mol2

> <Gold.PLP.Fitness>
45.6050

> <Gold.PLP.PLP>
-41.0342

> <Gold.PLP.part.hbond>
-1.8886

> <Gold.PLP.part.metal>
0.0000

> <Gold.PLP.part.buried>
-3.5420

> <Gold.PLP.part.nonpolar>
-35.0705

> <Gold.PLP.part.repulsive>
0.4420

> <Gold.PLP.ligand.clash>
0.0000

> <Gold.PLP.ligand.torsion>
0.5530

> <Gold.PLP.Chemscore.Hbond>
1.8480

> <Gold.PLP.Chemscore.CHOScore>
0.0000

> <Gold.PLP.Chemscore.Metal>
0.0000

> <Gold.Chemscore.Hbonds>
donor molecule, donor type, donor heavy atom, donor atom, acceptor molecule, acceptor atom, score
      L1  H     9    30       P1  8028  0.85
      L1  H    12    31       P1  8028  1.00

> <Gold.PLP.Chemscore.Internal.Correction>
0.1329

> <Gold.Rescore>
     Score         DG    S(hbond)    S(metal)    S(lipo)     H(rot)  DE(clash)    DE(int)     intcor
     18.91     -20.92       1.90        0.00     111.36       1.53       0.05       1.95       ----

> <Gold.Chemscore.Fitness>
18.9131

> <Gold.Chemscore.DG>
-20.9150

> <Gold.Chemscore.ZeroCoef>
-5.4800

> <Gold.Chemscore.Hbond>
1.8951

> <Gold.Chemscore.Metal>
0.0000

> <Gold.Chemscore.Lipo>
111.3562

> <Gold.Chemscore.Internal_Hbond>
0.0000

> <Gold.Chemscore.DEClash>
0.0476

> <Gold.Chemscore.DEInternal>
1.9543

> <Gold.Chemscore.Rot>
1.5325

> <Gold.Chemscore.Internal.Correction>
   9.000000E+99

> <Gold.Chemscore.Hbonds>
donor molecule, donor type, donor heavy atom, donor atom, acceptor molecule, acceptor atom, score
      L1  H     9    30       P1  8028  0.83
      L1  H    12    31       P1  8028  0.93

> <Gold.Chemscore.Hbond.Weighted>
-6.3297

> <Gold.Chemscore.Metal.Weighted>
-0.0000

> <Gold.Chemscore.Lipo.Weighted>
-13.0287

> <Gold.Chemscore.Internal_Hbond.Weighted>
0.0000

> <Gold.Chemscore.DEClash.Weighted>
0.0476

> <Gold.Chemscore.DEInternal.Weighted>
1.9543

> <Gold.Chemscore.Rot.Weighted>
3.9233

> <Gold.Chemscore.Internal.Correction.Weighted>
   9.000000E+99

> <Gold.Protein.RotatedTorsions>
[ 6907 6896 6895 6894 ] final   77.47 input  -60.11 | X-H torsion
[ 7974 7965 7964 7962 ] final  -15.96 input  175.53 | X-H torsion
[ 8008 7997 7996 7995 ] final -159.38 input   59.86 | X-H torsion
[ 10167 10162 10161 10158 ] final  -85.37 input  -65.29 | X-H torsion
[ 10718 10713 10712 10709 ] final    4.43 input   66.30 | X-H torsion
[ 10763 10752 10751 10750 ] final  101.39 input  -60.55 | X-H torsion
[ 11005 11000 10999 10996 ] final   13.70 input  -57.11 | X-H torsion

> <Gold.Protein.ActiveResidues>
 VAL166  LYS551  ARG553  GLY616  TRP617  ASP618  TYR619  PRO620  LYS621  CYS622 
 ASP623  PHE694  ASN695  SER759  ASP760  ASP761  ALA762  ILE779  LEU786  VAL792 
 PHE793  MET794  SER795  GLU796  ALA797  LYS798  CYS799  TRP800  GLU811  SER814 

> <Gold.Protein.RotatedAtoms>
  152.5119  134.3812  159.9351 H   0  0  0  0  0  0  0  0  0  0  0  0  # atno 6907 bound_to 6896
  151.3769  133.3828  159.2713 H   0  0  0  0  0  0  0  0  0  0  0  0  # atno 6908 bound_to 6896
  150.9534  134.8951  159.7745 H   0  0  0  0  0  0  0  0  0  0  0  0  # atno 6909 bound_to 6896
  146.2009  140.3567  142.8424 H   0  0  0  0  0  0  0  0  0  0  0  0  # atno 7974 bound_to 7965
  155.7617  140.0840  157.2152 H   0  0  0  0  0  0  0  0  0  0  0  0  # atno 8008 bound_to 7997
  154.4003  140.1541  156.2896 H   0  0  0  0  0  0  0  0  0  0  0  0  # atno 8009 bound_to 7997
  155.8833  140.3419  155.5906 H   0  0  0  0  0  0  0  0  0  0  0  0  # atno 8010 bound_to 7997
  140.4043  143.2649  151.9101 H   0  0  0  0  0  0  0  0  0  0  0  0  # atno 10167 bound_to 10162
  156.8925  130.5692  149.5649 H   0  0  0  0  0  0  0  0  0  0  0  0  # atno 10718 bound_to 10713
  153.3260  135.4046  155.1456 H   0  0  0  0  0  0  0  0  0  0  0  0  # atno 10763 bound_to 10752
  154.8612  135.3599  154.5533 H   0  0  0  0  0  0  0  0  0  0  0  0  # atno 10764 bound_to 10752
  153.5969  135.7072  153.5459 H   0  0  0  0  0  0  0  0  0  0  0  0  # atno 10765 bound_to 10752
  140.4777  134.0966  155.7745 H   0  0  0  0  0  0  0  0  0  0  0  0  # atno 11005 bound_to 11000
  144.8681  140.7235  143.6064 LP  0  0  0  0  0  0  0  0  0  0  0  0  # atno 17320 bound_to 7965
  145.3487  139.1712  143.4446 LP  0  0  0  0  0  0  0  0  0  0  0  0  # atno 17321 bound_to 7965
  139.4784  144.5602  151.8252 LP  0  0  0  0  0  0  0  0  0  0  0  0  # atno 17342 bound_to 10162
  140.4706  144.1592  150.5917 LP  0  0  0  0  0  0  0  0  0  0  0  0  # atno 17343 bound_to 10162
  156.0622  130.5672  150.9215 LP  0  0  0  0  0  0  0  0  0  0  0  0  # atno 17370 bound_to 10713
  157.6075  131.0938  150.8853 LP  0  0  0  0  0  0  0  0  0  0  0  0  # atno 17371 bound_to 10713
  141.1546  133.8906  157.2010 LP  0  0  0  0  0  0  0  0  0  0  0  0  # atno 17394 bound_to 11000
  139.9845  135.0086  156.9830 LP  0  0  0  0  0  0  0  0  0  0  0  0  # atno 17395 bound_to 11000

$$$$
