AV-unprocessed.smi:2837|AV-procd|sdf|10921|dock4
  -GOLD-   2272015373D 1   1.00000     0.00000
 Structure written by MMmdl.
 32 34  0  0  0  0  0  0  0  0  1 V2000
  150.6123  136.0561  154.6975 F   0  0  0  0  0  0  0  0  0  0  0  0
  150.7298  135.4971  155.9260 C   0  0  0  0  0  0  0  0  0  0  0  0
  150.7972  134.1534  155.7593 F   0  0  0  0  0  0  0  0  0  0  0  0
  151.8550  135.9574  156.5343 O   0  0  0  0  0  0  0  0  0  0  0  0
  151.9128  137.2739  156.9311 C   0  0  0  0  0  0  0  0  0  0  0  0
  151.5305  137.7240  158.2167 C   0  0  0  0  0  0  0  0  0  0  0  0
  151.6426  139.0937  158.5232 C   0  0  0  0  0  0  0  0  0  0  0  0
  152.1403  139.9731  157.5400 C   0  0  0  0  0  0  0  0  0  0  0  0
  152.2426  141.3366  157.8503 N   0  0  0  0  0  0  0  0  0  0  0  0
  151.6251  141.8873  159.0531 C   0  0  1  0  0  0  0  0  0  0  0  0
  152.6440  142.4701  160.0351 C   0  0  0  0  0  0  0  0  0  0  0  0
  152.1027  143.8910  160.2459 C   0  0  1  0  0  0  0  0  0  0  0  0
  152.3760  144.7837  159.0283 C   0  0  0  0  0  0  0  0  0  0  0  0
  151.3766  144.2358  158.0113 C   0  0  0  0  0  0  0  0  0  0  0  0
  150.7060  143.1007  158.8037 C   0  0  2  0  0  0  0  0  0  0  0  0
  150.7091  143.6734  160.1008 O   0  0  0  0  0  0  0  0  0  0  0  0
  152.5161  139.5476  156.3114 N   0  0  0  0  0  0  0  0  0  0  0  0
  152.4076  138.2330  156.0247 C   0  0  0  0  0  0  0  0  0  0  0  0
  149.8333  135.7484  156.4933 H   0  0  0  0  0  0  0  0  0  0  0  0
  151.1605  137.0401  158.9660 H   0  0  0  0  0  0  0  0  0  0  0  0
  151.3537  139.4578  159.4985 H   0  0  0  0  0  0  0  0  0  0  0  0
  152.5590  141.9796  157.1388 H   0  0  0  0  0  0  0  0  0  0  0  0
  151.0636  141.1033  159.5636 H   0  0  0  0  0  0  0  0  0  0  0  0
  152.6307  141.9070  160.9688 H   0  0  0  0  0  0  0  0  0  0  0  0
  153.6681  142.4746  159.6588 H   0  0  0  0  0  0  0  0  0  0  0  0
  152.3936  144.3388  161.1964 H   0  0  0  0  0  0  0  0  0  0  0  0
  152.1584  145.8281  159.2538 H   0  0  0  0  0  0  0  0  0  0  0  0
  153.4092  144.7147  158.6863 H   0  0  0  0  0  0  0  0  0  0  0  0
  150.6457  145.0018  157.7498 H   0  0  0  0  0  0  0  0  0  0  0  0
  151.8479  143.8958  157.0889 H   0  0  0  0  0  0  0  0  0  0  0  0
  149.7132  142.8369  158.4387 H   0  0  0  0  0  0  0  0  0  0  0  0
  152.7225  137.9361  155.0352 H   0  0  0  0  0  0  0  0  0  0  0  0
  1  2  1  0  0  0  0
  2  3  1  0  0  0  0
  2  4  1  0  0  0  0
  2 19  1  0  0  0  0
  4  5  1  0  0  0  0
  5 18  1  0  0  0  0
  5  6  2  0  0  0  0
  6  7  1  0  0  0  0
  6 20  1  0  0  0  0
  7  8  2  0  0  0  0
  7 21  1  0  0  0  0
  8  9  1  0  0  0  0
  8 17  1  0  0  0  0
  9 10  1  0  0  0  0
  9 22  1  0  0  0  0
 10 15  1  0  0  0  0
 10 11  1  0  0  0  0
 10 23  1  0  0  0  0
 11 12  1  0  0  0  0
 11 24  1  0  0  0  0
 11 25  1  0  0  0  0
 12 16  1  0  0  0  0
 12 13  1  0  0  0  0
 12 26  1  0  0  0  0
 13 14  1  0  0  0  0
 13 27  1  0  0  0  0
 13 28  1  0  0  0  0
 14 15  1  0  0  0  0
 14 29  1  0  0  0  0
 14 30  1  0  0  0  0
 15 16  1  0  0  0  0
 15 31  1  0  0  0  0
 17 18  2  0  0  0  0
 18 32  1  0  0  0  0
M  END
> <s_m_source_file>
AV-unprocessed.smi

> <i_m_source_file_index>
2837

> <i_lp_mmshare_version>
43012

> <i_f3d_flags>
0

> <s_epik_input>
RltDSF0oRilPYzFbY0hdW2NIXWMobltjSF0xKVtOSF1bQ0BIXShbQ0gyXVtDQEBIXTIzKVtDQEBIXShPMylbQ0gyXVtDSDJdMg==

> <s_epik_cmdline>
J2VwaWtfcHl0aG9uJywgJy1waCcsICc3LjAnLCAnLXRuJywgJzgnLCAnLW1hJywgJzIwMCcsICctbWV0YWxfYmluZGluZycsICctaW1hZScsICc8aW5maWxlLm1hZT4nLCAnLW9tYWUnLCAnPG91dGZpbGUubWFlPic=

> <r_lp_tautomer_probability>
1

> <r_epik_Ionization_Penalty>
0.0124072

> <r_epik_Ionization_Penalty_Charging>
0

> <r_epik_Ionization_Penalty_Neutral>
0.0124072

> <r_epik_State_Penalty>
0.00959565

> <r_epik_Charging_Adjusted_Penalty>
0.00959565

> <i_epik_Tot_Q>
0

> <i_epik_Tot_abs_Q>
0

> <r_epik_Metal_State_Penalty>
9.67369e-06

> <b_epik_Metal_Only>
0

> <s_lp_Force_Field>
OPLS_2005

> <r_lp_Energy>
39.9144

> <b_lp_Chiralities_Consistent>
1

> <s_lp_Variant>
AV-unprocessed.smi:2837-2

> <Gold.Version>
5.8.1

> <Gold.Id.Protein>
6NUR|6NUR_protein|mol2

> <Gold.PLP.Fitness>
38.2132

> <Gold.PLP.PLP>
-33.1307

> <Gold.PLP.part.hbond>
-2.8157

> <Gold.PLP.part.metal>
0.0000

> <Gold.PLP.part.buried>
-2.5679

> <Gold.PLP.part.nonpolar>
-27.6480

> <Gold.PLP.part.repulsive>
0.1759

> <Gold.PLP.ligand.clash>
0.0000

> <Gold.PLP.ligand.torsion>
0.4682

> <Gold.PLP.Chemscore.Hbond>
2.0000

> <Gold.PLP.Chemscore.CHOScore>
0.0000

> <Gold.PLP.Chemscore.Metal>
0.0000

> <Gold.Chemscore.Hbonds>
donor molecule, donor type, donor heavy atom, donor atom, acceptor molecule, acceptor atom, score
      P1  H  7997  8008       L1    17  1.00
      P1  H 10752 10764       L1     4  1.00

> <Gold.PLP.Chemscore.Internal.Correction>
0.0189

> <Gold.Rescore>
     Score         DG    S(hbond)    S(metal)    S(lipo)     H(rot)  DE(clash)    DE(int)     intcor
     17.22     -17.57       1.54        0.00      88.36       1.32       0.12       0.22       ----

> <Gold.Chemscore.Fitness>
17.2243

> <Gold.Chemscore.DG>
-17.5659

> <Gold.Chemscore.ZeroCoef>
-5.4800

> <Gold.Chemscore.Hbond>
1.5359

> <Gold.Chemscore.Metal>
0.0000

> <Gold.Chemscore.Lipo>
88.3618

> <Gold.Chemscore.Internal_Hbond>
0.0000

> <Gold.Chemscore.DEClash>
0.1230

> <Gold.Chemscore.DEInternal>
0.2186

> <Gold.Chemscore.Rot>
1.3213

> <Gold.Chemscore.Internal.Correction>
   9.000000E+99

> <Gold.Chemscore.Hbonds>
donor molecule, donor type, donor heavy atom, donor atom, acceptor molecule, acceptor atom, score
      P1  H  7997  8008       L1    17  0.34
      P1  H 10752 10764       L1     4  0.22

> <Gold.Chemscore.Hbond.Weighted>
-5.1300

> <Gold.Chemscore.Metal.Weighted>
-0.0000

> <Gold.Chemscore.Lipo.Weighted>
-10.3383

> <Gold.Chemscore.Internal_Hbond.Weighted>
0.0000

> <Gold.Chemscore.DEClash.Weighted>
0.1230

> <Gold.Chemscore.DEInternal.Weighted>
0.2186

> <Gold.Chemscore.Rot.Weighted>
3.3825

> <Gold.Chemscore.Internal.Correction.Weighted>
   9.000000E+99

> <Gold.Protein.RotatedTorsions>
[ 6907 6896 6895 6894 ] final  177.52 input  -60.11 | X-H torsion
[ 7974 7965 7964 7962 ] final -124.15 input  175.53 | X-H torsion
[ 8008 7997 7996 7995 ] final  -29.71 input   59.86 | X-H torsion
[ 10167 10162 10161 10158 ] final   85.74 input  -65.29 | X-H torsion
[ 10718 10713 10712 10709 ] final -116.26 input   66.30 | X-H torsion
[ 10763 10752 10751 10750 ] final  -22.35 input  -60.55 | X-H torsion
[ 11005 11000 10999 10996 ] final   58.24 input  -57.11 | X-H torsion

> <Gold.Protein.ActiveResidues>
 VAL166  LYS551  ARG553  GLY616  TRP617  ASP618  TYR619  PRO620  LYS621  CYS622 
 ASP623  PHE694  ASN695  SER759  ASP760  ASP761  ALA762  ILE779  LEU786  VAL792 
 PHE793  MET794  SER795  GLU796  ALA797  LYS798  CYS799  TRP800  GLU811  SER814 

> <Gold.Protein.RotatedAtoms>
  151.7026  133.3311  159.3270 H   0  0  0  0  0  0  0  0  0  0  0  0  # atno 6907 bound_to 6896
  150.7729  134.6602  159.6345 H   0  0  0  0  0  0  0  0  0  0  0  0  # atno 6908 bound_to 6896
  152.3760  134.6665  160.0211 H   0  0  0  0  0  0  0  0  0  0  0  0  # atno 6909 bound_to 6896
  145.0111  140.7906  143.4438 H   0  0  0  0  0  0  0  0  0  0  0  0  # atno 7974 bound_to 7965
  154.4279  140.1811  156.1292 H   0  0  0  0  0  0  0  0  0  0  0  0  # atno 8008 bound_to 7997
  156.0081  140.3353  155.6888 H   0  0  0  0  0  0  0  0  0  0  0  0  # atno 8009 bound_to 7997
  155.6149  140.0654  157.2686 H   0  0  0  0  0  0  0  0  0  0  0  0  # atno 8010 bound_to 7997
  139.8946  144.6365  150.8702 H   0  0  0  0  0  0  0  0  0  0  0  0  # atno 10167 bound_to 10162
  156.0951  130.6125  150.9012 H   0  0  0  0  0  0  0  0  0  0  0  0  # atno 10718 bound_to 10713
  153.6506  135.6981  153.5210 H   0  0  0  0  0  0  0  0  0  0  0  0  # atno 10763 bound_to 10752
  153.2710  135.4215  155.0987 H   0  0  0  0  0  0  0  0  0  0  0  0  # atno 10764 bound_to 10752
  154.8477  135.3578  154.6050 H   0  0  0  0  0  0  0  0  0  0  0  0  # atno 10765 bound_to 10752
  140.0392  134.5898  155.9404 H   0  0  0  0  0  0  0  0  0  0  0  0  # atno 11005 bound_to 11000
  145.2022  139.2246  143.5187 LP  0  0  0  0  0  0  0  0  0  0  0  0  # atno 17320 bound_to 7965
  146.3470  140.1842  142.8589 LP  0  0  0  0  0  0  0  0  0  0  0  0  # atno 17321 bound_to 7965
  140.7719  143.3483  151.2065 LP  0  0  0  0  0  0  0  0  0  0  0  0  # atno 17342 bound_to 10162
  139.7079  143.9425  152.2935 LP  0  0  0  0  0  0  0  0  0  0  0  0  # atno 17343 bound_to 10162
  157.6110  131.0936  150.8794 LP  0  0  0  0  0  0  0  0  0  0  0  0  # atno 17370 bound_to 10713
  156.8934  130.5221  149.5285 LP  0  0  0  0  0  0  0  0  0  0  0  0  # atno 17371 bound_to 10713
  141.1874  133.6559  156.5280 LP  0  0  0  0  0  0  0  0  0  0  0  0  # atno 17394 bound_to 11000
  140.4097  134.7283  157.4828 LP  0  0  0  0  0  0  0  0  0  0  0  0  # atno 17395 bound_to 11000

$$$$
