AV-unprocessed.smi:2059|AV-procd|sdf|8348|dock2
  -GOLD-   2272011 13D 1   1.00000     0.00000
 Structure written by MMmdl.
 30 31  0  0  0  0  0  0  0  0  1 V2000
  145.6511  130.2115  152.4414 C   0  0  0  0  0  0  0  0  0  0  0  0
  146.5772  131.1805  153.0928 C   0  0  0  0  0  0  0  0  0  0  0  0
  146.9595  132.4549  152.7816 C   0  0  0  0  0  0  0  0  0  0  0  0
  147.8639  132.7866  153.8256 C   0  0  0  0  0  0  0  0  0  0  0  0
  148.4929  134.0640  153.8522 N   0  0  0  0  0  0  0  0  0  0  0  0
  149.2432  134.6617  154.8016 C   0  0  0  0  0  0  0  0  0  0  0  0
  149.4899  134.0960  155.8654 O   0  0  0  0  0  0  0  0  0  0  0  0
  149.6963  135.8927  154.5127 N   0  0  0  0  0  0  0  0  0  0  0  0
  150.5219  136.7155  155.3898 C   0  0  2  0  0  0  0  0  0  0  0  0
  149.6858  137.4359  156.4672 C   0  0  0  0  0  0  0  0  0  0  0  0
  150.5373  138.5491  157.0902 C   0  0  0  0  0  0  0  0  0  0  0  0
  151.6902  139.1063  155.7784 S   0  0  0  0  0  0  0  0  0  0  0  0
  151.2422  140.4008  155.2430 O   0  0  0  0  0  0  0  0  0  0  0  0
  153.0711  138.9189  156.2489 O   0  0  0  0  0  0  0  0  0  0  0  0
  151.2701  137.7841  154.5820 C   0  0  0  0  0  0  0  0  0  0  0  0
  148.0202  131.7976  154.6942 N   0  0  0  0  0  0  0  0  0  0  0  0
  147.1974  130.7649  154.2298 O   0  0  0  0  0  0  0  0  0  0  0  0
  144.9722  130.7216  151.7580 H   0  0  0  0  0  0  0  0  0  0  0  0
  145.0495  129.6887  153.1852 H   0  0  0  0  0  0  0  0  0  0  0  0
  146.2088  129.4676  151.8727 H   0  0  0  0  0  0  0  0  0  0  0  0
  146.6399  133.0522  151.9403 H   0  0  0  0  0  0  0  0  0  0  0  0
  148.3618  134.6119  153.0143 H   0  0  0  0  0  0  0  0  0  0  0  0
  149.4486  136.2864  153.6158 H   0  0  0  0  0  0  0  0  0  0  0  0
  151.2644  136.0887  155.8875 H   0  0  0  0  0  0  0  0  0  0  0  0
  148.8111  137.8885  155.9979 H   0  0  0  0  0  0  0  0  0  0  0  0
  149.3167  136.7458  157.2264 H   0  0  0  0  0  0  0  0  0  0  0  0
  149.9418  139.3878  157.4508 H   0  0  0  0  0  0  0  0  0  0  0  0
  151.1322  138.1624  157.9178 H   0  0  0  0  0  0  0  0  0  0  0  0
  152.1745  137.4062  154.1048 H   0  0  0  0  0  0  0  0  0  0  0  0
  150.6288  138.2227  153.8162 H   0  0  0  0  0  0  0  0  0  0  0  0
  1  2  1  0  0  0  0
  1 18  1  0  0  0  0
  1 19  1  0  0  0  0
  1 20  1  0  0  0  0
  2 17  1  0  0  0  0
  2  3  2  0  0  0  0
  3  4  1  0  0  0  0
  3 21  1  0  0  0  0
  4  5  1  0  0  0  0
  4 16  2  0  0  0  0
  5  6  1  0  0  0  0
  5 22  1  0  0  0  0
  6  7  2  0  0  0  0
  6  8  1  0  0  0  0
  8  9  1  0  0  0  0
  8 23  1  0  0  0  0
  9 15  1  0  0  0  0
  9 10  1  0  0  0  0
  9 24  1  0  0  0  0
 10 11  1  0  0  0  0
 10 25  1  0  0  0  0
 10 26  1  0  0  0  0
 11 12  1  0  0  0  0
 11 27  1  0  0  0  0
 11 28  1  0  0  0  0
 12 13  2  0  0  0  0
 12 14  2  0  0  0  0
 12 15  1  0  0  0  0
 15 29  1  0  0  0  0
 15 30  1  0  0  0  0
 16 17  1  0  0  0  0
M  END
> <s_m_source_file>
AV-unprocessed.smi

> <i_m_source_file_index>
2059

> <i_lp_mmshare_version>
43012

> <i_f3d_flags>
0

> <s_epik_input>
W0NIM11jMVtjSF1jKG5vMSlbTkhdQyg9TylbTkhdW0NAQEhdKFtDSDJdMilbQ0gyXVtDSDJdUzIoPU8pPU8=

> <s_epik_cmdline>
J2VwaWtfcHl0aG9uJywgJy1waCcsICc3LjAnLCAnLXRuJywgJzgnLCAnLW1hJywgJzIwMCcsICctbWV0YWxfYmluZGluZycsICctaW1hZScsICc8aW5maWxlLm1hZT4nLCAnLW9tYWUnLCAnPG91dGZpbGUubWFlPic=

> <r_lp_tautomer_probability>
1

> <r_epik_Ionization_Penalty>
3.88767e-05

> <r_epik_Ionization_Penalty_Charging>
0

> <r_epik_Ionization_Penalty_Neutral>
3.88767e-05

> <r_epik_State_Penalty>
-0

> <r_epik_Charging_Adjusted_Penalty>
0

> <i_epik_Tot_Q>
0

> <i_epik_Tot_abs_Q>
0

> <r_epik_Metal_State_Penalty>
0.0251347

> <b_epik_Metal_Only>
0

> <s_lp_Force_Field>
OPLS_2005

> <r_lp_Energy>
4.38419

> <b_lp_Chiralities_Consistent>
1

> <s_lp_Variant>
AV-unprocessed.smi:2059-1

> <Gold.Version>
5.8.1

> <Gold.Id.Protein>
6NUR|6NUR_protein|mol2

> <Gold.PLP.Fitness>
36.0036

> <Gold.PLP.PLP>
-24.7782

> <Gold.PLP.part.hbond>
-4.5594

> <Gold.PLP.part.metal>
0.0000

> <Gold.PLP.part.buried>
-4.0973

> <Gold.PLP.part.nonpolar>
-17.3436

> <Gold.PLP.part.repulsive>
0.2285

> <Gold.PLP.ligand.clash>
0.0000

> <Gold.PLP.ligand.torsion>
0.3154

> <Gold.PLP.Chemscore.Hbond>
3.9520

> <Gold.PLP.Chemscore.CHOScore>
0.0000

> <Gold.PLP.Chemscore.Metal>
0.0000

> <Gold.Chemscore.Hbonds>
donor molecule, donor type, donor heavy atom, donor atom, acceptor molecule, acceptor atom, score
      L1  H     5    22       P1  7948  0.95
      L1  H     8    23       P1  7948  1.00
      P1  H  7989  7998       L1    13  0.98
      P1  H  7997  8010       L1    14  1.00

> <Gold.PLP.Chemscore.Internal.Correction>
0.0002

> <Gold.Rescore>
     Score         DG    S(hbond)    S(metal)    S(lipo)     H(rot)  DE(clash)    DE(int)     intcor
     16.46     -18.00       3.29        0.00      34.98       1.00       0.13       1.41       ----

> <Gold.Chemscore.Fitness>
16.4584

> <Gold.Chemscore.DG>
-17.9993

> <Gold.Chemscore.ZeroCoef>
-5.4800

> <Gold.Chemscore.Hbond>
3.2892

> <Gold.Chemscore.Metal>
0.0000

> <Gold.Chemscore.Lipo>
34.9849

> <Gold.Chemscore.Internal_Hbond>
0.0000

> <Gold.Chemscore.DEClash>
0.1263

> <Gold.Chemscore.DEInternal>
1.4146

> <Gold.Chemscore.Rot>
1.0000

> <Gold.Chemscore.Internal.Correction>
   9.000000E+99

> <Gold.Chemscore.Hbonds>
donor molecule, donor type, donor heavy atom, donor atom, acceptor molecule, acceptor atom, score
      L1  H     5    22       P1  7948  0.43
      L1  H     8    23       P1  7948  0.69
      P1  H  7989  7998       L1    13  0.91
      P1  H  7997  8010       L1    14  0.99

> <Gold.Chemscore.Hbond.Weighted>
-10.9861

> <Gold.Chemscore.Metal.Weighted>
-0.0000

> <Gold.Chemscore.Lipo.Weighted>
-4.0932

> <Gold.Chemscore.Internal_Hbond.Weighted>
0.0000

> <Gold.Chemscore.DEClash.Weighted>
0.1263

> <Gold.Chemscore.DEInternal.Weighted>
1.4146

> <Gold.Chemscore.Rot.Weighted>
2.5600

> <Gold.Chemscore.Internal.Correction.Weighted>
   9.000000E+99

> <Gold.Protein.RotatedTorsions>
[ 6907 6896 6895 6894 ] final  -34.20 input  -60.11 | X-H torsion
[ 7974 7965 7964 7962 ] final   28.99 input  175.53 | X-H torsion
[ 8008 7997 7996 7995 ] final   67.49 input   59.86 | X-H torsion
[ 10167 10162 10161 10158 ] final  -40.59 input  -65.29 | X-H torsion
[ 10718 10713 10712 10709 ] final -121.16 input   66.30 | X-H torsion
[ 10763 10752 10751 10750 ] final  124.99 input  -60.55 | X-H torsion
[ 11005 11000 10999 10996 ] final  108.47 input  -57.11 | X-H torsion

> <Gold.Protein.ActiveResidues>
 VAL166  LYS551  ARG553  GLY616  TRP617  ASP618  TYR619  PRO620  LYS621  CYS622 
 ASP623  PHE694  ASN695  SER759  ASP760  ASP761  ALA762  ILE779  LEU786  VAL792 
 PHE793  MET794  SER795  GLU796  ALA797  LYS798  CYS799  TRP800  GLU811  SER814 

> <Gold.Protein.RotatedAtoms>
  151.0557  134.9703  159.8234 H   0  0  0  0  0  0  0  0  0  0  0  0  # atno 6907 bound_to 6896
  152.5388  134.2481  159.8898 H   0  0  0  0  0  0  0  0  0  0  0  0  # atno 6908 bound_to 6896
  151.2498  133.4313  159.2645 H   0  0  0  0  0  0  0  0  0  0  0  0  # atno 6909 bound_to 6896
  146.1697  139.6981  142.8976 H   0  0  0  0  0  0  0  0  0  0  0  0  # atno 7974 bound_to 7965
  155.6937  140.3496  155.4904 H   0  0  0  0  0  0  0  0  0  0  0  0  # atno 8008 bound_to 7997
  155.9501  140.1118  157.1006 H   0  0  0  0  0  0  0  0  0  0  0  0  # atno 8009 bound_to 7997
  154.4120  140.1196  156.5028 H   0  0  0  0  0  0  0  0  0  0  0  0  # atno 8010 bound_to 7997
  140.7029  143.3144  151.2945 H   0  0  0  0  0  0  0  0  0  0  0  0  # atno 10167 bound_to 10162
  156.1315  130.6399  150.9629 H   0  0  0  0  0  0  0  0  0  0  0  0  # atno 10718 bound_to 10713
  153.6702  135.3331  155.3151 H   0  0  0  0  0  0  0  0  0  0  0  0  # atno 10763 bound_to 10752
  154.8493  135.4384  154.1713 H   0  0  0  0  0  0  0  0  0  0  0  0  # atno 10764 bound_to 10752
  153.2702  135.6999  153.7564 H   0  0  0  0  0  0  0  0  0  0  0  0  # atno 10765 bound_to 10752
  139.8845  134.9431  156.5977 H   0  0  0  0  0  0  0  0  0  0  0  0  # atno 11005 bound_to 11000
  145.4373  141.0420  143.2877 LP  0  0  0  0  0  0  0  0  0  0  0  0  # atno 17320 bound_to 7965
  144.8145  139.5902  143.7015 LP  0  0  0  0  0  0  0  0  0  0  0  0  # atno 17321 bound_to 7965
  139.6578  144.0244  152.2672 LP  0  0  0  0  0  0  0  0  0  0  0  0  # atno 17342 bound_to 10162
  139.9801  144.6434  150.7908 LP  0  0  0  0  0  0  0  0  0  0  0  0  # atno 17343 bound_to 10162
  157.6493  131.0899  150.8086 LP  0  0  0  0  0  0  0  0  0  0  0  0  # atno 17370 bound_to 10713
  156.8170  130.4971  149.5348 LP  0  0  0  0  0  0  0  0  0  0  0  0  # atno 17371 bound_to 10713
  140.7907  133.8584  155.8644 LP  0  0  0  0  0  0  0  0  0  0  0  0  # atno 17394 bound_to 11000
  140.9679  134.1569  157.4600 LP  0  0  0  0  0  0  0  0  0  0  0  0  # atno 17395 bound_to 11000

$$$$
