AV-unprocessed.smi:255|AV-procd|sdf|1954|dock1
  -GOLD-   2262021 93D 1   1.00000     0.00000
 Structure written by MMmdl.
 44 47  0  0  0  0  0  0  0  0  1 V2000
  153.5794  142.0546  162.2566 O   0  0  0  0  0  0  0  0  0  0  0  0
  153.5297  141.7124  160.8881 C   0  0  0  0  0  0  0  0  0  0  0  0
  152.4216  142.5174  160.1800 C   0  0  1  0  0  0  0  0  0  0  0  0
  152.4613  144.0144  160.5030 C   0  0  0  0  0  0  0  0  0  0  0  0
  151.7052  144.6328  159.3310 C   0  0  2  0  0  0  0  0  0  0  0  0
  150.3931  144.5609  159.5597 F   0  0  0  0  0  0  0  0  0  0  0  0
  152.0614  143.7255  158.1490 C   0  0  0  0  0  0  0  0  0  0  0  0
  152.5185  142.4621  158.7212 N   0  0  0  0  0  0  0  0  0  0  0  0
  152.2071  141.3338  158.0297 C   0  0  0  0  0  0  0  0  0  0  0  0
  152.7288  140.1374  158.4116 N   0  0  0  0  0  0  0  0  0  0  0  0
  152.4272  139.0212  157.7426 C   0  0  0  0  0  0  0  0  0  0  0  0
  151.6368  138.8750  156.6782 N   0  0  0  0  0  0  0  0  0  0  0  0
  151.1073  140.0694  156.2881 C   0  0  0  0  0  0  0  0  0  0  0  0
  151.3401  141.3345  156.8990 C   0  0  0  0  0  0  0  0  0  0  0  0
  150.6449  142.3232  156.2119 N   0  0  0  0  0  0  0  0  0  0  0  0
  150.0322  141.6794  155.2565 C   0  0  0  0  0  0  0  0  0  0  0  0
  150.2457  140.3197  155.2339 N   0  0  0  0  0  0  0  0  0  0  0  0
  149.6927  139.3637  154.2860 C   0  0  0  0  0  0  0  0  0  0  0  0
  148.1639  139.4998  154.0825 C   0  0  2  0  0  0  0  0  0  0  0  0
  147.7071  138.4197  153.2891 O   0  0  0  0  0  0  0  0  0  0  0  0
  147.7813  140.8156  153.4007 C   0  0  0  0  0  0  0  0  0  0  0  0
  147.1033  141.6125  154.5086 C   0  0  0  0  0  0  0  0  0  0  0  0
  146.4472  140.6063  155.2582 O   0  0  0  0  0  0  0  0  0  0  0  0
  147.3634  139.5307  155.3999 C   0  0  0  0  0  0  0  0  0  0  0  0
  151.4447  142.1284  160.4723 H   0  0  0  0  0  0  0  0  0  0  0  0
  151.9520  145.6807  159.1591 H   0  0  0  0  0  0  0  0  0  0  0  0
  153.7643  142.9786  162.3280 H   0  0  0  0  0  0  0  0  0  0  0  0
  154.5016  141.9045  160.4326 H   0  0  0  0  0  0  0  0  0  0  0  0
  153.3511  140.6399  160.8160 H   0  0  0  0  0  0  0  0  0  0  0  0
  152.0215  144.2544  161.4715 H   0  0  0  0  0  0  0  0  0  0  0  0
  153.4912  144.3748  160.5025 H   0  0  0  0  0  0  0  0  0  0  0  0
  151.2130  143.5998  157.4742 H   0  0  0  0  0  0  0  0  0  0  0  0
  152.8828  144.1591  157.5776 H   0  0  0  0  0  0  0  0  0  0  0  0
  152.8840  138.1155  158.1137 H   0  0  0  0  0  0  0  0  0  0  0  0
  149.4036  142.1845  154.5377 H   0  0  0  0  0  0  0  0  0  0  0  0
  150.2099  139.4923  153.3342 H   0  0  0  0  0  0  0  0  0  0  0  0
  149.9389  138.3588  154.6318 H   0  0  0  0  0  0  0  0  0  0  0  0
  148.4587  137.9468  152.9656 H   0  0  0  0  0  0  0  0  0  0  0  0
  148.6316  141.3469  152.9717 H   0  0  0  0  0  0  0  0  0  0  0  0
  147.0637  140.6468  152.5958 H   0  0  0  0  0  0  0  0  0  0  0  0
  147.8390  142.1194  155.1352 H   0  0  0  0  0  0  0  0  0  0  0  0
  146.4023  142.3549  154.1266 H   0  0  0  0  0  0  0  0  0  0  0  0
  146.8503  138.5944  155.6235 H   0  0  0  0  0  0  0  0  0  0  0  0
  148.0093  139.7626  156.2472 H   0  0  0  0  0  0  0  0  0  0  0  0
  1  2  1  0  0  0  0
  1 27  1  0  0  0  0
  2  3  1  0  0  0  0
  2 28  1  0  0  0  0
  2 29  1  0  0  0  0
  3 25  1  0  0  0  0
  3  8  1  0  0  0  0
  3  4  1  0  0  0  0
  4  5  1  0  0  0  0
  4 30  1  0  0  0  0
  4 31  1  0  0  0  0
  5 26  1  0  0  0  0
  5  6  1  0  0  0  0
  5  7  1  0  0  0  0
  7  8  1  0  0  0  0
  7 32  1  0  0  0  0
  7 33  1  0  0  0  0
  8  9  1  0  0  0  0
  9 14  1  0  0  0  0
  9 10  2  0  0  0  0
 10 11  1  0  0  0  0
 11 12  2  0  0  0  0
 11 34  1  0  0  0  0
 12 13  1  0  0  0  0
 13 17  1  0  0  0  0
 13 14  2  0  0  0  0
 14 15  1  0  0  0  0
 15 16  2  0  0  0  0
 16 17  1  0  0  0  0
 16 35  1  0  0  0  0
 17 18  1  0  0  0  0
 18 19  1  0  0  0  0
 18 36  1  0  0  0  0
 18 37  1  0  0  0  0
 19 24  1  0  0  0  0
 19 20  1  0  0  0  0
 19 21  1  0  0  0  0
 20 38  1  0  0  0  0
 21 22  1  0  0  0  0
 21 39  1  0  0  0  0
 21 40  1  0  0  0  0
 22 23  1  0  0  0  0
 22 41  1  0  0  0  0
 22 42  1  0  0  0  0
 23 24  1  0  0  0  0
 24 43  1  0  0  0  0
 24 44  1  0  0  0  0
M  END
> <s_m_source_file>
AV-unprocessed.smi

> <i_m_source_file_index>
255

> <i_lp_mmshare_version>
43012

> <i_f3d_flags>
0

> <s_epik_input>
W09IXVtDSDJdW0NAQEhdMVtDSDJdW0NASF0oRilbQ0gyXU4xYyhuW2NIXW4yKWMoYzIzKW5bY0hdbjNbQ0gyXVtDQEBdNChbT0hdKVtDSDJdW0NIMl1PW0NIMl00

> <s_epik_cmdline>
J2VwaWtfcHl0aG9uJywgJy1waCcsICc3LjAnLCAnLXRuJywgJzgnLCAnLW1hJywgJzIwMCcsICctbWV0YWxfYmluZGluZycsICctaW1hZScsICc8aW5maWxlLm1hZT4nLCAnLW9tYWUnLCAnPG91dGZpbGUubWFlPic=

> <r_lp_tautomer_probability>
1

> <r_epik_Ionization_Penalty>
0.0058098

> <r_epik_Ionization_Penalty_Charging>
0

> <r_epik_Ionization_Penalty_Neutral>
0.0058098

> <r_epik_State_Penalty>
0.00411166

> <r_epik_Charging_Adjusted_Penalty>
0.00411166

> <i_epik_Tot_Q>
0

> <i_epik_Tot_abs_Q>
0

> <r_epik_Metal_State_Penalty>
-0

> <b_epik_Metal_Only>
0

> <s_lp_Force_Field>
OPLS_2005

> <r_lp_Energy>
48.4918

> <b_lp_Chiralities_Consistent>
1

> <s_lp_Variant>
AV-unprocessed.smi:255-6

> <Gold.Version>
5.8.1

> <Gold.Id.Protein>
6NUR|6NUR_protein|mol2

> <Gold.PLP.Fitness>
46.7817

> <Gold.PLP.PLP>
-44.5068

> <Gold.PLP.part.hbond>
-1.2836

> <Gold.PLP.part.metal>
0.0000

> <Gold.PLP.part.buried>
-5.6165

> <Gold.PLP.part.nonpolar>
-37.4686

> <Gold.PLP.part.repulsive>
0.7879

> <Gold.PLP.ligand.clash>
0.0000

> <Gold.PLP.ligand.torsion>
0.4172

> <Gold.PLP.Chemscore.Hbond>
0.7610

> <Gold.PLP.Chemscore.CHOScore>
0.1509

> <Gold.PLP.Chemscore.Metal>
0.0000

> <Gold.Chemscore.Hbonds>
donor molecule, donor type, donor heavy atom, donor atom, acceptor molecule, acceptor atom, score
      L1  H    20    38       P1  7948  0.73
      P1  H  7997  8010       L1    10  0.04
      L1  C    16    35       P1  8028  0.16

> <Gold.PLP.Chemscore.Internal.Correction>
0.3737

> <Gold.Rescore>
     Score         DG    S(hbond)    S(metal)    S(lipo)     H(rot)  DE(clash)    DE(int)     intcor
      7.67     -10.42       0.95        0.00      87.76       3.33       0.13       2.61       ----

> <Gold.Chemscore.Fitness>
7.6672

> <Gold.Chemscore.DG>
-10.4159

> <Gold.Chemscore.ZeroCoef>
-5.4800

> <Gold.Chemscore.Hbond>
0.9538

> <Gold.Chemscore.Metal>
0.0000

> <Gold.Chemscore.Lipo>
87.7619

> <Gold.Chemscore.Internal_Hbond>
0.0000

> <Gold.Chemscore.DEClash>
0.1349

> <Gold.Chemscore.DEInternal>
2.6138

> <Gold.Chemscore.Rot>
3.3273

> <Gold.Chemscore.Internal.Correction>
   9.000000E+99

> <Gold.Chemscore.Hbonds>
donor molecule, donor type, donor heavy atom, donor atom, acceptor molecule, acceptor atom, score
      L1  H    20    38       P1  7948  0.71

> <Gold.Chemscore.Hbond.Weighted>
-3.1857

> <Gold.Chemscore.Metal.Weighted>
-0.0000

> <Gold.Chemscore.Lipo.Weighted>
-10.2681

> <Gold.Chemscore.Internal_Hbond.Weighted>
0.0000

> <Gold.Chemscore.DEClash.Weighted>
0.1349

> <Gold.Chemscore.DEInternal.Weighted>
2.6138

> <Gold.Chemscore.Rot.Weighted>
8.5179

> <Gold.Chemscore.Internal.Correction.Weighted>
   9.000000E+99

> <Gold.Protein.RotatedTorsions>
[ 6907 6896 6895 6894 ] final   93.76 input  -60.11 | X-H torsion
[ 7974 7965 7964 7962 ] final  -89.01 input  175.53 | X-H torsion
[ 8008 7997 7996 7995 ] final   29.44 input   59.86 | X-H torsion
[ 10167 10162 10161 10158 ] final -152.84 input  -65.29 | X-H torsion
[ 10718 10713 10712 10709 ] final   -8.83 input   66.30 | X-H torsion
[ 10763 10752 10751 10750 ] final -146.06 input  -60.55 | X-H torsion
[ 11005 11000 10999 10996 ] final   41.79 input  -57.11 | X-H torsion

> <Gold.Protein.ActiveResidues>
 VAL166  LYS551  ARG553  GLY616  TRP617  ASP618  TYR619  PRO620  LYS621  CYS622 
 ASP623  PHE694  ASN695  SER759  ASP760  ASP761  ALA762  ILE779  LEU786  VAL792 
 PHE793  MET794  SER795  GLU796  ALA797  LYS798  CYS799  TRP800  GLU811  SER814 

> <Gold.Protein.RotatedAtoms>
  152.5452  134.1298  159.8434 H   0  0  0  0  0  0  0  0  0  0  0  0  # atno 6907 bound_to 6896
  151.1345  133.5006  159.2605 H   0  0  0  0  0  0  0  0  0  0  0  0  # atno 6908 bound_to 6896
  151.1639  135.0296  159.8777 H   0  0  0  0  0  0  0  0  0  0  0  0  # atno 6909 bound_to 6896
  145.4455  140.9560  143.2051 H   0  0  0  0  0  0  0  0  0  0  0  0  # atno 7974 bound_to 7965
  155.0746  140.3204  155.4620 H   0  0  0  0  0  0  0  0  0  0  0  0  # atno 8008 bound_to 7997
  156.2782  140.2106  156.5819 H   0  0  0  0  0  0  0  0  0  0  0  0  # atno 8009 bound_to 7997
  154.7027  140.0505  157.0461 H   0  0  0  0  0  0  0  0  0  0  0  0  # atno 8010 bound_to 7997
  139.7147  143.9052  152.2481 H   0  0  0  0  0  0  0  0  0  0  0  0  # atno 10167 bound_to 10162
  156.6969  130.5081  149.5928 H   0  0  0  0  0  0  0  0  0  0  0  0  # atno 10718 bound_to 10713
  154.8354  135.3396  154.6602 H   0  0  0  0  0  0  0  0  0  0  0  0  # atno 10763 bound_to 10752
  153.7218  135.6957  153.5015 H   0  0  0  0  0  0  0  0  0  0  0  0  # atno 10764 bound_to 10752
  153.2376  135.4395  155.0616 H   0  0  0  0  0  0  0  0  0  0  0  0  # atno 10765 bound_to 10752
  140.1801  134.4114  155.8205 H   0  0  0  0  0  0  0  0  0  0  0  0  # atno 11005 bound_to 11000
  144.8095  139.5989  143.7036 LP  0  0  0  0  0  0  0  0  0  0  0  0  # atno 17320 bound_to 7965
  146.2533  139.6247  142.9412 LP  0  0  0  0  0  0  0  0  0  0  0  0  # atno 17321 bound_to 7965
  139.8931  144.6954  150.8748 LP  0  0  0  0  0  0  0  0  0  0  0  0  # atno 17342 bound_to 10162
  140.7741  143.3571  151.1900 LP  0  0  0  0  0  0  0  0  0  0  0  0  # atno 17343 bound_to 10162
  156.1757  130.6466  151.0891 LP  0  0  0  0  0  0  0  0  0  0  0  0  # atno 17370 bound_to 10713
  157.6988  131.0784  150.6886 LP  0  0  0  0  0  0  0  0  0  0  0  0  # atno 17371 bound_to 10713
  141.2222  133.6996  156.7915 LP  0  0  0  0  0  0  0  0  0  0  0  0  # atno 17394 bound_to 11000
  140.2277  134.8709  157.3444 LP  0  0  0  0  0  0  0  0  0  0  0  0  # atno 17395 bound_to 11000

$$$$
