AV-unprocessed.smi:2824|AV-procd|sdf|10886|dock10
  -GOLD-   2272015333D 1   1.00000     0.00000
 Structure written by MMmdl.
 38 39  0  0  0  0  0  0  0  0  1 V2000
  150.9559  145.2419  159.4567 C   0  0  0  0  0  0  0  0  0  0  0  0
  151.7273  143.9600  159.7092 C   0  0  0  0  0  0  0  0  0  0  0  0
  152.3628  143.7630  160.9533 C   0  0  0  0  0  0  0  0  0  0  0  0
  153.0806  142.5796  161.2034 C   0  0  0  0  0  0  0  0  0  0  0  0
  153.1658  141.5898  160.2084 C   0  0  0  0  0  0  0  0  0  0  0  0
  152.5331  141.7811  158.9654 C   0  0  0  0  0  0  0  0  0  0  0  0
  151.8048  142.9697  158.7020 C   0  0  0  0  0  0  0  0  0  0  0  0
  151.1598  143.2244  157.5088 O   0  0  0  0  0  0  0  0  0  0  0  0
  151.0865  142.1856  156.5413 C   0  0  0  0  0  0  0  0  0  0  0  0
  149.6307  141.7000  156.4416 C   0  0  2  0  0  0  0  0  0  0  0  0
  149.2663  141.1994  157.7135 O   0  0  0  0  0  0  0  0  0  0  0  0
  149.4811  140.5513  155.4189 C   0  0  0  0  0  0  0  0  0  0  0  0
  150.1459  139.3207  155.8644 N   0  0  0  0  0  0  0  0  0  0  0  0
  149.3980  138.5680  156.7529 N   0  0  0  0  0  0  0  0  0  0  0  0
  149.8451  137.4521  157.2321 C   0  0  0  0  0  0  0  0  0  0  0  0
  148.9549  136.7015  158.1917 C   0  0  0  0  0  0  0  0  0  0  0  0
  148.7121  135.4653  157.7548 F   0  0  0  0  0  0  0  0  0  0  0  0
  149.5370  136.6203  159.3887 F   0  0  0  0  0  0  0  0  0  0  0  0
  147.7914  137.3378  158.3304 F   0  0  0  0  0  0  0  0  0  0  0  0
  151.1619  136.9878  156.8280 C   0  0  0  0  0  0  0  0  0  0  0  0
  151.8905  137.7252  155.9627 C   0  0  0  0  0  0  0  0  0  0  0  0
  151.3907  138.9844  155.4163 C   0  0  0  0  0  0  0  0  0  0  0  0
  152.0289  139.6774  154.6243 O   0  0  0  0  0  0  0  0  0  0  0  0
  150.9773  145.9001  160.3258 H   0  0  0  0  0  0  0  0  0  0  0  0
  149.9138  145.0174  159.2279 H   0  0  0  0  0  0  0  0  0  0  0  0
  151.3850  145.7817  158.6120 H   0  0  0  0  0  0  0  0  0  0  0  0
  152.3015  144.5195  161.7220 H   0  0  0  0  0  0  0  0  0  0  0  0
  153.5658  142.4317  162.1568 H   0  0  0  0  0  0  0  0  0  0  0  0
  153.7180  140.6812  160.3983 H   0  0  0  0  0  0  0  0  0  0  0  0
  152.6239  140.9979  158.2285 H   0  0  0  0  0  0  0  0  0  0  0  0
  151.3974  142.5958  155.5792 H   0  0  0  0  0  0  0  0  0  0  0  0
  151.7561  141.3586  156.7849 H   0  0  0  0  0  0  0  0  0  0  0  0
  148.9865  142.5382  156.1729 H   0  0  0  0  0  0  0  0  0  0  0  0
  148.6384  141.7896  158.1009 H   0  0  0  0  0  0  0  0  0  0  0  0
  148.4238  140.3311  155.2596 H   0  0  0  0  0  0  0  0  0  0  0  0
  149.8508  140.8620  154.4395 H   0  0  0  0  0  0  0  0  0  0  0  0
  151.5517  136.0594  157.2182 H   0  0  0  0  0  0  0  0  0  0  0  0
  152.8683  137.3761  155.6648 H   0  0  0  0  0  0  0  0  0  0  0  0
  1  2  1  0  0  0  0
  1 24  1  0  0  0  0
  1 25  1  0  0  0  0
  1 26  1  0  0  0  0
  2  7  1  0  0  0  0
  2  3  2  0  0  0  0
  3  4  1  0  0  0  0
  3 27  1  0  0  0  0
  4  5  2  0  0  0  0
  4 28  1  0  0  0  0
  5  6  1  0  0  0  0
  5 29  1  0  0  0  0
  6  7  2  0  0  0  0
  6 30  1  0  0  0  0
  7  8  1  0  0  0  0
  8  9  1  0  0  0  0
  9 10  1  0  0  0  0
  9 31  1  0  0  0  0
  9 32  1  0  0  0  0
 10 11  1  0  0  0  0
 10 12  1  0  0  0  0
 10 33  1  0  0  0  0
 11 34  1  0  0  0  0
 12 13  1  0  0  0  0
 12 35  1  0  0  0  0
 12 36  1  0  0  0  0
 13 22  1  0  0  0  0
 13 14  1  0  0  0  0
 14 15  2  0  0  0  0
 15 16  1  0  0  0  0
 15 20  1  0  0  0  0
 16 17  1  0  0  0  0
 16 18  1  0  0  0  0
 16 19  1  0  0  0  0
 20 21  2  0  0  0  0
 20 37  1  0  0  0  0
 21 22  1  0  0  0  0
 21 38  1  0  0  0  0
 22 23  2  0  0  0  0
M  END
> <s_m_source_file>
AV-unprocessed.smi

> <i_m_source_file_index>
2824

> <i_lp_mmshare_version>
43012

> <i_f3d_flags>
0

> <s_epik_input>
W0NIM11jMVtjSF1bY0hdW2NIXVtjSF1jMU9bQ0gyXVtDQEhdKFtPSF0pW0NIMl1uMm5jKEMoRikoRilGKVtjSF1bY0hdYzI9Tw==

> <s_epik_cmdline>
J2VwaWtfcHl0aG9uJywgJy1waCcsICc3LjAnLCAnLXRuJywgJzgnLCAnLW1hJywgJzIwMCcsICctbWV0YWxfYmluZGluZycsICctaW1hZScsICc8aW5maWxlLm1hZT4nLCAnLW9tYWUnLCAnPG91dGZpbGUubWFlPic=

> <r_lp_tautomer_probability>
1

> <r_epik_Ionization_Penalty>
1.2156e-07

> <r_epik_Ionization_Penalty_Charging>
4.38548e-09

> <r_epik_Ionization_Penalty_Neutral>
1.17174e-07

> <r_epik_State_Penalty>
-0

> <r_epik_Charging_Adjusted_Penalty>
4.38548e-09

> <i_epik_Tot_Q>
0

> <i_epik_Tot_abs_Q>
0

> <r_epik_Metal_State_Penalty>
-0

> <b_epik_Metal_Only>
0

> <s_lp_Force_Field>
OPLS_2005

> <r_lp_Energy>
34.0835

> <b_lp_Chiralities_Consistent>
1

> <s_lp_Variant>
AV-unprocessed.smi:2824-1

> <Gold.Version>
5.8.1

> <Gold.Id.Protein>
6NUR|6NUR_protein|mol2

> <Gold.PLP.Fitness>
40.5538

> <Gold.PLP.PLP>
-39.0762

> <Gold.PLP.part.hbond>
-1.0000

> <Gold.PLP.part.metal>
0.0000

> <Gold.PLP.part.buried>
-6.4524

> <Gold.PLP.part.nonpolar>
-31.8865

> <Gold.PLP.part.repulsive>
0.1935

> <Gold.PLP.ligand.clash>
0.0000

> <Gold.PLP.ligand.torsion>
0.7766

> <Gold.PLP.Chemscore.Hbond>
0.9920

> <Gold.PLP.Chemscore.CHOScore>
0.0000

> <Gold.PLP.Chemscore.Metal>
0.0000

> <Gold.Chemscore.Hbonds>
donor molecule, donor type, donor heavy atom, donor atom, acceptor molecule, acceptor atom, score
      P1  H  7989  7998       L1    23  0.88

> <Gold.PLP.Chemscore.Internal.Correction>
0.0548

> <Gold.Rescore>
     Score         DG    S(hbond)    S(metal)    S(lipo)     H(rot)  DE(clash)    DE(int)     intcor
     12.94     -15.08       0.97        0.00     111.07       2.60       0.02       2.12       ----

> <Gold.Chemscore.Fitness>
12.9379

> <Gold.Chemscore.DG>
-15.0753

> <Gold.Chemscore.ZeroCoef>
-5.4800

> <Gold.Chemscore.Hbond>
0.9731

> <Gold.Chemscore.Metal>
0.0000

> <Gold.Chemscore.Lipo>
111.0737

> <Gold.Chemscore.Internal_Hbond>
0.0000

> <Gold.Chemscore.DEClash>
0.0156

> <Gold.Chemscore.DEInternal>
2.1218

> <Gold.Chemscore.Rot>
2.5978

> <Gold.Chemscore.Internal.Correction>
   9.000000E+99

> <Gold.Chemscore.Hbonds>
donor molecule, donor type, donor heavy atom, donor atom, acceptor molecule, acceptor atom, score
      P1  H  7989  7998       L1    23  0.86

> <Gold.Chemscore.Hbond.Weighted>
-3.2501

> <Gold.Chemscore.Metal.Weighted>
-0.0000

> <Gold.Chemscore.Lipo.Weighted>
-12.9956

> <Gold.Chemscore.Internal_Hbond.Weighted>
0.0000

> <Gold.Chemscore.DEClash.Weighted>
0.0156

> <Gold.Chemscore.DEInternal.Weighted>
2.1218

> <Gold.Chemscore.Rot.Weighted>
6.6504

> <Gold.Chemscore.Internal.Correction.Weighted>
   9.000000E+99

> <Gold.Protein.RotatedTorsions>
[ 6907 6896 6895 6894 ] final -119.06 input  -60.11 | X-H torsion
[ 7974 7965 7964 7962 ] final  -73.42 input  175.53 | X-H torsion
[ 8008 7997 7996 7995 ] final  112.94 input   59.86 | X-H torsion
[ 10167 10162 10161 10158 ] final  -43.80 input  -65.29 | X-H torsion
[ 10718 10713 10712 10709 ] final  -70.35 input   66.30 | X-H torsion
[ 10763 10752 10751 10750 ] final   79.08 input  -60.55 | X-H torsion
[ 11005 11000 10999 10996 ] final  165.60 input  -57.11 | X-H torsion

> <Gold.Protein.ActiveResidues>
 VAL166  LYS551  ARG553  GLY616  TRP617  ASP618  TYR619  PRO620  LYS621  CYS622 
 ASP623  PHE694  ASN695  SER759  ASP760  ASP761  ALA762  ILE779  LEU786  VAL792 
 PHE793  MET794  SER795  GLU796  ALA797  LYS798  CYS799  TRP800  GLU811  SER814 

> <Gold.Protein.RotatedAtoms>
  150.8273  133.8151  159.3113 H   0  0  0  0  0  0  0  0  0  0  0  0  # atno 6907 bound_to 6896
  151.5891  135.1052  160.0044 H   0  0  0  0  0  0  0  0  0  0  0  0  # atno 6908 bound_to 6896
  152.4356  133.7314  159.6646 H   0  0  0  0  0  0  0  0  0  0  0  0  # atno 6909 bound_to 6896
  145.6524  140.9278  143.0978 H   0  0  0  0  0  0  0  0  0  0  0  0  # atno 7974 bound_to 7965
  156.2226  140.2989  155.9988 H   0  0  0  0  0  0  0  0  0  0  0  0  # atno 8008 bound_to 7997
  155.2442  140.0423  157.2996 H   0  0  0  0  0  0  0  0  0  0  0  0  # atno 8009 bound_to 7997
  154.5864  140.2389  155.7989 H   0  0  0  0  0  0  0  0  0  0  0  0  # atno 8010 bound_to 7997
  140.6920  143.2963  151.3405 H   0  0  0  0  0  0  0  0  0  0  0  0  # atno 10167 bound_to 10162
  156.0412  130.4330  150.2282 H   0  0  0  0  0  0  0  0  0  0  0  0  # atno 10718 bound_to 10713
  153.0924  135.4853  154.8715 H   0  0  0  0  0  0  0  0  0  0  0  0  # atno 10763 bound_to 10752
  154.7285  135.3055  154.8933 H   0  0  0  0  0  0  0  0  0  0  0  0  # atno 10764 bound_to 10752
  153.9576  135.6816  153.4798 H   0  0  0  0  0  0  0  0  0  0  0  0  # atno 10765 bound_to 10752
  140.2577  134.7926  157.3561 H   0  0  0  0  0  0  0  0  0  0  0  0  # atno 11005 bound_to 11000
  144.7118  139.8343  143.7412 LP  0  0  0  0  0  0  0  0  0  0  0  0  # atno 17320 bound_to 7965
  146.1193  139.4209  143.0238 LP  0  0  0  0  0  0  0  0  0  0  0  0  # atno 17321 bound_to 7965
  139.6333  144.0678  152.2495 LP  0  0  0  0  0  0  0  0  0  0  0  0  # atno 17342 bound_to 10162
  140.0160  144.6189  150.7607 LP  0  0  0  0  0  0  0  0  0  0  0  0  # atno 17343 bound_to 10162
  157.0377  131.0026  151.3293 LP  0  0  0  0  0  0  0  0  0  0  0  0  # atno 17370 bound_to 10713
  157.5232  130.8011  149.7832 LP  0  0  0  0  0  0  0  0  0  0  0  0  # atno 17371 bound_to 10713
  140.1495  134.4868  155.7972 LP  0  0  0  0  0  0  0  0  0  0  0  0  # atno 17394 bound_to 11000
  141.2194  133.6857  156.7353 LP  0  0  0  0  0  0  0  0  0  0  0  0  # atno 17395 bound_to 11000

$$$$
