AV-unprocessed.smi:1962|AV-procd|sdf|7925|dock9
  -GOLD-   2272010 93D 1   1.00000     0.00000
 Structure written by MMmdl.
 35 36  0  0  0  0  0  0  0  0  2 V2000
  149.8454  139.0332  156.8760 C   0  0  0  0  0  0  0  0  0  0  0  0
  150.8643  139.4405  155.8028 C   0  0  1  0  0  0  0  0  0  0  0  0
  150.1780  139.6421  154.4256 C   0  0  0  0  0  0  0  0  0  0  0  0
  148.8684  140.2874  154.4892 N   0  0  0  0  0  0  0  0  0  0  0  0
  148.5557  141.5812  154.8636 C   0  0  0  0  0  0  0  0  0  0  0  0
  147.2029  141.7265  154.7503 C   0  0  0  0  0  0  0  0  0  0  0  0
  146.7658  140.4571  154.2804 C   0  0  0  0  0  0  0  0  0  0  0  0
  147.7622  139.6041  154.1121 N   0  0  0  0  0  0  0  0  0  0  0  0
  151.5238  140.6805  156.2287 N   0  5  0  0  0  0  0  0  0  0  0  0
  152.2528  140.8373  157.3760 C   0  0  0  0  0  0  0  0  0  0  0  0
  153.0524  140.0199  157.8485 O   0  0  0  0  0  0  0  0  0  0  0  0
  152.0988  142.1003  158.1575 C   0  0  0  0  0  0  0  0  0  0  0  0
  152.4596  142.1318  159.4027 N   0  0  0  0  0  0  0  0  0  0  0  0
  152.3562  143.2717  160.1725 N   0  0  0  0  0  0  0  0  0  0  0  0
  153.0475  143.2055  161.4582 C   0  0  0  0  0  0  0  0  0  0  0  0
  151.6596  144.3800  159.8193 C   0  0  0  0  0  0  0  0  0  0  0  0
  151.5985  145.3990  160.5078 O   0  0  0  0  0  0  0  0  0  0  0  0
  150.8923  144.3101  158.4967 C   0  0  0  0  0  0  0  0  0  0  0  0
  151.5532  143.3500  157.4882 C   0  0  0  0  0  0  0  0  0  0  0  0
  149.3452  138.1030  156.6062 H   0  0  0  0  0  0  0  0  0  0  0  0
  149.0772  139.7962  157.0082 H   0  0  0  0  0  0  0  0  0  0  0  0
  150.3299  138.8760  157.8404 H   0  0  0  0  0  0  0  0  0  0  0  0
  151.5716  138.6148  155.7085 H   0  0  0  0  0  0  0  0  0  0  0  0
  150.8128  140.2609  153.7906 H   0  0  0  0  0  0  0  0  0  0  0  0
  150.0770  138.6851  153.9106 H   0  0  0  0  0  0  0  0  0  0  0  0
  149.3152  142.2791  155.1843 H   0  0  0  0  0  0  0  0  0  0  0  0
  146.6159  142.6058  154.9694 H   0  0  0  0  0  0  0  0  0  0  0  0
  145.7612  140.1335  154.0524 H   0  0  0  0  0  0  0  0  0  0  0  0
  153.8423  143.9509  161.5035 H   0  0  0  0  0  0  0  0  0  0  0  0
  153.5007  142.2275  161.6284 H   0  0  0  0  0  0  0  0  0  0  0  0
  152.3547  143.3927  162.2798 H   0  0  0  0  0  0  0  0  0  0  0  0
  149.8826  143.9649  158.7223 H   0  0  0  0  0  0  0  0  0  0  0  0
  150.7951  145.3065  158.0642 H   0  0  0  0  0  0  0  0  0  0  0  0
  152.3631  143.8587  156.9643 H   0  0  0  0  0  0  0  0  0  0  0  0
  150.8103  143.0935  156.7324 H   0  0  0  0  0  0  0  0  0  0  0  0
  1  2  1  0  0  0  0
  1 20  1  0  0  0  0
  1 21  1  0  0  0  0
  1 22  1  0  0  0  0
  2  3  1  0  0  0  0
  2  9  1  0  0  0  0
  2 23  1  0  0  0  0
  3  4  1  0  0  0  0
  3 24  1  0  0  0  0
  3 25  1  0  0  0  0
  4  8  1  0  0  0  0
  4  5  1  0  0  0  0
  5  6  2  0  0  0  0
  5 26  1  0  0  0  0
  6  7  1  0  0  0  0
  6 27  1  0  0  0  0
  7  8  2  0  0  0  0
  7 28  1  0  0  0  0
  9 10  1  0  0  0  0
 10 11  2  0  0  0  0
 10 12  1  0  0  0  0
 12 19  1  0  0  0  0
 12 13  2  0  0  0  0
 13 14  1  0  0  0  0
 14 15  1  0  0  0  0
 14 16  1  0  0  0  0
 15 29  1  0  0  0  0
 15 30  1  0  0  0  0
 15 31  1  0  0  0  0
 16 17  2  0  0  0  0
 16 18  1  0  0  0  0
 18 19  1  0  0  0  0
 18 32  1  0  0  0  0
 18 33  1  0  0  0  0
 19 34  1  0  0  0  0
 19 35  1  0  0  0  0
M  CHG  1   9  -1
M  END
> <s_m_source_file>
AV-unprocessed.smi

> <i_m_source_file_index>
1962

> <i_lp_mmshare_version>
43012

> <i_f3d_flags>
0

> <s_epik_input>
bjFbY0hdW2NIXVtjSF1uMVtDSDJdW0NAQEhdKFtDSDNdKVtOSF1DKD1PKUMyPU5OKFtDSDNdKUMoPU8pW0NIMl1bQ0gyXTI=

> <s_epik_cmdline>
J2VwaWtfcHl0aG9uJywgJy1waCcsICc3LjAnLCAnLXRuJywgJzgnLCAnLW1hJywgJzIwMCcsICctbWV0YWxfYmluZGluZycsICctaW1hZScsICc8aW5maWxlLm1hZT4nLCAnLW9tYWUnLCAnPG91dGZpbGUubWFlPic=

> <r_lp_tautomer_probability>
1

> <r_epik_Ionization_Penalty>
5.21086

> <r_epik_Ionization_Penalty_Charging>
5.21084

> <r_epik_Ionization_Penalty_Neutral>
2.41961e-05

> <r_epik_State_Penalty>
5.21075

> <r_epik_Charging_Adjusted_Penalty>
10.4216

> <i_epik_Tot_Q>
-1

> <i_epik_Tot_abs_Q>
1

> <r_epik_Metal_State_Penalty>
1.27477

> <b_epik_Metal_Only>
1

> <s_epik_Chemistry_Notes>
This compound has an imine and may undergo hydrolysis.

> <s_lp_Force_Field>
OPLS_2005

> <r_lp_Energy>
25.3594

> <b_lp_Chiralities_Consistent>
1

> <s_lp_Variant>
AV-unprocessed.smi:1962-4

> <Gold.Version>
5.8.1

> <Gold.Id.Protein>
6NUR|6NUR_protein|mol2

> <Gold.PLP.Fitness>
43.4484

> <Gold.PLP.PLP>
-36.7296

> <Gold.PLP.part.hbond>
-1.0000

> <Gold.PLP.part.metal>
0.0000

> <Gold.PLP.part.buried>
-4.3481

> <Gold.PLP.part.nonpolar>
-30.0792

> <Gold.PLP.part.repulsive>
0.3685

> <Gold.PLP.ligand.clash>
0.0000

> <Gold.PLP.ligand.torsion>
0.7457

> <Gold.PLP.Chemscore.Hbond>
0.9750

> <Gold.PLP.Chemscore.CHOScore>
1.7517

> <Gold.PLP.Chemscore.Metal>
0.0000

> <Gold.Chemscore.Hbonds>
donor molecule, donor type, donor heavy atom, donor atom, acceptor molecule, acceptor atom, score
      P1  H  7997  8010       L1    11  0.96
      L1  C     5    26       P1  8028  0.87
      L1  C     7    28       P1 10175  0.75

> <Gold.PLP.Chemscore.Internal.Correction>
0.0300

> <Gold.Rescore>
     Score         DG    S(hbond)    S(metal)    S(lipo)     H(rot)  DE(clash)    DE(int)     intcor
     11.23     -11.94       0.37        0.00      77.34       1.50       0.30       0.41       ----

> <Gold.Chemscore.Fitness>
11.2295

> <Gold.Chemscore.DG>
-11.9416

> <Gold.Chemscore.ZeroCoef>
-5.4800

> <Gold.Chemscore.Hbond>
0.3722

> <Gold.Chemscore.Metal>
0.0000

> <Gold.Chemscore.Lipo>
77.3439

> <Gold.Chemscore.Internal_Hbond>
0.0000

> <Gold.Chemscore.DEClash>
0.3020

> <Gold.Chemscore.DEInternal>
0.4101

> <Gold.Chemscore.Rot>
1.4964

> <Gold.Chemscore.Internal.Correction>
   9.000000E+99

> <Gold.Chemscore.Hbonds>
donor molecule, donor type, donor heavy atom, donor atom, acceptor molecule, acceptor atom, score
      P1  H  7997  8010       L1    11  0.81

> <Gold.Chemscore.Hbond.Weighted>
-1.2432

> <Gold.Chemscore.Metal.Weighted>
-0.0000

> <Gold.Chemscore.Lipo.Weighted>
-9.0492

> <Gold.Chemscore.Internal_Hbond.Weighted>
0.0000

> <Gold.Chemscore.DEClash.Weighted>
0.3020

> <Gold.Chemscore.DEInternal.Weighted>
0.4101

> <Gold.Chemscore.Rot.Weighted>
3.8309

> <Gold.Chemscore.Internal.Correction.Weighted>
   9.000000E+99

> <Gold.Protein.RotatedTorsions>
[ 6907 6896 6895 6894 ] final -141.71 input  -60.11 | X-H torsion
[ 7974 7965 7964 7962 ] final  125.57 input  175.53 | X-H torsion
[ 8008 7997 7996 7995 ] final   29.88 input   59.86 | X-H torsion
[ 10167 10162 10161 10158 ] final -152.44 input  -65.29 | X-H torsion
[ 10718 10713 10712 10709 ] final   -4.02 input   66.30 | X-H torsion
[ 10763 10752 10751 10750 ] final   28.73 input  -60.55 | X-H torsion
[ 11005 11000 10999 10996 ] final  -16.14 input  -57.11 | X-H torsion

> <Gold.Protein.ActiveResidues>
 VAL166  LYS551  ARG553  GLY616  TRP617  ASP618  TYR619  PRO620  LYS621  CYS622 
 ASP623  PHE694  ASN695  SER759  ASP760  ASP761  ALA762  ILE779  LEU786  VAL792 
 PHE793  MET794  SER795  GLU796  ALA797  LYS798  CYS799  TRP800  GLU811  SER814 

> <Gold.Protein.RotatedAtoms>
  151.0773  133.5418  159.2622 H   0  0  0  0  0  0  0  0  0  0  0  0  # atno 6907 bound_to 6896
  151.2334  135.0562  159.9006 H   0  0  0  0  0  0  0  0  0  0  0  0  # atno 6908 bound_to 6896
  152.5419  134.0559  159.8184 H   0  0  0  0  0  0  0  0  0  0  0  0  # atno 6909 bound_to 6896
  145.0714  139.3727  143.4955 H   0  0  0  0  0  0  0  0  0  0  0  0  # atno 7974 bound_to 7965
  155.0816  140.3211  155.4600 H   0  0  0  0  0  0  0  0  0  0  0  0  # atno 8008 bound_to 7997
  156.2766  140.2094  156.5889 H   0  0  0  0  0  0  0  0  0  0  0  0  # atno 8009 bound_to 7997
  154.6974  140.0510  157.0412 H   0  0  0  0  0  0  0  0  0  0  0  0  # atno 8010 bound_to 7997
  139.7182  143.9000  152.2493 H   0  0  0  0  0  0  0  0  0  0  0  0  # atno 10167 bound_to 10162
  156.7674  130.5289  149.5773 H   0  0  0  0  0  0  0  0  0  0  0  0  # atno 10718 bound_to 10713
  153.0473  135.6506  154.0783 H   0  0  0  0  0  0  0  0  0  0  0  0  # atno 10763 bound_to 10752
  154.0478  135.2898  155.3347 H   0  0  0  0  0  0  0  0  0  0  0  0  # atno 10764 bound_to 10752
  154.6740  135.5345  153.8241 H   0  0  0  0  0  0  0  0  0  0  0  0  # atno 10765 bound_to 10752
  140.8038  133.8193  155.9495 H   0  0  0  0  0  0  0  0  0  0  0  0  # atno 11005 bound_to 11000
  146.3529  140.0461  142.8639 LP  0  0  0  0  0  0  0  0  0  0  0  0  # atno 17320 bound_to 7965
  145.1287  140.9505  143.4557 LP  0  0  0  0  0  0  0  0  0  0  0  0  # atno 17321 bound_to 7965
  139.8888  144.6977  150.8794 LP  0  0  0  0  0  0  0  0  0  0  0  0  # atno 17342 bound_to 10162
  140.7748  143.3602  151.1842 LP  0  0  0  0  0  0  0  0  0  0  0  0  # atno 17343 bound_to 10162
  156.1300  130.6171  151.0319 LP  0  0  0  0  0  0  0  0  0  0  0  0  # atno 17370 bound_to 10713
  157.6706  131.0862  150.7620 LP  0  0  0  0  0  0  0  0  0  0  0  0  # atno 17371 bound_to 10713
  140.9268  134.2072  157.4890 LP  0  0  0  0  0  0  0  0  0  0  0  0  # atno 17394 bound_to 11000
  139.8719  134.9816  156.5122 LP  0  0  0  0  0  0  0  0  0  0  0  0  # atno 17395 bound_to 11000

$$$$
