#       Name:                AV-unprocessed.smi:416
#       Creating user name   scv26
#       Creation time:       Thu Mar 26 22:48:20 2020


#       File generated by GOLD software.
#

@<TRIPOS>MOLECULE
AV-unprocessed.smi:416
    49    50     1
SMALL
NO_CHARGES


@<TRIPOS>ATOM
      1 ****        -3.9821   1.9382   0.2362 C.3            1 S1                 0.0000
      2 ****        -3.2937   2.5646   1.4658 C.3            1 S1                 0.0000
      3 ****        -3.8698   3.9768   1.7008 C.3            1 S1                 0.0000
      4 ****        -3.5907   1.6931   2.7093 C.3            1 S1                 0.0000
      5 ****        -1.7782   2.6844   1.1721 C.2            1 S1                 0.0000
      6 ****        -1.3908   3.4300   0.2712 O.2            1 S1                 0.0000
      7 ****        -0.9271   1.9536   1.9131 N.am           1 S1                 0.0000
      8 ****         0.5243   1.9161   1.7639 C.3            1 S1                 0.0000
      9 ****         1.0083   0.7453   0.9239 C.ar           1 S1                 0.0000
     10 ****         1.9304  -0.1830   1.4456 C.ar           1 S1                 0.0000
     11 ****         2.3587  -1.2518   0.6352 C.ar           1 S1                 0.0000
     12 ****         1.8579  -1.3636  -0.6843 C.ar           1 S1                 0.0000
     13 ****         2.2748  -2.4246  -1.5185 N.3            1 S1                 0.0000
     14 ****         3.7189  -2.6181  -1.6296 C.3            1 S1                 0.0000
     15 ****         4.0297  -3.9671  -2.3003 C.3            1 S1                 0.0000
     16 ****         3.3648  -4.0464  -3.5565 O.3            1 S1                 0.0000
     17 ****         1.9508  -3.9711  -3.4111 C.3            1 S1                 0.0000
     18 ****         1.5655  -2.6216  -2.7821 C.3            1 S1                 0.0000
     19 ****         0.9680  -0.4686  -1.1804 N.ar           1 S1                 0.0000
     20 ****         0.5608   0.5539  -0.3998 C.ar           1 S1                 0.0000
     21 ****        -5.0590   1.8555   0.3868 H              1 S1                 0.0000
     22 ****        -3.6035   0.9348   0.0359 H              1 S1                 0.0000
     23 ****        -3.8268   2.5339  -0.6645 H              1 S1                 0.0000
     24 ****        -3.7389   4.6209   0.8299 H              1 S1                 0.0000
     25 ****        -3.3900   4.4675   2.5488 H              1 S1                 0.0000
     26 ****        -4.9391   3.9364   1.9110 H              1 S1                 0.0000
     27 ****        -4.6625   1.6433   2.9047 H              1 S1                 0.0000
     28 ****        -3.1201   2.0962   3.6073 H              1 S1                 0.0000
     29 ****        -3.2430   0.6673   2.5790 H              1 S1                 0.0000
     30 ****        -1.3219   1.3658   2.6332 H              1 S1                 0.0000
     31 ****         0.9001   2.8434   1.3285 H              1 S1                 0.0000
     32 ****         0.9589   1.8535   2.7620 H              1 S1                 0.0000
     33 ****         2.3033  -0.0851   2.4546 H              1 S1                 0.0000
     34 ****         3.0504  -1.9755   1.0392 H              1 S1                 0.0000
     35 ****         4.1381  -1.8028  -2.2205 H              1 S1                 0.0000
     36 ****         4.2082  -2.5888  -0.6575 H              1 S1                 0.0000
     37 ****         5.1031  -4.0678  -2.4603 H              1 S1                 0.0000
     38 ****         3.7243  -4.7976  -1.6617 H              1 S1                 0.0000
     39 ****         1.4870  -4.0741  -4.3920 H              1 S1                 0.0000
     40 ****         1.5921  -4.8014  -2.8007 H              1 S1                 0.0000
     41 ****         0.4873  -2.5962  -2.6191 H              1 S1                 0.0000
     42 ****         1.8123  -1.8077  -3.4655 H              1 S1                 0.0000
     43 ****        -0.1412   1.2385  -0.8517 H              1 S1                 0.0000
     44 ****        -2.0536   3.9529  -0.2648 LP             1 S1                 0.0000
     45 ****        -0.4135   3.5124   0.0759 LP             1 S1                 0.0000
     46 ****         1.9456  -3.1901  -0.9657 LP             1 S1                 0.0000
     47 ****         3.5997  -4.9150  -3.9930 LP             1 S1                 0.0000
     48 ****         3.6717  -3.2897  -4.1337 LP             1 S1                 0.0000
     49 ****         0.6183  -0.5651  -2.1123 LP             1 S1                 0.0000
@<TRIPOS>BOND
    1    1    2 1     
    2    1   21 1     
    3    1   22 1     
    4    1   23 1     
    5    2    3 1     
    6    2    4 1     
    7    2    5 1     
    8    3   24 1     
    9    3   25 1     
   10    3   26 1     
   11    4   27 1     
   12    4   28 1     
   13    4   29 1     
   14    5    6 2     
   15    5    7 am    
   16    7    8 1     
   17    7   30 1     
   18    8    9 1     
   19    8   31 1     
   20    8   32 1     
   21    9   20 ar    
   22    9   10 ar    
   23   10   11 ar    
   24   10   33 1     
   25   11   12 ar    
   26   11   34 1     
   27   12   13 1     
   28   12   19 ar    
   29   13   18 1     
   30   13   14 1     
   31   14   15 1     
   32   14   35 1     
   33   14   36 1     
   34   15   16 1     
   35   15   37 1     
   36   15   38 1     
   37   16   17 1     
   38   17   18 1     
   39   17   39 1     
   40   17   40 1     
   41   18   41 1     
   42   18   42 1     
   43   19   20 ar    
   44   20   43 1     
   45    6   44 1     
   46    6   45 1     
   47   13   46 1     
   48   16   47 1     
   49   16   48 1     
   50   19   49 1     
@<TRIPOS>SUBSTRUCTURE
      1 S1             1
@<TRIPOS>SET
LONE_PAIRS      STATIC     ATOMS    <user>   **** ""
6 44 45 46 47 48 49
DONOR_HYDROGENS      STATIC     ATOMS    <user>   **** ""
1 30
ATOM$BLUE        STATIC     ATOMS    COLORGROUP SYSTEM
6 44 45 46 47 48 49
ATOM$RED        STATIC     ATOMS    COLORGROUP SYSTEM
1 30
