AV-unprocessed.smi:2298|AV-procd|sdf|9225|dock7
  -GOLD-   2272012443D 1   1.00000     0.00000
 Structure written by MMmdl.
 37 38  0  0  0  0  0  0  0  0  1 V2000
  151.2701  136.8849  157.4978 C   0  0  0  0  0  0  0  0  0  0  0  0
  150.8198  135.5803  156.8675 C   0  0  0  0  0  0  0  0  0  0  0  0
  151.2527  134.4562  157.4787 N   0  0  0  0  0  0  0  0  0  0  0  0
  150.8874  133.2687  156.9544 C   0  0  0  0  0  0  0  0  0  0  0  0
  150.0768  133.1428  155.8102 C   0  0  0  0  0  0  0  0  0  0  0  0
  149.6084  134.3183  155.1745 C   0  0  0  0  0  0  0  0  0  0  0  0
  148.7961  134.3153  154.0049 N   0  0  0  0  0  0  0  0  0  0  0  0
  147.8843  133.4128  153.6034 C   0  0  0  0  0  0  0  0  0  0  0  0
  147.5884  132.3785  154.2009 O   0  0  0  0  0  0  0  0  0  0  0  0
  147.3107  133.7897  152.4514 N   0  0  0  0  0  0  0  0  0  0  0  0
  146.2731  133.0479  151.7412 C   0  0  1  0  0  0  0  0  0  0  0  0
  144.9575  133.8467  151.7700 C   0  0  0  0  0  0  0  0  0  0  0  0
  143.8434  133.1302  150.9868 C   0  0  0  0  0  0  0  0  0  0  0  0
  144.2631  132.8045  149.5411 C   0  0  1  0  0  0  0  0  0  0  0  0
  144.3539  133.9951  148.7835 O   0  0  0  0  0  0  0  0  0  0  0  0
  145.6027  132.0452  149.4979 C   0  0  0  0  0  0  0  0  0  0  0  0
  146.7086  132.7651  150.2896 C   0  0  0  0  0  0  0  0  0  0  0  0
  150.0016  135.5666  155.7134 C   0  0  0  0  0  0  0  0  0  0  0  0
  149.4891  137.0497  154.9791 Cl  0  0  0  0  0  0  0  0  0  0  0  0
  146.1007  132.0969  152.2494 H   0  0  0  0  0  0  0  0  0  0  0  0
  143.4905  132.1913  149.0759 H   0  0  0  0  0  0  0  0  0  0  0  0
  150.4066  137.4905  157.7745 H   0  0  0  0  0  0  0  0  0  0  0  0
  151.8804  137.4538  156.7958 H   0  0  0  0  0  0  0  0  0  0  0  0
  151.8621  136.7128  158.3980 H   0  0  0  0  0  0  0  0  0  0  0  0
  151.2579  132.3891  157.4595 H   0  0  0  0  0  0  0  0  0  0  0  0
  149.8457  132.1550  155.4444 H   0  0  0  0  0  0  0  0  0  0  0  0
  148.8751  135.1423  153.4314 H   0  0  0  0  0  0  0  0  0  0  0  0
  147.6129  134.6568  152.0323 H   0  0  0  0  0  0  0  0  0  0  0  0
  144.6368  134.0001  152.8011 H   0  0  0  0  0  0  0  0  0  0  0  0
  145.1175  134.8399  151.3477 H   0  0  0  0  0  0  0  0  0  0  0  0
  143.5928  132.2015  151.5011 H   0  0  0  0  0  0  0  0  0  0  0  0
  142.9347  133.7333  150.9906 H   0  0  0  0  0  0  0  0  0  0  0  0
  145.2633  134.1550  148.5824 H   0  0  0  0  0  0  0  0  0  0  0  0
  145.4594  131.0500  149.9207 H   0  0  0  0  0  0  0  0  0  0  0  0
  145.9191  131.8924  148.4654 H   0  0  0  0  0  0  0  0  0  0  0  0
  146.9627  133.7013  149.7905 H   0  0  0  0  0  0  0  0  0  0  0  0
  147.6144  132.1579  150.2807 H   0  0  0  0  0  0  0  0  0  0  0  0
  1  2  1  0  0  0  0
  1 22  1  0  0  0  0
  1 23  1  0  0  0  0
  1 24  1  0  0  0  0
  2 18  1  0  0  0  0
  2  3  2  0  0  0  0
  3  4  1  0  0  0  0
  4  5  2  0  0  0  0
  4 25  1  0  0  0  0
  5  6  1  0  0  0  0
  5 26  1  0  0  0  0
  6  7  1  0  0  0  0
  6 18  2  0  0  0  0
  7  8  1  0  0  0  0
  7 27  1  0  0  0  0
  8  9  2  0  0  0  0
  8 10  1  0  0  0  0
 10 11  1  0  0  0  0
 10 28  1  0  0  0  0
 11 20  1  0  0  0  0
 11 17  1  0  0  0  0
 11 12  1  0  0  0  0
 12 13  1  0  0  0  0
 12 29  1  0  0  0  0
 12 30  1  0  0  0  0
 13 14  1  0  0  0  0
 13 31  1  0  0  0  0
 13 32  1  0  0  0  0
 14 21  1  0  0  0  0
 14 15  1  0  0  0  0
 14 16  1  0  0  0  0
 15 33  1  0  0  0  0
 16 17  1  0  0  0  0
 16 34  1  0  0  0  0
 16 35  1  0  0  0  0
 17 36  1  0  0  0  0
 17 37  1  0  0  0  0
 18 19  1  0  0  0  0
M  END
> <s_m_source_file>
AV-unprocessed.smi

> <i_m_source_file_index>
2298

> <i_lp_mmshare_version>
43012

> <i_f3d_flags>
0

> <s_epik_input>
W0NIM11jMW5bY0hdW2NIXWMoYzFDbClbTkhdQyg9TylbTkhdW0NASF0yW0NIMl1bQ0gyXVtDQEhdKFtPSF0pW0NIMl1bQ0gyXTI=

> <s_epik_cmdline>
J2VwaWtfcHl0aG9uJywgJy1waCcsICc3LjAnLCAnLXRuJywgJzgnLCAnLW1hJywgJzIwMCcsICctbWV0YWxfYmluZGluZycsICctaW1hZScsICc8aW5maWxlLm1hZT4nLCAnLW9tYWUnLCAnPG91dGZpbGUubWFlPic=

> <r_epik_Ionization_Penalty>
0.00999805

> <r_epik_Ionization_Penalty_Charging>
0

> <r_epik_Ionization_Penalty_Neutral>
0.00999805

> <r_epik_State_Penalty>
0.00759022

> <r_epik_Charging_Adjusted_Penalty>
0.00759022

> <i_epik_Tot_Q>
0

> <i_epik_Tot_abs_Q>
0

> <r_epik_Metal_State_Penalty>
0.00746447

> <b_epik_Metal_Only>
0

> <s_lp_Force_Field>
OPLS_2005

> <r_lp_Energy>
16.8241

> <b_lp_Chiralities_Consistent>
1

> <s_lp_Variant>
AV-unprocessed.smi:2298-2

> <Gold.Version>
5.8.1

> <Gold.Id.Protein>
6NUR|6NUR_protein|mol2

> <Gold.PLP.Fitness>
43.7422

> <Gold.PLP.PLP>
-35.0420

> <Gold.PLP.part.hbond>
-4.6075

> <Gold.PLP.part.metal>
0.0000

> <Gold.PLP.part.buried>
-3.5522

> <Gold.PLP.part.nonpolar>
-25.6253

> <Gold.PLP.part.repulsive>
0.0807

> <Gold.PLP.ligand.clash>
0.0000

> <Gold.PLP.ligand.torsion>
0.2253

> <Gold.PLP.Chemscore.Hbond>
3.0493

> <Gold.PLP.Chemscore.CHOScore>
0.0000

> <Gold.PLP.Chemscore.Metal>
0.0000

> <Gold.Chemscore.Hbonds>
donor molecule, donor type, donor heavy atom, donor atom, acceptor molecule, acceptor atom, score
      L1  H     7    27       P1  7948  1.00
      L1  H    10    28       P1  7948  1.00
      L1  H    15    33       P1  7921  0.66
      P1  H  6896  6909       L1     3  0.03

> <Gold.PLP.Chemscore.Internal.Correction>
0.0031

> <Gold.Rescore>
     Score         DG    S(hbond)    S(metal)    S(lipo)     H(rot)  DE(clash)    DE(int)     intcor
     18.48     -18.79       2.27        0.00      79.93       1.42       0.05       0.26       ----

> <Gold.Chemscore.Fitness>
18.4754

> <Gold.Chemscore.DG>
-18.7902

> <Gold.Chemscore.ZeroCoef>
-5.4800

> <Gold.Chemscore.Hbond>
2.2736

> <Gold.Chemscore.Metal>
0.0000

> <Gold.Chemscore.Lipo>
79.9258

> <Gold.Chemscore.Internal_Hbond>
0.0000

> <Gold.Chemscore.DEClash>
0.0536

> <Gold.Chemscore.DEInternal>
0.2611

> <Gold.Chemscore.Rot>
1.4199

> <Gold.Chemscore.Internal.Correction>
   9.000000E+99

> <Gold.Chemscore.Hbonds>
donor molecule, donor type, donor heavy atom, donor atom, acceptor molecule, acceptor atom, score
      L1  H     7    27       P1  7948  0.55
      L1  H    10    28       P1  7948  0.54
      L1  H    15    33       P1  7921  0.64

> <Gold.Chemscore.Hbond.Weighted>
-7.5938

> <Gold.Chemscore.Metal.Weighted>
-0.0000

> <Gold.Chemscore.Lipo.Weighted>
-9.3513

> <Gold.Chemscore.Internal_Hbond.Weighted>
0.0000

> <Gold.Chemscore.DEClash.Weighted>
0.0536

> <Gold.Chemscore.DEInternal.Weighted>
0.2611

> <Gold.Chemscore.Rot.Weighted>
3.6349

> <Gold.Chemscore.Internal.Correction.Weighted>
   9.000000E+99

> <Gold.Protein.RotatedTorsions>
[ 6907 6896 6895 6894 ] final  -31.26 input  -60.11 | X-H torsion
[ 7974 7965 7964 7962 ] final  -49.77 input  175.53 | X-H torsion
[ 8008 7997 7996 7995 ] final  177.63 input   59.86 | X-H torsion
[ 10167 10162 10161 10158 ] final  169.38 input  -65.29 | X-H torsion
[ 10718 10713 10712 10709 ] final  -91.42 input   66.30 | X-H torsion
[ 10763 10752 10751 10750 ] final   98.28 input  -60.55 | X-H torsion
[ 11005 11000 10999 10996 ] final  158.83 input  -57.11 | X-H torsion

> <Gold.Protein.ActiveResidues>
 VAL166  LYS551  ARG553  GLY616  TRP617  ASP618  TYR619  PRO620  LYS621  CYS622 
 ASP623  PHE694  ASN695  SER759  ASP760  ASP761  ALA762  ILE779  LEU786  VAL792 
 PHE793  MET794  SER795  GLU796  ALA797  LYS798  CYS799  TRP800  GLU811  SER814 

> <Gold.Protein.RotatedAtoms>
  151.0944  134.9935  159.8418 H   0  0  0  0  0  0  0  0  0  0  0  0  # atno 6907 bound_to 6896
  152.5432  134.2026  159.8728 H   0  0  0  0  0  0  0  0  0  0  0  0  # atno 6908 bound_to 6896
  151.2064  133.4537  159.2630 H   0  0  0  0  0  0  0  0  0  0  0  0  # atno 6909 bound_to 6896
  145.9370  140.7697  142.9571 H   0  0  0  0  0  0  0  0  0  0  0  0  # atno 7974 bound_to 7965
  156.0636  140.1353  156.9913 H   0  0  0  0  0  0  0  0  0  0  0  0  # atno 8008 bound_to 7997
  154.4494  140.0986  156.6624 H   0  0  0  0  0  0  0  0  0  0  0  0  # atno 8009 bound_to 7997
  155.5339  140.3459  155.4434 H   0  0  0  0  0  0  0  0  0  0  0  0  # atno 8010 bound_to 7997
  139.4991  144.3712  151.9722 H   0  0  0  0  0  0  0  0  0  0  0  0  # atno 10167 bound_to 10162
  155.9993  130.4947  150.5471 H   0  0  0  0  0  0  0  0  0  0  0  0  # atno 10718 bound_to 10713
  153.2872  135.4153  155.1133 H   0  0  0  0  0  0  0  0  0  0  0  0  # atno 10763 bound_to 10752
  154.8509  135.3509  154.6031 H   0  0  0  0  0  0  0  0  0  0  0  0  # atno 10764 bound_to 10752
  153.6453  135.7055  153.5285 H   0  0  0  0  0  0  0  0  0  0  0  0  # atno 10765 bound_to 10752
  140.1903  134.8412  157.2904 H   0  0  0  0  0  0  0  0  0  0  0  0  # atno 11005 bound_to 11000
  144.6773  140.2219  143.7365 LP  0  0  0  0  0  0  0  0  0  0  0  0  # atno 17320 bound_to 7965
  145.8350  139.2103  143.1860 LP  0  0  0  0  0  0  0  0  0  0  0  0  # atno 17321 bound_to 7965
  140.3148  144.3496  150.6024 LP  0  0  0  0  0  0  0  0  0  0  0  0  # atno 17342 bound_to 10162
  140.5770  143.2175  151.7498 LP  0  0  0  0  0  0  0  0  0  0  0  0  # atno 17343 bound_to 10162
  157.3400  131.0715  151.1796 LP  0  0  0  0  0  0  0  0  0  0  0  0  # atno 17370 bound_to 10713
  157.2647  130.6676  149.5991 LP  0  0  0  0  0  0  0  0  0  0  0  0  # atno 17371 bound_to 10713
  140.2167  134.4072  155.7585 LP  0  0  0  0  0  0  0  0  0  0  0  0  # atno 17394 bound_to 11000
  141.2226  133.7145  156.8425 LP  0  0  0  0  0  0  0  0  0  0  0  0  # atno 17395 bound_to 11000

$$$$
