AV-unprocessed.smi:2657|AV-procd|sdf|10307|dock7
  -GOLD-   2272014323D 1   1.00000     0.00000
 Structure written by MMmdl.
 46 48  0  0  0  0  0  0  0  0  1 V2000
  151.5625  136.1699  156.2308 O   0  0  0  0  0  0  0  0  0  0  0  0
  150.8519  136.5480  155.3000 C   0  0  0  0  0  0  0  0  0  0  0  0
  150.2800  135.7100  154.4239 N   0  0  0  0  0  0  0  0  0  0  0  0
  150.3841  134.2565  154.4724 C   0  0  0  0  0  0  0  0  0  0  0  0
  149.0092  133.5950  154.7003 C   0  0  0  0  0  0  0  0  0  0  0  0
  149.0220  132.1620  154.3841 N   0  0  0  0  0  0  0  0  0  0  0  0
  148.1724  131.5744  153.5293 C   0  0  0  0  0  0  0  0  0  0  0  0
  147.2859  132.1317  152.8828 O   0  0  0  0  0  0  0  0  0  0  0  0
  148.4287  130.0760  153.4467 C   0  0  0  0  0  0  0  0  0  0  0  0
  149.6031  129.8721  154.4086 C   0  0  0  0  0  0  0  0  0  0  0  0
  149.8674  131.2774  154.9313 C   0  0  0  0  0  0  0  0  0  0  0  0
  150.7490  131.5256  155.7532 O   0  0  0  0  0  0  0  0  0  0  0  0
  150.5322  137.8244  155.0254 N   0  0  0  0  0  0  0  0  0  0  0  0
  150.8752  139.0143  155.7257 C   0  0  0  0  0  0  0  0  0  0  0  0
  150.3069  140.2891  155.4928 C   0  0  0  0  0  0  0  0  0  0  0  0
  150.7429  141.3822  156.2657 C   0  0  0  0  0  0  0  0  0  0  0  0
  151.7315  141.1822  157.2578 C   0  0  0  0  0  0  0  0  0  0  0  0
  152.1817  142.2655  158.0438 N   0  0  0  0  0  0  0  0  0  0  0  0
  152.4042  142.0336  159.4699 C   0  0  0  0  0  0  0  0  0  0  0  0
  153.1625  143.2170  160.0946 C   0  0  0  0  0  0  0  0  0  0  0  0
  152.4581  144.4270  159.8379 O   0  0  0  0  0  0  0  0  0  0  0  0
  152.3507  144.6902  158.4429 C   0  0  0  0  0  0  0  0  0  0  0  0
  151.5658  143.5589  157.7567 C   0  0  0  0  0  0  0  0  0  0  0  0
  152.2744  139.9600  157.4770 N   0  0  0  0  0  0  0  0  0  0  0  0
  151.8540  138.9149  156.7346 C   0  0  0  0  0  0  0  0  0  0  0  0
  149.7119  136.1027  153.6875 H   0  0  0  0  0  0  0  0  0  0  0  0
  150.7638  133.9452  153.4990 H   0  0  0  0  0  0  0  0  0  0  0  0
  151.1283  133.9263  155.1995 H   0  0  0  0  0  0  0  0  0  0  0  0
  148.6491  133.7807  155.7141 H   0  0  0  0  0  0  0  0  0  0  0  0
  148.2768  134.0756  154.0495 H   0  0  0  0  0  0  0  0  0  0  0  0
  147.5445  129.5213  153.7625 H   0  0  0  0  0  0  0  0  0  0  0  0
  148.6819  129.7860  152.4265 H   0  0  0  0  0  0  0  0  0  0  0  0
  149.3458  129.2015  155.2289 H   0  0  0  0  0  0  0  0  0  0  0  0
  150.4843  129.4826  153.8977 H   0  0  0  0  0  0  0  0  0  0  0  0
  149.9260  137.9600  154.2294 H   0  0  0  0  0  0  0  0  0  0  0  0
  149.5488  140.4621  154.7468 H   0  0  0  0  0  0  0  0  0  0  0  0
  150.3240  142.3594  156.0782 H   0  0  0  0  0  0  0  0  0  0  0  0
  151.4429  141.9014  159.9688 H   0  0  0  0  0  0  0  0  0  0  0  0
  152.9787  141.1185  159.6193 H   0  0  0  0  0  0  0  0  0  0  0  0
  153.2510  143.0789  161.1723 H   0  0  0  0  0  0  0  0  0  0  0  0
  154.1769  143.2819  159.6976 H   0  0  0  0  0  0  0  0  0  0  0  0
  151.8384  145.6416  158.3000 H   0  0  0  0  0  0  0  0  0  0  0  0
  153.3445  144.7950  158.0046 H   0  0  0  0  0  0  0  0  0  0  0  0
  151.5214  143.7586  156.6871 H   0  0  0  0  0  0  0  0  0  0  0  0
  150.5373  143.5461  158.1195 H   0  0  0  0  0  0  0  0  0  0  0  0
  152.3197  137.9653  156.9544 H   0  0  0  0  0  0  0  0  0  0  0  0
  1  2  2  0  0  0  0
  2  3  1  0  0  0  0
  2 13  1  0  0  0  0
  3  4  1  0  0  0  0
  3 26  1  0  0  0  0
  4  5  1  0  0  0  0
  4 27  1  0  0  0  0
  4 28  1  0  0  0  0
  5  6  1  0  0  0  0
  5 29  1  0  0  0  0
  5 30  1  0  0  0  0
  6 11  1  0  0  0  0
  6  7  1  0  0  0  0
  7  8  2  0  0  0  0
  7  9  1  0  0  0  0
  9 10  1  0  0  0  0
  9 31  1  0  0  0  0
  9 32  1  0  0  0  0
 10 11  1  0  0  0  0
 10 33  1  0  0  0  0
 10 34  1  0  0  0  0
 11 12  2  0  0  0  0
 13 14  1  0  0  0  0
 13 35  1  0  0  0  0
 14 25  1  0  0  0  0
 14 15  2  0  0  0  0
 15 16  1  0  0  0  0
 15 36  1  0  0  0  0
 16 17  2  0  0  0  0
 16 37  1  0  0  0  0
 17 18  1  0  0  0  0
 17 24  1  0  0  0  0
 18 23  1  0  0  0  0
 18 19  1  0  0  0  0
 19 20  1  0  0  0  0
 19 38  1  0  0  0  0
 19 39  1  0  0  0  0
 20 21  1  0  0  0  0
 20 40  1  0  0  0  0
 20 41  1  0  0  0  0
 21 22  1  0  0  0  0
 22 23  1  0  0  0  0
 22 42  1  0  0  0  0
 22 43  1  0  0  0  0
 23 44  1  0  0  0  0
 23 45  1  0  0  0  0
 24 25  2  0  0  0  0
 25 46  1  0  0  0  0
M  END
> <s_m_source_file>
AV-unprocessed.smi

> <i_m_source_file_index>
2657

> <i_lp_mmshare_version>
43012

> <i_f3d_flags>
0

> <s_epik_input>
Tz1DMVtDSDJdW0NIMl1DKD1PKU4xW0NIMl1bQ0gyXVtOSF1DKD1PKVtOSF1jMltjSF1bY0hdYyhuW2NIXTIpTjNbQ0gyXVtDSDJdT1tDSDJdW0NIMl0z

> <s_epik_cmdline>
J2VwaWtfcHl0aG9uJywgJy1waCcsICc3LjAnLCAnLXRuJywgJzgnLCAnLW1hJywgJzIwMCcsICctbWV0YWxfYmluZGluZycsICctaW1hZScsICc8aW5maWxlLm1hZT4nLCAnLW9tYWUnLCAnPG91dGZpbGUubWFlPic=

> <r_lp_tautomer_probability>
1

> <r_epik_Ionization_Penalty>
0.00195667

> <r_epik_Ionization_Penalty_Charging>
0

> <r_epik_Ionization_Penalty_Neutral>
0.00195667

> <r_epik_State_Penalty>
0.0013118

> <r_epik_Charging_Adjusted_Penalty>
0.0013118

> <i_epik_Tot_Q>
0

> <i_epik_Tot_abs_Q>
0

> <r_epik_Metal_State_Penalty>
-0

> <b_epik_Metal_Only>
0

> <s_lp_Force_Field>
OPLS_2005

> <r_lp_Energy>
27.686

> <b_lp_Chiralities_Consistent>
1

> <s_lp_Variant>
AV-unprocessed.smi:2657-1

> <Gold.Version>
5.8.1

> <Gold.Id.Protein>
6NUR|6NUR_protein|mol2

> <Gold.PLP.Fitness>
47.5859

> <Gold.PLP.PLP>
-41.0422

> <Gold.PLP.part.hbond>
-3.5412

> <Gold.PLP.part.metal>
0.0000

> <Gold.PLP.part.buried>
-3.5516

> <Gold.PLP.part.nonpolar>
-34.1848

> <Gold.PLP.part.repulsive>
0.3042

> <Gold.PLP.ligand.clash>
0.0000

> <Gold.PLP.ligand.torsion>
0.3844

> <Gold.PLP.Chemscore.Hbond>
2.3203

> <Gold.PLP.Chemscore.CHOScore>
0.0000

> <Gold.PLP.Chemscore.Metal>
0.0000

> <Gold.Chemscore.Hbonds>
donor molecule, donor type, donor heavy atom, donor atom, acceptor molecule, acceptor atom, score
      L1  H     3    26       P1  7948  1.00
      P1  H  7997  8008       L1    24  0.22
      P1  H 10752 10765       L1     1  0.76

> <Gold.PLP.Chemscore.Internal.Correction>
0.3515

> <Gold.Rescore>
     Score         DG    S(hbond)    S(metal)    S(lipo)     H(rot)  DE(clash)    DE(int)     intcor
     13.34     -15.29       1.22        0.00      92.18       1.97       0.22       1.73       ----

> <Gold.Chemscore.Fitness>
13.3367

> <Gold.Chemscore.DG>
-15.2882

> <Gold.Chemscore.ZeroCoef>
-5.4800

> <Gold.Chemscore.Hbond>
1.2208

> <Gold.Chemscore.Metal>
0.0000

> <Gold.Chemscore.Lipo>
92.1778

> <Gold.Chemscore.Internal_Hbond>
0.0000

> <Gold.Chemscore.DEClash>
0.2174

> <Gold.Chemscore.DEInternal>
1.7340

> <Gold.Chemscore.Rot>
1.9742

> <Gold.Chemscore.Internal.Correction>
   9.000000E+99

> <Gold.Chemscore.Hbonds>
donor molecule, donor type, donor heavy atom, donor atom, acceptor molecule, acceptor atom, score
      L1  H     3    26       P1  7948  0.29
      P1  H  7997  8008       L1    24  0.06
      P1  H 10752 10765       L1     1  0.17

> <Gold.Chemscore.Hbond.Weighted>
-4.0774

> <Gold.Chemscore.Metal.Weighted>
-0.0000

> <Gold.Chemscore.Lipo.Weighted>
-10.7848

> <Gold.Chemscore.Internal_Hbond.Weighted>
0.0000

> <Gold.Chemscore.DEClash.Weighted>
0.2174

> <Gold.Chemscore.DEInternal.Weighted>
1.7340

> <Gold.Chemscore.Rot.Weighted>
5.0540

> <Gold.Chemscore.Internal.Correction.Weighted>
   9.000000E+99

> <Gold.Protein.RotatedTorsions>
[ 6907 6896 6895 6894 ] final -121.06 input  -60.11 | X-H torsion
[ 7974 7965 7964 7962 ] final  -93.88 input  175.53 | X-H torsion
[ 8008 7997 7996 7995 ] final  -83.57 input   59.86 | X-H torsion
[ 10167 10162 10161 10158 ] final    1.42 input  -65.29 | X-H torsion
[ 10718 10713 10712 10709 ] final  -20.84 input   66.30 | X-H torsion
[ 10763 10752 10751 10750 ] final -142.94 input  -60.55 | X-H torsion
[ 11005 11000 10999 10996 ] final  -96.20 input  -57.11 | X-H torsion

> <Gold.Protein.ActiveResidues>
 VAL166  LYS551  ARG553  GLY616  TRP617  ASP618  TYR619  PRO620  LYS621  CYS622 
 ASP623  PHE694  ASN695  SER759  ASP760  ASP761  ALA762  ILE779  LEU786  VAL792 
 PHE793  MET794  SER795  GLU796  ALA797  LYS798  CYS799  TRP800  GLU811  SER814 

> <Gold.Protein.RotatedAtoms>
  150.8449  133.7877  159.3046 H   0  0  0  0  0  0  0  0  0  0  0  0  # atno 6907 bound_to 6896
  151.5566  135.1065  159.9972 H   0  0  0  0  0  0  0  0  0  0  0  0  # atno 6908 bound_to 6896
  152.4505  133.7578  159.6786 H   0  0  0  0  0  0  0  0  0  0  0  0  # atno 6909 bound_to 6896
  145.3807  140.9517  143.2395 H   0  0  0  0  0  0  0  0  0  0  0  0  # atno 7974 bound_to 7965
  154.6205  140.0617  156.9608 H   0  0  0  0  0  0  0  0  0  0  0  0  # atno 8008 bound_to 7997
  155.1826  140.3300  155.4354 H   0  0  0  0  0  0  0  0  0  0  0  0  # atno 8009 bound_to 7997
  156.2428  140.1895  156.6921 H   0  0  0  0  0  0  0  0  0  0  0  0  # atno 8010 bound_to 7997
  140.6683  143.7118  150.7872 H   0  0  0  0  0  0  0  0  0  0  0  0  # atno 10167 bound_to 10162
  156.5263  130.4644  149.6570 H   0  0  0  0  0  0  0  0  0  0  0  0  # atno 10718 bound_to 10713
  154.8490  135.3482  154.6107 H   0  0  0  0  0  0  0  0  0  0  0  0  # atno 10763 bound_to 10752
  153.6716  135.6984  153.5150 H   0  0  0  0  0  0  0  0  0  0  0  0  # atno 10764 bound_to 10752
  153.2738  135.4284  155.0970 H   0  0  0  0  0  0  0  0  0  0  0  0  # atno 10765 bound_to 10752
  141.1419  133.8080  157.0539 H   0  0  0  0  0  0  0  0  0  0  0  0  # atno 11005 bound_to 11000
  144.8510  139.5322  143.6856 LP  0  0  0  0  0  0  0  0  0  0  0  0  # atno 17320 bound_to 7965
  146.2843  139.6962  142.9206 LP  0  0  0  0  0  0  0  0  0  0  0  0  # atno 17321 bound_to 7965
  140.0799  143.4979  152.2536 LP  0  0  0  0  0  0  0  0  0  0  0  0  # atno 17342 bound_to 10162
  139.5941  144.7561  151.3329 LP  0  0  0  0  0  0  0  0  0  0  0  0  # atno 17343 bound_to 10162
  156.3101  130.7224  151.2115 LP  0  0  0  0  0  0  0  0  0  0  0  0  # atno 17370 bound_to 10713
  157.7429  131.0483  150.4990 LP  0  0  0  0  0  0  0  0  0  0  0  0  # atno 17371 bound_to 10713
  140.0614  134.9752  157.1311 LP  0  0  0  0  0  0  0  0  0  0  0  0  # atno 17394 bound_to 11000
  140.3843  134.2254  155.7169 LP  0  0  0  0  0  0  0  0  0  0  0  0  # atno 17395 bound_to 11000

$$$$
