#       Name:                AV-unprocessed.smi:72
#       Creating user name   scv26
#       Creation time:       Thu Mar 26 17:04:58 2020


#       File generated by GOLD software.
#

@<TRIPOS>MOLECULE
AV-unprocessed.smi:72
    41    42     1
SMALL
NO_CHARGES


@<TRIPOS>ATOM
      1 ****        -2.3996   4.4289  -1.0660 N.2            1 S1                 0.0000
      2 ****        -1.9686   3.3088  -0.6805 C.2            1 S1                 0.0000
      3 ****        -0.5564   3.0056  -0.7657 N.2            1 S1                 0.0000
      4 ****        -0.1621   1.8420  -0.3482 C.2            1 S1                 0.0000
      5 ****        -1.0937   0.8656   0.1993 N.am           1 S1                 0.0000
      6 ****        -0.6135  -0.4918   0.6746 C.3            1 S1                 0.0000
      7 ****         0.6749  -0.3647   1.2006 O.3            1 S1                 0.0000
      8 ****         1.4618  -1.4841   0.8078 C.3            1 S1                 0.0000
      9 ****         2.9643  -1.1657   0.9012 C.3            1 S1                 0.0000
     10 ****         3.4083  -1.3211   2.2320 O.3            1 S1                 0.0000
     11 ****         0.9382  -1.8038  -0.5992 C.3            1 S1                 0.0000
     12 ****         1.5416  -0.9582  -1.5645 O.3            1 S1                 0.0000
     13 ****        -0.5581  -1.5449  -0.4532 C.3            1 S1                 0.0000
     14 ****        -1.1817  -1.1846  -1.6750 O.3            1 S1                 0.0000
     15 ****        -2.4777   1.1811   0.2490 C.2            1 S1                 0.0000
     16 ****        -3.2552   0.3261   0.6737 O.2            1 S1                 0.0000
     17 ****        -2.8850   2.4057  -0.1880 N.pl3          1 S1                -1.0000
     18 ****        -1.2736  -0.7852   1.4920 H              1 S1                 0.0000
     19 ****         1.2148  -2.3247   1.4597 H              1 S1                 0.0000
     20 ****         1.1396  -2.8377  -0.8813 H              1 S1                 0.0000
     21 ****        -1.0419  -2.4452  -0.0721 H              1 S1                 0.0000
     22 ****        -3.3997   4.5133  -0.9559 H              1 S1                 0.0000
     23 ****         0.8801   1.5228  -0.3834 H              1 S1                 0.0000
     24 ****         3.5347  -1.8597   0.2834 H              1 S1                 0.0000
     25 ****         3.1813  -0.1579   0.5460 H              1 S1                 0.0000
     26 ****         2.9371  -0.7077   2.7754 H              1 S1                 0.0000
     27 ****         1.0604  -1.0441  -2.3736 H              1 S1                 0.0000
     28 ****        -2.0697  -0.9179  -1.4893 H              1 S1                 0.0000
     29 ****        -1.8173   5.1515  -1.4384 LP             1 S1                 0.0000
     30 ****         0.0937   3.6702  -1.1338 LP             1 S1                 0.0000
     31 ****         0.6249  -0.3264   2.1986 LP             1 S1                 0.0000
     32 ****         1.0943   0.4749   0.8554 LP             1 S1                 0.0000
     33 ****         4.3895  -1.1356   2.2850 LP             1 S1                 0.0000
     34 ****         3.2284  -2.2548   2.5417 LP             1 S1                 0.0000
     35 ****         2.4933  -1.2308  -1.7059 LP             1 S1                 0.0000
     36 ****         1.5097  -0.0093  -1.2506 LP             1 S1                 0.0000
     37 ****        -1.1873  -1.9688  -2.2955 LP             1 S1                 0.0000
     38 ****        -0.6833  -0.4281  -2.0984 LP             1 S1                 0.0000
     39 ****        -2.9068  -0.5625   0.9722 LP             1 S1                 0.0000
     40 ****        -4.2351   0.5202   0.7202 LP             1 S1                 0.0000
     41 ****        -3.8540   2.6501  -0.1510 LP             1 S1                 0.0000
@<TRIPOS>BOND
    1    1    2 2     
    2    1   22 1     
    3    2   17 1     
    4    2    3 1     
    5    3    4 2     
    6    4    5 1     
    7    4   23 1     
    8    5    6 1     
    9    5   15 am    
   10    6   18 1     
   11    6   13 1     
   12    6    7 1     
   13    7    8 1     
   14    8   19 1     
   15    8    9 1     
   16    8   11 1     
   17    9   10 1     
   18    9   24 1     
   19    9   25 1     
   20   10   26 1     
   21   11   20 1     
   22   11   12 1     
   23   11   13 1     
   24   12   27 1     
   25   13   21 1     
   26   13   14 1     
   27   14   28 1     
   28   15   16 2     
   29   15   17 1     
   30    1   29 1     
   31    3   30 1     
   32    7   31 1     
   33    7   32 1     
   34   10   33 1     
   35   10   34 1     
   36   12   35 1     
   37   12   36 1     
   38   14   37 1     
   39   14   38 1     
   40   16   39 1     
   41   16   40 1     
   42   17   41 1     
@<TRIPOS>SUBSTRUCTURE
      1 S1             1
@<TRIPOS>SET
LONE_PAIRS      STATIC     ATOMS    <user>   **** ""
13 29 30 31 32 33 34 35 36 37 38 39 40 41
DONOR_HYDROGENS      STATIC     ATOMS    <user>   **** ""
4 22 26 27 28
ATOM$BLUE        STATIC     ATOMS    COLORGROUP SYSTEM
13 29 30 31 32 33 34 35 36 37 38 39 40 41
ATOM$RED        STATIC     ATOMS    COLORGROUP SYSTEM
4 22 26 27 28
