#       Name:                AV-unprocessed.smi:2237
#       Creating user name   scv26
#       Creation time:       Fri Mar 27 12:25:42 2020


#       File generated by GOLD software.
#

@<TRIPOS>MOLECULE
AV-unprocessed.smi:2237
    58    60     1
SMALL
NO_CHARGES


@<TRIPOS>ATOM
      1 ****        -6.1074   5.5708   0.8294 C.3            1 S1                 0.0000
      2 ****        -6.3509   4.0763   0.8202 C.ar           1 S1                 0.0000
      3 ****        -7.6589   3.5537   0.8448 C.ar           1 S1                 0.0000
      4 ****        -7.8147   2.1562   0.8332 C.ar           1 S1                 0.0000
      5 ****        -6.6646   1.3443   0.7974 C.ar           1 S1                 0.0000
      6 ****        -5.3874   1.9487   0.7762 C.ar           1 S1                 0.0000
      7 ****        -4.2936   1.0437   0.7408 N.am           1 S1                 0.0000
      8 ****        -2.9792   1.3271   0.7630 C.2            1 S1                 0.0000
      9 ****        -2.4944   2.4576   0.8235 O.2            1 S1                 0.0000
     10 ****        -2.2413   0.2084   0.7154 N.am           1 S1                 0.0000
     11 ****        -0.7827   0.1622   0.7476 C.3            1 S1                 0.0000
     12 ****        -0.1865   0.4423  -0.6365 C.3            1 S1                 0.0000
     13 ****         1.3418   0.2671  -0.6249 C.3            1 S1                 0.0000
     14 ****         1.7397  -1.0935  -0.2220 N.3            1 S1                 0.0000
     15 ****         3.2092  -1.2631  -0.2945 C.3            1 S1                 0.0000
     16 ****         3.7227  -1.1004  -1.7518 C.3            1 S1                 0.0000
     17 ****         5.2254  -1.3912  -1.8913 C.3            1 S1                 0.0000
     18 ****         5.5533  -2.7472  -1.3993 N.4            1 S1                 1.0000
     19 ****         6.9652  -3.1121  -1.6439 C.3            1 S1                 0.0000
     20 ****         5.1657  -2.9071   0.0194 C.3            1 S1                 0.0000
     21 ****         3.6612  -2.6600   0.2131 C.3            1 S1                 0.0000
     22 ****         1.2225  -1.3334   1.1366 C.3            1 S1                 0.0000
     23 ****        -0.3109  -1.2229   1.1959 C.3            1 S1                 0.0000
     24 ****        -5.2479   3.2979   0.7870 N.ar           1 S1                 0.0000
     25 ****        -7.0464   6.1250   0.8358 H              1 S1                 0.0000
     26 ****        -5.5425   5.8685  -0.0546 H              1 S1                 0.0000
     27 ****        -5.5372   5.8563   1.7138 H              1 S1                 0.0000
     28 ****        -8.5213   4.2036   0.8715 H              1 S1                 0.0000
     29 ****        -8.7995   1.7131   0.8517 H              1 S1                 0.0000
     30 ****        -6.7669   0.2687   0.7885 H              1 S1                 0.0000
     31 ****        -4.5409   0.0662   0.7006 H              1 S1                 0.0000
     32 ****        -2.7226  -0.6775   0.6643 H              1 S1                 0.0000
     33 ****        -0.4128   0.9034   1.4591 H              1 S1                 0.0000
     34 ****        -0.6242  -0.2283  -1.3777 H              1 S1                 0.0000
     35 ****        -0.4337   1.4560  -0.9535 H              1 S1                 0.0000
     36 ****         1.6782   0.4951  -1.6328 H              1 S1                 0.0000
     37 ****         1.8006   1.0017   0.0388 H              1 S1                 0.0000
     38 ****         3.6788  -0.5020   0.3310 H              1 S1                 0.0000
     39 ****         3.1636  -1.7613  -2.4161 H              1 S1                 0.0000
     40 ****         3.5726  -0.0875  -2.1204 H              1 S1                 0.0000
     41 ****         5.5148  -1.3041  -2.9394 H              1 S1                 0.0000
     42 ****         5.8051  -0.6492  -1.3396 H              1 S1                 0.0000
     43 ****         7.6406  -2.4522  -1.0979 H              1 S1                 0.0000
     44 ****         7.2026  -3.0424  -2.7059 H              1 S1                 0.0000
     45 ****         7.1581  -4.1376  -1.3273 H              1 S1                 0.0000
     46 ****         5.4129  -3.9156   0.3534 H              1 S1                 0.0000
     47 ****         5.7429  -2.2177   0.6380 H              1 S1                 0.0000
     48 ****         3.4673  -2.7765   1.2783 H              1 S1                 0.0000
     49 ****         3.0966  -3.4413  -0.2986 H              1 S1                 0.0000
     50 ****         1.4617  -2.3394   1.4734 H              1 S1                 0.0000
     51 ****         1.6814  -0.6380   1.8413 H              1 S1                 0.0000
     52 ****        -0.6543  -1.4221   2.2117 H              1 S1                 0.0000
     53 ****        -0.7531  -1.9941   0.5628 H              1 S1                 0.0000
     54 ****         4.9904  -3.3957  -1.9316 H              1 S1                 0.0000
     55 ****        -3.0936   3.2573   0.8608 LP             1 S1                 0.0000
     56 ****        -1.5015   2.5759   0.8354 LP             1 S1                 0.0000
     57 ****         1.3516  -1.7689  -0.8491 LP             1 S1                 0.0000
     58 ****        -4.3377   3.7118   0.7706 LP             1 S1                 0.0000
@<TRIPOS>BOND
    1    1    2 1     
    2    1   25 1     
    3    1   26 1     
    4    1   27 1     
    5    2   24 ar    
    6    2    3 ar    
    7    3    4 ar    
    8    3   28 1     
    9    4    5 ar    
   10    4   29 1     
   11    5    6 ar    
   12    5   30 1     
   13    6    7 1     
   14    6   24 ar    
   15    7    8 am    
   16    7   31 1     
   17    8    9 2     
   18    8   10 am    
   19   10   11 1     
   20   10   32 1     
   21   11   23 1     
   22   11   12 1     
   23   11   33 1     
   24   12   13 1     
   25   12   34 1     
   26   12   35 1     
   27   13   14 1     
   28   13   36 1     
   29   13   37 1     
   30   14   15 1     
   31   14   22 1     
   32   15   21 1     
   33   15   16 1     
   34   15   38 1     
   35   16   17 1     
   36   16   39 1     
   37   16   40 1     
   38   17   18 1     
   39   17   41 1     
   40   17   42 1     
   41   18   19 1     
   42   18   20 1     
   43   18   54 1     
   44   19   43 1     
   45   19   44 1     
   46   19   45 1     
   47   20   21 1     
   48   20   46 1     
   49   20   47 1     
   50   21   48 1     
   51   21   49 1     
   52   22   23 1     
   53   22   50 1     
   54   22   51 1     
   55   23   52 1     
   56   23   53 1     
   57    9   55 1     
   58    9   56 1     
   59   14   57 1     
   60   24   58 1     
@<TRIPOS>SUBSTRUCTURE
      1 S1             1
@<TRIPOS>SET
LONE_PAIRS      STATIC     ATOMS    <user>   **** ""
4 55 56 57 58
DONOR_HYDROGENS      STATIC     ATOMS    <user>   **** ""
3 31 32 54
ATOM$BLUE        STATIC     ATOMS    COLORGROUP SYSTEM
4 55 56 57 58
ATOM$RED        STATIC     ATOMS    COLORGROUP SYSTEM
3 31 32 54
