AV-unprocessed.smi:2198|AV-procd|sdf|8915|dock10
  -GOLD-   2272012133D 1   1.00000     0.00000
 Structure written by MMmdl.
 43 44  0  0  0  0  0  0  0  0  1 V2000
  151.3029  142.9820  157.4266 C   0  0  0  0  0  0  0  0  0  0  0  0
  150.7747  141.8958  156.5150 C   0  0  0  0  0  0  0  0  0  0  0  0
  149.7124  142.3010  155.7239 N   0  0  0  0  0  0  0  0  0  0  0  0
  149.1611  141.3748  154.8566 C   0  0  0  0  0  0  0  0  0  0  0  0
  148.0004  141.8982  154.0285 C   0  0  0  0  0  0  0  0  0  0  0  0
  149.6474  140.1102  154.7773 C   0  0  0  0  0  0  0  0  0  0  0  0
  149.0709  139.0611  153.8273 C   0  0  0  0  0  0  0  0  0  0  0  0
  147.5586  138.8395  153.9147 C   0  0  0  0  0  0  0  0  0  0  0  0
  146.8785  139.4815  154.7151 O   0  0  0  0  0  0  0  0  0  0  0  0
  147.0466  137.9210  153.0817 N   0  0  0  0  0  0  0  0  0  0  0  0
  145.6381  137.5374  153.0040 C   0  0  2  0  0  0  0  0  0  0  0  0
  145.1932  136.8727  154.3210 C   0  0  0  0  0  0  0  0  0  0  0  0
  145.7981  135.4696  154.4984 C   0  0  0  0  0  0  0  0  0  0  0  0
  145.4892  134.5717  153.2906 C   0  0  0  0  0  0  0  0  0  0  0  0
  145.9782  135.2072  151.9752 C   0  0  1  0  0  0  0  0  0  0  0  0
  145.6726  134.3071  150.7696 C   0  0  0  0  0  0  0  0  0  0  0  0
  145.3682  136.6130  151.7963 C   0  0  0  0  0  0  0  0  0  0  0  0
  150.7911  139.7377  155.6433 C   0  0  0  0  0  0  0  0  0  0  0  0
  151.2858  138.6119  155.6077 O   0  0  0  0  0  0  0  0  0  0  0  0
  151.3084  140.7122  156.5122 N   0  0  0  0  0  0  0  0  0  0  0  0
  149.3234  143.2327  155.7472 H   0  0  0  0  0  0  0  0  0  0  0  0
  152.0170  142.5758  158.1442 H   0  0  0  0  0  0  0  0  0  0  0  0
  150.4880  143.4447  157.9843 H   0  0  0  0  0  0  0  0  0  0  0  0
  151.8060  143.7528  156.8424 H   0  0  0  0  0  0  0  0  0  0  0  0
  147.0932  141.3340  154.2454 H   0  0  0  0  0  0  0  0  0  0  0  0
  148.2186  141.8064  152.9644 H   0  0  0  0  0  0  0  0  0  0  0  0
  147.7984  142.9493  154.2385 H   0  0  0  0  0  0  0  0  0  0  0  0
  149.5706  138.1120  154.0240 H   0  0  0  0  0  0  0  0  0  0  0  0
  149.3226  139.2973  152.7929 H   0  0  0  0  0  0  0  0  0  0  0  0
  147.6806  137.4460  152.4558 H   0  0  0  0  0  0  0  0  0  0  0  0
  145.0489  138.4479  152.8805 H   0  0  0  0  0  0  0  0  0  0  0  0
  145.4550  137.5044  155.1708 H   0  0  0  0  0  0  0  0  0  0  0  0
  144.1056  136.7921  154.3287 H   0  0  0  0  0  0  0  0  0  0  0  0
  146.8779  135.5460  154.6313 H   0  0  0  0  0  0  0  0  0  0  0  0
  145.4093  135.0127  155.4087 H   0  0  0  0  0  0  0  0  0  0  0  0
  145.9572  133.5968  153.4319 H   0  0  0  0  0  0  0  0  0  0  0  0
  144.4144  134.3926  153.2372 H   0  0  0  0  0  0  0  0  0  0  0  0
  147.0624  135.3118  152.0349 H   0  0  0  0  0  0  0  0  0  0  0  0
  144.5994  134.1599  150.6454 H   0  0  0  0  0  0  0  0  0  0  0  0
  146.1322  133.3252  150.8862 H   0  0  0  0  0  0  0  0  0  0  0  0
  146.0579  134.7432  149.8474 H   0  0  0  0  0  0  0  0  0  0  0  0
  144.2900  136.5187  151.6609 H   0  0  0  0  0  0  0  0  0  0  0  0
  145.7443  137.0708  150.8805 H   0  0  0  0  0  0  0  0  0  0  0  0
  1 22  1  0  0  0  0
  1 23  1  0  0  0  0
  1 24  1  0  0  0  0
  1  2  1  0  0  0  0
  2  3  1  0  0  0  0
  2 20  2  0  0  0  0
  3  4  1  0  0  0  0
  3 21  1  0  0  0  0
  4  6  2  0  0  0  0
  4  5  1  0  0  0  0
  5 25  1  0  0  0  0
  5 26  1  0  0  0  0
  5 27  1  0  0  0  0
  6 18  1  0  0  0  0
  6  7  1  0  0  0  0
  7  8  1  0  0  0  0
  7 28  1  0  0  0  0
  7 29  1  0  0  0  0
  8  9  2  0  0  0  0
  8 10  1  0  0  0  0
 10 11  1  0  0  0  0
 10 30  1  0  0  0  0
 11 17  1  0  0  0  0
 11 12  1  0  0  0  0
 11 31  1  0  0  0  0
 12 13  1  0  0  0  0
 12 32  1  0  0  0  0
 12 33  1  0  0  0  0
 13 14  1  0  0  0  0
 13 34  1  0  0  0  0
 13 35  1  0  0  0  0
 14 15  1  0  0  0  0
 14 36  1  0  0  0  0
 14 37  1  0  0  0  0
 15 16  1  0  0  0  0
 15 17  1  0  0  0  0
 15 38  1  0  0  0  0
 16 39  1  0  0  0  0
 16 40  1  0  0  0  0
 16 41  1  0  0  0  0
 17 42  1  0  0  0  0
 17 43  1  0  0  0  0
 18 19  2  0  0  0  0
 18 20  1  0  0  0  0
M  END
> <s_m_source_file>
AV-unprocessed.smi

> <i_m_source_file_index>
2198

> <i_lp_mmshare_version>
43012

> <i_f3d_flags>
0

> <s_epik_input>
W0NIM11jMW5jKFtDSDNdKWMoYyg9TylbbkhdMSlbQ0gyXUMoPU8pW05IXVtDQEBIXTJbQ0gyXVtDSDJdW0NIMl1bQ0BASF0oW0NIM10pW0NIMl0y

> <s_epik_cmdline>
J2VwaWtfcHl0aG9uJywgJy1waCcsICc3LjAnLCAnLXRuJywgJzgnLCAnLW1hJywgJzIwMCcsICctbWV0YWxfYmluZGluZycsICctaW1hZScsICc8aW5maWxlLm1hZT4nLCAnLW9tYWUnLCAnPG91dGZpbGUubWFlPic=

> <r_lp_tautomer_probability>
0.156392

> <r_epik_Ionization_Penalty>
0.0136514

> <r_epik_Ionization_Penalty_Charging>
0.0135207

> <r_epik_Ionization_Penalty_Neutral>
0.000130657

> <r_epik_State_Penalty>
1.15342

> <r_epik_Charging_Adjusted_Penalty>
1.16694

> <i_epik_Tot_Q>
0

> <i_epik_Tot_abs_Q>
0

> <r_epik_Metal_State_Penalty>
1.31404

> <b_epik_Metal_Only>
0

> <s_lp_Force_Field>
OPLS_2005

> <r_lp_Energy>
13.5111

> <b_lp_Chiralities_Consistent>
1

> <s_lp_Variant>
AV-unprocessed.smi:2198-5

> <Gold.Version>
5.8.1

> <Gold.Id.Protein>
6NUR|6NUR_protein|mol2

> <Gold.PLP.Fitness>
34.9676

> <Gold.PLP.PLP>
-29.1662

> <Gold.PLP.part.hbond>
-2.0000

> <Gold.PLP.part.metal>
0.0000

> <Gold.PLP.part.buried>
-1.5261

> <Gold.PLP.part.nonpolar>
-25.9117

> <Gold.PLP.part.repulsive>
0.2808

> <Gold.PLP.ligand.clash>
0.0000

> <Gold.PLP.ligand.torsion>
0.1038

> <Gold.PLP.Chemscore.Hbond>
2.0000

> <Gold.PLP.Chemscore.CHOScore>
0.0000

> <Gold.PLP.Chemscore.Metal>
0.0000

> <Gold.Chemscore.Hbonds>
donor molecule, donor type, donor heavy atom, donor atom, acceptor molecule, acceptor atom, score
      L1  H     3    21       P1  8028  1.00
      L1  H    10    30       P1  7948  1.00

> <Gold.PLP.Chemscore.Internal.Correction>
0.0089

> <Gold.Rescore>
     Score         DG    S(hbond)    S(metal)    S(lipo)     H(rot)  DE(clash)    DE(int)     intcor
     13.08     -15.62       1.98        0.00      62.41       1.48       0.24       2.30       ----

> <Gold.Chemscore.Fitness>
13.0770

> <Gold.Chemscore.DG>
-15.6187

> <Gold.Chemscore.ZeroCoef>
-5.4800

> <Gold.Chemscore.Hbond>
1.9837

> <Gold.Chemscore.Metal>
0.0000

> <Gold.Chemscore.Lipo>
62.4121

> <Gold.Chemscore.Internal_Hbond>
0.0000

> <Gold.Chemscore.DEClash>
0.2413

> <Gold.Chemscore.DEInternal>
2.3005

> <Gold.Chemscore.Rot>
1.4801

> <Gold.Chemscore.Internal.Correction>
   9.000000E+99

> <Gold.Chemscore.Hbonds>
donor molecule, donor type, donor heavy atom, donor atom, acceptor molecule, acceptor atom, score
      L1  H     3    21       P1  8028  0.95
      L1  H    10    30       P1  7948  1.00

> <Gold.Chemscore.Hbond.Weighted>
-6.6256

> <Gold.Chemscore.Metal.Weighted>
-0.0000

> <Gold.Chemscore.Lipo.Weighted>
-7.3022

> <Gold.Chemscore.Internal_Hbond.Weighted>
0.0000

> <Gold.Chemscore.DEClash.Weighted>
0.2413

> <Gold.Chemscore.DEInternal.Weighted>
2.3005

> <Gold.Chemscore.Rot.Weighted>
3.7891

> <Gold.Chemscore.Internal.Correction.Weighted>
   9.000000E+99

> <Gold.Protein.RotatedTorsions>
[ 6907 6896 6895 6894 ] final   20.58 input  -60.11 | X-H torsion
[ 7974 7965 7964 7962 ] final -162.04 input  175.53 | X-H torsion
[ 8008 7997 7996 7995 ] final  106.74 input   59.86 | X-H torsion
[ 10167 10162 10161 10158 ] final   -2.45 input  -65.29 | X-H torsion
[ 10718 10713 10712 10709 ] final   64.79 input   66.30 | X-H torsion
[ 10763 10752 10751 10750 ] final  -78.19 input  -60.55 | X-H torsion
[ 11005 11000 10999 10996 ] final -166.49 input  -57.11 | X-H torsion

> <Gold.Protein.ActiveResidues>
 VAL166  LYS551  ARG553  GLY616  TRP617  ASP618  TYR619  PRO620  LYS621  CYS622 
 ASP623  PHE694  ASN695  SER759  ASP760  ASP761  ALA762  ILE779  LEU786  VAL792 
 PHE793  MET794  SER795  GLU796  ALA797  LYS798  CYS799  TRP800  GLU811  SER814 

> <Gold.Protein.RotatedAtoms>
  151.8985  135.0388  160.0504 H   0  0  0  0  0  0  0  0  0  0  0  0  # atno 6907 bound_to 6896
  152.2377  133.5105  159.5260 H   0  0  0  0  0  0  0  0  0  0  0  0  # atno 6908 bound_to 6896
  150.7044  134.1047  159.4021 H   0  0  0  0  0  0  0  0  0  0  0  0  # atno 6909 bound_to 6896
  144.7371  140.3311  143.6153 H   0  0  0  0  0  0  0  0  0  0  0  0  # atno 7974 bound_to 7965
  156.1768  140.3107  155.9074 H   0  0  0  0  0  0  0  0  0  0  0  0  # atno 8008 bound_to 7997
  155.3470  140.0469  157.3063 H   0  0  0  0  0  0  0  0  0  0  0  0  # atno 8009 bound_to 7997
  154.5299  140.2227  155.8833 H   0  0  0  0  0  0  0  0  0  0  0  0  # atno 8010 bound_to 7997
  140.6851  143.6656  150.8229 H   0  0  0  0  0  0  0  0  0  0  0  0  # atno 10167 bound_to 10162
  157.6063  130.9179  149.9892 H   0  0  0  0  0  0  0  0  0  0  0  0  # atno 10718 bound_to 10713
  154.5227  135.5738  153.6694 H   0  0  0  0  0  0  0  0  0  0  0  0  # atno 10763 bound_to 10752
  152.9921  135.6185  154.2733 H   0  0  0  0  0  0  0  0  0  0  0  0  # atno 10764 bound_to 10752
  154.2655  135.2855  155.2740 H   0  0  0  0  0  0  0  0  0  0  0  0  # atno 10765 bound_to 10752
  140.5639  134.5305  157.5149 H   0  0  0  0  0  0  0  0  0  0  0  0  # atno 11005 bound_to 11000
  145.7471  139.1782  143.2343 LP  0  0  0  0  0  0  0  0  0  0  0  0  # atno 17320 bound_to 7965
  146.1089  140.7452  142.9512 LP  0  0  0  0  0  0  0  0  0  0  0  0  # atno 17321 bound_to 7965
  140.0361  143.5393  152.2738 LP  0  0  0  0  0  0  0  0  0  0  0  0  # atno 17342 bound_to 10162
  139.6204  144.7628  151.2754 LP  0  0  0  0  0  0  0  0  0  0  0  0  # atno 17343 bound_to 10162
  156.1151  130.3648  149.9982 LP  0  0  0  0  0  0  0  0  0  0  0  0  # atno 17370 bound_to 10713
  156.8073  130.9312  151.3645 LP  0  0  0  0  0  0  0  0  0  0  0  0  # atno 17371 bound_to 10713
  139.9394  134.7815  156.0717 LP  0  0  0  0  0  0  0  0  0  0  0  0  # atno 17394 bound_to 11000
  141.1097  133.6647  156.2950 LP  0  0  0  0  0  0  0  0  0  0  0  0  # atno 17395 bound_to 11000

$$$$
