AV-unprocessed.smi:350|AV-procd|sdf|2399|dock5
  -GOLD-   2262022333D 1   1.00000     0.00000
 Structure written by MMmdl.
 35 36  0  0  0  0  0  0  0  0  1 V2000
  154.3750  137.5185  164.9014 C   0  0  0  0  0  0  0  0  0  0  0  0
  154.3867  136.9256  163.5184 C   0  0  0  0  0  0  0  0  0  0  0  0
  154.1466  137.7332  162.5383 N   0  0  0  0  0  0  0  0  0  0  0  0
  154.1277  137.2919  161.2303 N   0  0  0  0  0  0  0  0  0  0  0  0
  153.8321  138.3456  160.2513 C   0  0  0  0  0  0  0  0  0  0  0  0
  154.7172  139.5960  160.4485 C   0  0  1  0  0  0  0  0  0  0  0  0
  155.6788  139.6400  159.4124 O   0  0  0  0  0  0  0  0  0  0  0  0
  153.8749  140.8626  160.4736 C   0  0  0  0  0  0  0  0  0  0  0  0
  153.3684  141.4138  159.2756 C   0  0  0  0  0  0  0  0  0  0  0  0
  152.5827  142.5822  159.3075 C   0  0  0  0  0  0  0  0  0  0  0  0
  152.2974  143.2063  160.5374 C   0  0  0  0  0  0  0  0  0  0  0  0
  151.3349  144.6376  160.5773 Cl  0  0  0  0  0  0  0  0  0  0  0  0
  152.7970  142.6592  161.7352 C   0  0  0  0  0  0  0  0  0  0  0  0
  153.5819  141.4902  161.7035 C   0  0  0  0  0  0  0  0  0  0  0  0
  154.3536  136.0043  160.8416 C   0  0  0  0  0  0  0  0  0  0  0  0
  154.3220  135.6533  159.6611 O   0  0  0  0  0  0  0  0  0  0  0  0
  154.6290  135.0947  161.9562 C   0  0  0  0  0  0  0  0  0  0  0  0
  154.8721  133.7358  161.5932 C   0  0  0  0  0  0  0  0  0  0  0  0
  155.0496  132.6317  161.2939 N   0  0  0  0  0  0  0  0  0  0  0  0
  154.6496  135.5162  163.2457 C   0  0  0  0  0  0  0  0  0  0  0  0
  154.9299  134.6130  164.4389 C   0  0  0  0  0  0  0  0  0  0  0  0
  153.6127  137.0436  165.5191 H   0  0  0  0  0  0  0  0  0  0  0  0
  154.1625  138.5885  164.8835 H   0  0  0  0  0  0  0  0  0  0  0  0
  155.3403  137.3832  165.3893 H   0  0  0  0  0  0  0  0  0  0  0  0
  153.9224  137.9708  159.2296 H   0  0  0  0  0  0  0  0  0  0  0  0
  152.7815  138.6237  160.3561 H   0  0  0  0  0  0  0  0  0  0  0  0
  155.2578  139.5280  161.3932 H   0  0  0  0  0  0  0  0  0  0  0  0
  156.4894  139.9677  159.7708 H   0  0  0  0  0  0  0  0  0  0  0  0
  153.5791  140.9404  158.3277 H   0  0  0  0  0  0  0  0  0  0  0  0
  152.1991  142.9979  158.3873 H   0  0  0  0  0  0  0  0  0  0  0  0
  152.5781  143.1350  162.6799 H   0  0  0  0  0  0  0  0  0  0  0  0
  153.9569  141.0772  162.6285 H   0  0  0  0  0  0  0  0  0  0  0  0
  155.0882  133.5762  164.1438 H   0  0  0  0  0  0  0  0  0  0  0  0
  154.0932  134.6292  165.1380 H   0  0  0  0  0  0  0  0  0  0  0  0
  155.8253  134.9443  164.9657 H   0  0  0  0  0  0  0  0  0  0  0  0
  1  2  1  0  0  0  0
  1 22  1  0  0  0  0
  1 23  1  0  0  0  0
  1 24  1  0  0  0  0
  2 20  1  0  0  0  0
  2  3  2  0  0  0  0
  3  4  1  0  0  0  0
  4  5  1  0  0  0  0
  4 15  1  0  0  0  0
  5  6  1  0  0  0  0
  5 25  1  0  0  0  0
  5 26  1  0  0  0  0
  6  7  1  0  0  0  0
  6  8  1  0  0  0  0
  6 27  1  0  0  0  0
  7 28  1  0  0  0  0
  8 14  1  0  0  0  0
  8  9  2  0  0  0  0
  9 10  1  0  0  0  0
  9 29  1  0  0  0  0
 10 11  2  0  0  0  0
 10 30  1  0  0  0  0
 11 12  1  0  0  0  0
 11 13  1  0  0  0  0
 13 14  2  0  0  0  0
 13 31  1  0  0  0  0
 14 32  1  0  0  0  0
 15 16  2  0  0  0  0
 15 17  1  0  0  0  0
 17 18  1  0  0  0  0
 17 20  2  0  0  0  0
 18 19  3  0  0  0  0
 20 21  1  0  0  0  0
 21 33  1  0  0  0  0
 21 34  1  0  0  0  0
 21 35  1  0  0  0  0
M  END
> <s_m_source_file>
AV-unprocessed.smi

> <i_m_source_file_index>
350

> <i_lp_mmshare_version>
43012

> <i_f3d_flags>
0

> <s_epik_input>
TiNDYyhjMVtDSDNdKWMoPU8pbihuYzFbQ0gzXSlbQ0gyXVtDQEhdKFtPSF0pYzJbY0hdW2NIXWMoQ2wpW2NIXVtjSF0y

> <s_epik_cmdline>
J2VwaWtfcHl0aG9uJywgJy1waCcsICc3LjAnLCAnLXRuJywgJzgnLCAnLW1hJywgJzIwMCcsICctbWV0YWxfYmluZGluZycsICctaW1hZScsICc8aW5maWxlLm1hZT4nLCAnLW9tYWUnLCAnPG91dGZpbGUubWFlPic=

> <r_lp_tautomer_probability>
1

> <r_epik_Ionization_Penalty>
1.17315e-07

> <r_epik_Ionization_Penalty_Charging>
1.40848e-10

> <r_epik_Ionization_Penalty_Neutral>
1.17174e-07

> <r_epik_State_Penalty>
-0

> <r_epik_Charging_Adjusted_Penalty>
1.40848e-10

> <i_epik_Tot_Q>
0

> <i_epik_Tot_abs_Q>
0

> <r_epik_Metal_State_Penalty>
-0

> <b_epik_Metal_Only>
0

> <s_lp_Force_Field>
OPLS_2005

> <r_lp_Energy>
28.138

> <b_lp_Chiralities_Consistent>
1

> <s_lp_Variant>
AV-unprocessed.smi:350-2

> <Gold.Version>
5.8.1

> <Gold.Id.Protein>
6NUR|6NUR_protein|mol2

> <Gold.PLP.Fitness>
48.6598

> <Gold.PLP.PLP>
-45.0771

> <Gold.PLP.part.hbond>
-2.0000

> <Gold.PLP.part.metal>
0.0000

> <Gold.PLP.part.buried>
-5.2132

> <Gold.PLP.part.nonpolar>
-38.1026

> <Gold.PLP.part.repulsive>
0.0000

> <Gold.PLP.ligand.clash>
0.0000

> <Gold.PLP.ligand.torsion>
1.2126

> <Gold.PLP.Chemscore.Hbond>
2.0000

> <Gold.PLP.Chemscore.CHOScore>
0.0000

> <Gold.PLP.Chemscore.Metal>
0.0000

> <Gold.Chemscore.Hbonds>
donor molecule, donor type, donor heavy atom, donor atom, acceptor molecule, acceptor atom, score
      P1  H  6896  6907       L1    16  0.46
      P1  H  7997  8009       L1     7  0.73

> <Gold.PLP.Chemscore.Internal.Correction>
0.0079

> <Gold.Rescore>
     Score         DG    S(hbond)    S(metal)    S(lipo)     H(rot)  DE(clash)    DE(int)     intcor
     17.68     -19.01       1.19        0.00     123.44       1.90       0.06       1.27       ----

> <Gold.Chemscore.Fitness>
17.6832

> <Gold.Chemscore.DG>
-19.0099

> <Gold.Chemscore.ZeroCoef>
-5.4800

> <Gold.Chemscore.Hbond>
1.1865

> <Gold.Chemscore.Metal>
0.0000

> <Gold.Chemscore.Lipo>
123.4429

> <Gold.Chemscore.Internal_Hbond>
0.0000

> <Gold.Chemscore.DEClash>
0.0563

> <Gold.Chemscore.DEInternal>
1.2703

> <Gold.Chemscore.Rot>
1.9047

> <Gold.Chemscore.Internal.Correction>
   9.000000E+99

> <Gold.Chemscore.Hbonds>
donor molecule, donor type, donor heavy atom, donor atom, acceptor molecule, acceptor atom, score
      P1  H  6896  6907       L1    16  0.04
      P1  H  7997  8009       L1     7  0.68

> <Gold.Chemscore.Hbond.Weighted>
-3.9631

> <Gold.Chemscore.Metal.Weighted>
-0.0000

> <Gold.Chemscore.Lipo.Weighted>
-14.4428

> <Gold.Chemscore.Internal_Hbond.Weighted>
0.0000

> <Gold.Chemscore.DEClash.Weighted>
0.0563

> <Gold.Chemscore.DEInternal.Weighted>
1.2703

> <Gold.Chemscore.Rot.Weighted>
4.8760

> <Gold.Chemscore.Internal.Correction.Weighted>
   9.000000E+99

> <Gold.Protein.RotatedTorsions>
[ 6907 6896 6895 6894 ] final   74.17 input  -60.11 | X-H torsion
[ 7974 7965 7964 7962 ] final  111.75 input  175.53 | X-H torsion
[ 8008 7997 7996 7995 ] final  115.65 input   59.86 | X-H torsion
[ 10167 10162 10161 10158 ] final -159.09 input  -65.29 | X-H torsion
[ 10718 10713 10712 10709 ] final  116.93 input   66.30 | X-H torsion
[ 10763 10752 10751 10750 ] final -150.92 input  -60.55 | X-H torsion
[ 11005 11000 10999 10996 ] final -144.43 input  -57.11 | X-H torsion

> <Gold.Protein.ActiveResidues>
 VAL166  LYS551  ARG553  GLY616  TRP617  ASP618  TYR619  PRO620  LYS621  CYS622 
 ASP623  PHE694  ASN695  SER759  ASP760  ASP761  ALA762  ILE779  LEU786  VAL792 
 PHE793  MET794  SER795  GLU796  ALA797  LYS798  CYS799  TRP800  GLU811  SER814 

> <Gold.Protein.RotatedAtoms>
  152.4962  134.4312  159.9512 H   0  0  0  0  0  0  0  0  0  0  0  0  # atno 6907 bound_to 6896
  151.4290  133.3669  159.2774 H   0  0  0  0  0  0  0  0  0  0  0  0  # atno 6908 bound_to 6896
  150.9168  134.8608  159.7522 H   0  0  0  0  0  0  0  0  0  0  0  0  # atno 6909 bound_to 6896
  145.2383  139.2790  143.4131 H   0  0  0  0  0  0  0  0  0  0  0  0  # atno 7974 bound_to 7965
  156.2394  140.2934  156.0402 H   0  0  0  0  0  0  0  0  0  0  0  0  # atno 8008 bound_to 7997
  155.1996  140.0409  157.2932 H   0  0  0  0  0  0  0  0  0  0  0  0  # atno 8009 bound_to 7997
  154.6139  140.2459  155.7641 H   0  0  0  0  0  0  0  0  0  0  0  0  # atno 8010 bound_to 7997
  139.6642  143.9859  152.2244 H   0  0  0  0  0  0  0  0  0  0  0  0  # atno 10167 bound_to 10162
  157.6129  131.1031  150.7542 H   0  0  0  0  0  0  0  0  0  0  0  0  # atno 10718 bound_to 10713
  154.8090  135.3272  154.7356 H   0  0  0  0  0  0  0  0  0  0  0  0  # atno 10763 bound_to 10752
  153.8009  135.6903  153.4860 H   0  0  0  0  0  0  0  0  0  0  0  0  # atno 10764 bound_to 10752
  153.1854  135.4570  155.0028 H   0  0  0  0  0  0  0  0  0  0  0  0  # atno 10765 bound_to 10752
  140.8024  134.2840  157.4973 H   0  0  0  0  0  0  0  0  0  0  0  0  # atno 11005 bound_to 11000
  146.3335  140.2738  142.8607 LP  0  0  0  0  0  0  0  0  0  0  0  0  # atno 17320 bound_to 7965
  144.9613  140.8277  143.5512 LP  0  0  0  0  0  0  0  0  0  0  0  0  # atno 17321 bound_to 7965
  139.9606  144.6560  150.8083 LP  0  0  0  0  0  0  0  0  0  0  0  0  # atno 17342 bound_to 10162
  140.7592  143.3124  151.2813 LP  0  0  0  0  0  0  0  0  0  0  0  0  # atno 17343 bound_to 10162
  156.7916  130.4892  149.5384 LP  0  0  0  0  0  0  0  0  0  0  0  0  # atno 17370 bound_to 10713
  156.1239  130.6130  151.0235 LP  0  0  0  0  0  0  0  0  0  0  0  0  # atno 17371 bound_to 10713
  139.8720  134.9437  156.3861 LP  0  0  0  0  0  0  0  0  0  0  0  0  # atno 17394 bound_to 11000
  140.9281  133.7598  155.9989 LP  0  0  0  0  0  0  0  0  0  0  0  0  # atno 17395 bound_to 11000

$$$$
