AV-unprocessed.smi:508|AV-procd|sdf|2759|dock9
  -GOLD-   2262023223D 1   1.00000     0.00000
 Structure written by MMmdl.
 48 50  0  0  0  0  0  0  0  0  2 V2000
  146.7476  142.4209  154.1176 C   0  0  0  0  0  0  0  0  0  0  0  0
  147.7284  141.3756  153.5814 C   0  0  0  0  0  0  0  0  0  0  0  0
  149.0386  141.7168  154.0005 O   0  0  0  0  0  0  0  0  0  0  0  0
  149.3043  141.3292  155.3382 C   0  0  0  0  0  0  0  0  0  0  0  0
  150.6697  141.8989  155.7487 C   0  0  0  0  0  0  0  0  0  0  0  0
  151.3670  141.0608  156.7192 N   0  0  0  0  0  0  0  0  0  0  0  0
  151.8181  141.4016  157.9575 C   0  0  0  0  0  0  0  0  0  0  0  0
  151.5976  142.6662  158.5084 N   0  0  0  0  0  0  0  0  0  0  0  0
  151.6513  143.9113  157.7460 C   0  0  0  0  0  0  0  0  0  0  0  0
  152.5613  145.0025  158.3443 C   0  0  0  0  0  0  0  0  0  0  0  0
  151.9515  145.6831  159.5787 C   0  0  0  0  0  0  0  0  0  0  0  0
  152.1520  144.9262  160.9041 C   0  0  0  0  0  0  0  0  0  0  0  0
  152.0255  143.3927  160.8419 C   0  0  0  0  0  0  0  0  0  0  0  0
  151.0015  142.8585  159.8278 C   0  0  0  0  0  0  0  0  0  0  0  0
  152.5009  140.4410  158.5848 N   0  0  0  0  0  0  0  0  0  0  0  0
  152.4551  139.3899  157.6823 C   0  0  0  0  0  0  0  0  0  0  0  0
  151.7800  139.7352  156.5544 C   0  0  0  0  0  0  0  0  0  0  0  0
  151.5834  138.8266  155.4046 C   0  0  0  0  0  0  0  0  0  0  0  0
  150.9774  139.1950  154.4005 O   0  0  0  0  0  0  0  0  0  0  0  0
  152.1425  137.5936  155.6200 N   0  5  0  0  0  0  0  0  0  0  0  0
  152.8308  137.1999  156.7483 C   0  0  0  0  0  0  0  0  0  0  0  0
  153.2974  136.0654  156.8544 O   0  0  0  0  0  0  0  0  0  0  0  0
  153.0045  138.0846  157.7825 N   0  0  0  0  0  0  0  0  0  0  0  0
  153.7321  137.7478  159.0101 C   0  0  0  0  0  0  0  0  0  0  0  0
  145.7266  142.1894  153.8139 H   0  0  0  0  0  0  0  0  0  0  0  0
  146.9917  143.4148  153.7419 H   0  0  0  0  0  0  0  0  0  0  0  0
  146.7728  142.4580  155.2067 H   0  0  0  0  0  0  0  0  0  0  0  0
  147.4591  140.3872  153.9567 H   0  0  0  0  0  0  0  0  0  0  0  0
  147.6783  141.3420  152.4920 H   0  0  0  0  0  0  0  0  0  0  0  0
  148.5164  141.7025  155.9905 H   0  0  0  0  0  0  0  0  0  0  0  0
  149.3010  140.2420  155.4202 H   0  0  0  0  0  0  0  0  0  0  0  0
  151.3058  142.0207  154.8724 H   0  0  0  0  0  0  0  0  0  0  0  0
  150.5592  142.9015  156.1551 H   0  0  0  0  0  0  0  0  0  0  0  0
  151.9833  143.6803  156.7360 H   0  0  0  0  0  0  0  0  0  0  0  0
  150.6378  144.2967  157.6283 H   0  0  0  0  0  0  0  0  0  0  0  0
  153.5610  144.6292  158.5610 H   0  0  0  0  0  0  0  0  0  0  0  0
  152.6945  145.7665  157.5779 H   0  0  0  0  0  0  0  0  0  0  0  0
  152.3843  146.6780  159.6884 H   0  0  0  0  0  0  0  0  0  0  0  0
  150.8872  145.8488  159.4076 H   0  0  0  0  0  0  0  0  0  0  0  0
  153.1337  145.1696  161.3119 H   0  0  0  0  0  0  0  0  0  0  0  0
  151.4325  145.3150  161.6255 H   0  0  0  0  0  0  0  0  0  0  0  0
  153.0014  142.9485  160.6384 H   0  0  0  0  0  0  0  0  0  0  0  0
  151.7531  143.0400  161.8371 H   0  0  0  0  0  0  0  0  0  0  0  0
  150.1230  143.5028  159.7745 H   0  0  0  0  0  0  0  0  0  0  0  0
  150.6397  141.8918  160.1798 H   0  0  0  0  0  0  0  0  0  0  0  0
  154.1902  136.7586  159.0052 H   0  0  0  0  0  0  0  0  0  0  0  0
  153.0562  137.7912  159.8644 H   0  0  0  0  0  0  0  0  0  0  0  0
  154.5312  138.4704  159.1782 H   0  0  0  0  0  0  0  0  0  0  0  0
  1  2  1  0  0  0  0
  1 25  1  0  0  0  0
  1 26  1  0  0  0  0
  1 27  1  0  0  0  0
  2  3  1  0  0  0  0
  2 28  1  0  0  0  0
  2 29  1  0  0  0  0
  3  4  1  0  0  0  0
  4  5  1  0  0  0  0
  4 30  1  0  0  0  0
  4 31  1  0  0  0  0
  5  6  1  0  0  0  0
  5 32  1  0  0  0  0
  5 33  1  0  0  0  0
  6 17  1  0  0  0  0
  6  7  1  0  0  0  0
  7  8  1  0  0  0  0
  7 15  2  0  0  0  0
  8 14  1  0  0  0  0
  8  9  1  0  0  0  0
  9 10  1  0  0  0  0
  9 34  1  0  0  0  0
  9 35  1  0  0  0  0
 10 11  1  0  0  0  0
 10 36  1  0  0  0  0
 10 37  1  0  0  0  0
 11 12  1  0  0  0  0
 11 38  1  0  0  0  0
 11 39  1  0  0  0  0
 12 13  1  0  0  0  0
 12 40  1  0  0  0  0
 12 41  1  0  0  0  0
 13 14  1  0  0  0  0
 13 42  1  0  0  0  0
 13 43  1  0  0  0  0
 14 44  1  0  0  0  0
 14 45  1  0  0  0  0
 15 16  1  0  0  0  0
 16 23  1  0  0  0  0
 16 17  2  0  0  0  0
 17 18  1  0  0  0  0
 18 19  2  0  0  0  0
 18 20  1  0  0  0  0
 20 21  1  0  0  0  0
 21 22  2  0  0  0  0
 21 23  1  0  0  0  0
 23 24  1  0  0  0  0
 24 46  1  0  0  0  0
 24 47  1  0  0  0  0
 24 48  1  0  0  0  0
M  CHG  1  20  -1
M  END
> <s_m_source_file>
AV-unprocessed.smi

> <i_m_source_file_index>
508

> <i_lp_mmshare_version>
43012

> <i_f3d_flags>
0

> <s_epik_input>
W0NIM11uMWMoPU8pW25IXWMoPU8pYyhjMTIpbihbQ0gyXVtDSDJdT1tDSDJdW0NIM10pYyhuMilOM1tDSDJdW0NIMl1bQ0gyXVtDSDJdW0NIMl1bQ0gyXTM=

> <s_epik_cmdline>
J2VwaWtfcHl0aG9uJywgJy1waCcsICc3LjAnLCAnLXRuJywgJzgnLCAnLW1hJywgJzIwMCcsICctbWV0YWxfYmluZGluZycsICctaW1hZScsICc8aW5maWxlLm1hZT4nLCAnLW9tYWUnLCAnPG91dGZpbGUubWFlPic=

> <r_lp_tautomer_probability>
1

> <r_epik_Ionization_Penalty>
6.1764

> <r_epik_Ionization_Penalty_Charging>
0.0751667

> <r_epik_Ionization_Penalty_Neutral>
6.10123

> <r_epik_State_Penalty>
6.09793

> <r_epik_Charging_Adjusted_Penalty>
6.17309

> <i_epik_Tot_Q>
-1

> <i_epik_Tot_abs_Q>
1

> <r_epik_Metal_State_Penalty>
2.04406

> <b_epik_Metal_Only>
1

> <s_lp_Force_Field>
OPLS_2005

> <r_lp_Energy>
49.0985

> <b_lp_Chiralities_Consistent>
1

> <s_lp_Variant>
AV-unprocessed.smi:508-2

> <Gold.Version>
5.8.1

> <Gold.Id.Protein>
6NUR|6NUR_protein|mol2

> <Gold.PLP.Fitness>
52.3812

> <Gold.PLP.PLP>
-46.0349

> <Gold.PLP.part.hbond>
-3.9303

> <Gold.PLP.part.metal>
0.0000

> <Gold.PLP.part.buried>
-3.3783

> <Gold.PLP.part.nonpolar>
-38.7403

> <Gold.PLP.part.repulsive>
0.3604

> <Gold.PLP.ligand.clash>
0.0000

> <Gold.PLP.ligand.torsion>
1.0911

> <Gold.PLP.Chemscore.Hbond>
2.5920

> <Gold.PLP.Chemscore.CHOScore>
0.0000

> <Gold.PLP.Chemscore.Metal>
0.0000

> <Gold.Chemscore.Hbonds>
donor molecule, donor type, donor heavy atom, donor atom, acceptor molecule, acceptor atom, score
      P1  H  7989  7998       L1    19  1.00
      P1  H  8011  8017       L1     3  0.58
      P1  H 10752 10763       L1    22  1.00

> <Gold.PLP.Chemscore.Internal.Correction>
0.7526

> <Gold.Rescore>
     Score         DG    S(hbond)    S(metal)    S(lipo)     H(rot)  DE(clash)    DE(int)     intcor
     16.45     -21.28       1.98        0.00     112.49       1.55       1.48       3.35       ----

> <Gold.Chemscore.Fitness>
16.4473

> <Gold.Chemscore.DG>
-21.2768

> <Gold.Chemscore.ZeroCoef>
-5.4800

> <Gold.Chemscore.Hbond>
1.9797

> <Gold.Chemscore.Metal>
0.0000

> <Gold.Chemscore.Lipo>
112.4893

> <Gold.Chemscore.Internal_Hbond>
0.0000

> <Gold.Chemscore.DEClash>
1.4764

> <Gold.Chemscore.DEInternal>
3.3531

> <Gold.Chemscore.Rot>
1.5534

> <Gold.Chemscore.Internal.Correction>
   9.000000E+99

> <Gold.Chemscore.Hbonds>
donor molecule, donor type, donor heavy atom, donor atom, acceptor molecule, acceptor atom, score
      P1  H  7989  7998       L1    19  0.91
      P1  H  8011  8017       L1     3  0.17
      P1  H 10752 10763       L1    22  0.90

> <Gold.Chemscore.Hbond.Weighted>
-6.6123

> <Gold.Chemscore.Metal.Weighted>
-0.0000

> <Gold.Chemscore.Lipo.Weighted>
-13.1612

> <Gold.Chemscore.Internal_Hbond.Weighted>
0.0000

> <Gold.Chemscore.DEClash.Weighted>
1.4764

> <Gold.Chemscore.DEInternal.Weighted>
3.3531

> <Gold.Chemscore.Rot.Weighted>
3.9768

> <Gold.Chemscore.Internal.Correction.Weighted>
   9.000000E+99

> <Gold.Protein.RotatedTorsions>
[ 6907 6896 6895 6894 ] final   27.79 input  -60.11 | X-H torsion
[ 7974 7965 7964 7962 ] final -132.83 input  175.53 | X-H torsion
[ 8008 7997 7996 7995 ] final   75.05 input   59.86 | X-H torsion
[ 10167 10162 10161 10158 ] final  112.36 input  -65.29 | X-H torsion
[ 10718 10713 10712 10709 ] final   32.45 input   66.30 | X-H torsion
[ 10763 10752 10751 10750 ] final  132.44 input  -60.55 | X-H torsion
[ 11005 11000 10999 10996 ] final    0.32 input  -57.11 | X-H torsion

> <Gold.Protein.ActiveResidues>
 VAL166  LYS551  ARG553  GLY616  TRP617  ASP618  TYR619  PRO620  LYS621  CYS622 
 ASP623  PHE694  ASN695  SER759  ASP760  ASP761  ALA762  ILE779  LEU786  VAL792 
 PHE793  MET794  SER795  GLU796  ALA797  LYS798  CYS799  TRP800  GLU811  SER814 

> <Gold.Protein.RotatedAtoms>
  152.0075  134.9895  160.0566 H   0  0  0  0  0  0  0  0  0  0  0  0  # atno 6907 bound_to 6896
  152.1461  133.4488  159.4798 H   0  0  0  0  0  0  0  0  0  0  0  0  # atno 6908 bound_to 6896
  150.6870  134.2164  159.4423 H   0  0  0  0  0  0  0  0  0  0  0  0  # atno 6909 bound_to 6896
  144.9249  140.7059  143.4942 H   0  0  0  0  0  0  0  0  0  0  0  0  # atno 7974 bound_to 7965
  155.8072  140.3474  155.5437 H   0  0  0  0  0  0  0  0  0  0  0  0  # atno 8008 bound_to 7997
  155.8478  140.0951  157.1714 H   0  0  0  0  0  0  0  0  0  0  0  0  # atno 8009 bound_to 7997
  154.4007  140.1382  156.3794 H   0  0  0  0  0  0  0  0  0  0  0  0  # atno 8010 bound_to 7997
  139.6542  144.7129  151.1990 H   0  0  0  0  0  0  0  0  0  0  0  0  # atno 10167 bound_to 10162
  157.2853  130.7275  149.6580 H   0  0  0  0  0  0  0  0  0  0  0  0  # atno 10718 bound_to 10713
  153.7908  135.3155  155.3378 H   0  0  0  0  0  0  0  0  0  0  0  0  # atno 10763 bound_to 10752
  154.8126  135.4657  154.0561 H   0  0  0  0  0  0  0  0  0  0  0  0  # atno 10764 bound_to 10752
  153.1878  135.6904  153.8478 H   0  0  0  0  0  0  0  0  0  0  0  0  # atno 10765 bound_to 10752
  140.6279  133.9602  155.8259 H   0  0  0  0  0  0  0  0  0  0  0  0  # atno 11005 bound_to 11000
  145.3235  139.1781  143.4575 LP  0  0  0  0  0  0  0  0  0  0  0  0  # atno 17320 bound_to 7965
  146.3221  140.3256  142.8636 LP  0  0  0  0  0  0  0  0  0  0  0  0  # atno 17321 bound_to 7965
  140.7551  143.6100  150.8615 LP  0  0  0  0  0  0  0  0  0  0  0  0  # atno 17342 bound_to 10162
  139.9751  143.6013  152.2961 LP  0  0  0  0  0  0  0  0  0  0  0  0  # atno 17343 bound_to 10162
  155.9665  130.4325  150.4967 LP  0  0  0  0  0  0  0  0  0  0  0  0  # atno 17370 bound_to 10713
  157.2919  131.0628  151.2128 LP  0  0  0  0  0  0  0  0  0  0  0  0  # atno 17371 bound_to 10713
  141.0696  134.0225  157.3545 LP  0  0  0  0  0  0  0  0  0  0  0  0  # atno 17394 bound_to 11000
  139.9127  135.0192  156.7759 LP  0  0  0  0  0  0  0  0  0  0  0  0  # atno 17395 bound_to 11000

$$$$
