AV-unprocessed.smi:2089|AV-procd|sdf|8531|dock1
  -GOLD-   2272011253D 1   1.00000     0.00000
 Structure written by MMmdl.
 40 41  0  0  0  0  0  0  0  0  2 V2000
  147.4052  134.5477  161.6333 C   0  0  0  0  0  0  0  0  0  0  0  0
  147.0896  136.1297  160.7497 S   0  0  0  0  0  0  0  0  0  0  0  0
  145.6559  136.2343  160.4384 O   0  0  0  0  0  0  0  0  0  0  0  0
  147.7586  137.2090  161.4923 O   0  0  0  0  0  0  0  0  0  0  0  0
  147.9392  135.9084  159.2560 N   0  0  0  0  0  0  0  0  0  0  0  0
  147.7121  134.6682  158.5008 C   0  0  0  0  0  0  0  0  0  0  0  0
  147.3012  135.1089  157.0992 C   0  0  0  0  0  0  0  0  0  0  0  0
  148.0481  136.4213  156.9194 C   0  0  0  0  0  0  0  0  0  0  0  0
  148.0163  137.0464  158.3235 C   0  0  2  0  0  0  0  0  0  0  0  0
  149.2055  137.9771  158.5899 C   0  0  0  0  0  0  0  0  0  0  0  0
  149.9394  137.7892  159.5607 O   0  0  0  0  0  0  0  0  0  0  0  0
  149.3706  138.9968  157.7352 N   0  0  0  0  0  0  0  0  0  0  0  0
  150.4072  140.0110  157.8607 C   0  0  0  0  0  0  0  0  0  0  0  0
  149.7947  141.3751  158.2049 C   0  0  0  0  0  0  0  0  0  0  0  0
  150.8528  142.4449  158.3945 C   0  0  0  0  0  0  0  0  0  0  0  0
  151.9124  142.3004  159.3165 C   0  0  0  0  0  0  0  0  0  0  0  0
  152.8570  143.3397  159.4485 C   0  0  0  0  0  0  0  0  0  0  0  0
  152.7215  144.5004  158.6590 C   0  0  0  0  0  0  0  0  0  0  0  0
  151.6432  144.5929  157.7557 C   0  0  0  0  0  0  0  0  0  0  0  0
  150.7592  143.5756  157.6576 N   0  3  0  0  0  0  0  0  0  0  0  0
  146.9300  134.5796  162.6135 H   0  0  0  0  0  0  0  0  0  0  0  0
  148.4789  134.4088  161.7568 H   0  0  0  0  0  0  0  0  0  0  0  0
  146.9949  133.7160  161.0616 H   0  0  0  0  0  0  0  0  0  0  0  0
  148.6442  134.1031  158.4703 H   0  0  0  0  0  0  0  0  0  0  0  0
  146.9514  134.0420  158.9675 H   0  0  0  0  0  0  0  0  0  0  0  0
  147.5463  134.3721  156.3340 H   0  0  0  0  0  0  0  0  0  0  0  0
  146.2252  135.2861  157.0662 H   0  0  0  0  0  0  0  0  0  0  0  0
  149.0685  136.2178  156.5905 H   0  0  0  0  0  0  0  0  0  0  0  0
  147.5780  137.0594  156.1706 H   0  0  0  0  0  0  0  0  0  0  0  0
  147.0868  137.6118  158.4154 H   0  0  0  0  0  0  0  0  0  0  0  0
  148.7193  139.0892  156.9689 H   0  0  0  0  0  0  0  0  0  0  0  0
  151.1097  139.7071  158.6382 H   0  0  0  0  0  0  0  0  0  0  0  0
  150.9671  140.0772  156.9263 H   0  0  0  0  0  0  0  0  0  0  0  0
  149.1084  141.6866  157.4159 H   0  0  0  0  0  0  0  0  0  0  0  0
  149.2016  141.3007  159.1178 H   0  0  0  0  0  0  0  0  0  0  0  0
  152.0014  141.4069  159.9175 H   0  0  0  0  0  0  0  0  0  0  0  0
  153.6752  143.2482  160.1477 H   0  0  0  0  0  0  0  0  0  0  0  0
  153.4337  145.3081  158.7461 H   0  0  0  0  0  0  0  0  0  0  0  0
  151.4621  145.4432  157.1143 H   0  0  0  0  0  0  0  0  0  0  0  0
  149.9854  143.6643  156.9982 H   0  0  0  0  0  0  0  0  0  0  0  0
  1  2  1  0  0  0  0
  1 21  1  0  0  0  0
  1 22  1  0  0  0  0
  1 23  1  0  0  0  0
  2  3  2  0  0  0  0
  2  4  2  0  0  0  0
  2  5  1  0  0  0  0
  5  9  1  0  0  0  0
  5  6  1  0  0  0  0
  6  7  1  0  0  0  0
  6 24  1  0  0  0  0
  6 25  1  0  0  0  0
  7  8  1  0  0  0  0
  7 26  1  0  0  0  0
  7 27  1  0  0  0  0
  8  9  1  0  0  0  0
  8 28  1  0  0  0  0
  8 29  1  0  0  0  0
  9 10  1  0  0  0  0
  9 30  1  0  0  0  0
 10 11  2  0  0  0  0
 10 12  1  0  0  0  0
 12 13  1  0  0  0  0
 12 31  1  0  0  0  0
 13 14  1  0  0  0  0
 13 32  1  0  0  0  0
 13 33  1  0  0  0  0
 14 15  1  0  0  0  0
 14 34  1  0  0  0  0
 14 35  1  0  0  0  0
 15 20  1  0  0  0  0
 15 16  2  0  0  0  0
 16 17  1  0  0  0  0
 16 36  1  0  0  0  0
 17 18  2  0  0  0  0
 17 37  1  0  0  0  0
 18 19  1  0  0  0  0
 18 38  1  0  0  0  0
 19 20  2  0  0  0  0
 19 39  1  0  0  0  0
 20 40  1  0  0  0  0
M  CHG  1  20   1
M  END
> <s_m_source_file>
AV-unprocessed.smi

> <i_m_source_file_index>
2089

> <i_lp_mmshare_version>
43012

> <i_f3d_flags>
0

> <s_epik_input>
W0NIM11TKD1PKSg9TylOMVtDSDJdW0NIMl1bQ0gyXVtDQEhdMUMoPU8pW05IXVtDSDJdW0NIMl1jMltjSF1bY0hdW2NIXVtjSF1uMg==

> <s_epik_cmdline>
J2VwaWtfcHl0aG9uJywgJy1waCcsICc3LjAnLCAnLXRuJywgJzgnLCAnLW1hJywgJzIwMCcsICctbWV0YWxfYmluZGluZycsICctaW1hZScsICc8aW5maWxlLm1hZT4nLCAnLW9tYWUnLCAnPG91dGZpbGUubWFlPic=

> <r_epik_Ionization_Penalty>
1.90116

> <r_epik_Ionization_Penalty_Charging>
1.90116

> <r_epik_Ionization_Penalty_Neutral>
1.4017e-07

> <r_epik_State_Penalty>
2.02245

> <r_epik_Charging_Adjusted_Penalty>
3.9236

> <i_epik_Tot_Q>
1

> <i_epik_Tot_abs_Q>
1

> <r_epik_Metal_State_Penalty>
2.04621

> <b_epik_Metal_Only>
0

> <s_lp_Force_Field>
OPLS_2005

> <r_lp_Energy>
13.4041

> <b_lp_Chiralities_Consistent>
1

> <s_lp_Variant>
AV-unprocessed.smi:2089-4

> <Gold.Version>
5.8.1

> <Gold.Id.Protein>
6NUR|6NUR_protein|mol2

> <Gold.PLP.Fitness>
42.3688

> <Gold.PLP.PLP>
-31.3998

> <Gold.PLP.part.hbond>
-4.0000

> <Gold.PLP.part.metal>
0.0000

> <Gold.PLP.part.buried>
-4.4190

> <Gold.PLP.part.nonpolar>
-22.9143

> <Gold.PLP.part.repulsive>
0.1086

> <Gold.PLP.ligand.clash>
0.0000

> <Gold.PLP.ligand.torsion>
0.3286

> <Gold.PLP.Chemscore.Hbond>
3.7040

> <Gold.PLP.Chemscore.CHOScore>
0.0000

> <Gold.PLP.Chemscore.Metal>
0.0000

> <Gold.Chemscore.Hbonds>
donor molecule, donor type, donor heavy atom, donor atom, acceptor molecule, acceptor atom, score
      L1  H    20    40       P1  8028  2.00
      P1  H  6931  6943       L1     4  1.00
      P1  H  6934  6947       L1     4  0.74

> <Gold.PLP.Chemscore.Internal.Correction>
0.5141

> <Gold.Rescore>
     Score         DG    S(hbond)    S(metal)    S(lipo)     H(rot)  DE(clash)    DE(int)     intcor
     16.92     -18.34       2.72        0.00      76.19       2.00       0.02       1.40       ----

> <Gold.Chemscore.Fitness>
16.9180

> <Gold.Chemscore.DG>
-18.3414

> <Gold.Chemscore.ZeroCoef>
-5.4800

> <Gold.Chemscore.Hbond>
2.7179

> <Gold.Chemscore.Metal>
0.0000

> <Gold.Chemscore.Lipo>
76.1934

> <Gold.Chemscore.Internal_Hbond>
0.0000

> <Gold.Chemscore.DEClash>
0.0211

> <Gold.Chemscore.DEInternal>
1.4022

> <Gold.Chemscore.Rot>
2.0043

> <Gold.Chemscore.Internal.Correction>
   9.000000E+99

> <Gold.Chemscore.Hbonds>
donor molecule, donor type, donor heavy atom, donor atom, acceptor molecule, acceptor atom, score
      L1  H    20    40       P1  8028  0.89
      P1  H  6931  6943       L1     4  0.95
      P1  H  6934  6947       L1     4  0.64

> <Gold.Chemscore.Hbond.Weighted>
-9.0777

> <Gold.Chemscore.Metal.Weighted>
-0.0000

> <Gold.Chemscore.Lipo.Weighted>
-8.9146

> <Gold.Chemscore.Internal_Hbond.Weighted>
0.0000

> <Gold.Chemscore.DEClash.Weighted>
0.0211

> <Gold.Chemscore.DEInternal.Weighted>
1.4022

> <Gold.Chemscore.Rot.Weighted>
5.1309

> <Gold.Chemscore.Internal.Correction.Weighted>
   9.000000E+99

> <Gold.Protein.RotatedTorsions>
[ 6907 6896 6895 6894 ] final  170.24 input  -60.11 | X-H torsion
[ 7974 7965 7964 7962 ] final  164.22 input  175.53 | X-H torsion
[ 8008 7997 7996 7995 ] final -110.39 input   59.86 | X-H torsion
[ 10167 10162 10161 10158 ] final  132.30 input  -65.29 | X-H torsion
[ 10718 10713 10712 10709 ] final  -79.29 input   66.30 | X-H torsion
[ 10763 10752 10751 10750 ] final  175.50 input  -60.55 | X-H torsion
[ 11005 11000 10999 10996 ] final  157.80 input  -57.11 | X-H torsion

> <Gold.Protein.ActiveResidues>
 VAL166  LYS551  ARG553  GLY616  TRP617  ASP618  TYR619  PRO620  LYS621  CYS622 
 ASP623  PHE694  ASN695  SER759  ASP760  ASP761  ALA762  ILE779  LEU786  VAL792 
 PHE793  MET794  SER795  GLU796  ALA797  LYS798  CYS799  TRP800  GLU811  SER814 

> <Gold.Protein.RotatedAtoms>
  151.8192  133.3392  159.3578 H   0  0  0  0  0  0  0  0  0  0  0  0  # atno 6907 bound_to 6896
  150.7300  134.5589  159.5842 H   0  0  0  0  0  0  0  0  0  0  0  0  # atno 6908 bound_to 6896
  152.3018  134.7603  160.0407 H   0  0  0  0  0  0  0  0  0  0  0  0  # atno 6909 bound_to 6896
  144.7555  139.8294  143.6351 H   0  0  0  0  0  0  0  0  0  0  0  0  # atno 7974 bound_to 7965
  154.9738  140.0397  157.2246 H   0  0  0  0  0  0  0  0  0  0  0  0  # atno 8008 bound_to 7997
  154.7776  140.2813  155.6066 H   0  0  0  0  0  0  0  0  0  0  0  0  # atno 8009 bound_to 7997
  156.2931  140.2598  156.2594 H   0  0  0  0  0  0  0  0  0  0  0  0  # atno 8010 bound_to 7997
  139.5346  144.6668  151.4832 H   0  0  0  0  0  0  0  0  0  0  0  0  # atno 10167 bound_to 10162
  156.0096  130.4541  150.3626 H   0  0  0  0  0  0  0  0  0  0  0  0  # atno 10718 bound_to 10713
  154.4684  135.2770  155.1661 H   0  0  0  0  0  0  0  0  0  0  0  0  # atno 10763 bound_to 10752
  154.3420  135.6168  153.5604 H   0  0  0  0  0  0  0  0  0  0  0  0  # atno 10764 bound_to 10752
  152.9861  135.5791  154.5060 H   0  0  0  0  0  0  0  0  0  0  0  0  # atno 10765 bound_to 10752
  140.1804  134.8479  157.2796 H   0  0  0  0  0  0  0  0  0  0  0  0  # atno 11005 bound_to 11000
  146.1559  139.4657  143.0019 LP  0  0  0  0  0  0  0  0  0  0  0  0  # atno 17320 bound_to 7965
  145.6795  141.0195  143.1614 LP  0  0  0  0  0  0  0  0  0  0  0  0  # atno 17321 bound_to 7965
  140.6544  143.8629  150.6820 LP  0  0  0  0  0  0  0  0  0  0  0  0  # atno 17342 bound_to 10162
  140.2004  143.3964  152.1796 LP  0  0  0  0  0  0  0  0  0  0  0  0  # atno 17343 bound_to 10162
  157.1714  131.0369  151.2793 LP  0  0  0  0  0  0  0  0  0  0  0  0  # atno 17370 bound_to 10713
  157.4226  130.7446  149.6925 LP  0  0  0  0  0  0  0  0  0  0  0  0  # atno 17371 bound_to 10713
  140.2274  134.3950  155.7537 LP  0  0  0  0  0  0  0  0  0  0  0  0  # atno 17394 bound_to 11000
  141.2222  133.7197  156.8586 LP  0  0  0  0  0  0  0  0  0  0  0  0  # atno 17395 bound_to 11000

$$$$
