#       Name:                AV-unprocessed.smi:3210
#       Creating user name   scv26
#       Creation time:       Fri Mar 27 18:10:49 2020


#       File generated by GOLD software.
#

@<TRIPOS>MOLECULE
AV-unprocessed.smi:3210
    38    39     1
SMALL
NO_CHARGES


@<TRIPOS>ATOM
      1 ****        -0.4169   1.9316   1.1629 O.2            1 S1                 0.0000
      2 ****        -0.9858   1.3871   0.2157 C.2            1 S1                 0.0000
      3 ****        -0.6644  -0.0599  -0.1637 C.3            1 S1                 0.0000
      4 ****         0.3920  -0.6435   0.6884 N.4            1 S1                 1.0000
      5 ****         0.7238  -2.0436   0.3628 C.3            1 S1                 0.0000
      6 ****         1.8162  -2.5821   1.2978 C.3            1 S1                 0.0000
      7 ****         2.1533  -3.9601   0.9971 N.pl3          1 S1                 0.0000
      8 ****         1.8786  -5.0926   1.7351 C.2            1 S1                 0.0000
      9 ****         2.3991  -6.1560   1.0550 C.2            1 S1                 0.0000
     10 ****         2.9851  -5.5657  -0.0995 C.2            1 S1                 0.0000
     11 ****         2.8373  -4.2508  -0.1304 N.2            1 S1                 0.0000
     12 ****        -1.9101   2.0007  -0.5385 N.am           1 S1                 0.0000
     13 ****        -2.3649   3.3730  -0.3526 C.3            1 S1                 0.0000
     14 ****        -1.4120   4.4385  -0.8602 C.3            1 S1                 0.0000
     15 ****        -1.9009   5.8472  -1.1017 C.3            1 S1                 0.0000
     16 ****        -1.5169   4.9713  -2.2701 C.3            1 S1                 0.0000
     17 ****        -1.5721  -0.6587  -0.0769 H              1 S1                 0.0000
     18 ****        -0.3475  -0.0928  -1.2071 H              1 S1                 0.0000
     19 ****         1.2255  -0.0812   0.5901 H              1 S1                 0.0000
     20 ****        -0.1750  -2.6558   0.4482 H              1 S1                 0.0000
     21 ****         1.0542  -2.0975  -0.6754 H              1 S1                 0.0000
     22 ****         2.7222  -1.9796   1.2166 H              1 S1                 0.0000
     23 ****         1.4886  -2.5244   2.3367 H              1 S1                 0.0000
     24 ****         1.3417  -5.0496   2.6713 H              1 S1                 0.0000
     25 ****         2.3683  -7.1973   1.3400 H              1 S1                 0.0000
     26 ****         3.5100  -6.0500  -0.9097 H              1 S1                 0.0000
     27 ****        -2.3283   1.4829  -1.2983 H              1 S1                 0.0000
     28 ****        -3.3249   3.4817  -0.8579 H              1 S1                 0.0000
     29 ****        -2.5576   3.5542   0.7059 H              1 S1                 0.0000
     30 ****        -0.4070   4.3617  -0.4491 H              1 S1                 0.0000
     31 ****        -2.9598   6.0502  -0.9542 H              1 S1                 0.0000
     32 ****        -1.2294   6.6630  -0.8420 H              1 S1                 0.0000
     33 ****        -0.5894   5.2036  -2.7896 H              1 S1                 0.0000
     34 ****        -2.3206   4.5927  -2.8983 H              1 S1                 0.0000
     35 ****         0.0860  -0.5967   1.6499 H              1 S1                 0.0000
     36 ****         0.2640   1.4273   1.6941 LP             1 S1                 0.0000
     37 ****        -0.6359   2.8779   1.4008 LP             1 S1                 0.0000
     38 ****         3.1599  -3.6150  -0.8316 LP             1 S1                 0.0000
@<TRIPOS>BOND
    1    1    2 2     
    2    2    3 1     
    3    2   12 am    
    4    3    4 1     
    5    3   17 1     
    6    3   18 1     
    7    4    5 1     
    8    4   19 1     
    9    4   35 1     
   10    5    6 1     
   11    5   20 1     
   12    5   21 1     
   13    6    7 1     
   14    6   22 1     
   15    6   23 1     
   16    7   11 1     
   17    7    8 1     
   18    8    9 2     
   19    8   24 1     
   20    9   10 1     
   21    9   25 1     
   22   10   11 2     
   23   10   26 1     
   24   12   13 1     
   25   12   27 1     
   26   13   14 1     
   27   13   28 1     
   28   13   29 1     
   29   14   16 1     
   30   14   15 1     
   31   14   30 1     
   32   15   16 1     
   33   15   31 1     
   34   15   32 1     
   35   16   33 1     
   36   16   34 1     
   37    1   36 1     
   38    1   37 1     
   39   11   38 1     
@<TRIPOS>SUBSTRUCTURE
      1 S1             1
@<TRIPOS>SET
LONE_PAIRS      STATIC     ATOMS    <user>   **** ""
3 36 37 38
DONOR_HYDROGENS      STATIC     ATOMS    <user>   **** ""
3 19 35 27
ATOM$BLUE        STATIC     ATOMS    COLORGROUP SYSTEM
3 36 37 38
ATOM$RED        STATIC     ATOMS    COLORGROUP SYSTEM
3 19 35 27
