AV-unprocessed.smi:1005|AV-procd|sdf|4367|dock4
  -GOLD-   22720 2273D 1   1.00000     0.00000
 Structure written by MMmdl.
 57 59  0  0  0  0  0  0  0  0  3 V2000
  153.0553  143.7831  163.4035 C   0  0  0  0  0  0  0  0  0  0  0  0
  152.6712  143.3307  162.0058 C   0  0  0  0  0  0  0  0  0  0  0  0
  151.7530  144.1046  161.2609 C   0  0  0  0  0  0  0  0  0  0  0  0
  151.3709  143.7190  159.9575 C   0  0  0  0  0  0  0  0  0  0  0  0
  150.5038  144.3184  159.0601 N   0  0  0  0  0  0  0  0  0  0  0  0
  150.5713  143.4866  158.0250 C   0  0  0  0  0  0  0  0  0  0  0  0
  151.3844  142.4192  158.1431 N   0  0  0  0  0  0  0  0  0  0  0  0
  151.6204  141.3870  157.1486 C   0  0  0  0  0  0  0  0  0  0  0  0
  150.5286  141.3523  156.0613 C   0  0  1  0  0  0  0  0  0  0  0  0
  150.8719  140.3947  155.0777 O   0  0  0  0  0  0  0  0  0  0  0  0
  149.1510  140.9824  156.6477 C   0  0  0  0  0  0  0  0  0  0  0  0
  148.0360  141.7398  156.0225 N   0  3  1  0  0  0  0  0  0  0  0  0
  147.7583  141.3002  154.6349 C   0  0  0  0  0  0  0  0  0  0  0  0
  146.6497  142.1637  154.0114 C   0  0  0  0  0  0  0  0  0  0  0  0
  145.4841  142.1035  154.8247 O   0  0  0  0  0  0  0  0  0  0  0  0
  145.7100  142.6118  156.1356 C   0  0  1  0  0  0  0  0  0  0  0  0
  144.3731  142.5728  156.9003 C   0  0  0  0  0  0  0  0  0  0  0  0
  143.4586  143.6830  156.5273 N   0  3  0  0  0  0  0  0  0  0  0  0
  142.1314  143.6003  157.1805 C   0  0  0  0  0  0  0  0  0  0  0  0
  143.3294  143.8260  155.0600 C   0  0  0  0  0  0  0  0  0  0  0  0
  146.7849  141.7438  156.8209 C   0  0  0  0  0  0  0  0  0  0  0  0
  151.9363  142.5278  159.4155 C   0  0  0  0  0  0  0  0  0  0  0  0
  152.8489  141.7482  160.1478 C   0  0  0  0  0  0  0  0  0  0  0  0
  153.2216  142.1490  161.4478 C   0  0  0  0  0  0  0  0  0  0  0  0
  154.2099  141.3016  162.2291 C   0  0  0  0  0  0  0  0  0  0  0  0
  152.5231  144.6909  163.6894 H   0  0  0  0  0  0  0  0  0  0  0  0
  154.1242  143.9910  163.4569 H   0  0  0  0  0  0  0  0  0  0  0  0
  152.8152  143.0109  164.1345 H   0  0  0  0  0  0  0  0  0  0  0  0
  151.3335  145.0049  161.6859 H   0  0  0  0  0  0  0  0  0  0  0  0
  149.9976  143.6646  157.1272 H   0  0  0  0  0  0  0  0  0  0  0  0
  152.6035  141.5494  156.7043 H   0  0  0  0  0  0  0  0  0  0  0  0
  151.6676  140.4255  157.6617 H   0  0  0  0  0  0  0  0  0  0  0  0
  150.4890  142.3313  155.5847 H   0  0  0  0  0  0  0  0  0  0  0  0
  151.2548  139.6448  155.5089 H   0  0  0  0  0  0  0  0  0  0  0  0
  148.9888  139.9138  156.4956 H   0  0  0  0  0  0  0  0  0  0  0  0
  149.1377  141.1417  157.7271 H   0  0  0  0  0  0  0  0  0  0  0  0
  148.6637  141.3774  154.0316 H   0  0  0  0  0  0  0  0  0  0  0  0
  147.4601  140.2504  154.6350 H   0  0  0  0  0  0  0  0  0  0  0  0
  146.9771  143.1985  153.8989 H   0  0  0  0  0  0  0  0  0  0  0  0
  146.4040  141.7978  153.0142 H   0  0  0  0  0  0  0  0  0  0  0  0
  146.0771  143.6367  156.0735 H   0  0  0  0  0  0  0  0  0  0  0  0
  143.8882  141.6179  156.6904 H   0  0  0  0  0  0  0  0  0  0  0  0
  144.5465  142.5980  157.9772 H   0  0  0  0  0  0  0  0  0  0  0  0
  141.6103  142.6857  156.8943 H   0  0  0  0  0  0  0  0  0  0  0  0
  141.5089  144.4474  156.8903 H   0  0  0  0  0  0  0  0  0  0  0  0
  142.2138  143.6216  158.2663 H   0  0  0  0  0  0  0  0  0  0  0  0
  142.8874  142.9325  154.6174 H   0  0  0  0  0  0  0  0  0  0  0  0
  144.3037  143.9909  154.5990 H   0  0  0  0  0  0  0  0  0  0  0  0
  142.6993  144.6798  154.8079 H   0  0  0  0  0  0  0  0  0  0  0  0
  146.4258  140.7202  156.9411 H   0  0  0  0  0  0  0  0  0  0  0  0
  146.9749  142.1342  157.8200 H   0  0  0  0  0  0  0  0  0  0  0  0
  153.2611  140.8505  159.7113 H   0  0  0  0  0  0  0  0  0  0  0  0
  154.5582  140.4525  161.6406 H   0  0  0  0  0  0  0  0  0  0  0  0
  153.7453  140.9130  163.1354 H   0  0  0  0  0  0  0  0  0  0  0  0
  155.0819  141.8917  162.5120 H   0  0  0  0  0  0  0  0  0  0  0  0
  143.8929  144.5362  156.8500 H   0  0  0  0  0  0  0  0  0  0  0  0
  148.3527  142.6973  155.9578 H   0  0  0  0  0  0  0  0  0  0  0  0
  1  2  1  0  0  0  0
  1 26  1  0  0  0  0
  1 27  1  0  0  0  0
  1 28  1  0  0  0  0
  2 24  1  0  0  0  0
  2  3  2  0  0  0  0
  3  4  1  0  0  0  0
  3 29  1  0  0  0  0
  4 22  2  0  0  0  0
  4  5  1  0  0  0  0
  5  6  2  0  0  0  0
  6  7  1  0  0  0  0
  6 30  1  0  0  0  0
  7  8  1  0  0  0  0
  7 22  1  0  0  0  0
  8  9  1  0  0  0  0
  8 31  1  0  0  0  0
  8 32  1  0  0  0  0
  9 10  1  0  0  0  0
  9 11  1  0  0  0  0
  9 33  1  0  0  0  0
 10 34  1  0  0  0  0
 11 12  1  0  0  0  0
 11 35  1  0  0  0  0
 11 36  1  0  0  0  0
 12 21  1  0  0  0  0
 12 13  1  0  0  0  0
 12 57  1  0  0  0  0
 13 14  1  0  0  0  0
 13 37  1  0  0  0  0
 13 38  1  0  0  0  0
 14 15  1  0  0  0  0
 14 39  1  0  0  0  0
 14 40  1  0  0  0  0
 15 16  1  0  0  0  0
 16 17  1  0  0  0  0
 16 21  1  0  0  0  0
 16 41  1  0  0  0  0
 17 18  1  0  0  0  0
 17 42  1  0  0  0  0
 17 43  1  0  0  0  0
 18 19  1  0  0  0  0
 18 20  1  0  0  0  0
 18 56  1  0  0  0  0
 19 44  1  0  0  0  0
 19 45  1  0  0  0  0
 19 46  1  0  0  0  0
 20 47  1  0  0  0  0
 20 48  1  0  0  0  0
 20 49  1  0  0  0  0
 21 50  1  0  0  0  0
 21 51  1  0  0  0  0
 22 23  1  0  0  0  0
 23 24  2  0  0  0  0
 23 52  1  0  0  0  0
 24 25  1  0  0  0  0
 25 53  1  0  0  0  0
 25 54  1  0  0  0  0
 25 55  1  0  0  0  0
M  CHG  1  12   1
M  CHG  1  18   1
M  END
> <s_m_source_file>
AV-unprocessed.smi

> <i_m_source_file_index>
1005

> <i_lp_mmshare_version>
43012

> <i_f3d_flags>
0

> <s_epik_input>
W0NIM11jKFtjSF0xKWMoW0NIM10pW2NIXWMoYzEyKW4oW2NIXW4yKVtDSDJdW0NASF0oW09IXSlbQ0gyXU4zW0NIMl1bQ0gyXU9bQ0BIXShbQ0gyXTMpW0NIMl1OKFtDSDNdKVtDSDNd

> <s_epik_cmdline>
J2VwaWtfcHl0aG9uJywgJy1waCcsICc3LjAnLCAnLXRuJywgJzgnLCAnLW1hJywgJzIwMCcsICctbWV0YWxfYmluZGluZycsICctaW1hZScsICc8aW5maWxlLm1hZT4nLCAnLW9tYWUnLCAnPG91dGZpbGUubWFlPic=

> <r_epik_Ionization_Penalty>
1.0968

> <r_epik_Ionization_Penalty_Charging>
1.0096

> <r_epik_Ionization_Penalty_Neutral>
0.0871956

> <r_epik_State_Penalty>
1.31185

> <r_epik_Charging_Adjusted_Penalty>
2.32145

> <i_epik_Tot_Q>
2

> <i_epik_Tot_abs_Q>
2

> <r_epik_Metal_State_Penalty>
1.22442

> <b_epik_Metal_Only>
0

> <s_lp_Force_Field>
OPLS_2005

> <r_lp_Energy>
33.8035

> <b_lp_Chiralities_Consistent>
1

> <s_lp_Variant>
AV-unprocessed.smi:1005-6

> <Gold.Version>
5.8.1

> <Gold.Id.Protein>
6NUR|6NUR_protein|mol2

> <Gold.PLP.Fitness>
61.3052

> <Gold.PLP.PLP>
-51.3309

> <Gold.PLP.part.hbond>
-2.0000

> <Gold.PLP.part.metal>
0.0000

> <Gold.PLP.part.buried>
-8.3644

> <Gold.PLP.part.nonpolar>
-40.7953

> <Gold.PLP.part.repulsive>
0.3458

> <Gold.PLP.ligand.clash>
0.0000

> <Gold.PLP.ligand.torsion>
1.0723

> <Gold.PLP.Chemscore.Hbond>
3.0000

> <Gold.PLP.Chemscore.CHOScore>
1.0000

> <Gold.PLP.Chemscore.Metal>
0.0000

> <Gold.Chemscore.Hbonds>
donor molecule, donor type, donor heavy atom, donor atom, acceptor molecule, acceptor atom, score
      L1  H    12    57       P1  8028  1.66
      P1  H  7989  7998       L1    10  1.00
      L1  C     6    30       P1  8028  1.00

> <Gold.PLP.Chemscore.Internal.Correction>
0.1189

> <Gold.Rescore>
     Score         DG    S(hbond)    S(metal)    S(lipo)     H(rot)  DE(clash)    DE(int)     intcor
     19.16     -20.78       1.86        0.00     131.90       2.48       0.13       1.50       ----

> <Gold.Chemscore.Fitness>
19.1557

> <Gold.Chemscore.DG>
-20.7791

> <Gold.Chemscore.ZeroCoef>
-5.4800

> <Gold.Chemscore.Hbond>
1.8622

> <Gold.Chemscore.Metal>
0.0000

> <Gold.Chemscore.Lipo>
131.8953

> <Gold.Chemscore.Internal_Hbond>
0.0000

> <Gold.Chemscore.DEClash>
0.1256

> <Gold.Chemscore.DEInternal>
1.4978

> <Gold.Chemscore.Rot>
2.4814

> <Gold.Chemscore.Internal.Correction>
   9.000000E+99

> <Gold.Chemscore.Hbonds>
donor molecule, donor type, donor heavy atom, donor atom, acceptor molecule, acceptor atom, score
      L1  H    12    57       P1  8028  0.78
      P1  H  7989  7998       L1    10  0.89

> <Gold.Chemscore.Hbond.Weighted>
-6.2198

> <Gold.Chemscore.Metal.Weighted>
-0.0000

> <Gold.Chemscore.Lipo.Weighted>
-15.4318

> <Gold.Chemscore.Internal_Hbond.Weighted>
0.0000

> <Gold.Chemscore.DEClash.Weighted>
0.1256

> <Gold.Chemscore.DEInternal.Weighted>
1.4978

> <Gold.Chemscore.Rot.Weighted>
6.3524

> <Gold.Chemscore.Internal.Correction.Weighted>
   9.000000E+99

> <Gold.Protein.RotatedTorsions>
[ 6907 6896 6895 6894 ] final  148.60 input  -60.11 | X-H torsion
[ 7974 7965 7964 7962 ] final  165.39 input  175.53 | X-H torsion
[ 8008 7997 7996 7995 ] final -167.02 input   59.86 | X-H torsion
[ 10167 10162 10161 10158 ] final  -55.49 input  -65.29 | X-H torsion
[ 10718 10713 10712 10709 ] final  144.93 input   66.30 | X-H torsion
[ 10763 10752 10751 10750 ] final -124.82 input  -60.55 | X-H torsion
[ 11005 11000 10999 10996 ] final   30.49 input  -57.11 | X-H torsion

> <Gold.Protein.ActiveResidues>
 VAL166  LYS551  ARG553  GLY616  TRP617  ASP618  TYR619  PRO620  LYS621  CYS622 
 ASP623  PHE694  ASN695  SER759  ASP760  ASP761  ALA762  ILE779  LEU786  VAL792 
 PHE793  MET794  SER795  GLU796  ALA797  LYS798  CYS799  TRP800  GLU811  SER814 

> <Gold.Protein.RotatedAtoms>
  152.1394  133.4454  159.4758 H   0  0  0  0  0  0  0  0  0  0  0  0  # atno 6907 bound_to 6896
  150.6884  134.2324  159.4449 H   0  0  0  0  0  0  0  0  0  0  0  0  # atno 6908 bound_to 6896
  152.0214  134.9820  160.0621 H   0  0  0  0  0  0  0  0  0  0  0  0  # atno 6909 bound_to 6896
  144.7504  139.8464  143.6368 H   0  0  0  0  0  0  0  0  0  0  0  0  # atno 7974 bound_to 7965
  155.8719  140.0995  157.1544 H   0  0  0  0  0  0  0  0  0  0  0  0  # atno 8008 bound_to 7997
  154.3998  140.1345  156.4151 H   0  0  0  0  0  0  0  0  0  0  0  0  # atno 8009 bound_to 7997
  155.7741  140.3460  155.5265 H   0  0  0  0  0  0  0  0  0  0  0  0  # atno 8010 bound_to 7997
  140.6371  143.2488  151.5088 H   0  0  0  0  0  0  0  0  0  0  0  0  # atno 10167 bound_to 10162
  157.3513  131.0951  151.0998 H   0  0  0  0  0  0  0  0  0  0  0  0  # atno 10718 bound_to 10713
  154.8728  135.4051  154.3167 H   0  0  0  0  0  0  0  0  0  0  0  0  # atno 10763 bound_to 10752
  153.4002  135.7018  153.6437 H   0  0  0  0  0  0  0  0  0  0  0  0  # atno 10764 bound_to 10752
  153.5183  135.3692  155.2590 H   0  0  0  0  0  0  0  0  0  0  0  0  # atno 10765 bound_to 10752
  140.2938  134.2834  155.7769 H   0  0  0  0  0  0  0  0  0  0  0  0  # atno 11005 bound_to 11000
  146.1447  139.4513  143.0087 LP  0  0  0  0  0  0  0  0  0  0  0  0  # atno 17320 bound_to 7965
  145.6964  141.0149  143.1528 LP  0  0  0  0  0  0  0  0  0  0  0  0  # atno 17321 bound_to 7965
  139.5581  144.2224  152.1646 LP  0  0  0  0  0  0  0  0  0  0  0  0  # atno 17342 bound_to 10162
  140.1484  144.5137  150.6702 LP  0  0  0  0  0  0  0  0  0  0  0  0  # atno 17343 bound_to 10162
  157.2172  130.6465  149.5797 LP  0  0  0  0  0  0  0  0  0  0  0  0  # atno 17370 bound_to 10713
  155.9722  130.4641  150.6205 LP  0  0  0  0  0  0  0  0  0  0  0  0  # atno 17371 bound_to 10713
  141.2141  133.7602  156.9665 LP  0  0  0  0  0  0  0  0  0  0  0  0  # atno 17394 bound_to 11000
  140.1171  134.9440  157.2150 LP  0  0  0  0  0  0  0  0  0  0  0  0  # atno 17395 bound_to 11000

$$$$
