AV-unprocessed.smi:2030|AV-procd|sdf|8227|dock10
  -GOLD-   2272010493D 1   1.00000     0.00000
 Structure written by MMmdl.
 35 36  0  0  0  0  0  0  0  0  3 V2000
  145.8258  142.5403  157.8008 C   0  0  0  0  0  0  0  0  0  0  0  0
  146.1909  142.5421  156.3847 N   0  0  0  0  0  0  0  0  0  0  0  0
  147.4149  141.9591  156.1306 N   0  0  0  0  0  0  0  0  0  0  0  0
  147.8074  141.6574  154.9318 C   0  0  0  0  0  0  0  0  0  0  0  0
  149.1309  140.9944  154.7347 C   0  0  0  0  0  0  0  0  0  0  0  0
  149.5655  141.0175  153.5767 O   0  0  0  0  0  0  0  0  0  0  0  0
  149.7405  140.4186  155.8137 N   0  5  0  0  0  0  0  0  0  0  0  0
  150.0973  141.1119  157.0513 C   0  0  0  0  0  0  0  0  0  0  0  0
  151.0118  142.3152  156.7338 C   0  0  0  0  0  0  0  0  0  0  0  0
  151.3277  143.2057  157.9318 C   0  0  0  0  0  0  0  0  0  0  0  0
  152.1584  142.7701  158.9896 C   0  0  0  0  0  0  0  0  0  0  0  0
  152.4225  143.6408  160.0666 C   0  0  0  0  0  0  0  0  0  0  0  0
  151.8458  144.9276  160.0712 C   0  0  0  0  0  0  0  0  0  0  0  0
  151.0185  145.3113  158.9962 C   0  0  0  0  0  0  0  0  0  0  0  0
  150.7906  144.4490  157.9816 N   0  3  0  0  0  0  0  0  0  0  0  0
  146.9096  141.9367  153.7403 C   0  0  0  0  0  0  0  0  0  0  0  0
  145.9394  143.1034  154.0066 C   0  0  0  0  0  0  0  0  0  0  0  0
  145.3869  143.0841  155.4343 C   0  0  0  0  0  0  0  0  0  0  0  0
  144.2776  143.5674  155.6605 O   0  0  0  0  0  0  0  0  0  0  0  0
  144.9033  143.0796  158.0190 H   0  0  0  0  0  0  0  0  0  0  0  0
  146.6171  143.0013  158.3934 H   0  0  0  0  0  0  0  0  0  0  0  0
  145.6994  141.5154  158.1513 H   0  0  0  0  0  0  0  0  0  0  0  0
  149.2190  141.4729  157.5883 H   0  0  0  0  0  0  0  0  0  0  0  0
  150.6175  140.4478  157.7419 H   0  0  0  0  0  0  0  0  0  0  0  0
  151.9528  141.9491  156.3215 H   0  0  0  0  0  0  0  0  0  0  0  0
  150.5612  142.9239  155.9487 H   0  0  0  0  0  0  0  0  0  0  0  0
  152.6004  141.7844  158.9655 H   0  0  0  0  0  0  0  0  0  0  0  0
  153.0620  143.3253  160.8777 H   0  0  0  0  0  0  0  0  0  0  0  0
  152.0374  145.6106  160.8856 H   0  0  0  0  0  0  0  0  0  0  0  0
  150.5385  146.2754  158.9152 H   0  0  0  0  0  0  0  0  0  0  0  0
  147.5019  142.1840  152.8587 H   0  0  0  0  0  0  0  0  0  0  0  0
  146.3493  141.0344  153.4929 H   0  0  0  0  0  0  0  0  0  0  0  0
  146.4615  144.0512  153.8714 H   0  0  0  0  0  0  0  0  0  0  0  0
  145.1215  143.0890  153.2855 H   0  0  0  0  0  0  0  0  0  0  0  0
  150.1949  144.7499  157.2101 H   0  0  0  0  0  0  0  0  0  0  0  0
  1  2  1  0  0  0  0
  1 20  1  0  0  0  0
  1 21  1  0  0  0  0
  1 22  1  0  0  0  0
  2 18  1  0  0  0  0
  2  3  1  0  0  0  0
  3  4  2  0  0  0  0
  4  5  1  0  0  0  0
  4 16  1  0  0  0  0
  5  6  2  0  0  0  0
  5  7  1  0  0  0  0
  7  8  1  0  0  0  0
  8  9  1  0  0  0  0
  8 23  1  0  0  0  0
  8 24  1  0  0  0  0
  9 10  1  0  0  0  0
  9 25  1  0  0  0  0
  9 26  1  0  0  0  0
 10 15  1  0  0  0  0
 10 11  2  0  0  0  0
 11 12  1  0  0  0  0
 11 27  1  0  0  0  0
 12 13  2  0  0  0  0
 12 28  1  0  0  0  0
 13 14  1  0  0  0  0
 13 29  1  0  0  0  0
 14 15  2  0  0  0  0
 14 30  1  0  0  0  0
 15 35  1  0  0  0  0
 16 17  1  0  0  0  0
 16 31  1  0  0  0  0
 16 32  1  0  0  0  0
 17 18  1  0  0  0  0
 17 33  1  0  0  0  0
 17 34  1  0  0  0  0
 18 19  2  0  0  0  0
M  CHG  1   7  -1
M  CHG  1  15   1
M  END
> <s_m_source_file>
AV-unprocessed.smi

> <i_m_source_file_index>
2030

> <i_lp_mmshare_version>
43012

> <i_f3d_flags>
0

> <s_epik_input>
Tz1DMVtDSDJdW0NIMl1DKD1OTjFbQ0gzXSlDKD1PKVtOSF1bQ0gyXVtDSDJdYzJbY0hdW2NIXVtjSF1bY0hdbjI=

> <s_epik_cmdline>
J2VwaWtfcHl0aG9uJywgJy1waCcsICc3LjAnLCAnLXRuJywgJzgnLCAnLW1hJywgJzIwMCcsICctbWV0YWxfYmluZGluZycsICctaW1hZScsICc8aW5maWxlLm1hZT4nLCAnLW9tYWUnLCAnPG91dGZpbGUubWFlPic=

> <r_epik_Ionization_Penalty>
6.31213

> <r_epik_Ionization_Penalty_Charging>
6.31213

> <r_epik_Ionization_Penalty_Neutral>
3.33061e-09

> <r_epik_State_Penalty>
7.27833

> <r_epik_Charging_Adjusted_Penalty>
13.5905

> <i_epik_Tot_Q>
0

> <i_epik_Tot_abs_Q>
2

> <r_epik_Metal_State_Penalty>
3.36613

> <b_epik_Metal_Only>
1

> <s_epik_Chemistry_Notes>
This compound has an imine and may undergo hydrolysis.

> <s_lp_Force_Field>
OPLS_2005

> <r_lp_Energy>
24.6461

> <b_lp_Chiralities_Consistent>
1

> <s_lp_Variant>
AV-unprocessed.smi:2030-4

> <Gold.Version>
5.8.1

> <Gold.Id.Protein>
6NUR|6NUR_protein|mol2

> <Gold.PLP.Fitness>
48.0648

> <Gold.PLP.PLP>
-39.9005

> <Gold.PLP.part.hbond>
-3.0000

> <Gold.PLP.part.metal>
0.0000

> <Gold.PLP.part.buried>
-6.9435

> <Gold.PLP.part.nonpolar>
-33.2135

> <Gold.PLP.part.repulsive>
3.7343

> <Gold.PLP.ligand.clash>
0.0000

> <Gold.PLP.ligand.torsion>
0.7717

> <Gold.PLP.Chemscore.Hbond>
3.2210

> <Gold.PLP.Chemscore.CHOScore>
0.0000

> <Gold.PLP.Chemscore.Metal>
0.0000

> <Gold.Chemscore.Hbonds>
donor molecule, donor type, donor heavy atom, donor atom, acceptor molecule, acceptor atom, score
      L1  H    15    35       P1  8028  2.00
      P1  H  7989  7998       L1     6  0.29
      P1  H  8011  8017       L1     6  1.00

> <Gold.PLP.Chemscore.Internal.Correction>
0.0447

> <Gold.Rescore>
     Score         DG    S(hbond)    S(metal)    S(lipo)     H(rot)  DE(clash)    DE(int)     intcor
     15.35     -19.07       1.89        0.00      94.71       1.49       1.85       1.87       ----

> <Gold.Chemscore.Fitness>
15.3472

> <Gold.Chemscore.DG>
-19.0736

> <Gold.Chemscore.ZeroCoef>
-5.4800

> <Gold.Chemscore.Hbond>
1.8908

> <Gold.Chemscore.Metal>
0.0000

> <Gold.Chemscore.Lipo>
94.7088

> <Gold.Chemscore.Internal_Hbond>
0.0000

> <Gold.Chemscore.DEClash>
1.8537

> <Gold.Chemscore.DEInternal>
1.8727

> <Gold.Chemscore.Rot>
1.4854

> <Gold.Chemscore.Internal.Correction>
   9.000000E+99

> <Gold.Chemscore.Hbonds>
donor molecule, donor type, donor heavy atom, donor atom, acceptor molecule, acceptor atom, score
      L1  H    15    35       P1  8028  0.29
      P1  H  7989  7998       L1     6  0.23
      P1  H  8011  8017       L1     6  0.96

> <Gold.Chemscore.Hbond.Weighted>
-6.3153

> <Gold.Chemscore.Metal.Weighted>
-0.0000

> <Gold.Chemscore.Lipo.Weighted>
-11.0809

> <Gold.Chemscore.Internal_Hbond.Weighted>
0.0000

> <Gold.Chemscore.DEClash.Weighted>
1.8537

> <Gold.Chemscore.DEInternal.Weighted>
1.8727

> <Gold.Chemscore.Rot.Weighted>
3.8026

> <Gold.Chemscore.Internal.Correction.Weighted>
   9.000000E+99

> <Gold.Protein.RotatedTorsions>
[ 6907 6896 6895 6894 ] final   31.47 input  -60.11 | X-H torsion
[ 7974 7965 7964 7962 ] final  -70.20 input  175.53 | X-H torsion
[ 8008 7997 7996 7995 ] final   63.43 input   59.86 | X-H torsion
[ 10167 10162 10161 10158 ] final  -50.82 input  -65.29 | X-H torsion
[ 10718 10713 10712 10709 ] final  -30.61 input   66.30 | X-H torsion
[ 10763 10752 10751 10750 ] final  105.14 input  -60.55 | X-H torsion
[ 11005 11000 10999 10996 ] final  105.25 input  -57.11 | X-H torsion

> <Gold.Protein.ActiveResidues>
 VAL166  LYS551  ARG553  GLY616  TRP617  ASP618  TYR619  PRO620  LYS621  CYS622 
 ASP623  PHE694  ASN695  SER759  ASP760  ASP761  ALA762  ILE779  LEU786  VAL792 
 PHE793  MET794  SER795  GLU796  ALA797  LYS798  CYS799  TRP800  GLU811  SER814 

> <Gold.Protein.RotatedAtoms>
  152.0608  134.9595  160.0574 H   0  0  0  0  0  0  0  0  0  0  0  0  # atno 6907 bound_to 6896
  152.0959  133.4220  159.4573 H   0  0  0  0  0  0  0  0  0  0  0  0  # atno 6908 bound_to 6896
  150.6838  134.2736  159.4641 H   0  0  0  0  0  0  0  0  0  0  0  0  # atno 6909 bound_to 6896
  145.6940  140.9142  143.0766 H   0  0  0  0  0  0  0  0  0  0  0  0  # atno 7974 bound_to 7965
  155.6301  140.3496  155.4680 H   0  0  0  0  0  0  0  0  0  0  0  0  # atno 8008 bound_to 7997
  156.0010  140.1213  157.0571 H   0  0  0  0  0  0  0  0  0  0  0  0  # atno 8009 bound_to 7997
  154.4249  140.1100  156.5683 H   0  0  0  0  0  0  0  0  0  0  0  0  # atno 8010 bound_to 7997
  140.6619  143.2643  151.4415 H   0  0  0  0  0  0  0  0  0  0  0  0  # atno 10167 bound_to 10162
  156.3976  130.4384  149.7347 H   0  0  0  0  0  0  0  0  0  0  0  0  # atno 10718 bound_to 10713
  153.3754  135.3919  155.1819 H   0  0  0  0  0  0  0  0  0  0  0  0  # atno 10763 bound_to 10752
  154.8700  135.3712  154.4924 H   0  0  0  0  0  0  0  0  0  0  0  0  # atno 10764 bound_to 10752
  153.5396  135.7084  153.5704 H   0  0  0  0  0  0  0  0  0  0  0  0  # atno 10765 bound_to 10752
  139.8800  134.9329  156.5485 H   0  0  0  0  0  0  0  0  0  0  0  0  # atno 11005 bound_to 11000
  144.6988  139.8860  143.7450 LP  0  0  0  0  0  0  0  0  0  0  0  0  # atno 17320 bound_to 7965
  146.0856  139.3845  143.0437 LP  0  0  0  0  0  0  0  0  0  0  0  0  # atno 17321 bound_to 7965
  139.5855  144.1614  152.2023 LP  0  0  0  0  0  0  0  0  0  0  0  0  # atno 17342 bound_to 10162
  140.0952  144.5586  150.7027 LP  0  0  0  0  0  0  0  0  0  0  0  0  # atno 17343 bound_to 10162
  156.4376  130.7845  151.2866 LP  0  0  0  0  0  0  0  0  0  0  0  0  # atno 17370 bound_to 10713
  157.7502  131.0135  150.3426 LP  0  0  0  0  0  0  0  0  0  0  0  0  # atno 17371 bound_to 10713
  140.8257  133.8318  155.8937 LP  0  0  0  0  0  0  0  0  0  0  0  0  # atno 17394 bound_to 11000
  140.9376  134.1942  157.4820 LP  0  0  0  0  0  0  0  0  0  0  0  0  # atno 17395 bound_to 11000

$$$$
