AV-unprocessed.smi:795|AV-procd|sdf|3764|dock5
  -GOLD-   22720 1193D 1   1.00000     0.00000
 Structure written by MMmdl.
 49 52  0  0  0  0  0  0  0  0  1 V2000
  152.7705  143.8341  162.4631 C   0  0  0  0  0  0  0  0  0  0  0  0
  152.5179  143.1354  161.1543 C   0  0  0  0  0  0  0  0  0  0  0  0
  151.6153  143.6511  160.3867 N   0  0  0  0  0  0  0  0  0  0  0  0
  151.3003  143.0881  159.1649 N   0  0  0  0  0  0  0  0  0  0  0  0
  150.2240  143.7912  158.4534 C   0  0  0  0  0  0  0  0  0  0  0  0
  149.0040  142.8917  158.2165 C   0  0  0  0  0  0  0  0  0  0  0  0
  148.2449  142.6075  159.1434 O   0  0  0  0  0  0  0  0  0  0  0  0
  148.8367  142.4418  156.9641 N   0  0  0  0  0  0  0  0  0  0  0  0
  147.7281  141.6103  156.4992 C   0  0  2  0  0  0  0  0  0  0  0  0
  148.2505  140.2890  155.8813 C   0  0  2  0  0  0  0  0  0  0  0  0
  149.0535  140.5696  154.5881 C   0  0  0  0  0  0  0  0  0  0  0  0
  148.1463  141.2848  153.5639 C   0  0  1  0  0  0  0  0  0  0  0  0
  146.9397  140.3820  153.2273 C   0  0  0  0  0  0  0  0  0  0  0  0
  146.1383  140.0977  154.5162 C   0  0  1  0  0  0  0  0  0  0  0  0
  147.0466  139.3823  155.5415 C   0  0  0  0  0  0  0  0  0  0  0  0
  145.6322  141.4310  155.1102 C   0  0  0  0  0  0  0  0  0  0  0  0
  146.8397  142.3329  155.4499 C   0  0  2  0  0  0  0  0  0  0  0  0
  147.6421  142.6173  154.1585 C   0  0  0  0  0  0  0  0  0  0  0  0
  151.8927  141.9724  158.6491 C   0  0  0  0  0  0  0  0  0  0  0  0
  151.5836  141.5031  157.5531 O   0  0  0  0  0  0  0  0  0  0  0  0
  152.9162  141.3943  159.5232 C   0  0  0  0  0  0  0  0  0  0  0  0
  153.5596  140.2228  159.0222 C   0  0  0  0  0  0  0  0  0  0  0  0
  154.0872  139.2673  158.6365 N   0  0  0  0  0  0  0  0  0  0  0  0
  153.2284  141.9344  160.7279 C   0  0  0  0  0  0  0  0  0  0  0  0
  154.2802  141.3713  161.6739 C   0  0  0  0  0  0  0  0  0  0  0  0
  153.8099  144.1545  162.5376 H   0  0  0  0  0  0  0  0  0  0  0  0
  152.5584  143.1713  163.3023 H   0  0  0  0  0  0  0  0  0  0  0  0
  152.1444  144.7204  162.5786 H   0  0  0  0  0  0  0  0  0  0  0  0
  149.9265  144.6733  159.0243 H   0  0  0  0  0  0  0  0  0  0  0  0
  150.5674  144.1746  157.4914 H   0  0  0  0  0  0  0  0  0  0  0  0
  149.5153  142.7185  156.2696 H   0  0  0  0  0  0  0  0  0  0  0  0
  147.1210  141.3661  157.3734 H   0  0  0  0  0  0  0  0  0  0  0  0
  148.8901  139.7765  156.6011 H   0  0  0  0  0  0  0  0  0  0  0  0
  149.9329  141.1777  154.8033 H   0  0  0  0  0  0  0  0  0  0  0  0
  149.4276  139.6348  154.1689 H   0  0  0  0  0  0  0  0  0  0  0  0
  148.7137  141.4854  152.6547 H   0  0  0  0  0  0  0  0  0  0  0  0
  146.3025  140.8650  152.4855 H   0  0  0  0  0  0  0  0  0  0  0  0
  147.2801  139.4475  152.7796 H   0  0  0  0  0  0  0  0  0  0  0  0
  145.2861  139.4598  154.2798 H   0  0  0  0  0  0  0  0  0  0  0  0
  147.3932  138.4298  155.1383 H   0  0  0  0  0  0  0  0  0  0  0  0
  146.4834  139.1462  156.4452 H   0  0  0  0  0  0  0  0  0  0  0  0
  144.9731  141.9340  154.4015 H   0  0  0  0  0  0  0  0  0  0  0  0
  145.0360  141.2447  156.0043 H   0  0  0  0  0  0  0  0  0  0  0  0
  146.4682  143.2735  155.8573 H   0  0  0  0  0  0  0  0  0  0  0  0
  148.4808  143.2828  154.3658 H   0  0  0  0  0  0  0  0  0  0  0  0
  147.0142  143.1377  153.4344 H   0  0  0  0  0  0  0  0  0  0  0  0
  154.7276  140.4535  161.2940 H   0  0  0  0  0  0  0  0  0  0  0  0
  153.8396  141.1407  162.6444 H   0  0  0  0  0  0  0  0  0  0  0  0
  155.0846  142.0924  161.8234 H   0  0  0  0  0  0  0  0  0  0  0  0
  1  2  1  0  0  0  0
  1 26  1  0  0  0  0
  1 27  1  0  0  0  0
  1 28  1  0  0  0  0
  2 24  1  0  0  0  0
  2  3  2  0  0  0  0
  3  4  1  0  0  0  0
  4  5  1  0  0  0  0
  4 19  1  0  0  0  0
  5  6  1  0  0  0  0
  5 29  1  0  0  0  0
  5 30  1  0  0  0  0
  6  7  2  0  0  0  0
  6  8  1  0  0  0  0
  8  9  1  0  0  0  0
  8 31  1  0  0  0  0
  9 17  1  0  0  0  0
  9 10  1  0  0  0  0
  9 32  1  0  0  0  0
 10 15  1  0  0  0  0
 10 11  1  0  0  0  0
 10 33  1  0  0  0  0
 11 12  1  0  0  0  0
 11 34  1  0  0  0  0
 11 35  1  0  0  0  0
 12 18  1  0  0  0  0
 12 13  1  0  0  0  0
 12 36  1  0  0  0  0
 13 14  1  0  0  0  0
 13 37  1  0  0  0  0
 13 38  1  0  0  0  0
 14 15  1  0  0  0  0
 14 16  1  0  0  0  0
 14 39  1  0  0  0  0
 15 40  1  0  0  0  0
 15 41  1  0  0  0  0
 16 17  1  0  0  0  0
 16 42  1  0  0  0  0
 16 43  1  0  0  0  0
 17 18  1  0  0  0  0
 17 44  1  0  0  0  0
 18 45  1  0  0  0  0
 18 46  1  0  0  0  0
 19 20  2  0  0  0  0
 19 21  1  0  0  0  0
 21 22  1  0  0  0  0
 21 24  2  0  0  0  0
 22 23  3  0  0  0  0
 24 25  1  0  0  0  0
 25 47  1  0  0  0  0
 25 48  1  0  0  0  0
 25 49  1  0  0  0  0
M  END
> <s_m_source_file>
AV-unprocessed.smi

> <i_m_source_file_index>
795

> <i_lp_mmshare_version>
43012

> <i_f3d_flags>
0

> <s_epik_input>
TiNDYyhjMVtDSDNdKWMoPU8pbihuYzFbQ0gzXSlbQ0gyXUMoPU8pW05IXVtDQEhdKFtDQEhdMjMpW0NAQEhdNFtDSDJdW0NASF0oW0NIMl0zKVtDSDJdW0NASF0oW0NIMl0yKVtDSDJdNA==

> <s_epik_cmdline>
J2VwaWtfcHl0aG9uJywgJy1waCcsICc3LjAnLCAnLXRuJywgJzgnLCAnLW1hJywgJzIwMCcsICctbWV0YWxfYmluZGluZycsICctaW1hZScsICc8aW5maWxlLm1hZT4nLCAnLW9tYWUnLCAnPG91dGZpbGUubWFlPic=

> <r_lp_tautomer_probability>
1

> <r_epik_Ionization_Penalty>
2.02301e-08

> <r_epik_Ionization_Penalty_Charging>
2.3673e-11

> <r_epik_Ionization_Penalty_Neutral>
2.02064e-08

> <r_epik_State_Penalty>
-0

> <r_epik_Charging_Adjusted_Penalty>
2.3673e-11

> <i_epik_Tot_Q>
0

> <i_epik_Tot_abs_Q>
0

> <r_epik_Metal_State_Penalty>
-0

> <b_epik_Metal_Only>
0

> <s_lp_Force_Field>
OPLS_2005

> <r_lp_Energy>
43.8057

> <b_lp_Chiralities_Consistent>
1

> <s_lp_Variant>
AV-unprocessed.smi:795-1

> <Gold.Version>
5.8.1

> <Gold.Id.Protein>
6NUR|6NUR_protein|mol2

> <Gold.PLP.Fitness>
43.3815

> <Gold.PLP.PLP>
-40.1242

> <Gold.PLP.part.hbond>
-3.9285

> <Gold.PLP.part.metal>
0.0000

> <Gold.PLP.part.buried>
2.5539

> <Gold.PLP.part.nonpolar>
-38.2700

> <Gold.PLP.part.repulsive>
0.2167

> <Gold.PLP.ligand.clash>
0.0000

> <Gold.PLP.ligand.torsion>
0.1953

> <Gold.PLP.Chemscore.Hbond>
1.2145

> <Gold.PLP.Chemscore.CHOScore>
0.0000

> <Gold.PLP.Chemscore.Metal>
0.0000

> <Gold.Chemscore.Hbonds>
donor molecule, donor type, donor heavy atom, donor atom, acceptor molecule, acceptor atom, score
      L1  H     8    31       P1  8028  0.05
      P1  H  6933  6944       L1     7  0.12
      P1  H  7997  8009       L1    23  0.95

> <Gold.PLP.Chemscore.Internal.Correction>
0.0044

> <Gold.Rescore>
     Score         DG    S(hbond)    S(metal)    S(lipo)     H(rot)  DE(clash)    DE(int)     intcor
     15.33     -18.75       1.37        0.00     105.86       1.44       1.42       2.01       ----

> <Gold.Chemscore.Fitness>
15.3296

> <Gold.Chemscore.DG>
-18.7549

> <Gold.Chemscore.ZeroCoef>
-5.4800

> <Gold.Chemscore.Hbond>
1.3731

> <Gold.Chemscore.Metal>
0.0000

> <Gold.Chemscore.Lipo>
105.8633

> <Gold.Chemscore.Internal_Hbond>
0.0000

> <Gold.Chemscore.DEClash>
1.4194

> <Gold.Chemscore.DEInternal>
2.0060

> <Gold.Chemscore.Rot>
1.4442

> <Gold.Chemscore.Internal.Correction>
   9.000000E+99

> <Gold.Chemscore.Hbonds>
donor molecule, donor type, donor heavy atom, donor atom, acceptor molecule, acceptor atom, score
      L1  H     8    31       P1  8028  0.06
      P1  H  6933  6944       L1     7  0.12
      P1  H  7997  8009       L1    23  0.21

> <Gold.Chemscore.Hbond.Weighted>
-4.5860

> <Gold.Chemscore.Metal.Weighted>
-0.0000

> <Gold.Chemscore.Lipo.Weighted>
-12.3860

> <Gold.Chemscore.Internal_Hbond.Weighted>
0.0000

> <Gold.Chemscore.DEClash.Weighted>
1.4194

> <Gold.Chemscore.DEInternal.Weighted>
2.0060

> <Gold.Chemscore.Rot.Weighted>
3.6971

> <Gold.Chemscore.Internal.Correction.Weighted>
   9.000000E+99

> <Gold.Protein.RotatedTorsions>
[ 6907 6896 6895 6894 ] final  113.73 input  -60.11 | X-H torsion
[ 7974 7965 7964 7962 ] final  120.37 input  175.53 | X-H torsion
[ 8008 7997 7996 7995 ] final  117.58 input   59.86 | X-H torsion
[ 10167 10162 10161 10158 ] final   77.26 input  -65.29 | X-H torsion
[ 10718 10713 10712 10709 ] final  -40.79 input   66.30 | X-H torsion
[ 10763 10752 10751 10750 ] final   36.44 input  -60.55 | X-H torsion
[ 11005 11000 10999 10996 ] final   93.87 input  -57.11 | X-H torsion

> <Gold.Protein.ActiveResidues>
 VAL166  LYS551  ARG553  GLY616  TRP617  ASP618  TYR619  PRO620  LYS621  CYS622 
 ASP623  PHE694  ASN695  SER759  ASP760  ASP761  ALA762  ILE779  LEU786  VAL792 
 PHE793  MET794  SER795  GLU796  ALA797  LYS798  CYS799  TRP800  GLU811  SER814 

> <Gold.Protein.RotatedAtoms>
  152.4844  133.8335  159.7115 H   0  0  0  0  0  0  0  0  0  0  0  0  # atno 6907 bound_to 6896
  150.8918  133.7223  159.2909 H   0  0  0  0  0  0  0  0  0  0  0  0  # atno 6908 bound_to 6896
  151.4693  135.1048  159.9799 H   0  0  0  0  0  0  0  0  0  0  0  0  # atno 6909 bound_to 6896
  145.1320  139.3322  143.4660 H   0  0  0  0  0  0  0  0  0  0  0  0  # atno 7974 bound_to 7965
  156.2501  140.2893  156.0700 H   0  0  0  0  0  0  0  0  0  0  0  0  # atno 8008 bound_to 7997
  155.1681  140.0401  157.2874 H   0  0  0  0  0  0  0  0  0  0  0  0  # atno 8009 bound_to 7997
  154.6345  140.2507  155.7401 H   0  0  0  0  0  0  0  0  0  0  0  0  # atno 8010 bound_to 7997
  139.9834  144.5810  150.7880 H   0  0  0  0  0  0  0  0  0  0  0  0  # atno 10167 bound_to 10162
  156.2774  130.4213  149.8373 H   0  0  0  0  0  0  0  0  0  0  0  0  # atno 10718 bound_to 10713
  153.0077  135.6306  154.1986 H   0  0  0  0  0  0  0  0  0  0  0  0  # atno 10763 bound_to 10752
  154.1729  135.2817  155.3077 H   0  0  0  0  0  0  0  0  0  0  0  0  # atno 10764 bound_to 10752
  154.5895  135.5622  153.7324 H   0  0  0  0  0  0  0  0  0  0  0  0  # atno 10765 bound_to 10752
  139.8805  134.8814  156.3781 H   0  0  0  0  0  0  0  0  0  0  0  0  # atno 11005 bound_to 11000
  146.3513  140.1322  142.8597 LP  0  0  0  0  0  0  0  0  0  0  0  0  # atno 17320 bound_to 7965
  145.0625  140.9098  143.4930 LP  0  0  0  0  0  0  0  0  0  0  0  0  # atno 17321 bound_to 7965
  140.7481  143.2916  151.3314 LP  0  0  0  0  0  0  0  0  0  0  0  0  # atno 17342 bound_to 10162
  139.6393  144.0571  152.2541 LP  0  0  0  0  0  0  0  0  0  0  0  0  # atno 17343 bound_to 10162
  156.5833  130.8475  151.3388 LP  0  0  0  0  0  0  0  0  0  0  0  0  # atno 17370 bound_to 10713
  157.7303  130.9684  150.1829 LP  0  0  0  0  0  0  0  0  0  0  0  0  # atno 17371 bound_to 10713
  140.9417  133.7510  156.0156 LP  0  0  0  0  0  0  0  0  0  0  0  0  # atno 17394 bound_to 11000
  140.8211  134.3288  157.5381 LP  0  0  0  0  0  0  0  0  0  0  0  0  # atno 17395 bound_to 11000

$$$$
