AV-unprocessed.smi:2246|AV-procd|sdf|9084|dock4
  -GOLD-   2272012283D 1   1.00000     0.00000
 Structure written by MMmdl.
 28 29  0  0  0  0  0  0  0  0  2 V2000
  153.0369  140.5942  158.4617 O   0  0  0  0  0  0  0  0  0  0  0  0
  152.1095  140.8900  157.7091 C   0  0  0  0  0  0  0  0  0  0  0  0
  151.8681  140.1793  156.3784 C   0  0  1  0  0  0  0  0  0  0  0  0
  151.5447  138.7477  156.5935 N   0  0  0  0  0  0  0  0  0  0  0  0
  150.6258  138.3986  157.6070 C   0  0  0  0  0  0  0  0  0  0  0  0
  150.3100  137.1202  157.8870 C   0  0  0  0  0  0  0  0  0  0  0  0
  149.1826  136.7356  159.1384 Cl  0  0  0  0  0  0  0  0  0  0  0  0
  150.9581  136.0687  157.1091 C   0  0  0  0  0  0  0  0  0  0  0  0
  150.6765  134.8903  157.3233 O   0  0  0  0  0  0  0  0  0  0  0  0
  151.8658  136.4497  156.1648 N   0  5  0  0  0  0  0  0  0  0  0  0
  152.1851  137.7545  155.9020 C   0  0  0  0  0  0  0  0  0  0  0  0
  153.0281  138.0569  155.0575 O   0  0  0  0  0  0  0  0  0  0  0  0
  150.6965  140.9849  155.7742 C   0  0  0  0  0  0  0  0  0  0  0  0
  150.2378  141.9790  156.8493 C   0  0  0  0  0  0  0  0  0  0  0  0
  151.2107  141.8582  157.9206 N   0  0  0  0  0  0  0  0  0  0  0  0
  151.1435  142.7377  159.0862 C   0  0  0  0  0  0  0  0  0  0  0  0
  152.3271  143.7207  159.1512 C   0  0  0  0  0  0  0  0  0  0  0  0
  153.4838  143.0783  159.3094 F   0  0  0  0  0  0  0  0  0  0  0  0
  152.3797  144.4087  158.0115 F   0  0  0  0  0  0  0  0  0  0  0  0
  152.1624  144.5794  160.1573 F   0  0  0  0  0  0  0  0  0  0  0  0
  152.7473  140.3276  155.7499 H   0  0  0  0  0  0  0  0  0  0  0  0
  150.2010  139.2268  158.1530 H   0  0  0  0  0  0  0  0  0  0  0  0
  151.0535  141.5363  154.9035 H   0  0  0  0  0  0  0  0  0  0  0  0
  149.8742  140.3624  155.4195 H   0  0  0  0  0  0  0  0  0  0  0  0
  150.2039  142.9987  156.4631 H   0  0  0  0  0  0  0  0  0  0  0  0
  149.2458  141.7220  157.2227 H   0  0  0  0  0  0  0  0  0  0  0  0
  150.2011  143.2877  159.0745 H   0  0  0  0  0  0  0  0  0  0  0  0
  151.1259  142.1276  159.9901 H   0  0  0  0  0  0  0  0  0  0  0  0
  1  2  2  0  0  0  0
  2 15  1  0  0  0  0
  2  3  1  0  0  0  0
  3  4  1  0  0  0  0
  3 13  1  0  0  0  0
  3 21  1  0  0  0  0
  4 11  1  0  0  0  0
  4  5  1  0  0  0  0
  5  6  2  0  0  0  0
  5 22  1  0  0  0  0
  6  7  1  0  0  0  0
  6  8  1  0  0  0  0
  8  9  2  0  0  0  0
  8 10  1  0  0  0  0
 10 11  1  0  0  0  0
 11 12  2  0  0  0  0
 13 14  1  0  0  0  0
 13 23  1  0  0  0  0
 13 24  1  0  0  0  0
 14 15  1  0  0  0  0
 14 25  1  0  0  0  0
 14 26  1  0  0  0  0
 15 16  1  0  0  0  0
 16 17  1  0  0  0  0
 16 27  1  0  0  0  0
 16 28  1  0  0  0  0
 17 18  1  0  0  0  0
 17 19  1  0  0  0  0
 17 20  1  0  0  0  0
M  CHG  1  10  -1
M  END
> <s_m_source_file>
AV-unprocessed.smi

> <i_m_source_file_index>
2246

> <i_lp_mmshare_version>
43012

> <i_f3d_flags>
0

> <s_epik_input>
RkMoRikoRilbQ0gyXU4xW0NIMl1bQ0gyXVtDQEBIXShDMT1PKW4yW2NIXWMoQ2wpYyg9TylbbkhdYzI9Tw==

> <s_epik_cmdline>
J2VwaWtfcHl0aG9uJywgJy1waCcsICc3LjAnLCAnLXRuJywgJzgnLCAnLW1hJywgJzIwMCcsICctbWV0YWxfYmluZGluZycsICctaW1hZScsICc8aW5maWxlLm1hZT4nLCAnLW9tYWUnLCAnPG91dGZpbGUubWFlPic=

> <r_epik_Ionization_Penalty>
1.33611

> <r_epik_Ionization_Penalty_Charging>
6.88308e-09

> <r_epik_Ionization_Penalty_Neutral>
1.33611

> <r_epik_State_Penalty>
1.41295

> <r_epik_Charging_Adjusted_Penalty>
1.41295

> <i_epik_Tot_Q>
-1

> <i_epik_Tot_abs_Q>
1

> <r_epik_Metal_State_Penalty>
0.00581136

> <b_epik_Metal_Only>
0

> <s_lp_Force_Field>
OPLS_2005

> <r_lp_Energy>
31.0975

> <b_lp_Chiralities_Consistent>
1

> <s_lp_Variant>
AV-unprocessed.smi:2246-3

> <Gold.Version>
5.8.1

> <Gold.Id.Protein>
6NUR|6NUR_protein|mol2

> <Gold.PLP.Fitness>
46.4322

> <Gold.PLP.PLP>
-38.7902

> <Gold.PLP.part.hbond>
-4.0000

> <Gold.PLP.part.metal>
0.0000

> <Gold.PLP.part.buried>
-3.7911

> <Gold.PLP.part.nonpolar>
-30.8836

> <Gold.PLP.part.repulsive>
0.0307

> <Gold.PLP.ligand.clash>
0.0000

> <Gold.PLP.ligand.torsion>
0.2906

> <Gold.PLP.Chemscore.Hbond>
2.7036

> <Gold.PLP.Chemscore.CHOScore>
0.0000

> <Gold.PLP.Chemscore.Metal>
0.0000

> <Gold.Chemscore.Hbonds>
donor molecule, donor type, donor heavy atom, donor atom, acceptor molecule, acceptor atom, score
      P1  H  6896  6907       L1     9  0.31
      P1  H  7997  8008       L1     1  0.40
      P1  H 10752 10764       L1    10  2.00

> <Gold.PLP.Chemscore.Internal.Correction>
0.1126

> <Gold.Rescore>
     Score         DG    S(hbond)    S(metal)    S(lipo)     H(rot)  DE(clash)    DE(int)     intcor
      9.88     -12.42       1.45        0.00      49.67       1.45       0.25       2.29       ----

> <Gold.Chemscore.Fitness>
9.8826

> <Gold.Chemscore.DG>
-12.4162

> <Gold.Chemscore.ZeroCoef>
-5.4800

> <Gold.Chemscore.Hbond>
1.4465

> <Gold.Chemscore.Metal>
0.0000

> <Gold.Chemscore.Lipo>
49.6653

> <Gold.Chemscore.Internal_Hbond>
0.0000

> <Gold.Chemscore.DEClash>
0.2469

> <Gold.Chemscore.DEInternal>
2.2867

> <Gold.Chemscore.Rot>
1.4476

> <Gold.Chemscore.Internal.Correction>
   9.000000E+99

> <Gold.Chemscore.Hbonds>
donor molecule, donor type, donor heavy atom, donor atom, acceptor molecule, acceptor atom, score
      P1  H  6896  6907       L1     9  0.32
      P1  H  7997  8008       L1     1  0.22
      P1  H 10752 10764       L1    10  0.34

> <Gold.Chemscore.Hbond.Weighted>
-4.8313

> <Gold.Chemscore.Metal.Weighted>
-0.0000

> <Gold.Chemscore.Lipo.Weighted>
-5.8108

> <Gold.Chemscore.Internal_Hbond.Weighted>
0.0000

> <Gold.Chemscore.DEClash.Weighted>
0.2469

> <Gold.Chemscore.DEInternal.Weighted>
2.2867

> <Gold.Chemscore.Rot.Weighted>
3.7059

> <Gold.Chemscore.Internal.Correction.Weighted>
   9.000000E+99

> <Gold.Protein.RotatedTorsions>
[ 6907 6896 6895 6894 ] final -100.48 input  -60.11 | X-H torsion
[ 7974 7965 7964 7962 ] final  -28.84 input  175.53 | X-H torsion
[ 8008 7997 7996 7995 ] final  -97.11 input   59.86 | X-H torsion
[ 10167 10162 10161 10158 ] final   49.65 input  -65.29 | X-H torsion
[ 10718 10713 10712 10709 ] final  -85.71 input   66.30 | X-H torsion
[ 10763 10752 10751 10750 ] final  -27.14 input  -60.55 | X-H torsion
[ 11005 11000 10999 10996 ] final   43.65 input  -57.11 | X-H torsion

> <Gold.Protein.ActiveResidues>
 VAL166  LYS551  ARG553  GLY616  TRP617  ASP618  TYR619  PRO620  LYS621  CYS622 
 ASP623  PHE694  ASN695  SER759  ASP760  ASP761  ALA762  ILE779  LEU786  VAL792 
 PHE793  MET794  SER795  GLU796  ALA797  LYS798  CYS799  TRP800  GLU811  SER814 

> <Gold.Protein.RotatedAtoms>
  150.7118  134.0880  159.3921 H   0  0  0  0  0  0  0  0  0  0  0  0  # atno 6907 bound_to 6896
  151.8865  135.0431  160.0503 H   0  0  0  0  0  0  0  0  0  0  0  0  # atno 6908 bound_to 6896
  152.2526  133.5192  159.5371 H   0  0  0  0  0  0  0  0  0  0  0  0  # atno 6909 bound_to 6896
  146.1260  140.5334  142.8714 H   0  0  0  0  0  0  0  0  0  0  0  0  # atno 7974 bound_to 7965
  154.7834  140.0465  157.1145 H   0  0  0  0  0  0  0  0  0  0  0  0  # atno 8008 bound_to 7997
  154.9677  140.3085  155.4982 H   0  0  0  0  0  0  0  0  0  0  0  0  # atno 8009 bound_to 7997
  156.2940  140.2259  156.4767 H   0  0  0  0  0  0  0  0  0  0  0  0  # atno 8010 bound_to 7997
  140.2807  144.3160  150.6265 H   0  0  0  0  0  0  0  0  0  0  0  0  # atno 10167 bound_to 10162
  155.9994  130.4740  150.4604 H   0  0  0  0  0  0  0  0  0  0  0  0  # atno 10718 bound_to 10713
  153.7272  135.6941  153.4998 H   0  0  0  0  0  0  0  0  0  0  0  0  # atno 10763 bound_to 10752
  153.2161  135.4386  155.0435 H   0  0  0  0  0  0  0  0  0  0  0  0  # atno 10764 bound_to 10752
  154.8265  135.3449  154.6803 H   0  0  0  0  0  0  0  0  0  0  0  0  # atno 10765 bound_to 10752
  140.1625  134.4323  155.8308 H   0  0  0  0  0  0  0  0  0  0  0  0  # atno 11005 bound_to 11000
  144.7642  140.5493  143.6714 LP  0  0  0  0  0  0  0  0  0  0  0  0  # atno 17320 bound_to 7965
  145.5365  139.1475  143.3470 LP  0  0  0  0  0  0  0  0  0  0  0  0  # atno 17321 bound_to 7965
  140.5814  143.2172  151.7421 LP  0  0  0  0  0  0  0  0  0  0  0  0  # atno 17342 bound_to 10162
  139.4963  144.4074  152.0117 LP  0  0  0  0  0  0  0  0  0  0  0  0  # atno 17343 bound_to 10162
  157.2629  131.0571  151.2309 LP  0  0  0  0  0  0  0  0  0  0  0  0  # atno 17370 bound_to 10713
  157.3417  130.7037  149.6385 LP  0  0  0  0  0  0  0  0  0  0  0  0  # atno 17371 bound_to 10713
  141.2211  133.6920  156.7620 LP  0  0  0  0  0  0  0  0  0  0  0  0  # atno 17394 bound_to 11000
  140.2472  134.8568  157.3632 LP  0  0  0  0  0  0  0  0  0  0  0  0  # atno 17395 bound_to 11000

$$$$
