#       Name:                AV-unprocessed.smi:1047
#       Creating user name   scv26
#       Creation time:       Fri Mar 27 03:01:03 2020


#       File generated by GOLD software.
#

@<TRIPOS>MOLECULE
AV-unprocessed.smi:1047
    62    64     1
SMALL
NO_CHARGES


@<TRIPOS>ATOM
      1 ****        -2.7817   5.0214   2.4343 C.3            1 S1                 0.0000
      2 ****        -1.8442   5.4928   1.3133 C.3            1 S1                 0.0000
      3 ****        -1.9348   4.6489   0.0951 N.4            1 S1                 1.0000
      4 ****        -1.3467   5.3146  -1.0919 C.3            1 S1                 0.0000
      5 ****        -1.5115   4.4363  -2.3434 C.3            1 S1                 0.0000
      6 ****        -0.9139   3.1645  -2.1202 O.3            1 S1                 0.0000
      7 ****        -1.5158   2.4706  -1.0326 C.3            1 S1                 0.0000
      8 ****        -0.9106   1.0591  -0.9434 C.3            1 S1                 0.0000
      9 ****         0.5517   1.0909  -0.7319 N.4            1 S1                 1.0000
     10 ****         1.1624  -0.2421  -0.5624 C.3            1 S1                 0.0000
     11 ****         2.6843  -0.1405  -0.3451 C.3            1 S1                 0.0000
     12 ****         2.9206   0.5166   0.8853 O.3            1 S1                 0.0000
     13 ****         3.3971  -1.5108  -0.3335 C.3            1 S1                 0.0000
     14 ****         2.8463  -2.4436   0.6367 N.pl3          1 S1                 0.0000
     15 ****         3.1552  -2.5321   1.9452 C.2            1 S1                 0.0000
     16 ****         2.5212  -3.4564   2.6600 N.2            1 S1                 0.0000
     17 ****         1.7123  -4.0432   1.7027 C.ar           1 S1                 0.0000
     18 ****         0.7821  -5.0997   1.8116 C.ar           1 S1                 0.0000
     19 ****         0.0547  -5.5441   0.6847 C.ar           1 S1                 0.0000
     20 ****        -0.9326  -6.6863   0.8473 C.3            1 S1                 0.0000
     21 ****         0.2539  -4.9293  -0.5774 C.ar           1 S1                 0.0000
     22 ****        -0.5130  -5.3936  -1.8029 C.3            1 S1                 0.0000
     23 ****         1.1780  -3.8712  -0.7035 C.ar           1 S1                 0.0000
     24 ****         1.8951  -3.4368   0.4256 C.ar           1 S1                 0.0000
     25 ****        -1.3573   3.2919   0.2645 C.3            1 S1                 0.0000
     26 ****        -2.7650   5.7260   3.2662 H              1 S1                 0.0000
     27 ****        -2.4891   4.0499   2.8322 H              1 S1                 0.0000
     28 ****        -3.8121   4.9485   2.0854 H              1 S1                 0.0000
     29 ****        -2.1213   6.5157   1.0547 H              1 S1                 0.0000
     30 ****        -0.8129   5.5318   1.6671 H              1 S1                 0.0000
     31 ****        -1.8323   6.2775  -1.2559 H              1 S1                 0.0000
     32 ****        -0.2892   5.5159  -0.9131 H              1 S1                 0.0000
     33 ****        -2.5653   4.3175  -2.6009 H              1 S1                 0.0000
     34 ****        -1.0271   4.9082  -3.1985 H              1 S1                 0.0000
     35 ****        -2.5806   2.3561  -1.2450 H              1 S1                 0.0000
     36 ****        -1.3811   0.5093  -0.1271 H              1 S1                 0.0000
     37 ****        -1.1230   0.5085  -1.8606 H              1 S1                 0.0000
     38 ****         0.9851   1.5471  -1.5221 H              1 S1                 0.0000
     39 ****         0.6854  -0.7513   0.2763 H              1 S1                 0.0000
     40 ****         0.9575  -0.8334  -1.4559 H              1 S1                 0.0000
     41 ****         3.1238   0.4670  -1.1373 H              1 S1                 0.0000
     42 ****         3.8548   0.5821   1.0173 H              1 S1                 0.0000
     43 ****         3.3326  -1.9684  -1.3213 H              1 S1                 0.0000
     44 ****         4.4609  -1.3846  -0.1270 H              1 S1                 0.0000
     45 ****         3.8819  -1.8751   2.4006 H              1 S1                 0.0000
     46 ****         0.6324  -5.5699   2.7725 H              1 S1                 0.0000
     47 ****        -0.6191  -7.5462   0.2551 H              1 S1                 0.0000
     48 ****        -1.9281  -6.3844   0.5212 H              1 S1                 0.0000
     49 ****        -1.0050  -7.0044   1.8877 H              1 S1                 0.0000
     50 ****        -0.2085  -4.8454  -2.6948 H              1 S1                 0.0000
     51 ****        -1.5832  -5.2400  -1.6635 H              1 S1                 0.0000
     52 ****        -0.3362  -6.4534  -1.9864 H              1 S1                 0.0000
     53 ****         1.3389  -3.3964  -1.6599 H              1 S1                 0.0000
     54 ****        -0.3043   3.3827   0.5357 H              1 S1                 0.0000
     55 ****        -1.8541   2.7687   1.0811 H              1 S1                 0.0000
     56 ****         0.7490   1.6286   0.1003 H              1 S1                 0.0000
     57 ****        -2.9189   4.5324  -0.1024 H              1 S1                 0.0000
     58 ****         0.0572   3.2956  -1.9206 LP             1 S1                 0.0000
     59 ****        -1.0124   2.6127  -2.9483 LP             1 S1                 0.0000
     60 ****         2.5108  -0.0078   1.6316 LP             1 S1                 0.0000
     61 ****         2.5187   1.4320   0.8612 LP             1 S1                 0.0000
     62 ****         2.6064  -3.6710   3.6330 LP             1 S1                 0.0000
@<TRIPOS>BOND
    1    1    2 1     
    2    1   26 1     
    3    1   27 1     
    4    1   28 1     
    5    2    3 1     
    6    2   29 1     
    7    2   30 1     
    8    3   25 1     
    9    3    4 1     
   10    3   57 1     
   11    4    5 1     
   12    4   31 1     
   13    4   32 1     
   14    5    6 1     
   15    5   33 1     
   16    5   34 1     
   17    6    7 1     
   18    7    8 1     
   19    7   25 1     
   20    7   35 1     
   21    8    9 1     
   22    8   36 1     
   23    8   37 1     
   24    9   10 1     
   25    9   38 1     
   26    9   56 1     
   27   10   11 1     
   28   10   39 1     
   29   10   40 1     
   30   11   12 1     
   31   11   13 1     
   32   11   41 1     
   33   12   42 1     
   34   13   14 1     
   35   13   43 1     
   36   13   44 1     
   37   14   24 1     
   38   14   15 1     
   39   15   16 2     
   40   15   45 1     
   41   16   17 1     
   42   17   24 ar    
   43   17   18 ar    
   44   18   19 ar    
   45   18   46 1     
   46   19   20 1     
   47   19   21 ar    
   48   20   47 1     
   49   20   48 1     
   50   20   49 1     
   51   21   22 1     
   52   21   23 ar    
   53   22   50 1     
   54   22   51 1     
   55   22   52 1     
   56   23   24 ar    
   57   23   53 1     
   58   25   54 1     
   59   25   55 1     
   60    6   58 1     
   61    6   59 1     
   62   12   60 1     
   63   12   61 1     
   64   16   62 1     
@<TRIPOS>SUBSTRUCTURE
      1 S1             1
@<TRIPOS>SET
LONE_PAIRS      STATIC     ATOMS    <user>   **** ""
5 58 59 60 61 62
DONOR_HYDROGENS      STATIC     ATOMS    <user>   **** ""
4 57 38 56 42
ATOM$BLUE        STATIC     ATOMS    COLORGROUP SYSTEM
5 58 59 60 61 62
ATOM$RED        STATIC     ATOMS    COLORGROUP SYSTEM
4 57 38 56 42
