AV-unprocessed.smi:330|AV-procd|sdf|2349|dock9
  -GOLD-   2262022263D 1   1.00000     0.00000
 Structure written by MMmdl.
 36 38  0  0  0  0  0  0  0  0  1 V2000
  151.3920  145.4870  160.1610 C   0  0  0  0  0  0  0  0  0  0  0  0
  152.0950  144.1992  160.5552 C   0  0  0  0  0  0  0  0  0  0  0  0
  152.5813  143.9176  161.7686 C   0  0  0  0  0  0  0  0  0  0  0  0
  153.2958  142.3261  161.8574 S   0  0  0  0  0  0  0  0  0  0  0  0
  152.8951  142.0399  160.1258 C   0  0  0  0  0  0  0  0  0  0  0  0
  153.1680  140.9920  159.5424 O   0  0  0  0  0  0  0  0  0  0  0  0
  152.2588  143.1716  159.6158 N   0  0  0  0  0  0  0  0  0  0  0  0
  151.8070  143.2709  158.2217 C   0  0  0  0  0  0  0  0  0  0  0  0
  150.8346  142.1547  157.8182 C   0  0  0  0  0  0  0  0  0  0  0  0
  149.9737  141.7487  158.6001 O   0  0  0  0  0  0  0  0  0  0  0  0
  150.9940  141.6652  156.5791 N   0  0  0  0  0  0  0  0  0  0  0  0
  150.1941  140.6060  155.9732 C   0  0  0  0  0  0  0  0  0  0  0  0
  150.9977  139.3388  155.7331 C   0  0  0  0  0  0  0  0  0  0  0  0
  152.3329  139.3762  155.0272 C   0  0  0  0  0  0  0  0  0  0  0  0
  151.1370  138.7454  154.3511 C   0  0  0  0  0  0  0  0  0  0  0  0
  149.5386  141.0694  154.6853 C   0  0  0  0  0  0  0  0  0  0  0  0
  148.2021  141.7718  154.7007 C   0  0  0  0  0  0  0  0  0  0  0  0
  148.3167  140.3762  154.1300 C   0  0  0  0  0  0  0  0  0  0  0  0
  151.0818  146.0369  161.0500 H   0  0  0  0  0  0  0  0  0  0  0  0
  150.4981  145.2929  159.5682 H   0  0  0  0  0  0  0  0  0  0  0  0
  152.0636  146.1245  159.5857 H   0  0  0  0  0  0  0  0  0  0  0  0
  152.5529  144.5618  162.6349 H   0  0  0  0  0  0  0  0  0  0  0  0
  151.3501  144.2428  158.0338 H   0  0  0  0  0  0  0  0  0  0  0  0
  152.6693  143.2249  157.5546 H   0  0  0  0  0  0  0  0  0  0  0  0
  151.7287  142.0580  156.0088 H   0  0  0  0  0  0  0  0  0  0  0  0
  149.3843  140.3527  156.6607 H   0  0  0  0  0  0  0  0  0  0  0  0
  150.9204  138.6198  156.5468 H   0  0  0  0  0  0  0  0  0  0  0  0
  152.6788  140.3309  154.6361 H   0  0  0  0  0  0  0  0  0  0  0  0
  153.1129  138.7119  155.3929 H   0  0  0  0  0  0  0  0  0  0  0  0
  151.1185  137.6608  154.2678 H   0  0  0  0  0  0  0  0  0  0  0  0
  150.6913  139.2846  153.5176 H   0  0  0  0  0  0  0  0  0  0  0  0
  150.2493  141.4311  153.9442 H   0  0  0  0  0  0  0  0  0  0  0  0
  147.6985  141.8826  155.6591 H   0  0  0  0  0  0  0  0  0  0  0  0
  148.0588  142.5926  154.0009 H   0  0  0  0  0  0  0  0  0  0  0  0
  148.2490  140.2666  153.0497 H   0  0  0  0  0  0  0  0  0  0  0  0
  147.8815  139.5644  154.7094 H   0  0  0  0  0  0  0  0  0  0  0  0
  1  2  1  0  0  0  0
  1 19  1  0  0  0  0
  1 20  1  0  0  0  0
  1 21  1  0  0  0  0
  2  7  1  0  0  0  0
  2  3  2  0  0  0  0
  3  4  1  0  0  0  0
  3 22  1  0  0  0  0
  4  5  1  0  0  0  0
  5  6  2  0  0  0  0
  5  7  1  0  0  0  0
  7  8  1  0  0  0  0
  8  9  1  0  0  0  0
  8 23  1  0  0  0  0
  8 24  1  0  0  0  0
  9 10  2  0  0  0  0
  9 11  1  0  0  0  0
 11 12  1  0  0  0  0
 11 25  1  0  0  0  0
 12 13  1  0  0  0  0
 12 16  1  0  0  0  0
 12 26  1  0  0  0  0
 13 15  1  0  0  0  0
 13 14  1  0  0  0  0
 13 27  1  0  0  0  0
 14 15  1  0  0  0  0
 14 28  1  0  0  0  0
 14 29  1  0  0  0  0
 15 30  1  0  0  0  0
 15 31  1  0  0  0  0
 16 18  1  0  0  0  0
 16 17  1  0  0  0  0
 16 32  1  0  0  0  0
 17 18  1  0  0  0  0
 17 33  1  0  0  0  0
 17 34  1  0  0  0  0
 18 35  1  0  0  0  0
 18 36  1  0  0  0  0
M  END
> <s_m_source_file>
AV-unprocessed.smi

> <i_m_source_file_index>
330

> <i_lp_mmshare_version>
43012

> <i_f3d_flags>
0

> <s_epik_input>
W0NIM11jMVtjSF1zYyg9TyluMVtDSDJdQyg9TylbTkhdW0NIXShbQ0hdMltDSDJdW0NIMl0yKVtDSF0zW0NIMl1bQ0gyXTM=

> <s_epik_cmdline>
J2VwaWtfcHl0aG9uJywgJy1waCcsICc3LjAnLCAnLXRuJywgJzgnLCAnLW1hJywgJzIwMCcsICctbWV0YWxfYmluZGluZycsICctaW1hZScsICc8aW5maWxlLm1hZT4nLCAnLW9tYWUnLCAnPG91dGZpbGUubWFlPic=

> <r_lp_tautomer_probability>
1

> <r_epik_Ionization_Penalty>
1.36851e-06

> <r_epik_Ionization_Penalty_Charging>
1.26835e-06

> <r_epik_Ionization_Penalty_Neutral>
1.00162e-07

> <r_epik_State_Penalty>
-0

> <r_epik_Charging_Adjusted_Penalty>
1.26835e-06

> <i_epik_Tot_Q>
0

> <i_epik_Tot_abs_Q>
0

> <r_epik_Metal_State_Penalty>
-0

> <b_epik_Metal_Only>
0

> <s_lp_Force_Field>
OPLS_2005

> <r_lp_Energy>
27.3766

> <b_lp_Chiralities_Consistent>
1

> <s_lp_Variant>
AV-unprocessed.smi:330-1

> <Gold.Version>
5.8.1

> <Gold.Id.Protein>
6NUR|6NUR_protein|mol2

> <Gold.PLP.Fitness>
46.6337

> <Gold.PLP.PLP>
-47.9118

> <Gold.PLP.part.hbond>
-0.2522

> <Gold.PLP.part.metal>
0.0000

> <Gold.PLP.part.buried>
-3.6641

> <Gold.PLP.part.nonpolar>
-42.6362

> <Gold.PLP.part.repulsive>
0.1349

> <Gold.PLP.ligand.clash>
0.0000

> <Gold.PLP.ligand.torsion>
1.6994

> <Gold.PLP.Chemscore.Hbond>
0.0000

> <Gold.PLP.Chemscore.CHOScore>
0.0000

> <Gold.PLP.Chemscore.Metal>
0.0000

> <Gold.PLP.Chemscore.Internal.Correction>
2.1207

> <Gold.Rescore>
     Score         DG    S(hbond)    S(metal)    S(lipo)     H(rot)  DE(clash)    DE(int)     intcor
     12.32     -14.00       0.00        0.00     109.75       1.69       0.05       1.63       ----

> <Gold.Chemscore.Fitness>
12.3197

> <Gold.Chemscore.DG>
-14.0022

> <Gold.Chemscore.ZeroCoef>
-5.4800

> <Gold.Chemscore.Hbond>
0.0000

> <Gold.Chemscore.Metal>
0.0000

> <Gold.Chemscore.Lipo>
109.7531

> <Gold.Chemscore.Internal_Hbond>
0.0000

> <Gold.Chemscore.DEClash>
0.0479

> <Gold.Chemscore.DEInternal>
1.6346

> <Gold.Chemscore.Rot>
1.6871

> <Gold.Chemscore.Internal.Correction>
   9.000000E+99

> <Gold.Chemscore.Hbond.Weighted>
-0.0000

> <Gold.Chemscore.Metal.Weighted>
-0.0000

> <Gold.Chemscore.Lipo.Weighted>
-12.8411

> <Gold.Chemscore.Internal_Hbond.Weighted>
0.0000

> <Gold.Chemscore.DEClash.Weighted>
0.0479

> <Gold.Chemscore.DEInternal.Weighted>
1.6346

> <Gold.Chemscore.Rot.Weighted>
4.3189

> <Gold.Chemscore.Internal.Correction.Weighted>
   9.000000E+99

> <Gold.Protein.RotatedTorsions>
[ 6907 6896 6895 6894 ] final -129.95 input  -60.11 | X-H torsion
[ 7974 7965 7964 7962 ] final  176.28 input  175.53 | X-H torsion
[ 8008 7997 7996 7995 ] final  156.48 input   59.86 | X-H torsion
[ 10167 10162 10161 10158 ] final  -88.67 input  -65.29 | X-H torsion
[ 10718 10713 10712 10709 ] final -113.12 input   66.30 | X-H torsion
[ 10763 10752 10751 10750 ] final -114.14 input  -60.55 | X-H torsion
[ 11005 11000 10999 10996 ] final  -51.32 input  -57.11 | X-H torsion

> <Gold.Protein.ActiveResidues>
 VAL166  LYS551  ARG553  GLY616  TRP617  ASP618  TYR619  PRO620  LYS621  CYS622 
 ASP623  PHE694  ASN695  SER759  ASP760  ASP761  ALA762  ILE779  LEU786  VAL792 
 PHE793  MET794  SER795  GLU796  ALA797  LYS798  CYS799  TRP800  GLU811  SER814 

> <Gold.Protein.RotatedAtoms>
  150.9344  133.6729  159.2803 H   0  0  0  0  0  0  0  0  0  0  0  0  # atno 6907 bound_to 6896
  151.4140  135.0988  159.9603 H   0  0  0  0  0  0  0  0  0  0  0  0  # atno 6908 bound_to 6896
  152.5041  133.8810  159.7401 H   0  0  0  0  0  0  0  0  0  0  0  0  # atno 6909 bound_to 6896
  144.7187  140.0073  143.6440 H   0  0  0  0  0  0  0  0  0  0  0  0  # atno 7974 bound_to 7965
  156.2420  140.1911  156.6962 H   0  0  0  0  0  0  0  0  0  0  0  0  # atno 8008 bound_to 7997
  154.6215  140.0608  156.9647 H   0  0  0  0  0  0  0  0  0  0  0  0  # atno 8009 bound_to 7997
  155.1854  140.3280  155.4370 H   0  0  0  0  0  0  0  0  0  0  0  0  # atno 8010 bound_to 7997
  140.3724  143.2788  151.9484 H   0  0  0  0  0  0  0  0  0  0  0  0  # atno 10167 bound_to 10162
  156.0747  130.5956  150.8600 H   0  0  0  0  0  0  0  0  0  0  0  0  # atno 10718 bound_to 10713
  154.8427  135.4428  154.1459 H   0  0  0  0  0  0  0  0  0  0  0  0  # atno 10763 bound_to 10752
  153.2632  135.6938  153.7563 H   0  0  0  0  0  0  0  0  0  0  0  0  # atno 10764 bound_to 10752
  153.6831  135.3399  155.3159 H   0  0  0  0  0  0  0  0  0  0  0  0  # atno 10765 bound_to 10752
  141.0864  133.6641  156.3859 H   0  0  0  0  0  0  0  0  0  0  0  0  # atno 11005 bound_to 11000
  146.0287  139.3315  143.0768 LP  0  0  0  0  0  0  0  0  0  0  0  0  # atno 17320 bound_to 7965
  145.8479  140.9545  143.0765 LP  0  0  0  0  0  0  0  0  0  0  0  0  # atno 17321 bound_to 7965
  139.4802  144.5894  151.7797 LP  0  0  0  0  0  0  0  0  0  0  0  0  # atno 17342 bound_to 10162
  140.5020  144.1155  150.5973 LP  0  0  0  0  0  0  0  0  0  0  0  0  # atno 17343 bound_to 10162
  157.5836  131.0946  150.9231 LP  0  0  0  0  0  0  0  0  0  0  0  0  # atno 17370 bound_to 10713
  156.9422  130.5388  149.5280 LP  0  0  0  0  0  0  0  0  0  0  0  0  # atno 17371 bound_to 10713
  140.5352  134.6173  157.5363 LP  0  0  0  0  0  0  0  0  0  0  0  0  # atno 17394 bound_to 11000
  139.9683  134.7335  156.0093 LP  0  0  0  0  0  0  0  0  0  0  0  0  # atno 17395 bound_to 11000

$$$$
