#       Name:                AV-unprocessed.smi:193
#       Creating user name   scv26
#       Creation time:       Thu Mar 26 19:34:13 2020


#       File generated by GOLD software.
#

@<TRIPOS>MOLECULE
AV-unprocessed.smi:193
    70    74     1
SMALL
NO_CHARGES


@<TRIPOS>ATOM
      1 ****        -3.4222  -4.1019  -0.6571 C.3            1 S1                 0.0000
      2 ****        -3.0835  -2.6223  -0.4181 C.3            1 S1                 0.0000
      3 ****        -1.6959  -2.2816  -0.9964 C.3            1 S1                 0.0000
      4 ****        -1.0496  -1.1910  -0.2624 N.3            1 S1                 0.0000
      5 ****         0.3048  -1.2183  -0.2088 C.ar           1 S1                 0.0000
      6 ****         1.0185  -1.6766  -1.2716 N.ar           1 S1                 0.0000
      7 ****         2.3546  -1.6850  -1.2299 C.ar           1 S1                 0.0000
      8 ****         3.1615  -1.2835  -0.2454 N.ar           1 S1                 0.0000
      9 ****         2.4489  -0.8221   0.8221 C.ar           1 S1                 0.0000
     10 ****         1.0312  -0.7564   0.9227 C.ar           1 S1                 0.0000
     11 ****         0.6644  -0.2387   2.1588 N.2            1 S1                 0.0000
     12 ****         1.8025  -0.0038   2.7533 C.2            1 S1                 0.0000
     13 ****         2.9247  -0.3155   2.0188 N.pl3          1 S1                 0.0000
     14 ****         4.3090  -0.1477   2.4337 C.3            1 S1                 0.0000
     15 ****         4.8780   1.2656   2.1558 C.3            1 S1                 0.0000
     16 ****         4.1221   2.1922   2.9171 O.3            1 S1                 0.0000
     17 ****         6.3491   1.3528   2.6083 C.3            1 S1                 0.0000
     18 ****         7.0032   2.6847   2.1999 C.3            1 S1                 0.0000
     19 ****         6.8848   2.8739   0.7952 O.3            1 S1                 0.0000
     20 ****         5.5325   2.9722   0.3651 C.3            1 S1                 0.0000
     21 ****         4.7819   1.6626   0.6662 C.3            1 S1                 0.0000
     22 ****        -1.5845   0.1662  -0.3578 C.3            1 S1                 0.0000
     23 ****        -3.0758   0.2705  -0.0052 C.3            1 S1                 0.0000
     24 ****        -3.9067  -0.2881  -1.0978 N.4            1 S1                 1.0000
     25 ****        -5.1238   0.5149  -1.3520 C.3            1 S1                 0.0000
     26 ****        -4.8764   1.7188  -2.2309 C.3            1 S1                 0.0000
     27 ****        -5.5767   0.5012  -2.7953 C.3            1 S1                 0.0000
     28 ****        -7.0478   0.5615  -3.1424 C.3            1 S1                 0.0000
     29 ****        -4.2246  -1.7338  -0.9663 C.3            1 S1                 0.0000
     30 ****        -3.4560  -4.3358  -1.7217 H              1 S1                 0.0000
     31 ****        -4.3914  -4.3586  -0.2282 H              1 S1                 0.0000
     32 ****        -2.6798  -4.7549  -0.1973 H              1 S1                 0.0000
     33 ****        -3.0349  -2.4966   0.6649 H              1 S1                 0.0000
     34 ****        -1.0661  -3.1698  -0.9218 H              1 S1                 0.0000
     35 ****        -1.7636  -2.0384  -2.0576 H              1 S1                 0.0000
     36 ****         2.8481  -2.0647  -2.1126 H              1 S1                 0.0000
     37 ****         1.8568   0.4121   3.7490 H              1 S1                 0.0000
     38 ****         4.3746  -0.3799   3.4976 H              1 S1                 0.0000
     39 ****         4.9100  -0.9009   1.9226 H              1 S1                 0.0000
     40 ****         4.4657   3.0587   2.7613 H              1 S1                 0.0000
     41 ****         6.4266   1.2133   3.6872 H              1 S1                 0.0000
     42 ****         6.9150   0.5382   2.1545 H              1 S1                 0.0000
     43 ****         6.5531   3.5246   2.7314 H              1 S1                 0.0000
     44 ****         8.0607   2.6763   2.4643 H              1 S1                 0.0000
     45 ****         5.0472   3.8230   0.8457 H              1 S1                 0.0000
     46 ****         5.5205   3.1683  -0.7072 H              1 S1                 0.0000
     47 ****         5.2134   0.8689   0.0551 H              1 S1                 0.0000
     48 ****         3.7412   1.7581   0.3541 H              1 S1                 0.0000
     49 ****        -1.0348   0.8242   0.3158 H              1 S1                 0.0000
     50 ****        -1.4092   0.5509  -1.3636 H              1 S1                 0.0000
     51 ****        -3.3086  -0.1842   0.9585 H              1 S1                 0.0000
     52 ****        -3.3036   1.3315   0.1068 H              1 S1                 0.0000
     53 ****        -5.8488   0.5640  -0.5411 H              1 S1                 0.0000
     54 ****        -5.4783   2.6061  -2.0442 H              1 S1                 0.0000
     55 ****        -3.8590   1.9120  -2.5666 H              1 S1                 0.0000
     56 ****        -4.9923  -0.1028  -3.4876 H              1 S1                 0.0000
     57 ****        -7.5887   1.1888  -2.4332 H              1 S1                 0.0000
     58 ****        -7.4785  -0.4395  -3.1198 H              1 S1                 0.0000
     59 ****        -7.1794   0.9750  -4.1424 H              1 S1                 0.0000
     60 ****        -4.5262  -2.0898  -1.9522 H              1 S1                 0.0000
     61 ****        -5.0961  -1.8513  -0.3202 H              1 S1                 0.0000
     62 ****        -3.3418  -0.1989  -1.9305 H              1 S1                 0.0000
     63 ****        -1.3782  -1.4713   0.6395 LP             1 S1                 0.0000
     64 ****         0.5428  -2.0081  -2.0863 LP             1 S1                 0.0000
     65 ****         4.1601  -1.3167  -0.2854 LP             1 S1                 0.0000
     66 ****        -0.2582  -0.0822   2.5115 LP             1 S1                 0.0000
     67 ****         4.1958   1.9698   3.8893 LP             1 S1                 0.0000
     68 ****         3.1625   2.1546   2.6383 LP             1 S1                 0.0000
     69 ****         7.3123   2.0982   0.3310 LP             1 S1                 0.0000
     70 ****         7.3619   3.7163   0.5448 LP             1 S1                 0.0000
@<TRIPOS>BOND
    1    1    2 1     
    2    1   30 1     
    3    1   31 1     
    4    1   32 1     
    5    2   29 1     
    6    2    3 1     
    7    2   33 1     
    8    3    4 1     
    9    3   34 1     
   10    3   35 1     
   11    4    5 1     
   12    4   22 1     
   13    5   10 ar    
   14    5    6 ar    
   15    6    7 ar    
   16    7    8 ar    
   17    7   36 1     
   18    8    9 ar    
   19    9   13 1     
   20    9   10 ar    
   21   10   11 1     
   22   11   12 2     
   23   12   13 1     
   24   12   37 1     
   25   13   14 1     
   26   14   15 1     
   27   14   38 1     
   28   14   39 1     
   29   15   21 1     
   30   15   16 1     
   31   15   17 1     
   32   16   40 1     
   33   17   18 1     
   34   17   41 1     
   35   17   42 1     
   36   18   19 1     
   37   18   43 1     
   38   18   44 1     
   39   19   20 1     
   40   20   21 1     
   41   20   45 1     
   42   20   46 1     
   43   21   47 1     
   44   21   48 1     
   45   22   23 1     
   46   22   49 1     
   47   22   50 1     
   48   23   24 1     
   49   23   51 1     
   50   23   52 1     
   51   24   25 1     
   52   24   29 1     
   53   24   62 1     
   54   25   27 1     
   55   25   26 1     
   56   25   53 1     
   57   26   27 1     
   58   26   54 1     
   59   26   55 1     
   60   27   28 1     
   61   27   56 1     
   62   28   57 1     
   63   28   58 1     
   64   28   59 1     
   65   29   60 1     
   66   29   61 1     
   67    4   63 1     
   68    6   64 1     
   69    8   65 1     
   70   11   66 1     
   71   16   67 1     
   72   16   68 1     
   73   19   69 1     
   74   19   70 1     
@<TRIPOS>SUBSTRUCTURE
      1 S1             1
@<TRIPOS>SET
LONE_PAIRS      STATIC     ATOMS    <user>   **** ""
8 63 64 65 66 67 68 69 70
DONOR_HYDROGENS      STATIC     ATOMS    <user>   **** ""
2 40 62
ATOM$BLUE        STATIC     ATOMS    COLORGROUP SYSTEM
8 63 64 65 66 67 68 69 70
ATOM$RED        STATIC     ATOMS    COLORGROUP SYSTEM
2 40 62
