AV-unprocessed.smi:574|AV-procd|sdf|2975|dock9
  -GOLD-   2262023483D 1   1.00000     0.00000
 Structure written by MMmdl.
 40 41  0  0  0  0  0  0  0  0  1 V2000
  147.8287  136.4323  159.2009 C   0  0  0  0  0  0  0  0  0  0  0  0
  148.8051  135.6098  158.3672 C   0  0  0  0  0  0  0  0  0  0  0  0
  148.8274  134.3839  158.4720 O   0  0  0  0  0  0  0  0  0  0  0  0
  149.6088  136.2988  157.5438 N   0  0  0  0  0  0  0  0  0  0  0  0
  150.6094  135.7087  156.6631 C   0  0  0  0  0  0  0  0  0  0  0  0
  151.4881  136.7869  156.0043 C   0  0  0  0  0  0  0  0  0  0  0  0
  151.1712  138.1158  156.5114 N   0  0  0  0  0  0  0  0  0  0  0  0
  151.9230  139.2126  156.3272 C   0  0  0  0  0  0  0  0  0  0  0  0
  152.9579  139.2242  155.6598 O   0  0  0  0  0  0  0  0  0  0  0  0
  151.3845  140.4792  156.9285 C   0  0  0  0  0  0  0  0  0  0  0  0
  152.1998  141.1253  157.7932 N   0  0  0  0  0  0  0  0  0  0  0  0
  151.7635  142.2540  158.3655 C   0  0  0  0  0  0  0  0  0  0  0  0
  152.6270  142.9031  159.2576 N   0  0  0  0  0  0  0  0  0  0  0  0
  153.4818  142.1601  160.1830 C   0  0  0  0  0  0  0  0  0  0  0  0
  152.7751  142.0342  161.5449 C   0  0  0  0  0  0  0  0  0  0  0  0
  152.4717  143.3352  162.0451 O   0  0  0  0  0  0  0  0  0  0  0  0
  151.6328  144.0801  161.1645 C   0  0  0  0  0  0  0  0  0  0  0  0
  152.3263  144.2285  159.7979 C   0  0  0  0  0  0  0  0  0  0  0  0
  150.5639  142.8064  158.1481 N   0  0  0  0  0  0  0  0  0  0  0  0
  149.7264  142.1743  157.3003 C   0  0  0  0  0  0  0  0  0  0  0  0
  150.0848  140.9775  156.6503 C   0  0  0  0  0  0  0  0  0  0  0  0
  148.9454  140.1889  155.6129 Cl  0  0  0  0  0  0  0  0  0  0  0  0
  147.2340  137.0852  158.5618 H   0  0  0  0  0  0  0  0  0  0  0  0
  148.3697  137.0493  159.9186 H   0  0  0  0  0  0  0  0  0  0  0  0
  147.1479  135.7840  159.7531 H   0  0  0  0  0  0  0  0  0  0  0  0
  149.5193  137.3045  157.5248 H   0  0  0  0  0  0  0  0  0  0  0  0
  151.2250  134.9976  157.2170 H   0  0  0  0  0  0  0  0  0  0  0  0
  150.0833  135.1337  155.9006 H   0  0  0  0  0  0  0  0  0  0  0  0
  152.5461  136.5693  156.1599 H   0  0  0  0  0  0  0  0  0  0  0  0
  151.3279  136.7956  154.9259 H   0  0  0  0  0  0  0  0  0  0  0  0
  150.3259  138.2083  157.0562 H   0  0  0  0  0  0  0  0  0  0  0  0
  153.7582  141.1768  159.8035 H   0  0  0  0  0  0  0  0  0  0  0  0
  154.4187  142.7049  160.3048 H   0  0  0  0  0  0  0  0  0  0  0  0
  151.8614  141.4441  161.4565 H   0  0  0  0  0  0  0  0  0  0  0  0
  153.4200  141.5219  162.2590 H   0  0  0  0  0  0  0  0  0  0  0  0
  150.6659  143.5852  161.0595 H   0  0  0  0  0  0  0  0  0  0  0  0
  151.4449  145.0613  161.6003 H   0  0  0  0  0  0  0  0  0  0  0  0
  153.2623  144.7747  159.9194 H   0  0  0  0  0  0  0  0  0  0  0  0
  151.7181  144.8294  159.1227 H   0  0  0  0  0  0  0  0  0  0  0  0
  148.7561  142.6234  157.1483 H   0  0  0  0  0  0  0  0  0  0  0  0
  1  2  1  0  0  0  0
  1 23  1  0  0  0  0
  1 24  1  0  0  0  0
  1 25  1  0  0  0  0
  2  3  2  0  0  0  0
  2  4  1  0  0  0  0
  4  5  1  0  0  0  0
  4 26  1  0  0  0  0
  5  6  1  0  0  0  0
  5 27  1  0  0  0  0
  5 28  1  0  0  0  0
  6  7  1  0  0  0  0
  6 29  1  0  0  0  0
  6 30  1  0  0  0  0
  7  8  1  0  0  0  0
  7 31  1  0  0  0  0
  8  9  2  0  0  0  0
  8 10  1  0  0  0  0
 10 21  1  0  0  0  0
 10 11  2  0  0  0  0
 11 12  1  0  0  0  0
 12 13  1  0  0  0  0
 12 19  2  0  0  0  0
 13 18  1  0  0  0  0
 13 14  1  0  0  0  0
 14 15  1  0  0  0  0
 14 32  1  0  0  0  0
 14 33  1  0  0  0  0
 15 16  1  0  0  0  0
 15 34  1  0  0  0  0
 15 35  1  0  0  0  0
 16 17  1  0  0  0  0
 17 18  1  0  0  0  0
 17 36  1  0  0  0  0
 17 37  1  0  0  0  0
 18 38  1  0  0  0  0
 18 39  1  0  0  0  0
 19 20  1  0  0  0  0
 20 21  2  0  0  0  0
 20 40  1  0  0  0  0
 21 22  1  0  0  0  0
M  END
> <s_m_source_file>
AV-unprocessed.smi

> <i_m_source_file_index>
574

> <i_lp_mmshare_version>
43012

> <i_f3d_flags>
0

> <s_epik_input>
W0NIM11DKD1PKVtOSF1bQ0gyXVtDSDJdW05IXUMoPU8pYzFuYyhuW2NIXWMxQ2wpTjJbQ0gyXVtDSDJdT1tDSDJdW0NIMl0y

> <s_epik_cmdline>
J2VwaWtfcHl0aG9uJywgJy1waCcsICc3LjAnLCAnLXRuJywgJzgnLCAnLW1hJywgJzIwMCcsICctbWV0YWxfYmluZGluZycsICctaW1hZScsICc8aW5maWxlLm1hZT4nLCAnLW9tYWUnLCAnPG91dGZpbGUubWFlPic=

> <r_lp_tautomer_probability>
1

> <r_epik_Ionization_Penalty>
4.61473e-05

> <r_epik_Ionization_Penalty_Charging>
0

> <r_epik_Ionization_Penalty_Neutral>
4.61473e-05

> <r_epik_State_Penalty>
-0

> <r_epik_Charging_Adjusted_Penalty>
0

> <i_epik_Tot_Q>
0

> <i_epik_Tot_abs_Q>
0

> <r_epik_Metal_State_Penalty>
0.0410325

> <b_epik_Metal_Only>
0

> <s_lp_Force_Field>
OPLS_2005

> <r_lp_Energy>
11.2452

> <b_lp_Chiralities_Consistent>
1

> <s_lp_Variant>
AV-unprocessed.smi:574-1

> <Gold.Version>
5.8.1

> <Gold.Id.Protein>
6NUR|6NUR_protein|mol2

> <Gold.PLP.Fitness>
39.1459

> <Gold.PLP.PLP>
-34.7435

> <Gold.PLP.part.hbond>
-2.0000

> <Gold.PLP.part.metal>
0.0000

> <Gold.PLP.part.buried>
-3.0268

> <Gold.PLP.part.nonpolar>
-29.7751

> <Gold.PLP.part.repulsive>
0.3862

> <Gold.PLP.ligand.clash>
0.0000

> <Gold.PLP.ligand.torsion>
1.8377

> <Gold.PLP.Chemscore.Hbond>
2.0000

> <Gold.PLP.Chemscore.CHOScore>
0.6249

> <Gold.PLP.Chemscore.Metal>
0.0000

> <Gold.Chemscore.Hbonds>
donor molecule, donor type, donor heavy atom, donor atom, acceptor molecule, acceptor atom, score
      P1  H  6896  6907       L1     3  0.78
      P1  H  7997  8008       L1     9  1.00
      L1  C    20    40       P1  8028  0.59

> <Gold.PLP.Chemscore.Internal.Correction>
0.2029

> <Gold.Rescore>
     Score         DG    S(hbond)    S(metal)    S(lipo)     H(rot)  DE(clash)    DE(int)     intcor
     14.58     -16.58       1.89        0.00      78.10       1.70       0.25       1.75       ----

> <Gold.Chemscore.Fitness>
14.5770

> <Gold.Chemscore.DG>
-16.5843

> <Gold.Chemscore.ZeroCoef>
-5.4800

> <Gold.Chemscore.Hbond>
1.8885

> <Gold.Chemscore.Metal>
0.0000

> <Gold.Chemscore.Lipo>
78.1003

> <Gold.Chemscore.Internal_Hbond>
0.0000

> <Gold.Chemscore.DEClash>
0.2540

> <Gold.Chemscore.DEInternal>
1.7533

> <Gold.Chemscore.Rot>
1.6957

> <Gold.Chemscore.Internal.Correction>
   9.000000E+99

> <Gold.Chemscore.Hbonds>
donor molecule, donor type, donor heavy atom, donor atom, acceptor molecule, acceptor atom, score
      P1  H  6896  6907       L1     3  0.11
      P1  H  7997  8008       L1     9  0.99

> <Gold.Chemscore.Hbond.Weighted>
-6.3076

> <Gold.Chemscore.Metal.Weighted>
-0.0000

> <Gold.Chemscore.Lipo.Weighted>
-9.1377

> <Gold.Chemscore.Internal_Hbond.Weighted>
0.0000

> <Gold.Chemscore.DEClash.Weighted>
0.2540

> <Gold.Chemscore.DEInternal.Weighted>
1.7533

> <Gold.Chemscore.Rot.Weighted>
4.3410

> <Gold.Chemscore.Internal.Correction.Weighted>
   9.000000E+99

> <Gold.Protein.RotatedTorsions>
[ 6907 6896 6895 6894 ] final  -88.09 input  -60.11 | X-H torsion
[ 7974 7965 7964 7962 ] final   86.97 input  175.53 | X-H torsion
[ 8008 7997 7996 7995 ] final  -31.32 input   59.86 | X-H torsion
[ 10167 10162 10161 10158 ] final   67.30 input  -65.29 | X-H torsion
[ 10718 10713 10712 10709 ] final -159.90 input   66.30 | X-H torsion
[ 10763 10752 10751 10750 ] final   14.82 input  -60.55 | X-H torsion
[ 11005 11000 10999 10996 ] final -118.22 input  -57.11 | X-H torsion

> <Gold.Protein.ActiveResidues>
 VAL166  LYS551  ARG553  GLY616  TRP617  ASP618  TYR619  PRO620  LYS621  CYS622 
 ASP623  PHE694  ASN695  SER759  ASP760  ASP761  ALA762  ILE779  LEU786  VAL792 
 PHE793  MET794  SER795  GLU796  ALA797  LYS798  CYS799  TRP800  GLU811  SER814 

> <Gold.Protein.RotatedAtoms>
  150.6867  134.2796  159.4621 H   0  0  0  0  0  0  0  0  0  0  0  0  # atno 6907 bound_to 6896
  152.0711  134.9530  160.0583 H   0  0  0  0  0  0  0  0  0  0  0  0  # atno 6908 bound_to 6896
  152.0919  133.4170  159.4585 H   0  0  0  0  0  0  0  0  0  0  0  0  # atno 6909 bound_to 6896
  145.5652  139.2308  143.2437 H   0  0  0  0  0  0  0  0  0  0  0  0  # atno 7974 bound_to 7965
  154.4218  140.1767  156.1548 H   0  0  0  0  0  0  0  0  0  0  0  0  # atno 8008 bound_to 7997
  155.9886  140.3371  155.6706 H   0  0  0  0  0  0  0  0  0  0  0  0  # atno 8009 bound_to 7997
  155.6404  140.0679  157.2611 H   0  0  0  0  0  0  0  0  0  0  0  0  # atno 8010 bound_to 7997
  140.0910  144.4987  150.7098 H   0  0  0  0  0  0  0  0  0  0  0  0  # atno 10167 bound_to 10162
  156.5745  130.8703  151.2847 H   0  0  0  0  0  0  0  0  0  0  0  0  # atno 10718 bound_to 10713
  153.1585  135.6791  153.8777 H   0  0  0  0  0  0  0  0  0  0  0  0  # atno 10763 bound_to 10752
  153.8181  135.3134  155.3408 H   0  0  0  0  0  0  0  0  0  0  0  0  # atno 10764 bound_to 10752
  154.7915  135.4832  154.0151 H   0  0  0  0  0  0  0  0  0  0  0  0  # atno 10765 bound_to 10752
  141.0301  133.9995  157.3156 H   0  0  0  0  0  0  0  0  0  0  0  0  # atno 11005 bound_to 11000
  146.1823  140.6478  142.9183 LP  0  0  0  0  0  0  0  0  0  0  0  0  # atno 17320 bound_to 7965
  144.7464  140.5077  143.6833 LP  0  0  0  0  0  0  0  0  0  0  0  0  # atno 17321 bound_to 7965
  140.7028  143.2447  151.4814 LP  0  0  0  0  0  0  0  0  0  0  0  0  # atno 17342 bound_to 10162
  139.5724  144.1897  152.1856 LP  0  0  0  0  0  0  0  0  0  0  0  0  # atno 17343 bound_to 10162
  157.7340  130.9740  150.2009 LP  0  0  0  0  0  0  0  0  0  0  0  0  # atno 17370 bound_to 10713
  156.2685  130.3719  149.8056 LP  0  0  0  0  0  0  0  0  0  0  0  0  # atno 17371 bound_to 10713
  139.9202  135.0200  156.8034 LP  0  0  0  0  0  0  0  0  0  0  0  0  # atno 17394 bound_to 11000
  140.6422  133.9808  155.7713 LP  0  0  0  0  0  0  0  0  0  0  0  0  # atno 17395 bound_to 11000

$$$$
