AV-unprocessed.smi:3062|AV-procd|sdf|11683|dock8
  -GOLD-   2272017 93D 1   1.00000     0.00000
 Structure written by MMmdl.
 39 40  0  0  0  0  0  0  0  0  1 V2000
  148.5808  142.9903  158.3465 C   0  0  0  0  0  0  0  0  0  0  0  0
  149.0985  142.1468  157.2128 C   0  0  0  0  0  0  0  0  0  0  0  0
  148.3530  142.0683  156.1599 N   0  0  0  0  0  0  0  0  0  0  0  0
  148.7340  141.3215  155.0631 N   0  0  0  0  0  0  0  0  0  0  0  0
  147.7682  141.3524  153.9585 C   0  0  0  0  0  0  0  0  0  0  0  0
  147.3966  139.9347  153.4723 C   0  0  2  0  0  0  0  0  0  0  0  0
  146.9205  139.9774  152.1420 O   0  0  0  0  0  0  0  0  0  0  0  0
  146.3184  139.2662  154.3405 C   0  0  0  0  0  0  0  0  0  0  0  0
  146.1306  137.9160  153.9330 O   0  0  0  0  0  0  0  0  0  0  0  0
  144.7787  137.4800  153.9780 C   0  0  0  0  0  0  0  0  0  0  0  0
  144.5662  136.4503  152.9109 C   0  0  0  0  0  0  0  0  0  0  0  0
  145.4640  136.0509  151.9539 C   0  0  0  0  0  0  0  0  0  0  0  0
  144.9430  135.0579  151.0727 C   0  0  0  0  0  0  0  0  0  0  0  0
  143.6491  134.7163  151.3631 C   0  0  0  0  0  0  0  0  0  0  0  0
  143.0412  135.6150  152.7260 S   0  0  0  0  0  0  0  0  0  0  0  0
  149.8961  140.6139  154.9702 C   0  0  0  0  0  0  0  0  0  0  0  0
  150.2006  139.9684  153.9661 O   0  0  0  0  0  0  0  0  0  0  0  0
  150.7353  140.7047  156.1673 C   0  0  0  0  0  0  0  0  0  0  0  0
  151.9619  139.9765  156.1140 C   0  0  0  0  0  0  0  0  0  0  0  0
  152.9540  139.3834  156.0501 N   0  0  0  0  0  0  0  0  0  0  0  0
  150.3712  141.4337  157.2520 C   0  0  0  0  0  0  0  0  0  0  0  0
  151.2064  141.5627  158.5185 C   0  0  0  0  0  0  0  0  0  0  0  0
  149.2937  143.7735  158.6055 H   0  0  0  0  0  0  0  0  0  0  0  0
  148.4091  142.3810  159.2342 H   0  0  0  0  0  0  0  0  0  0  0  0
  147.6374  143.4769  158.0933 H   0  0  0  0  0  0  0  0  0  0  0  0
  146.8685  141.8716  154.2941 H   0  0  0  0  0  0  0  0  0  0  0  0
  148.1442  141.9537  153.1284 H   0  0  0  0  0  0  0  0  0  0  0  0
  148.2762  139.2903  153.4807 H   0  0  0  0  0  0  0  0  0  0  0  0
  147.6638  139.9862  151.5587 H   0  0  0  0  0  0  0  0  0  0  0  0
  146.5820  139.3173  155.3982 H   0  0  0  0  0  0  0  0  0  0  0  0
  145.3845  139.8170  154.2194 H   0  0  0  0  0  0  0  0  0  0  0  0
  144.5937  137.0317  154.9540 H   0  0  0  0  0  0  0  0  0  0  0  0
  144.0863  138.3167  153.8729 H   0  0  0  0  0  0  0  0  0  0  0  0
  146.4697  136.4327  151.8579 H   0  0  0  0  0  0  0  0  0  0  0  0
  145.5265  134.6367  150.2674 H   0  0  0  0  0  0  0  0  0  0  0  0
  143.0176  133.9992  150.8596 H   0  0  0  0  0  0  0  0  0  0  0  0
  152.1221  140.9740  158.4717 H   0  0  0  0  0  0  0  0  0  0  0  0
  150.6424  141.2210  159.3869 H   0  0  0  0  0  0  0  0  0  0  0  0
  151.4931  142.6021  158.6817 H   0  0  0  0  0  0  0  0  0  0  0  0
  1  2  1  0  0  0  0
  1 23  1  0  0  0  0
  1 24  1  0  0  0  0
  1 25  1  0  0  0  0
  2 21  1  0  0  0  0
  2  3  2  0  0  0  0
  3  4  1  0  0  0  0
  4  5  1  0  0  0  0
  4 16  1  0  0  0  0
  5  6  1  0  0  0  0
  5 26  1  0  0  0  0
  5 27  1  0  0  0  0
  6  7  1  0  0  0  0
  6  8  1  0  0  0  0
  6 28  1  0  0  0  0
  7 29  1  0  0  0  0
  8  9  1  0  0  0  0
  8 30  1  0  0  0  0
  8 31  1  0  0  0  0
  9 10  1  0  0  0  0
 10 11  1  0  0  0  0
 10 32  1  0  0  0  0
 10 33  1  0  0  0  0
 11 15  1  0  0  0  0
 11 12  2  0  0  0  0
 12 13  1  0  0  0  0
 12 34  1  0  0  0  0
 13 14  2  0  0  0  0
 13 35  1  0  0  0  0
 14 15  1  0  0  0  0
 14 36  1  0  0  0  0
 16 17  2  0  0  0  0
 16 18  1  0  0  0  0
 18 19  1  0  0  0  0
 18 21  2  0  0  0  0
 19 20  3  0  0  0  0
 21 22  1  0  0  0  0
 22 37  1  0  0  0  0
 22 38  1  0  0  0  0
 22 39  1  0  0  0  0
M  END
> <s_m_source_file>
AV-unprocessed.smi

> <i_m_source_file_index>
3062

> <i_lp_mmshare_version>
43012

> <i_f3d_flags>
0

> <s_epik_input>
TiNDYyhjMVtDSDNdKWMoPU8pbihuYzFbQ0gzXSlbQ0gyXVtDQEhdKFtPSF0pW0NIMl1PW0NIMl1jMltjSF1bY0hdW2NIXXMy

> <s_epik_cmdline>
J2VwaWtfcHl0aG9uJywgJy1waCcsICc3LjAnLCAnLXRuJywgJzgnLCAnLW1hJywgJzIwMCcsICctbWV0YWxfYmluZGluZycsICctaW1hZScsICc8aW5maWxlLm1hZT4nLCAnLW9tYWUnLCAnPG91dGZpbGUubWFlPic=

> <r_lp_tautomer_probability>
1

> <r_epik_Ionization_Penalty>
6.86395e-08

> <r_epik_Ionization_Penalty_Charging>
2.24757e-10

> <r_epik_Ionization_Penalty_Neutral>
6.84147e-08

> <r_epik_State_Penalty>
-0

> <r_epik_Charging_Adjusted_Penalty>
2.24757e-10

> <i_epik_Tot_Q>
0

> <i_epik_Tot_abs_Q>
0

> <r_epik_Metal_State_Penalty>
-0

> <b_epik_Metal_Only>
0

> <s_lp_Force_Field>
OPLS_2005

> <r_lp_Energy>
26.0533

> <b_lp_Chiralities_Consistent>
1

> <s_lp_Variant>
AV-unprocessed.smi:3062-1

> <Gold.Version>
5.8.1

> <Gold.Id.Protein>
6NUR|6NUR_protein|mol2

> <Gold.PLP.Fitness>
44.5064

> <Gold.PLP.PLP>
-34.6377

> <Gold.PLP.part.hbond>
-3.4528

> <Gold.PLP.part.metal>
0.0000

> <Gold.PLP.part.buried>
-6.0077

> <Gold.PLP.part.nonpolar>
-28.5000

> <Gold.PLP.part.repulsive>
3.6479

> <Gold.PLP.ligand.clash>
0.0000

> <Gold.PLP.ligand.torsion>
0.7869

> <Gold.PLP.Chemscore.Hbond>
2.8960

> <Gold.PLP.Chemscore.CHOScore>
0.8939

> <Gold.PLP.Chemscore.Metal>
0.0000

> <Gold.Chemscore.Hbonds>
donor molecule, donor type, donor heavy atom, donor atom, acceptor molecule, acceptor atom, score
      L1  H     7    29       P1  7957  1.00
      P1  H  7989  7998       L1    17  0.91
      P1  H  7997  8008       L1    20  1.00
      L1  C    14    36       P1 10186  0.95

> <Gold.PLP.Chemscore.Internal.Correction>
0.0727

> <Gold.Rescore>
     Score         DG    S(hbond)    S(metal)    S(lipo)     H(rot)  DE(clash)    DE(int)     intcor
     14.02     -16.08       2.93        0.00      62.00       2.51       0.02       2.04       ----

> <Gold.Chemscore.Fitness>
14.0151

> <Gold.Chemscore.DG>
-16.0785

> <Gold.Chemscore.ZeroCoef>
-5.4800

> <Gold.Chemscore.Hbond>
2.9266

> <Gold.Chemscore.Metal>
0.0000

> <Gold.Chemscore.Lipo>
62.0000

> <Gold.Chemscore.Internal_Hbond>
0.0000

> <Gold.Chemscore.DEClash>
0.0186

> <Gold.Chemscore.DEInternal>
2.0448

> <Gold.Chemscore.Rot>
2.5119

> <Gold.Chemscore.Internal.Correction>
   9.000000E+99

> <Gold.Chemscore.Hbonds>
donor molecule, donor type, donor heavy atom, donor atom, acceptor molecule, acceptor atom, score
      L1  H     7    29       P1  7957  0.97
      P1  H  7989  7998       L1    17  0.20
      P1  H  7997  8008       L1    20  0.97

> <Gold.Chemscore.Hbond.Weighted>
-9.7749

> <Gold.Chemscore.Metal.Weighted>
-0.0000

> <Gold.Chemscore.Lipo.Weighted>
-7.2540

> <Gold.Chemscore.Internal_Hbond.Weighted>
0.0000

> <Gold.Chemscore.DEClash.Weighted>
0.0186

> <Gold.Chemscore.DEInternal.Weighted>
2.0448

> <Gold.Chemscore.Rot.Weighted>
6.4305

> <Gold.Chemscore.Internal.Correction.Weighted>
   9.000000E+99

> <Gold.Protein.RotatedTorsions>
[ 6907 6896 6895 6894 ] final  171.07 input  -60.11 | X-H torsion
[ 7974 7965 7964 7962 ] final   66.86 input  175.53 | X-H torsion
[ 8008 7997 7996 7995 ] final  -27.29 input   59.86 | X-H torsion
[ 10167 10162 10161 10158 ] final   36.13 input  -65.29 | X-H torsion
[ 10718 10713 10712 10709 ] final   23.57 input   66.30 | X-H torsion
[ 10763 10752 10751 10750 ] final  -14.15 input  -60.55 | X-H torsion
[ 11005 11000 10999 10996 ] final -113.65 input  -57.11 | X-H torsion

> <Gold.Protein.ActiveResidues>
 VAL166  LYS551  ARG553  GLY616  TRP617  ASP618  TYR619  PRO620  LYS621  CYS622 
 ASP623  PHE694  ASN695  SER759  ASP760  ASP761  ALA762  ILE779  LEU786  VAL792 
 PHE793  MET794  SER795  GLU796  ALA797  LYS798  CYS799  TRP800  GLU811  SER814 

> <Gold.Protein.RotatedAtoms>
  151.8061  133.3376  159.3541 H   0  0  0  0  0  0  0  0  0  0  0  0  # atno 6907 bound_to 6896
  150.7342  134.5708  159.5898 H   0  0  0  0  0  0  0  0  0  0  0  0  # atno 6908 bound_to 6896
  152.3108  134.7500  160.0388 H   0  0  0  0  0  0  0  0  0  0  0  0  # atno 6909 bound_to 6896
  145.8216  139.3088  143.1040 H   0  0  0  0  0  0  0  0  0  0  0  0  # atno 7974 bound_to 7965
  154.4384  140.1876  156.0908 H   0  0  0  0  0  0  0  0  0  0  0  0  # atno 8008 bound_to 7997
  156.0367  140.3324  155.7172 H   0  0  0  0  0  0  0  0  0  0  0  0  # atno 8009 bound_to 7997
  155.5760  140.0617  157.2786 H   0  0  0  0  0  0  0  0  0  0  0  0  # atno 8010 bound_to 7997
  140.4156  144.1531  150.6143 H   0  0  0  0  0  0  0  0  0  0  0  0  # atno 10167 bound_to 10162
  157.1679  130.6746  149.6067 H   0  0  0  0  0  0  0  0  0  0  0  0  # atno 10718 bound_to 10713
  153.5240  135.7015  153.5717 H   0  0  0  0  0  0  0  0  0  0  0  0  # atno 10763 bound_to 10752
  153.3754  135.3934  155.1818 H   0  0  0  0  0  0  0  0  0  0  0  0  # atno 10764 bound_to 10752
  154.8692  135.3822  154.4731 H   0  0  0  0  0  0  0  0  0  0  0  0  # atno 10765 bound_to 10752
  141.0601  133.9549  157.2683 H   0  0  0  0  0  0  0  0  0  0  0  0  # atno 11005 bound_to 11000
  145.9669  140.8791  143.0182 LP  0  0  0  0  0  0  0  0  0  0  0  0  # atno 17320 bound_to 7965
  144.6747  140.1890  143.7398 LP  0  0  0  0  0  0  0  0  0  0  0  0  # atno 17321 bound_to 7965
  140.4590  143.2456  151.9246 LP  0  0  0  0  0  0  0  0  0  0  0  0  # atno 17342 bound_to 10162
  139.4782  144.5487  151.8419 LP  0  0  0  0  0  0  0  0  0  0  0  0  # atno 17343 bound_to 10162
  155.9743  130.4689  150.6376 LP  0  0  0  0  0  0  0  0  0  0  0  0  # atno 17370 bound_to 10713
  157.4071  131.0818  151.1256 LP  0  0  0  0  0  0  0  0  0  0  0  0  # atno 17371 bound_to 10713
  139.9425  135.0189  156.8751 LP  0  0  0  0  0  0  0  0  0  0  0  0  # atno 17394 bound_to 11000
  140.5886  134.0283  155.7491 LP  0  0  0  0  0  0  0  0  0  0  0  0  # atno 17395 bound_to 11000

$$$$
