AV-unprocessed.smi:2124|AV-procd|sdf|8653|dock10
  -GOLD-   2272011403D 1   1.00000     0.00000
 Structure written by MMmdl.
 47 49  0  0  0  0  0  0  0  0  1 V2000
  143.5604  143.1823  162.5561 C   0  0  0  0  0  0  0  0  0  0  0  0
  144.1775  143.0295  161.1819 C   0  0  0  0  0  0  0  0  0  0  0  0
  143.5075  142.7219  160.1203 N   0  0  0  0  0  0  0  0  0  0  0  0
  144.1916  142.6063  158.9019 C   0  0  0  0  0  0  0  0  0  0  0  0
  143.3381  142.2330  157.7020 C   0  0  0  0  0  0  0  0  0  0  0  0
  145.5377  142.8164  158.8144 C   0  0  0  0  0  0  0  0  0  0  0  0
  146.3139  142.6937  157.5036 C   0  0  0  0  0  0  0  0  0  0  0  0
  147.5227  141.7545  157.5180 C   0  0  0  0  0  0  0  0  0  0  0  0
  147.4171  140.6051  157.9467 O   0  0  0  0  0  0  0  0  0  0  0  0
  148.6661  142.2683  157.0342 N   0  0  0  0  0  0  0  0  0  0  0  0
  149.9601  141.5932  156.8963 C   0  0  1  0  0  0  0  0  0  0  0  0
  150.2512  141.2759  155.4157 C   0  0  0  0  0  0  0  0  0  0  0  0
  151.1058  142.3729  157.5992 C   0  0  1  0  0  0  0  0  0  0  0  0
  151.2449  143.8443  157.1321 C   0  0  0  0  0  0  0  0  0  0  0  0
  151.1988  144.6410  158.4474 C   0  0  2  0  0  0  0  0  0  0  0  0
  152.4826  144.3791  159.2553 C   0  0  0  0  0  0  0  0  0  0  0  0
  152.2793  142.9360  159.7528 C   0  0  0  0  0  0  0  0  0  0  0  0
  150.9250  142.5479  159.1283 C   0  0  1  0  0  0  0  0  0  0  0  0
  150.1575  143.8616  159.2385 C   0  0  0  0  0  0  0  0  0  0  0  0
  146.2927  143.1662  160.0328 C   0  0  0  0  0  0  0  0  0  0  0  0
  147.5056  143.3681  160.0679 O   0  0  0  0  0  0  0  0  0  0  0  0
  145.5533  143.2524  161.1612 N   0  0  0  0  0  0  0  0  0  0  0  0
  146.0246  143.4862  162.0228 H   0  0  0  0  0  0  0  0  0  0  0  0
  143.0780  142.2520  162.8564 H   0  0  0  0  0  0  0  0  0  0  0  0
  142.8077  143.9709  162.5441 H   0  0  0  0  0  0  0  0  0  0  0  0
  144.3089  143.4364  163.3080 H   0  0  0  0  0  0  0  0  0  0  0  0
  143.3159  143.0499  156.9805 H   0  0  0  0  0  0  0  0  0  0  0  0
  142.3104  142.0200  157.9981 H   0  0  0  0  0  0  0  0  0  0  0  0
  143.7322  141.3443  157.2088 H   0  0  0  0  0  0  0  0  0  0  0  0
  145.6309  142.3485  156.7271 H   0  0  0  0  0  0  0  0  0  0  0  0
  146.6443  143.6766  157.1656 H   0  0  0  0  0  0  0  0  0  0  0  0
  148.6354  143.2256  156.7144 H   0  0  0  0  0  0  0  0  0  0  0  0
  149.8353  140.6395  157.4096 H   0  0  0  0  0  0  0  0  0  0  0  0
  151.1007  140.6029  155.3082 H   0  0  0  0  0  0  0  0  0  0  0  0
  150.4740  142.1771  154.8443 H   0  0  0  0  0  0  0  0  0  0  0  0
  149.3974  140.7873  154.9452 H   0  0  0  0  0  0  0  0  0  0  0  0
  152.0421  141.8452  157.4132 H   0  0  0  0  0  0  0  0  0  0  0  0
  152.1665  144.0148  156.5741 H   0  0  0  0  0  0  0  0  0  0  0  0
  150.4138  144.1447  156.4928 H   0  0  0  0  0  0  0  0  0  0  0  0
  150.9757  145.6994  158.3094 H   0  0  0  0  0  0  0  0  0  0  0  0
  153.3817  144.4880  158.6474 H   0  0  0  0  0  0  0  0  0  0  0  0
  152.5612  145.0672  160.0978 H   0  0  0  0  0  0  0  0  0  0  0  0
  153.0882  142.2705  159.4493 H   0  0  0  0  0  0  0  0  0  0  0  0
  152.2217  142.9129  160.8418 H   0  0  0  0  0  0  0  0  0  0  0  0
  150.4567  141.7039  159.6330 H   0  0  0  0  0  0  0  0  0  0  0  0
  150.0440  144.2113  160.2664 H   0  0  0  0  0  0  0  0  0  0  0  0
  149.1769  143.8378  158.7609 H   0  0  0  0  0  0  0  0  0  0  0  0
  1  2  1  0  0  0  0
  1 24  1  0  0  0  0
  1 25  1  0  0  0  0
  1 26  1  0  0  0  0
  2 22  1  0  0  0  0
  2  3  2  0  0  0  0
  3  4  1  0  0  0  0
  4  5  1  0  0  0  0
  4  6  2  0  0  0  0
  5 27  1  0  0  0  0
  5 28  1  0  0  0  0
  5 29  1  0  0  0  0
  6  7  1  0  0  0  0
  6 20  1  0  0  0  0
  7  8  1  0  0  0  0
  7 30  1  0  0  0  0
  7 31  1  0  0  0  0
  8  9  2  0  0  0  0
  8 10  1  0  0  0  0
 10 11  1  0  0  0  0
 10 32  1  0  0  0  0
 11 12  1  0  0  0  0
 11 13  1  0  0  0  0
 11 33  1  0  0  0  0
 12 34  1  0  0  0  0
 12 35  1  0  0  0  0
 12 36  1  0  0  0  0
 13 18  1  0  0  0  0
 13 14  1  0  0  0  0
 13 37  1  0  0  0  0
 14 15  1  0  0  0  0
 14 38  1  0  0  0  0
 14 39  1  0  0  0  0
 15 19  1  0  0  0  0
 15 16  1  0  0  0  0
 15 40  1  0  0  0  0
 16 17  1  0  0  0  0
 16 41  1  0  0  0  0
 16 42  1  0  0  0  0
 17 18  1  0  0  0  0
 17 43  1  0  0  0  0
 17 44  1  0  0  0  0
 18 19  1  0  0  0  0
 18 45  1  0  0  0  0
 19 46  1  0  0  0  0
 19 47  1  0  0  0  0
 20 21  2  0  0  0  0
 20 22  1  0  0  0  0
 22 23  1  0  0  0  0
M  END
> <s_m_source_file>
AV-unprocessed.smi

> <i_m_source_file_index>
2124

> <i_lp_mmshare_version>
43012

> <i_f3d_flags>
0

> <s_epik_input>
W0NIM11jMW5jKFtDSDNdKWMoYyg9TylbbkhdMSlbQ0gyXUMoPU8pW05IXVtDQEhdKFtDSDNdKVtDQEhdKFtDSDJdW0NASF0yMylbQ0BIXShbQ0gyXTMpW0NIMl1bQ0gyXTI=

> <s_epik_cmdline>
J2VwaWtfcHl0aG9uJywgJy1waCcsICc3LjAnLCAnLXRuJywgJzgnLCAnLW1hJywgJzIwMCcsICctbWV0YWxfYmluZGluZycsICctaW1hZScsICc8aW5maWxlLm1hZT4nLCAnLW9tYWUnLCAnPG91dGZpbGUubWFlPic=

> <r_lp_tautomer_probability>
0.839158

> <r_epik_Ionization_Penalty>
0.000383628

> <r_epik_Ionization_Penalty_Charging>
0.00035045

> <r_epik_Ionization_Penalty_Neutral>
3.31781e-05

> <r_epik_State_Penalty>
0.09125

> <r_epik_Charging_Adjusted_Penalty>
0.0916005

> <i_epik_Tot_Q>
0

> <i_epik_Tot_abs_Q>
0

> <r_epik_Metal_State_Penalty>
0.255229

> <b_epik_Metal_Only>
0

> <s_lp_Force_Field>
OPLS_2005

> <r_lp_Energy>
52.6925

> <b_lp_Chiralities_Consistent>
1

> <s_lp_Variant>
AV-unprocessed.smi:2124-4

> <Gold.Version>
5.8.1

> <Gold.Id.Protein>
6NUR|6NUR_protein|mol2

> <Gold.PLP.Fitness>
45.5337

> <Gold.PLP.PLP>
-40.0087

> <Gold.PLP.part.hbond>
-3.0000

> <Gold.PLP.part.metal>
0.0000

> <Gold.PLP.part.buried>
-3.1625

> <Gold.PLP.part.nonpolar>
-32.7874

> <Gold.PLP.part.repulsive>
0.3429

> <Gold.PLP.ligand.clash>
0.0000

> <Gold.PLP.ligand.torsion>
0.2707

> <Gold.PLP.Chemscore.Hbond>
2.0000

> <Gold.PLP.Chemscore.CHOScore>
0.0000

> <Gold.PLP.Chemscore.Metal>
0.0000

> <Gold.Chemscore.Hbonds>
donor molecule, donor type, donor heavy atom, donor atom, acceptor molecule, acceptor atom, score
      L1  H    10    32       P1  8028  1.00
      P1  H  6933  6944       L1    21  1.00

> <Gold.PLP.Chemscore.Internal.Correction>
0.0665

> <Gold.Rescore>
     Score         DG    S(hbond)    S(metal)    S(lipo)     H(rot)  DE(clash)    DE(int)     intcor
     18.19     -19.00       1.93        0.00      96.63       1.65       0.33       0.49       ----

> <Gold.Chemscore.Fitness>
18.1886

> <Gold.Chemscore.DG>
-19.0011

> <Gold.Chemscore.ZeroCoef>
-5.4800

> <Gold.Chemscore.Hbond>
1.9305

> <Gold.Chemscore.Metal>
0.0000

> <Gold.Chemscore.Lipo>
96.6300

> <Gold.Chemscore.Internal_Hbond>
0.0000

> <Gold.Chemscore.DEClash>
0.3263

> <Gold.Chemscore.DEInternal>
0.4862

> <Gold.Chemscore.Rot>
1.6534

> <Gold.Chemscore.Internal.Correction>
   9.000000E+99

> <Gold.Chemscore.Hbonds>
donor molecule, donor type, donor heavy atom, donor atom, acceptor molecule, acceptor atom, score
      L1  H    10    32       P1  8028  0.70
      P1  H  6933  6944       L1    21  0.89

> <Gold.Chemscore.Hbond.Weighted>
-6.4480

> <Gold.Chemscore.Metal.Weighted>
-0.0000

> <Gold.Chemscore.Lipo.Weighted>
-11.3057

> <Gold.Chemscore.Internal_Hbond.Weighted>
0.0000

> <Gold.Chemscore.DEClash.Weighted>
0.3263

> <Gold.Chemscore.DEInternal.Weighted>
0.4862

> <Gold.Chemscore.Rot.Weighted>
4.2326

> <Gold.Chemscore.Internal.Correction.Weighted>
   9.000000E+99

> <Gold.Protein.RotatedTorsions>
[ 6907 6896 6895 6894 ] final  157.76 input  -60.11 | X-H torsion
[ 7974 7965 7964 7962 ] final  -66.16 input  175.53 | X-H torsion
[ 8008 7997 7996 7995 ] final  151.38 input   59.86 | X-H torsion
[ 10167 10162 10161 10158 ] final  -91.49 input  -65.29 | X-H torsion
[ 10718 10713 10712 10709 ] final  -79.16 input   66.30 | X-H torsion
[ 10763 10752 10751 10750 ] final   74.42 input  -60.55 | X-H torsion
[ 11005 11000 10999 10996 ] final  123.78 input  -57.11 | X-H torsion

> <Gold.Protein.ActiveResidues>
 VAL166  LYS551  ARG553  GLY616  TRP617  ASP618  TYR619  PRO620  LYS621  CYS622 
 ASP623  PHE694  ASN695  SER759  ASP760  ASP761  ALA762  ILE779  LEU786  VAL792 
 PHE793  MET794  SER795  GLU796  ALA797  LYS798  CYS799  TRP800  GLU811  SER814 

> <Gold.Protein.RotatedAtoms>
  152.0104  133.3859  159.4217 H   0  0  0  0  0  0  0  0  0  0  0  0  # atno 6907 bound_to 6896
  150.6900  134.3736  159.5012 H   0  0  0  0  0  0  0  0  0  0  0  0  # atno 6908 bound_to 6896
  152.1496  134.8998  160.0599 H   0  0  0  0  0  0  0  0  0  0  0  0  # atno 6909 bound_to 6896
  145.7453  140.8934  143.0508 H   0  0  0  0  0  0  0  0  0  0  0  0  # atno 7974 bound_to 7965
  156.2676  140.2049  156.6166 H   0  0  0  0  0  0  0  0  0  0  0  0  # atno 8008 bound_to 7997
  154.6789  140.0542  157.0269 H   0  0  0  0  0  0  0  0  0  0  0  0  # atno 8009 bound_to 7997
  155.1028  140.3208  155.4545 H   0  0  0  0  0  0  0  0  0  0  0  0  # atno 8010 bound_to 7997
  140.3443  143.2925  151.9799 H   0  0  0  0  0  0  0  0  0  0  0  0  # atno 10167 bound_to 10162
  156.0099  130.4538  150.3606 H   0  0  0  0  0  0  0  0  0  0  0  0  # atno 10718 bound_to 10713
  153.0585  135.5026  154.8039 H   0  0  0  0  0  0  0  0  0  0  0  0  # atno 10763 bound_to 10752
  154.6846  135.2974  154.9568 H   0  0  0  0  0  0  0  0  0  0  0  0  # atno 10764 bound_to 10752
  154.0343  135.6725  153.4836 H   0  0  0  0  0  0  0  0  0  0  0  0  # atno 10765 bound_to 10752
  139.9328  134.9641  156.8311 H   0  0  0  0  0  0  0  0  0  0  0  0  # atno 11005 bound_to 11000
  144.6861  139.9516  143.7478 LP  0  0  0  0  0  0  0  0  0  0  0  0  # atno 17320 bound_to 7965
  146.0409  139.3420  143.0698 LP  0  0  0  0  0  0  0  0  0  0  0  0  # atno 17321 bound_to 7965
  139.4835  144.6130  151.7399 LP  0  0  0  0  0  0  0  0  0  0  0  0  # atno 17342 bound_to 10162
  140.5279  144.0777  150.6044 LP  0  0  0  0  0  0  0  0  0  0  0  0  # atno 17343 bound_to 10162
  157.1694  131.0365  151.2802 LP  0  0  0  0  0  0  0  0  0  0  0  0  # atno 17370 bound_to 10713
  157.4242  130.7454  149.6937 LP  0  0  0  0  0  0  0  0  0  0  0  0  # atno 17371 bound_to 10713
  140.6155  134.0042  155.7595 LP  0  0  0  0  0  0  0  0  0  0  0  0  # atno 17394 bound_to 11000
  141.0926  133.9893  157.3212 LP  0  0  0  0  0  0  0  0  0  0  0  0  # atno 17395 bound_to 11000

$$$$
