AV-unprocessed.smi:1558|AV-procd|sdf|6272|dock1
  -GOLD-   22720 6463D 1   1.00000     0.00000
 Structure written by MMmdl.
 36 37  0  0  0  0  0  0  0  0  1 V2000
  143.7975  133.7116  149.2426 N   0  0  0  0  0  0  0  0  0  0  0  0
  143.9088  132.5578  149.9063 C   0  0  0  0  0  0  0  0  0  0  0  0
  142.9876  132.0918  150.5735 O   0  0  0  0  0  0  0  0  0  0  0  0
  145.2456  131.8207  149.8078 C   0  0  0  0  0  0  0  0  0  0  0  0
  146.1095  132.1501  150.9276 N   0  0  0  0  0  0  0  0  0  0  0  0
  146.8616  133.2933  151.1175 C   0  0  0  0  0  0  0  0  0  0  0  0
  147.4948  133.1255  152.3163 C   0  0  0  0  0  0  0  0  0  0  0  0
  148.3885  133.9952  152.9906 N   0  0  0  0  0  0  0  0  0  0  0  0
  148.9702  133.7993  154.1850 C   0  0  0  0  0  0  0  0  0  0  0  0
  148.8175  132.8022  154.8907 O   0  0  0  0  0  0  0  0  0  0  0  0
  149.7537  134.8340  154.5199 N   0  0  0  0  0  0  0  0  0  0  0  0
  150.5390  134.9385  155.7456 C   0  0  0  0  0  0  0  0  0  0  0  0
  151.1538  136.3384  155.9126 C   0  0  2  0  0  0  0  0  0  0  0  0
  150.1619  137.4990  155.8344 C   0  0  0  0  0  0  0  0  0  0  0  0
  151.0700  138.6450  155.4523 C   0  0  0  0  0  0  0  0  0  0  0  0
  152.0461  137.9691  154.4924 C   0  0  0  0  0  0  0  0  0  0  0  0
  152.0875  136.5939  154.8679 O   0  0  0  0  0  0  0  0  0  0  0  0
  147.0825  131.8560  152.7975 C   0  0  0  0  0  0  0  0  0  0  0  0
  146.2458  131.2724  151.9530 N   0  0  0  0  0  0  0  0  0  0  0  0
  142.9315  134.2294  149.2821 H   0  0  0  0  0  0  0  0  0  0  0  0
  144.5763  134.0631  148.7049 H   0  0  0  0  0  0  0  0  0  0  0  0
  145.0726  130.7434  149.7849 H   0  0  0  0  0  0  0  0  0  0  0  0
  145.7573  132.0818  148.8804 H   0  0  0  0  0  0  0  0  0  0  0  0
  146.8715  134.0979  150.3976 H   0  0  0  0  0  0  0  0  0  0  0  0
  148.6074  134.8574  152.5132 H   0  0  0  0  0  0  0  0  0  0  0  0
  149.8160  135.6091  153.8761 H   0  0  0  0  0  0  0  0  0  0  0  0
  149.8713  134.7353  156.5831 H   0  0  0  0  0  0  0  0  0  0  0  0
  151.3149  134.1720  155.7830 H   0  0  0  0  0  0  0  0  0  0  0  0
  151.6987  136.3954  156.8566 H   0  0  0  0  0  0  0  0  0  0  0  0
  149.4273  137.3261  155.0465 H   0  0  0  0  0  0  0  0  0  0  0  0
  149.6284  137.6691  156.7700 H   0  0  0  0  0  0  0  0  0  0  0  0
  150.5384  139.4835  155.0014 H   0  0  0  0  0  0  0  0  0  0  0  0
  151.6003  139.0092  156.3331 H   0  0  0  0  0  0  0  0  0  0  0  0
  151.6825  138.0357  153.4666 H   0  0  0  0  0  0  0  0  0  0  0  0
  153.0380  138.4199  154.5296 H   0  0  0  0  0  0  0  0  0  0  0  0
  147.3559  131.3489  153.7108 H   0  0  0  0  0  0  0  0  0  0  0  0
  1  2  1  0  0  0  0
  1 20  1  0  0  0  0
  1 21  1  0  0  0  0
  2  3  2  0  0  0  0
  2  4  1  0  0  0  0
  4  5  1  0  0  0  0
  4 22  1  0  0  0  0
  4 23  1  0  0  0  0
  5 19  1  0  0  0  0
  5  6  1  0  0  0  0
  6  7  2  0  0  0  0
  6 24  1  0  0  0  0
  7  8  1  0  0  0  0
  7 18  1  0  0  0  0
  8  9  1  0  0  0  0
  8 25  1  0  0  0  0
  9 10  2  0  0  0  0
  9 11  1  0  0  0  0
 11 12  1  0  0  0  0
 11 26  1  0  0  0  0
 12 13  1  0  0  0  0
 12 27  1  0  0  0  0
 12 28  1  0  0  0  0
 13 17  1  0  0  0  0
 13 14  1  0  0  0  0
 13 29  1  0  0  0  0
 14 15  1  0  0  0  0
 14 30  1  0  0  0  0
 14 31  1  0  0  0  0
 15 16  1  0  0  0  0
 15 32  1  0  0  0  0
 15 33  1  0  0  0  0
 16 17  1  0  0  0  0
 16 34  1  0  0  0  0
 16 35  1  0  0  0  0
 18 19  2  0  0  0  0
 18 36  1  0  0  0  0
M  END
> <s_m_source_file>
AV-unprocessed.smi

> <i_m_source_file_index>
1558

> <i_lp_mmshare_version>
43012

> <i_f3d_flags>
0

> <s_epik_input>
W05IMl1DKD1PKVtDSDJdbjFbY0hdYyhbY0hdbjEpW05IXUMoPU8pW05IXVtDSDJdW0NAQEhdMltDSDJdW0NIMl1bQ0gyXU8y

> <s_epik_cmdline>
J2VwaWtfcHl0aG9uJywgJy1waCcsICc3LjAnLCAnLXRuJywgJzgnLCAnLW1hJywgJzIwMCcsICctbWV0YWxfYmluZGluZycsICctaW1hZScsICc8aW5maWxlLm1hZT4nLCAnLW9tYWUnLCAnPG91dGZpbGUubWFlPic=

> <r_lp_tautomer_probability>
1

> <r_epik_Ionization_Penalty>
4.01684e-05

> <r_epik_Ionization_Penalty_Charging>
0

> <r_epik_Ionization_Penalty_Neutral>
4.01684e-05

> <r_epik_State_Penalty>
-0

> <r_epik_Charging_Adjusted_Penalty>
0

> <i_epik_Tot_Q>
0

> <i_epik_Tot_abs_Q>
0

> <r_epik_Metal_State_Penalty>
-0

> <b_epik_Metal_Only>
0

> <s_lp_Force_Field>
OPLS_2005

> <r_lp_Energy>
20.4808

> <b_lp_Chiralities_Consistent>
1

> <s_lp_Variant>
AV-unprocessed.smi:1558-1

> <Gold.Version>
5.8.1

> <Gold.Id.Protein>
6NUR|6NUR_protein|mol2

> <Gold.PLP.Fitness>
42.6499

> <Gold.PLP.PLP>
-30.0047

> <Gold.PLP.part.hbond>
-4.7556

> <Gold.PLP.part.metal>
0.0000

> <Gold.PLP.part.buried>
-5.3739

> <Gold.PLP.part.nonpolar>
-24.1760

> <Gold.PLP.part.repulsive>
2.5682

> <Gold.PLP.ligand.clash>
0.0000

> <Gold.PLP.ligand.torsion>
0.6393

> <Gold.PLP.Chemscore.Hbond>
4.5132

> <Gold.PLP.Chemscore.CHOScore>
0.0831

> <Gold.PLP.Chemscore.Metal>
0.0000

> <Gold.Chemscore.Hbonds>
donor molecule, donor type, donor heavy atom, donor atom, acceptor molecule, acceptor atom, score
      L1  H     1    20       P1 10186  1.00
      L1  H     1    21       P1  7921  1.00
      L1  H     8    25       P1  7948  0.75
      L1  H    11    26       P1  7948  0.28
      P1  H 10752 10765       L1    17  0.50

> <Gold.PLP.Chemscore.Internal.Correction>
0.1348

> <Gold.Rescore>
     Score         DG    S(hbond)    S(metal)    S(lipo)     H(rot)  DE(clash)    DE(int)     intcor
     14.81     -17.66       3.64        0.00      51.18       2.33       0.90       1.96       ----

> <Gold.Chemscore.Fitness>
14.8073

> <Gold.Chemscore.DG>
-17.6618

> <Gold.Chemscore.ZeroCoef>
-5.4800

> <Gold.Chemscore.Hbond>
3.6404

> <Gold.Chemscore.Metal>
0.0000

> <Gold.Chemscore.Lipo>
51.1827

> <Gold.Chemscore.Internal_Hbond>
0.0000

> <Gold.Chemscore.DEClash>
0.8961

> <Gold.Chemscore.DEInternal>
1.9584

> <Gold.Chemscore.Rot>
2.3303

> <Gold.Chemscore.Internal.Correction>
   9.000000E+99

> <Gold.Chemscore.Hbonds>
donor molecule, donor type, donor heavy atom, donor atom, acceptor molecule, acceptor atom, score
      L1  H     1    20       P1 10186  0.97
      L1  H     1    21       P1  7921  0.93
      L1  H     8    25       P1  7948  0.11
      L1  H    11    26       P1  7948  0.03
      P1  H 10752 10765       L1    17  0.46

> <Gold.Chemscore.Hbond.Weighted>
-12.1590

> <Gold.Chemscore.Metal.Weighted>
-0.0000

> <Gold.Chemscore.Lipo.Weighted>
-5.9884

> <Gold.Chemscore.Internal_Hbond.Weighted>
0.0000

> <Gold.Chemscore.DEClash.Weighted>
0.8961

> <Gold.Chemscore.DEInternal.Weighted>
1.9584

> <Gold.Chemscore.Rot.Weighted>
5.9656

> <Gold.Chemscore.Internal.Correction.Weighted>
   9.000000E+99

> <Gold.Protein.RotatedTorsions>
[ 6907 6896 6895 6894 ] final   62.11 input  -60.11 | X-H torsion
[ 7974 7965 7964 7962 ] final   81.51 input  175.53 | X-H torsion
[ 8008 7997 7996 7995 ] final   53.97 input   59.86 | X-H torsion
[ 10167 10162 10161 10158 ] final  116.59 input  -65.29 | X-H torsion
[ 10718 10713 10712 10709 ] final  111.86 input   66.30 | X-H torsion
[ 10763 10752 10751 10750 ] final  178.02 input  -60.55 | X-H torsion
[ 11005 11000 10999 10996 ] final   16.96 input  -57.11 | X-H torsion

> <Gold.Protein.ActiveResidues>
 VAL166  LYS551  ARG553  GLY616  TRP617  ASP618  TYR619  PRO620  LYS621  CYS622 
 ASP623  PHE694  ASN695  SER759  ASP760  ASP761  ALA762  ILE779  LEU786  VAL792 
 PHE793  MET794  SER795  GLU796  ALA797  LYS798  CYS799  TRP800  GLU811  SER814 

> <Gold.Protein.RotatedAtoms>
  152.4145  134.6066  160.0014 H   0  0  0  0  0  0  0  0  0  0  0  0  # atno 6907 bound_to 6896
  151.6233  133.3332  159.3101 H   0  0  0  0  0  0  0  0  0  0  0  0  # atno 6908 bound_to 6896
  150.8034  134.7183  159.6688 H   0  0  0  0  0  0  0  0  0  0  0  0  # atno 6909 bound_to 6896
  145.6372  139.2417  143.2051 H   0  0  0  0  0  0  0  0  0  0  0  0  # atno 7974 bound_to 7965
  155.4771  140.3467  155.4334 H   0  0  0  0  0  0  0  0  0  0  0  0  # atno 8008 bound_to 7997
  156.1063  140.1449  156.9428 H   0  0  0  0  0  0  0  0  0  0  0  0  # atno 8009 bound_to 7997
  154.4726  140.0895  156.7162 H   0  0  0  0  0  0  0  0  0  0  0  0  # atno 8010 bound_to 7997
  139.6237  144.7105  151.2580 H   0  0  0  0  0  0  0  0  0  0  0  0  # atno 10167 bound_to 10162
  157.6423  131.0958  150.6810 H   0  0  0  0  0  0  0  0  0  0  0  0  # atno 10718 bound_to 10713
  154.5021  135.2784  155.1412 H   0  0  0  0  0  0  0  0  0  0  0  0  # atno 10763 bound_to 10752
  154.3041  135.6242  153.5441 H   0  0  0  0  0  0  0  0  0  0  0  0  # atno 10764 bound_to 10752
  152.9904  135.5704  154.5467 H   0  0  0  0  0  0  0  0  0  0  0  0  # atno 10765 bound_to 10752
  140.4412  134.1320  155.7691 H   0  0  0  0  0  0  0  0  0  0  0  0  # atno 11005 bound_to 11000
  146.1309  140.7186  142.9412 LP  0  0  0  0  0  0  0  0  0  0  0  0  # atno 17320 bound_to 7965
  144.7171  140.4247  143.7036 LP  0  0  0  0  0  0  0  0  0  0  0  0  # atno 17321 bound_to 7965
  140.7398  143.6608  150.8166 LP  0  0  0  0  0  0  0  0  0  0  0  0  # atno 17342 bound_to 10162
  140.0223  143.5530  152.2795 LP  0  0  0  0  0  0  0  0  0  0  0  0  # atno 17343 bound_to 10162
  156.7132  130.4658  149.5542 LP  0  0  0  0  0  0  0  0  0  0  0  0  # atno 17370 bound_to 10713
  156.1716  130.6440  151.0843 LP  0  0  0  0  0  0  0  0  0  0  0  0  # atno 17371 bound_to 10713
  141.1704  133.8619  157.1586 LP  0  0  0  0  0  0  0  0  0  0  0  0  # atno 17394 bound_to 11000
  140.0068  135.0005  157.0310 LP  0  0  0  0  0  0  0  0  0  0  0  0  # atno 17395 bound_to 11000

$$$$
