#       Name:                AV-unprocessed.smi:644
#       Creating user name   scv26
#       Creation time:       Fri Mar 27 00:07:52 2020


#       File generated by GOLD software.
#

@<TRIPOS>MOLECULE
AV-unprocessed.smi:644
    42    44     1
SMALL
NO_CHARGES


@<TRIPOS>ATOM
      1 ****        -1.3023   5.0367   2.0958 C.3            1 S1                 0.0000
      2 ****        -1.2804   3.7145   1.3494 C.ar           1 S1                 0.0000
      3 ****        -1.9027   3.6300   0.0835 C.ar           1 S1                 0.0000
      4 ****        -1.9024   2.4200  -0.6443 C.ar           1 S1                 0.0000
      5 ****        -2.4399   2.1158  -1.8833 N.2            1 S1                 0.0000
      6 ****        -2.1110   0.8336  -2.0110 C.2            1 S1                 0.0000
      7 ****        -1.4196   0.2710  -1.0013 N.pl3          1 S1                 0.0000
      8 ****        -0.9515  -1.1012  -0.9163 C.3            1 S1                 0.0000
      9 ****         0.5639  -1.2222  -1.1660 C.3            1 S1                 0.0000
     10 ****         0.8725  -0.7179  -2.4518 O.3            1 S1                 0.0000
     11 ****         1.0514  -2.6762  -1.0657 C.3            1 S1                 0.0000
     12 ****         2.8624  -2.7952  -1.1349 S.3            1 S1                 0.0000
     13 ****         2.9797  -4.5457  -1.0872 C.2            1 S1                 0.0000
     14 ****         3.2198  -5.2449   0.0287 N.2            1 S1                 0.0000
     15 ****         3.2622  -6.6127  -0.2103 N.2            1 S1                 0.0000
     16 ****         3.0547  -6.8911  -1.5003 C.2            1 S1                 0.0000
     17 ****         2.7845  -5.5092  -2.5464 S.3            1 S1                 0.0000
     18 ****        -1.2586   1.2872  -0.0658 C.ar           1 S1                 0.0000
     19 ****        -0.6375   1.3581   1.1936 C.ar           1 S1                 0.0000
     20 ****        -0.6451   2.5754   1.9065 C.ar           1 S1                 0.0000
     21 ****         0.0316   2.6432   3.2643 C.3            1 S1                 0.0000
     22 ****        -1.8485   5.7987   1.5392 H              1 S1                 0.0000
     23 ****        -0.2875   5.4020   2.2552 H              1 S1                 0.0000
     24 ****        -1.7861   4.9209   3.0659 H              1 S1                 0.0000
     25 ****        -2.3860   4.4974  -0.3415 H              1 S1                 0.0000
     26 ****        -2.3843   0.2709  -2.8917 H              1 S1                 0.0000
     27 ****        -1.2035  -1.4849   0.0731 H              1 S1                 0.0000
     28 ****        -1.5062  -1.7057  -1.6357 H              1 S1                 0.0000
     29 ****         1.0953  -0.6179  -0.4298 H              1 S1                 0.0000
     30 ****         0.6211   0.1925  -2.4847 H              1 S1                 0.0000
     31 ****         0.7234  -3.1149  -0.1225 H              1 S1                 0.0000
     32 ****         0.6166  -3.2791  -1.8640 H              1 S1                 0.0000
     33 ****         3.0612  -7.9169  -1.8377 H              1 S1                 0.0000
     34 ****        -0.1577   0.4826   1.6056 H              1 S1                 0.0000
     35 ****         0.4913   1.6904   3.5285 H              1 S1                 0.0000
     36 ****        -0.6933   2.8916   4.0397 H              1 S1                 0.0000
     37 ****         0.8140   3.4025   3.2648 H              1 S1                 0.0000
     38 ****        -2.9430   2.7050  -2.5157 LP             1 S1                 0.0000
     39 ****         0.3688  -1.2323  -3.1459 LP             1 S1                 0.0000
     40 ****         1.8544  -0.8031  -2.6210 LP             1 S1                 0.0000
     41 ****         3.3530  -4.8310   0.9292 LP             1 S1                 0.0000
     42 ****         3.4273  -7.3023   0.4947 LP             1 S1                 0.0000
@<TRIPOS>BOND
    1    1    2 1     
    2    1   22 1     
    3    1   23 1     
    4    1   24 1     
    5    2   20 ar    
    6    2    3 ar    
    7    3    4 ar    
    8    3   25 1     
    9    4   18 ar    
   10    4    5 1     
   11    5    6 2     
   12    6    7 1     
   13    6   26 1     
   14    7    8 1     
   15    7   18 1     
   16    8    9 1     
   17    8   27 1     
   18    8   28 1     
   19    9   10 1     
   20    9   11 1     
   21    9   29 1     
   22   10   30 1     
   23   11   12 1     
   24   11   31 1     
   25   11   32 1     
   26   12   13 1     
   27   13   17 1     
   28   13   14 2     
   29   14   15 1     
   30   15   16 2     
   31   16   17 1     
   32   16   33 1     
   33   18   19 ar    
   34   19   20 ar    
   35   19   34 1     
   36   20   21 1     
   37   21   35 1     
   38   21   36 1     
   39   21   37 1     
   40    5   38 1     
   41   10   39 1     
   42   10   40 1     
   43   14   41 1     
   44   15   42 1     
@<TRIPOS>SUBSTRUCTURE
      1 S1             1
@<TRIPOS>SET
LONE_PAIRS      STATIC     ATOMS    <user>   **** ""
5 38 39 40 41 42
DONOR_HYDROGENS      STATIC     ATOMS    <user>   **** ""
1 30
ATOM$BLUE        STATIC     ATOMS    COLORGROUP SYSTEM
5 38 39 40 41 42
ATOM$RED        STATIC     ATOMS    COLORGROUP SYSTEM
1 30
