AV-unprocessed.smi:3116|AV-procd|sdf|11877|dock9
  -GOLD-   2272017263D 1   1.00000     0.00000
 Structure written by MMmdl.
 33 33  0  0  0  0  0  0  0  0  1 V2000
  146.6565  137.1727  154.1459 C   0  0  0  0  0  0  0  0  0  0  0  0
  146.9860  138.4393  153.3393 C   0  0  1  0  0  0  0  0  0  0  0  0
  148.4510  138.5692  153.2072 N   0  0  0  0  0  0  0  0  0  0  0  0
  149.2200  138.8453  154.4241 C   0  0  1  0  0  0  0  0  0  0  0  0
  150.4824  137.9559  154.4400 C   0  0  0  0  0  0  0  0  0  0  0  0
  149.5381  140.3659  154.4440 C   0  0  1  0  0  0  0  0  0  0  0  0
  148.2787  141.2319  154.2404 C   0  0  0  0  0  0  0  0  0  0  0  0
  150.2331  140.7719  155.6602 N   0  0  0  0  0  0  0  0  0  0  0  0
  149.8797  141.7635  156.5523 C   0  0  0  0  0  0  0  0  0  0  0  0
  150.8295  141.7904  157.5327 C   0  0  0  0  0  0  0  0  0  0  0  0
  151.7376  140.7641  157.1511 C   0  0  0  0  0  0  0  0  0  0  0  0
  151.3804  140.1579  156.0307 N   0  0  0  0  0  0  0  0  0  0  0  0
  146.2440  138.4232  151.9926 C   0  0  0  0  0  0  0  0  0  0  0  0
  144.9116  138.3448  152.0326 N   0  0  0  0  0  0  0  0  0  0  0  0
  146.8630  138.5014  150.9330 O   0  0  0  0  0  0  0  0  0  0  0  0
  145.5800  137.0507  154.2716 H   0  0  0  0  0  0  0  0  0  0  0  0
  147.0962  137.2195  155.1426 H   0  0  0  0  0  0  0  0  0  0  0  0
  147.0387  136.2741  153.6592 H   0  0  0  0  0  0  0  0  0  0  0  0
  146.6171  139.2844  153.9213 H   0  0  0  0  0  0  0  0  0  0  0  0
  148.8553  137.7843  152.7173 H   0  0  0  0  0  0  0  0  0  0  0  0
  148.6329  138.6241  155.3153 H   0  0  0  0  0  0  0  0  0  0  0  0
  151.0783  138.1176  155.3379 H   0  0  0  0  0  0  0  0  0  0  0  0
  151.1208  138.1576  153.5793 H   0  0  0  0  0  0  0  0  0  0  0  0
  150.2333  136.8954  154.4298 H   0  0  0  0  0  0  0  0  0  0  0  0
  150.2194  140.5801  153.6185 H   0  0  0  0  0  0  0  0  0  0  0  0
  147.8100  141.0352  153.2761 H   0  0  0  0  0  0  0  0  0  0  0  0
  148.5252  142.2935  154.2703 H   0  0  0  0  0  0  0  0  0  0  0  0
  147.5327  141.0417  155.0127 H   0  0  0  0  0  0  0  0  0  0  0  0
  148.9916  142.3627  156.4157 H   0  0  0  0  0  0  0  0  0  0  0  0
  150.8691  142.4437  158.3915 H   0  0  0  0  0  0  0  0  0  0  0  0
  152.6398  140.4443  157.6510 H   0  0  0  0  0  0  0  0  0  0  0  0
  144.3816  138.3278  151.1737 H   0  0  0  0  0  0  0  0  0  0  0  0
  144.4398  138.2994  152.9240 H   0  0  0  0  0  0  0  0  0  0  0  0
  1  2  1  0  0  0  0
  1 16  1  0  0  0  0
  1 17  1  0  0  0  0
  1 18  1  0  0  0  0
  2  3  1  0  0  0  0
  2 13  1  0  0  0  0
  2 19  1  0  0  0  0
  3  4  1  0  0  0  0
  3 20  1  0  0  0  0
  4  5  1  0  0  0  0
  4  6  1  0  0  0  0
  4 21  1  0  0  0  0
  5 22  1  0  0  0  0
  5 23  1  0  0  0  0
  5 24  1  0  0  0  0
  6  7  1  0  0  0  0
  6  8  1  0  0  0  0
  6 25  1  0  0  0  0
  7 26  1  0  0  0  0
  7 27  1  0  0  0  0
  7 28  1  0  0  0  0
  8 12  1  0  0  0  0
  8  9  1  0  0  0  0
  9 10  2  0  0  0  0
  9 29  1  0  0  0  0
 10 11  1  0  0  0  0
 10 30  1  0  0  0  0
 11 12  2  0  0  0  0
 11 31  1  0  0  0  0
 13 14  1  0  0  0  0
 13 15  2  0  0  0  0
 14 32  1  0  0  0  0
 14 33  1  0  0  0  0
M  END
> <s_m_source_file>
AV-unprocessed.smi

> <i_m_source_file_index>
3116

> <i_lp_mmshare_version>
43012

> <i_f3d_flags>
0

> <s_epik_input>
W05IMl1DKD1PKVtDQEhdKFtDSDNdKVtOSF1bQ0BIXShbQ0gzXSlbQ0BIXShbQ0gzXSluMVtjSF1bY0hdW2NIXW4x

> <s_epik_cmdline>
J2VwaWtfcHl0aG9uJywgJy1waCcsICc3LjAnLCAnLXRuJywgJzgnLCAnLW1hJywgJzIwMCcsICctbWV0YWxfYmluZGluZycsICctaW1hZScsICc8aW5maWxlLm1hZT4nLCAnLW9tYWUnLCAnPG91dGZpbGUubWFlPic=

> <r_lp_tautomer_probability>
1

> <r_epik_Ionization_Penalty>
0.865977

> <r_epik_Ionization_Penalty_Charging>
0

> <r_epik_Ionization_Penalty_Neutral>
0.865977

> <r_epik_State_Penalty>
0.901888

> <r_epik_Charging_Adjusted_Penalty>
0.901888

> <i_epik_Tot_Q>
0

> <i_epik_Tot_abs_Q>
0

> <r_epik_Metal_State_Penalty>
0.901181

> <b_epik_Metal_Only>
0

> <s_lp_Force_Field>
OPLS_2005

> <r_lp_Energy>
8.45698

> <b_lp_Chiralities_Consistent>
1

> <s_lp_Variant>
AV-unprocessed.smi:3116-16

> <Gold.Version>
5.8.1

> <Gold.Id.Protein>
6NUR|6NUR_protein|mol2

> <Gold.PLP.Fitness>
40.0775

> <Gold.PLP.PLP>
-29.4208

> <Gold.PLP.part.hbond>
-4.8821

> <Gold.PLP.part.metal>
0.0000

> <Gold.PLP.part.buried>
-3.9018

> <Gold.PLP.part.nonpolar>
-22.7612

> <Gold.PLP.part.repulsive>
0.4388

> <Gold.PLP.ligand.clash>
0.0000

> <Gold.PLP.ligand.torsion>
0.7114

> <Gold.PLP.Chemscore.Hbond>
3.0000

> <Gold.PLP.Chemscore.CHOScore>
1.0000

> <Gold.PLP.Chemscore.Metal>
0.0000

> <Gold.Chemscore.Hbonds>
donor molecule, donor type, donor heavy atom, donor atom, acceptor molecule, acceptor atom, score
      L1  H     3    20       P1  7948  1.00
      L1  H    14    32       P1 10171  0.86
      P1  H  7954  7966       L1    15  1.00
      L1  C     9    29       P1  8028  0.95

> <Gold.PLP.Chemscore.Internal.Correction>
0.0794

> <Gold.Rescore>
     Score         DG    S(hbond)    S(metal)    S(lipo)     H(rot)  DE(clash)    DE(int)     intcor
     13.68     -15.82       2.98        0.00      55.46       2.38       0.14       2.01       ----

> <Gold.Chemscore.Fitness>
13.6751

> <Gold.Chemscore.DG>
-15.8240

> <Gold.Chemscore.ZeroCoef>
-5.4800

> <Gold.Chemscore.Hbond>
2.9813

> <Gold.Chemscore.Metal>
0.0000

> <Gold.Chemscore.Lipo>
55.4581

> <Gold.Chemscore.Internal_Hbond>
0.0000

> <Gold.Chemscore.DEClash>
0.1427

> <Gold.Chemscore.DEInternal>
2.0062

> <Gold.Chemscore.Rot>
2.3836

> <Gold.Chemscore.Internal.Correction>
   9.000000E+99

> <Gold.Chemscore.Hbonds>
donor molecule, donor type, donor heavy atom, donor atom, acceptor molecule, acceptor atom, score
      L1  H     3    20       P1  7948  1.00
      L1  H    14    32       P1 10171  0.84
      P1  H  7954  7966       L1    15  0.95

> <Gold.Chemscore.Hbond.Weighted>
-9.9574

> <Gold.Chemscore.Metal.Weighted>
-0.0000

> <Gold.Chemscore.Lipo.Weighted>
-6.4886

> <Gold.Chemscore.Internal_Hbond.Weighted>
0.0000

> <Gold.Chemscore.DEClash.Weighted>
0.1427

> <Gold.Chemscore.DEInternal.Weighted>
2.0062

> <Gold.Chemscore.Rot.Weighted>
6.1020

> <Gold.Chemscore.Internal.Correction.Weighted>
   9.000000E+99

> <Gold.Protein.RotatedTorsions>
[ 6907 6896 6895 6894 ] final  -20.42 input  -60.11 | X-H torsion
[ 7974 7965 7964 7962 ] final -142.67 input  175.53 | X-H torsion
[ 8008 7997 7996 7995 ] final  173.71 input   59.86 | X-H torsion
[ 10167 10162 10161 10158 ] final -116.57 input  -65.29 | X-H torsion
[ 10718 10713 10712 10709 ] final -110.77 input   66.30 | X-H torsion
[ 10763 10752 10751 10750 ] final  -75.06 input  -60.55 | X-H torsion
[ 11005 11000 10999 10996 ] final   91.04 input  -57.11 | X-H torsion

> <Gold.Protein.ActiveResidues>
 VAL166  LYS551  ARG553  GLY616  TRP617  ASP618  TYR619  PRO620  LYS621  CYS622 
 ASP623  PHE694  ASN695  SER759  ASP760  ASP761  ALA762  ILE779  LEU786  VAL792 
 PHE793  MET794  SER795  GLU796  ALA797  LYS798  CYS799  TRP800  GLU811  SER814 

> <Gold.Protein.RotatedAtoms>
  151.2484  135.0613  159.9051 H   0  0  0  0  0  0  0  0  0  0  0  0  # atno 6907 bound_to 6896
  152.5383  134.0359  159.8056 H   0  0  0  0  0  0  0  0  0  0  0  0  # atno 6908 bound_to 6896
  151.0563  133.5532  159.2669 H   0  0  0  0  0  0  0  0  0  0  0  0  # atno 6909 bound_to 6896
  144.8426  140.5930  143.5442 H   0  0  0  0  0  0  0  0  0  0  0  0  # atno 7974 bound_to 7965
  156.1048  140.1453  156.9419 H   0  0  0  0  0  0  0  0  0  0  0  0  # atno 8008 bound_to 7997
  154.4726  140.0904  156.7228 H   0  0  0  0  0  0  0  0  0  0  0  0  # atno 8009 bound_to 7997
  155.4698  140.3441  155.4326 H   0  0  0  0  0  0  0  0  0  0  0  0  # atno 8010 bound_to 7997
  140.0778  143.4816  152.1943 H   0  0  0  0  0  0  0  0  0  0  0  0  # atno 10167 bound_to 10162
  156.0609  130.5833  150.8283 H   0  0  0  0  0  0  0  0  0  0  0  0  # atno 10718 bound_to 10713
  154.4815  135.5844  153.6393 H   0  0  0  0  0  0  0  0  0  0  0  0  # atno 10763 bound_to 10752
  152.9848  135.6091  154.3240 H   0  0  0  0  0  0  0  0  0  0  0  0  # atno 10764 bound_to 10752
  154.3132  135.2844  155.2535 H   0  0  0  0  0  0  0  0  0  0  0  0  # atno 10765 bound_to 10752
  139.8845  134.8650  156.3371 H   0  0  0  0  0  0  0  0  0  0  0  0  # atno 11005 bound_to 11000
  145.4662  139.1508  143.3839 LP  0  0  0  0  0  0  0  0  0  0  0  0  # atno 17320 bound_to 7965
  146.2716  140.4793  142.8812 LP  0  0  0  0  0  0  0  0  0  0  0  0  # atno 17321 bound_to 7965
  139.5797  144.7505  151.3671 LP  0  0  0  0  0  0  0  0  0  0  0  0  # atno 17342 bound_to 10162
  140.7093  143.7432  150.7538 LP  0  0  0  0  0  0  0  0  0  0  0  0  # atno 17343 bound_to 10162
  157.5617  131.0946  150.9549 LP  0  0  0  0  0  0  0  0  0  0  0  0  # atno 17370 bound_to 10713
  156.9785  130.5518  149.5295 LP  0  0  0  0  0  0  0  0  0  0  0  0  # atno 17371 bound_to 10713
  140.9684  133.7343  156.0499 LP  0  0  0  0  0  0  0  0  0  0  0  0  # atno 17394 bound_to 11000
  140.7902  134.3626  157.5466 LP  0  0  0  0  0  0  0  0  0  0  0  0  # atno 17395 bound_to 11000

$$$$
