AV-unprocessed.smi:3315|AV-procd|sdf|12752|dock7
  -GOLD-   2272019 93D 1   1.00000     0.00000
 Structure written by MMmdl.
 37 38  0  0  0  0  0  0  0  0  1 V2000
  143.4947  132.8219  151.0191 C   0  0  0  0  0  0  0  0  0  0  0  0
  144.2006  133.2047  152.1926 O   0  0  0  0  0  0  0  0  0  0  0  0
  143.9772  134.5359  152.6607 C   0  0  2  0  0  0  0  0  0  0  0  0
  142.4812  134.7495  152.9398 C   0  0  0  0  0  0  0  0  0  0  0  0
  144.7085  135.5849  151.8029 C   0  0  0  0  0  0  0  0  0  0  0  0
  145.1120  136.2499  153.1171 C   0  0  2  0  0  0  0  0  0  0  0  0
  146.4566  136.8149  153.0727 N   0  0  0  0  0  0  0  0  0  0  0  0
  146.8447  137.8998  153.7566 C   0  0  0  0  0  0  0  0  0  0  0  0
  146.0964  138.5403  154.4957 O   0  0  0  0  0  0  0  0  0  0  0  0
  148.1390  138.1822  153.5302 N   0  0  0  0  0  0  0  0  0  0  0  0
  148.8986  139.2505  154.0719 C   0  0  0  0  0  0  0  0  0  0  0  0
  148.3422  140.5517  154.1936 C   0  0  0  0  0  0  0  0  0  0  0  0
  149.3663  141.2688  154.7440 C   0  0  0  0  0  0  0  0  0  0  0  0
  150.4544  140.4782  154.9427 O   0  0  0  0  0  0  0  0  0  0  0  0
  150.1476  139.1829  154.5084 N   0  0  0  0  0  0  0  0  0  0  0  0
  145.0109  134.8569  153.7895 C   0  0  0  0  0  0  0  0  0  0  0  0
  144.4878  134.8490  155.2295 C   0  0  0  0  0  0  0  0  0  0  0  0
  146.2907  133.9966  153.8026 C   0  0  0  0  0  0  0  0  0  0  0  0
  143.8259  131.8297  150.7128 H   0  0  0  0  0  0  0  0  0  0  0  0
  143.6816  133.5025  150.1883 H   0  0  0  0  0  0  0  0  0  0  0  0
  142.4202  132.7643  151.1908 H   0  0  0  0  0  0  0  0  0  0  0  0
  142.2913  135.7049  153.4284 H   0  0  0  0  0  0  0  0  0  0  0  0
  142.0835  133.9673  153.5869 H   0  0  0  0  0  0  0  0  0  0  0  0
  141.8922  134.7531  152.0231 H   0  0  0  0  0  0  0  0  0  0  0  0
  145.5507  135.1803  151.2386 H   0  0  0  0  0  0  0  0  0  0  0  0
  144.0600  136.1917  151.1706 H   0  0  0  0  0  0  0  0  0  0  0  0
  144.3496  136.9500  153.4666 H   0  0  0  0  0  0  0  0  0  0  0  0
  147.1327  136.3456  152.4882 H   0  0  0  0  0  0  0  0  0  0  0  0
  148.6337  137.5682  152.9005 H   0  0  0  0  0  0  0  0  0  0  0  0
  147.3575  140.9037  153.9242 H   0  0  0  0  0  0  0  0  0  0  0  0
  149.4721  142.3022  155.0399 H   0  0  0  0  0  0  0  0  0  0  0  0
  145.2557  135.1662  155.9360 H   0  0  0  0  0  0  0  0  0  0  0  0
  144.1569  133.8539  155.5274 H   0  0  0  0  0  0  0  0  0  0  0  0
  143.6447  135.5263  155.3623 H   0  0  0  0  0  0  0  0  0  0  0  0
  147.0426  134.4025  154.4801 H   0  0  0  0  0  0  0  0  0  0  0  0
  146.7531  133.9267  152.8178 H   0  0  0  0  0  0  0  0  0  0  0  0
  146.0812  132.9773  154.1287 H   0  0  0  0  0  0  0  0  0  0  0  0
  1  2  1  0  0  0  0
  1 19  1  0  0  0  0
  1 20  1  0  0  0  0
  1 21  1  0  0  0  0
  2  3  1  0  0  0  0
  3 16  1  0  0  0  0
  3  4  1  0  0  0  0
  3  5  1  0  0  0  0
  4 22  1  0  0  0  0
  4 23  1  0  0  0  0
  4 24  1  0  0  0  0
  5  6  1  0  0  0  0
  5 25  1  0  0  0  0
  5 26  1  0  0  0  0
  6  7  1  0  0  0  0
  6 16  1  0  0  0  0
  6 27  1  0  0  0  0
  7  8  1  0  0  0  0
  7 28  1  0  0  0  0
  8  9  2  0  0  0  0
  8 10  1  0  0  0  0
 10 11  1  0  0  0  0
 10 29  1  0  0  0  0
 11 15  2  0  0  0  0
 11 12  1  0  0  0  0
 12 13  2  0  0  0  0
 12 30  1  0  0  0  0
 13 14  1  0  0  0  0
 13 31  1  0  0  0  0
 14 15  1  0  0  0  0
 16 17  1  0  0  0  0
 16 18  1  0  0  0  0
 17 32  1  0  0  0  0
 17 33  1  0  0  0  0
 17 34  1  0  0  0  0
 18 35  1  0  0  0  0
 18 36  1  0  0  0  0
 18 37  1  0  0  0  0
M  END
> <s_m_source_file>
AV-unprocessed.smi

> <i_m_source_file_index>
3315

> <i_lp_mmshare_version>
43012

> <i_f3d_flags>
0

> <s_epik_input>
W0NIM11PW0NAQF0xKFtDSDNdKVtDSDJdW0NASF0oQzEoW0NIM10pW0NIM10pW05IXUMoPU8pW05IXWMyW2NIXVtjSF1vbjI=

> <s_epik_cmdline>
J2VwaWtfcHl0aG9uJywgJy1waCcsICc3LjAnLCAnLXRuJywgJzgnLCAnLW1hJywgJzIwMCcsICctbWV0YWxfYmluZGluZycsICctaW1hZScsICc8aW5maWxlLm1hZT4nLCAnLW9tYWUnLCAnPG91dGZpbGUubWFlPic=

> <r_lp_tautomer_probability>
1

> <r_epik_Ionization_Penalty>
2.28875e-05

> <r_epik_Ionization_Penalty_Charging>
0

> <r_epik_Ionization_Penalty_Neutral>
2.28875e-05

> <r_epik_State_Penalty>
-0

> <r_epik_Charging_Adjusted_Penalty>
0

> <i_epik_Tot_Q>
0

> <i_epik_Tot_abs_Q>
0

> <r_epik_Metal_State_Penalty>
-0

> <b_epik_Metal_Only>
0

> <s_lp_Force_Field>
OPLS_2005

> <r_lp_Energy>
21.6117

> <b_lp_Chiralities_Consistent>
1

> <s_lp_Variant>
AV-unprocessed.smi:3315-4

> <Gold.Version>
5.8.1

> <Gold.Id.Protein>
6NUR|6NUR_protein|mol2

> <Gold.PLP.Fitness>
34.2996

> <Gold.PLP.PLP>
-23.8209

> <Gold.PLP.part.hbond>
-3.0847

> <Gold.PLP.part.metal>
0.0000

> <Gold.PLP.part.buried>
-3.8828

> <Gold.PLP.part.nonpolar>
-17.7432

> <Gold.PLP.part.repulsive>
0.5086

> <Gold.PLP.ligand.clash>
0.0000

> <Gold.PLP.ligand.torsion>
0.6234

> <Gold.PLP.Chemscore.Hbond>
2.7856

> <Gold.PLP.Chemscore.CHOScore>
1.0000

> <Gold.PLP.Chemscore.Metal>
0.0000

> <Gold.Chemscore.Hbonds>
donor molecule, donor type, donor heavy atom, donor atom, acceptor molecule, acceptor atom, score
      L1  H     7    28       P1  7948  0.98
      L1  H    10    29       P1  7948  1.00
      P1  H  7989  7998       L1    14  0.80
      L1  C    13    31       P1  8028  0.94

> <Gold.PLP.Chemscore.Internal.Correction>
0.3688

> <Gold.Rescore>
     Score         DG    S(hbond)    S(metal)    S(lipo)     H(rot)  DE(clash)    DE(int)     intcor
     13.66     -14.41       1.97        0.00      48.74       1.30       0.02       0.74       ----

> <Gold.Chemscore.Fitness>
13.6576

> <Gold.Chemscore.DG>
-14.4150

> <Gold.Chemscore.ZeroCoef>
-5.4800

> <Gold.Chemscore.Hbond>
1.9672

> <Gold.Chemscore.Metal>
0.0000

> <Gold.Chemscore.Lipo>
48.7375

> <Gold.Chemscore.Internal_Hbond>
0.0000

> <Gold.Chemscore.DEClash>
0.0203

> <Gold.Chemscore.DEInternal>
0.7370

> <Gold.Chemscore.Rot>
1.3038

> <Gold.Chemscore.Internal.Correction>
   9.000000E+99

> <Gold.Chemscore.Hbonds>
donor molecule, donor type, donor heavy atom, donor atom, acceptor molecule, acceptor atom, score
      L1  H     7    28       P1  7948  0.93
      L1  H    10    29       P1  7948  1.00
      P1  H  7989  7998       L1    14  0.06

> <Gold.Chemscore.Hbond.Weighted>
-6.5704

> <Gold.Chemscore.Metal.Weighted>
-0.0000

> <Gold.Chemscore.Lipo.Weighted>
-5.7023

> <Gold.Chemscore.Internal_Hbond.Weighted>
0.0000

> <Gold.Chemscore.DEClash.Weighted>
0.0203

> <Gold.Chemscore.DEInternal.Weighted>
0.7370

> <Gold.Chemscore.Rot.Weighted>
3.3377

> <Gold.Chemscore.Internal.Correction.Weighted>
   9.000000E+99

> <Gold.Protein.RotatedTorsions>
[ 6907 6896 6895 6894 ] final  148.79 input  -60.11 | X-H torsion
[ 7974 7965 7964 7962 ] final -149.15 input  175.53 | X-H torsion
[ 8008 7997 7996 7995 ] final   48.80 input   59.86 | X-H torsion
[ 10167 10162 10161 10158 ] final   47.71 input  -65.29 | X-H torsion
[ 10718 10713 10712 10709 ] final   -0.14 input   66.30 | X-H torsion
[ 10763 10752 10751 10750 ] final   13.76 input  -60.55 | X-H torsion
[ 11005 11000 10999 10996 ] final   85.50 input  -57.11 | X-H torsion

> <Gold.Protein.ActiveResidues>
 VAL166  LYS551  ARG553  GLY616  TRP617  ASP618  TYR619  PRO620  LYS621  CYS622 
 ASP623  PHE694  ASN695  SER759  ASP760  ASP761  ALA762  ILE779  LEU786  VAL792 
 PHE793  MET794  SER795  GLU796  ALA797  LYS798  CYS799  TRP800  GLU811  SER814 

> <Gold.Protein.RotatedAtoms>
  152.1367  133.4440  159.4746 H   0  0  0  0  0  0  0  0  0  0  0  0  # atno 6907 bound_to 6896
  150.6882  134.2354  159.4460 H   0  0  0  0  0  0  0  0  0  0  0  0  # atno 6908 bound_to 6896
  152.0242  134.9804  160.0622 H   0  0  0  0  0  0  0  0  0  0  0  0  # atno 6909 bound_to 6896
  144.7985  140.5102  143.5723 H   0  0  0  0  0  0  0  0  0  0  0  0  # atno 7974 bound_to 7965
  155.3917  140.3433  155.4252 H   0  0  0  0  0  0  0  0  0  0  0  0  # atno 8008 bound_to 7997
  156.1554  140.1584  156.8734 H   0  0  0  0  0  0  0  0  0  0  0  0  # atno 8009 bound_to 7997
  154.5090  140.0795  156.7933 H   0  0  0  0  0  0  0  0  0  0  0  0  # atno 8010 bound_to 7997
  140.3009  144.2935  150.6219 H   0  0  0  0  0  0  0  0  0  0  0  0  # atno 10167 bound_to 10162
  156.8248  130.5468  149.5693 H   0  0  0  0  0  0  0  0  0  0  0  0  # atno 10718 bound_to 10713
  153.1688  135.6809  153.8636 H   0  0  0  0  0  0  0  0  0  0  0  0  # atno 10763 bound_to 10752
  153.8007  135.3156  155.3391 H   0  0  0  0  0  0  0  0  0  0  0  0  # atno 10764 bound_to 10752
  154.7984  135.4793  154.0308 H   0  0  0  0  0  0  0  0  0  0  0  0  # atno 10765 bound_to 10752
  139.8970  134.8291  156.2591 H   0  0  0  0  0  0  0  0  0  0  0  0  # atno 11005 bound_to 11000
  145.5613  139.1479  143.3340 LP  0  0  0  0  0  0  0  0  0  0  0  0  # atno 17320 bound_to 7965
  146.2260  140.5749  142.8996 LP  0  0  0  0  0  0  0  0  0  0  0  0  # atno 17321 bound_to 7965
  140.5652  143.2187  151.7696 LP  0  0  0  0  0  0  0  0  0  0  0  0  # atno 17342 bound_to 10162
  139.4915  144.4293  151.9890 LP  0  0  0  0  0  0  0  0  0  0  0  0  # atno 17343 bound_to 10162
  156.0968  130.5938  150.9827 LP  0  0  0  0  0  0  0  0  0  0  0  0  # atno 17370 bound_to 10713
  157.6438  131.0907  150.8196 LP  0  0  0  0  0  0  0  0  0  0  0  0  # atno 17371 bound_to 10713
  141.0174  133.7060  156.1212 LP  0  0  0  0  0  0  0  0  0  0  0  0  # atno 17394 bound_to 11000
  140.7282  134.4284  157.5568 LP  0  0  0  0  0  0  0  0  0  0  0  0  # atno 17395 bound_to 11000

$$$$
