AV-unprocessed.smi:3209|AV-procd|sdf|12268|dock8
  -GOLD-   2272018103D 1   1.00000     0.00000
 Structure written by MMmdl.
 37 39  0  0  0  0  0  0  0  0  2 V2000
  145.4763  142.8843  154.7936 C   0  0  0  0  0  0  0  0  0  0  0  0
  146.7114  142.0655  154.6372 C   0  0  0  0  0  0  0  0  0  0  0  0
  147.6667  141.9872  155.5673 N   0  0  0  0  0  0  0  0  0  0  0  0
  148.7246  141.1570  155.1841 C   0  0  0  0  0  0  0  0  0  0  0  0
  149.8861  140.9548  156.1087 C   0  0  0  0  0  0  0  0  0  0  0  0
  149.5691  141.3994  157.5428 C   0  0  0  0  0  0  0  0  0  0  0  0
  149.8714  142.8325  157.7331 N   0  3  0  0  0  0  0  0  0  0  0  0
  151.3134  143.1627  157.7351 C   0  0  2  0  0  0  0  0  0  0  0  0
  152.1107  142.5118  158.8867 C   0  0  0  0  0  0  0  0  0  0  0  0
  152.8406  143.7152  159.5147 C   0  0  2  0  0  0  0  0  0  0  0  0
  151.8313  144.5364  160.3360 C   0  0  0  0  0  0  0  0  0  0  0  0
  150.9684  145.1952  159.2444 C   0  0  0  0  0  0  0  0  0  0  0  0
  151.5984  144.6670  157.9367 C   0  0  1  0  0  0  0  0  0  0  0  0
  153.0762  144.6255  158.3128 C   0  0  0  0  0  0  0  0  0  0  0  0
  148.5553  140.6044  153.9389 C   0  0  0  0  0  0  0  0  0  0  0  0
  147.0589  141.1085  153.2024 S   0  0  0  0  0  0  0  0  0  0  0  0
  145.2066  142.9701  155.8467 H   0  0  0  0  0  0  0  0  0  0  0  0
  144.6476  142.4198  154.2591 H   0  0  0  0  0  0  0  0  0  0  0  0
  145.6386  143.8836  154.3894 H   0  0  0  0  0  0  0  0  0  0  0  0
  150.1789  139.9039  156.1088 H   0  0  0  0  0  0  0  0  0  0  0  0
  150.7525  141.5065  155.7411 H   0  0  0  0  0  0  0  0  0  0  0  0
  148.5170  141.2143  157.7631 H   0  0  0  0  0  0  0  0  0  0  0  0
  150.1549  140.8139  158.2526 H   0  0  0  0  0  0  0  0  0  0  0  0
  149.4361  143.3421  156.9773 H   0  0  0  0  0  0  0  0  0  0  0  0
  151.7382  142.8559  156.7776 H   0  0  0  0  0  0  0  0  0  0  0  0
  151.4804  141.9983  159.6143 H   0  0  0  0  0  0  0  0  0  0  0  0
  152.8220  141.7847  158.4928 H   0  0  0  0  0  0  0  0  0  0  0  0
  153.7375  143.4428  160.0719 H   0  0  0  0  0  0  0  0  0  0  0  0
  151.2450  143.9170  161.0159 H   0  0  0  0  0  0  0  0  0  0  0  0
  152.3407  145.2953  160.9315 H   0  0  0  0  0  0  0  0  0  0  0  0
  149.9113  144.9484  159.3422 H   0  0  0  0  0  0  0  0  0  0  0  0
  151.0555  146.2810  159.2994 H   0  0  0  0  0  0  0  0  0  0  0  0
  151.3676  145.2766  157.0623 H   0  0  0  0  0  0  0  0  0  0  0  0
  153.4831  145.6018  158.5829 H   0  0  0  0  0  0  0  0  0  0  0  0
  153.7096  144.1748  157.5464 H   0  0  0  0  0  0  0  0  0  0  0  0
  149.2162  139.9335  153.4104 H   0  0  0  0  0  0  0  0  0  0  0  0
  149.4677  143.1432  158.6052 H   0  0  0  0  0  0  0  0  0  0  0  0
  1  2  1  0  0  0  0
  1 17  1  0  0  0  0
  1 18  1  0  0  0  0
  1 19  1  0  0  0  0
  2 16  1  0  0  0  0
  2  3  2  0  0  0  0
  3  4  1  0  0  0  0
  4  5  1  0  0  0  0
  4 15  2  0  0  0  0
  5  6  1  0  0  0  0
  5 20  1  0  0  0  0
  5 21  1  0  0  0  0
  6  7  1  0  0  0  0
  6 22  1  0  0  0  0
  6 23  1  0  0  0  0
  7  8  1  0  0  0  0
  7 24  1  0  0  0  0
  7 37  1  0  0  0  0
  8 13  1  0  0  0  0
  8  9  1  0  0  0  0
  8 25  1  0  0  0  0
  9 10  1  0  0  0  0
  9 26  1  0  0  0  0
  9 27  1  0  0  0  0
 10 14  1  0  0  0  0
 10 11  1  0  0  0  0
 10 28  1  0  0  0  0
 11 12  1  0  0  0  0
 11 29  1  0  0  0  0
 11 30  1  0  0  0  0
 12 13  1  0  0  0  0
 12 31  1  0  0  0  0
 12 32  1  0  0  0  0
 13 14  1  0  0  0  0
 13 33  1  0  0  0  0
 14 34  1  0  0  0  0
 14 35  1  0  0  0  0
 15 16  1  0  0  0  0
 15 36  1  0  0  0  0
M  CHG  1   7   1
M  END
> <s_m_source_file>
AV-unprocessed.smi

> <i_m_source_file_index>
3209

> <i_lp_mmshare_version>
43012

> <i_f3d_flags>
0

> <s_epik_input>
W0NIM11jMW5jKFtjSF1zMSlbQ0gyXVtDSDJdW05IXVtDQEhdKFtDSDJdW0NASF0yMylbQ0BIXShbQ0gyXTMpW0NIMl1bQ0gyXTI=

> <s_epik_cmdline>
J2VwaWtfcHl0aG9uJywgJy1waCcsICc3LjAnLCAnLXRuJywgJzgnLCAnLW1hJywgJzIwMCcsICctbWV0YWxfYmluZGluZycsICctaW1hZScsICc8aW5maWxlLm1hZT4nLCAnLW9tYWUnLCAnPG91dGZpbGUubWFlPic=

> <r_lp_tautomer_probability>
1

> <r_epik_Ionization_Penalty>
0.000342479

> <r_epik_Ionization_Penalty_Charging>
0.000317129

> <r_epik_Ionization_Penalty_Neutral>
2.535e-05

> <r_epik_State_Penalty>
-0

> <r_epik_Charging_Adjusted_Penalty>
0.000317129

> <i_epik_Tot_Q>
1

> <i_epik_Tot_abs_Q>
1

> <r_epik_Metal_State_Penalty>
-0

> <b_epik_Metal_Only>
0

> <s_lp_Force_Field>
OPLS_2005

> <r_lp_Energy>
49.3093

> <b_lp_Chiralities_Consistent>
1

> <s_lp_Variant>
AV-unprocessed.smi:3209-1

> <Gold.Version>
5.8.1

> <Gold.Id.Protein>
6NUR|6NUR_protein|mol2

> <Gold.PLP.Fitness>
47.4606

> <Gold.PLP.PLP>
-39.6440

> <Gold.PLP.part.hbond>
-1.0000

> <Gold.PLP.part.metal>
0.0000

> <Gold.PLP.part.buried>
-4.8365

> <Gold.PLP.part.nonpolar>
-34.0079

> <Gold.PLP.part.repulsive>
1.1947

> <Gold.PLP.ligand.clash>
0.0000

> <Gold.PLP.ligand.torsion>
0.4036

> <Gold.PLP.Chemscore.Hbond>
2.0000

> <Gold.PLP.Chemscore.CHOScore>
0.8693

> <Gold.PLP.Chemscore.Metal>
0.0000

> <Gold.Chemscore.Hbonds>
donor molecule, donor type, donor heavy atom, donor atom, acceptor molecule, acceptor atom, score
      L1  H     7    24       P1  8028  2.00
      L1  C    15    36       P1  7957  0.88

> <Gold.PLP.Chemscore.Internal.Correction>
0.0158

> <Gold.Rescore>
     Score         DG    S(hbond)    S(metal)    S(lipo)     H(rot)  DE(clash)    DE(int)     intcor
     19.69     -20.36       0.98        0.00     127.80       1.31       0.18       0.50       ----

> <Gold.Chemscore.Fitness>
19.6881

> <Gold.Chemscore.DG>
-20.3607

> <Gold.Chemscore.ZeroCoef>
-5.4800

> <Gold.Chemscore.Hbond>
0.9832

> <Gold.Chemscore.Metal>
0.0000

> <Gold.Chemscore.Lipo>
127.8005

> <Gold.Chemscore.Internal_Hbond>
0.0000

> <Gold.Chemscore.DEClash>
0.1774

> <Gold.Chemscore.DEInternal>
0.4952

> <Gold.Chemscore.Rot>
1.3108

> <Gold.Chemscore.Internal.Correction>
   9.000000E+99

> <Gold.Chemscore.Hbonds>
donor molecule, donor type, donor heavy atom, donor atom, acceptor molecule, acceptor atom, score
      L1  H     7    24       P1  8028  0.94

> <Gold.Chemscore.Hbond.Weighted>
-3.2838

> <Gold.Chemscore.Metal.Weighted>
-0.0000

> <Gold.Chemscore.Lipo.Weighted>
-14.9527

> <Gold.Chemscore.Internal_Hbond.Weighted>
0.0000

> <Gold.Chemscore.DEClash.Weighted>
0.1774

> <Gold.Chemscore.DEInternal.Weighted>
0.4952

> <Gold.Chemscore.Rot.Weighted>
3.3558

> <Gold.Chemscore.Internal.Correction.Weighted>
   9.000000E+99

> <Gold.Protein.RotatedTorsions>
[ 6907 6896 6895 6894 ] final -103.81 input  -60.11 | X-H torsion
[ 7974 7965 7964 7962 ] final  -96.53 input  175.53 | X-H torsion
[ 8008 7997 7996 7995 ] final  151.76 input   59.86 | X-H torsion
[ 10167 10162 10161 10158 ] final  -76.21 input  -65.29 | X-H torsion
[ 10718 10713 10712 10709 ] final   63.60 input   66.30 | X-H torsion
[ 10763 10752 10751 10750 ] final  141.07 input  -60.55 | X-H torsion
[ 11005 11000 10999 10996 ] final  -88.21 input  -57.11 | X-H torsion

> <Gold.Protein.ActiveResidues>
 VAL166  LYS551  ARG553  GLY616  TRP617  ASP618  TYR619  PRO620  LYS621  CYS622 
 ASP623  PHE694  ASN695  SER759  ASP760  ASP761  ALA762  ILE779  LEU786  VAL792 
 PHE793  MET794  SER795  GLU796  ALA797  LYS798  CYS799  TRP800  GLU811  SER814 

> <Gold.Protein.RotatedAtoms>
  150.7258  134.0372  159.3753 H   0  0  0  0  0  0  0  0  0  0  0  0  # atno 6907 bound_to 6896
  151.8344  135.0609  160.0450 H   0  0  0  0  0  0  0  0  0  0  0  0  # atno 6908 bound_to 6896
  152.2909  133.5525  159.5593 H   0  0  0  0  0  0  0  0  0  0  0  0  # atno 6909 bound_to 6896
  145.3457  140.9468  143.2583 H   0  0  0  0  0  0  0  0  0  0  0  0  # atno 7974 bound_to 7965
  156.2659  140.2039  156.6227 H   0  0  0  0  0  0  0  0  0  0  0  0  # atno 8008 bound_to 7997
  154.6744  140.0546  157.0224 H   0  0  0  0  0  0  0  0  0  0  0  0  # atno 8009 bound_to 7997
  155.1090  140.3213  155.4529 H   0  0  0  0  0  0  0  0  0  0  0  0  # atno 8010 bound_to 7997
  140.4876  143.2387  151.7959 H   0  0  0  0  0  0  0  0  0  0  0  0  # atno 10167 bound_to 10162
  157.5983  130.9114  149.9737 H   0  0  0  0  0  0  0  0  0  0  0  0  # atno 10718 bound_to 10713
  153.9332  135.2988  155.3445 H   0  0  0  0  0  0  0  0  0  0  0  0  # atno 10763 bound_to 10752
  154.7516  135.4977  153.9302 H   0  0  0  0  0  0  0  0  0  0  0  0  # atno 10764 bound_to 10752
  153.1081  135.6752  153.9655 H   0  0  0  0  0  0  0  0  0  0  0  0  # atno 10765 bound_to 10752
  141.1605  133.7556  156.9418 H   0  0  0  0  0  0  0  0  0  0  0  0  # atno 11005 bound_to 11000
  144.8756  139.4976  143.6747 LP  0  0  0  0  0  0  0  0  0  0  0  0  # atno 17320 bound_to 7965
  146.2989  139.7364  142.9106 LP  0  0  0  0  0  0  0  0  0  0  0  0  # atno 17321 bound_to 7965
  139.4845  144.4691  151.9447 LP  0  0  0  0  0  0  0  0  0  0  0  0  # atno 17342 bound_to 10162
  140.3778  144.2775  150.5912 LP  0  0  0  0  0  0  0  0  0  0  0  0  # atno 17343 bound_to 10162
  156.1050  130.3653  150.0150 LP  0  0  0  0  0  0  0  0  0  0  0  0  # atno 17370 bound_to 10713
  156.8259  130.9375  151.3639 LP  0  0  0  0  0  0  0  0  0  0  0  0  # atno 17371 bound_to 10713
  140.1317  134.9352  157.2345 LP  0  0  0  0  0  0  0  0  0  0  0  0  # atno 17394 bound_to 11000
  140.2945  134.3202  155.7306 LP  0  0  0  0  0  0  0  0  0  0  0  0  # atno 17395 bound_to 11000

$$$$
