AV-unprocessed.smi:242|AV-procd|sdf|1844|dock2
  -GOLD-   2262020463D 1   1.00000     0.00000
 Structure written by MMmdl.
 58 61  0  0  0  0  0  0  0  0  2 V2000
  148.0515  128.4136  151.3058 C   0  0  0  0  0  0  0  0  0  0  0  0
  147.1841  129.3512  152.1686 C   0  0  0  0  0  0  0  0  0  0  0  0
  145.7224  129.2794  151.6856 C   0  0  0  0  0  0  0  0  0  0  0  0
  147.6890  130.7534  152.1429 N   0  3  2  0  0  0  0  0  0  0  0  0
  148.8399  131.0410  153.0350 C   0  0  0  0  0  0  0  0  0  0  0  0
  148.7508  132.5297  153.3620 C   0  0  0  0  0  0  0  0  0  0  0  0
  147.2422  132.7136  153.4882 C   0  0  1  0  0  0  0  0  0  0  0  0
  146.7675  134.1012  153.4410 N   0  0  0  0  0  0  0  0  0  0  0  0
  145.9948  134.5801  152.2975 C   0  0  0  0  0  0  0  0  0  0  0  0
  147.4135  135.0527  154.1677 C   0  0  0  0  0  0  0  0  0  0  0  0
  148.3836  134.6822  155.0461 N   0  0  0  0  0  0  0  0  0  0  0  0
  149.0341  135.5998  155.7668 C   0  0  0  0  0  0  0  0  0  0  0  0
  148.8729  136.9236  155.7714 N   0  0  0  0  0  0  0  0  0  0  0  0
  147.8989  137.3062  154.8974 C   0  0  0  0  0  0  0  0  0  0  0  0
  147.1268  136.4457  154.0654 C   0  0  0  0  0  0  0  0  0  0  0  0
  146.2190  137.1976  153.3279 N   0  0  0  0  0  0  0  0  0  0  0  0
  146.4427  138.4277  153.7000 C   0  0  0  0  0  0  0  0  0  0  0  0
  147.4420  138.5856  154.6329 N   0  0  0  0  0  0  0  0  0  0  0  0
  147.8903  139.8362  155.2259 C   0  0  0  0  0  0  0  0  0  0  0  0
  149.1659  140.4344  154.5715 C   0  0  0  0  0  0  0  0  0  0  0  0
  148.7921  140.9707  153.3165 O   0  0  0  0  0  0  0  0  0  0  0  0
  149.8232  141.5707  155.3833 C   0  0  0  0  0  0  0  0  0  0  0  0
  150.5190  141.0258  156.6424 C   0  0  0  0  0  0  0  0  0  0  0  0
  151.4884  140.0508  156.2732 O   0  0  0  0  0  0  0  0  0  0  0  0
  150.9261  138.9184  155.6185 C   0  0  0  0  0  0  0  0  0  0  0  0
  150.2306  139.3499  154.3138 C   0  0  0  0  0  0  0  0  0  0  0  0
  146.6657  131.8015  152.3964 C   0  0  0  0  0  0  0  0  0  0  0  0
  147.6441  127.4021  151.3003 H   0  0  0  0  0  0  0  0  0  0  0  0
  149.0726  128.3367  151.6792 H   0  0  0  0  0  0  0  0  0  0  0  0
  148.0980  128.7553  150.2710 H   0  0  0  0  0  0  0  0  0  0  0  0
  147.2255  128.9958  153.1994 H   0  0  0  0  0  0  0  0  0  0  0  0
  145.3617  128.2502  151.6865 H   0  0  0  0  0  0  0  0  0  0  0  0
  145.6229  129.6609  150.6689 H   0  0  0  0  0  0  0  0  0  0  0  0
  145.0456  129.8500  152.3206 H   0  0  0  0  0  0  0  0  0  0  0  0
  148.7438  130.4671  153.9588 H   0  0  0  0  0  0  0  0  0  0  0  0
  149.7893  130.7761  152.5686 H   0  0  0  0  0  0  0  0  0  0  0  0
  149.2910  132.7959  154.2709 H   0  0  0  0  0  0  0  0  0  0  0  0
  149.1566  133.1187  152.5391 H   0  0  0  0  0  0  0  0  0  0  0  0
  146.9347  132.2706  154.4371 H   0  0  0  0  0  0  0  0  0  0  0  0
  146.4195  135.4971  151.8863 H   0  0  0  0  0  0  0  0  0  0  0  0
  144.9664  134.7818  152.5972 H   0  0  0  0  0  0  0  0  0  0  0  0
  145.9688  133.8456  151.4931 H   0  0  0  0  0  0  0  0  0  0  0  0
  149.7915  135.2195  156.4362 H   0  0  0  0  0  0  0  0  0  0  0  0
  145.8829  139.2599  153.2987 H   0  0  0  0  0  0  0  0  0  0  0  0
  147.0600  140.5397  155.1718 H   0  0  0  0  0  0  0  0  0  0  0  0
  148.0618  139.6643  156.2896 H   0  0  0  0  0  0  0  0  0  0  0  0
  148.9151  140.3063  152.6560 H   0  0  0  0  0  0  0  0  0  0  0  0
  150.5761  142.0677  154.7697 H   0  0  0  0  0  0  0  0  0  0  0  0
  149.1024  142.3439  155.6474 H   0  0  0  0  0  0  0  0  0  0  0  0
  151.0233  141.8361  157.1687 H   0  0  0  0  0  0  0  0  0  0  0  0
  149.7997  140.5971  157.3410 H   0  0  0  0  0  0  0  0  0  0  0  0
  151.7264  138.2128  155.3955 H   0  0  0  0  0  0  0  0  0  0  0  0
  150.2359  138.4039  156.2878 H   0  0  0  0  0  0  0  0  0  0  0  0
  149.7883  138.4853  153.8176 H   0  0  0  0  0  0  0  0  0  0  0  0
  150.9915  139.7359  153.6337 H   0  0  0  0  0  0  0  0  0  0  0  0
  146.4932  132.3293  151.4588 H   0  0  0  0  0  0  0  0  0  0  0  0
  145.7083  131.3944  152.7235 H   0  0  0  0  0  0  0  0  0  0  0  0
  148.0231  130.9215  151.2047 H   0  0  0  0  0  0  0  0  0  0  0  0
  1  2  1  0  0  0  0
  1 28  1  0  0  0  0
  1 29  1  0  0  0  0
  1 30  1  0  0  0  0
  2  3  1  0  0  0  0
  2  4  1  0  0  0  0
  2 31  1  0  0  0  0
  3 32  1  0  0  0  0
  3 33  1  0  0  0  0
  3 34  1  0  0  0  0
  4 27  1  0  0  0  0
  4  5  1  0  0  0  0
  4 58  1  0  0  0  0
  5  6  1  0  0  0  0
  5 35  1  0  0  0  0
  5 36  1  0  0  0  0
  6  7  1  0  0  0  0
  6 37  1  0  0  0  0
  6 38  1  0  0  0  0
  7  8  1  0  0  0  0
  7 27  1  0  0  0  0
  7 39  1  0  0  0  0
  8  9  1  0  0  0  0
  8 10  1  0  0  0  0
  9 40  1  0  0  0  0
  9 41  1  0  0  0  0
  9 42  1  0  0  0  0
 10 15  1  0  0  0  0
 10 11  2  0  0  0  0
 11 12  1  0  0  0  0
 12 13  2  0  0  0  0
 12 43  1  0  0  0  0
 13 14  1  0  0  0  0
 14 18  1  0  0  0  0
 14 15  2  0  0  0  0
 15 16  1  0  0  0  0
 16 17  2  0  0  0  0
 17 18  1  0  0  0  0
 17 44  1  0  0  0  0
 18 19  1  0  0  0  0
 19 20  1  0  0  0  0
 19 45  1  0  0  0  0
 19 46  1  0  0  0  0
 20 26  1  0  0  0  0
 20 21  1  0  0  0  0
 20 22  1  0  0  0  0
 21 47  1  0  0  0  0
 22 23  1  0  0  0  0
 22 48  1  0  0  0  0
 22 49  1  0  0  0  0
 23 24  1  0  0  0  0
 23 50  1  0  0  0  0
 23 51  1  0  0  0  0
 24 25  1  0  0  0  0
 25 26  1  0  0  0  0
 25 52  1  0  0  0  0
 25 53  1  0  0  0  0
 26 54  1  0  0  0  0
 26 55  1  0  0  0  0
 27 56  1  0  0  0  0
 27 57  1  0  0  0  0
M  CHG  1   4   1
M  END
> <s_m_source_file>
AV-unprocessed.smi

> <i_m_source_file_index>
242

> <i_lp_mmshare_version>
43012

> <i_f3d_flags>
0

> <s_epik_input>
W0NIM11bQ0hdKFtDSDNdKU4xW0NIMl1bQ0gyXVtDQEhdKFtDSDJdMSlOKFtDSDNdKWMobltjSF1uMiljKGMyMyluW2NIXW4zW0NIMl1DNChbT0hdKVtDSDJdW0NIMl1PW0NIMl1bQ0gyXTQ=

> <s_epik_cmdline>
J2VwaWtfcHl0aG9uJywgJy1waCcsICc3LjAnLCAnLXRuJywgJzgnLCAnLW1hJywgJzIwMCcsICctbWV0YWxfYmluZGluZycsICctaW1hZScsICc8aW5maWxlLm1hZT4nLCAnLW9tYWUnLCAnPG91dGZpbGUubWFlPic=

> <r_lp_tautomer_probability>
1

> <r_epik_Ionization_Penalty>
0.000825961

> <r_epik_Ionization_Penalty_Charging>
0.00034898

> <r_epik_Ionization_Penalty_Neutral>
0.000476981

> <r_epik_State_Penalty>
-0

> <r_epik_Charging_Adjusted_Penalty>
0.00034898

> <i_epik_Tot_Q>
1

> <i_epik_Tot_abs_Q>
1

> <r_epik_Metal_State_Penalty>
-0

> <b_epik_Metal_Only>
0

> <s_lp_Force_Field>
OPLS_2005

> <r_lp_Energy>
46.8911

> <b_lp_Chiralities_Consistent>
1

> <s_lp_Variant>
AV-unprocessed.smi:242-1

> <Gold.Version>
5.8.1

> <Gold.Id.Protein>
6NUR|6NUR_protein|mol2

> <Gold.PLP.Fitness>
44.3379

> <Gold.PLP.PLP>
-34.9022

> <Gold.PLP.part.hbond>
-2.8051

> <Gold.PLP.part.metal>
0.0000

> <Gold.PLP.part.buried>
-0.6075

> <Gold.PLP.part.nonpolar>
-30.6904

> <Gold.PLP.part.repulsive>
0.2987

> <Gold.PLP.ligand.clash>
0.0000

> <Gold.PLP.ligand.torsion>
1.3189

> <Gold.PLP.Chemscore.Hbond>
2.8000

> <Gold.PLP.Chemscore.CHOScore>
0.9780

> <Gold.PLP.Chemscore.Metal>
0.0000

> <Gold.Chemscore.Hbonds>
donor molecule, donor type, donor heavy atom, donor atom, acceptor molecule, acceptor atom, score
      L1  H     4    58       P1 10747  0.50
      L1  H    21    47       P1  7957  0.85
      P1  H  8011  8017       L1    21  0.75
      L1  C    17    44       P1 10175  0.71

> <Gold.PLP.Chemscore.Internal.Correction>
0.7396

> <Gold.Rescore>
     Score         DG    S(hbond)    S(metal)    S(lipo)     H(rot)  DE(clash)    DE(int)     intcor
     10.70     -16.51       1.95        0.00      87.20       2.22       0.40       5.42       ----

> <Gold.Chemscore.Fitness>
10.6968

> <Gold.Chemscore.DG>
-16.5131

> <Gold.Chemscore.ZeroCoef>
-5.4800

> <Gold.Chemscore.Hbond>
1.9529

> <Gold.Chemscore.Metal>
0.0000

> <Gold.Chemscore.Lipo>
87.1989

> <Gold.Chemscore.Internal_Hbond>
0.0000

> <Gold.Chemscore.DEClash>
0.3980

> <Gold.Chemscore.DEInternal>
5.4184

> <Gold.Chemscore.Rot>
2.2234

> <Gold.Chemscore.Internal.Correction>
   9.000000E+99

> <Gold.Chemscore.Hbonds>
donor molecule, donor type, donor heavy atom, donor atom, acceptor molecule, acceptor atom, score
      L1  H     4    58       P1 10747  0.47
      L1  H    21    47       P1  7957  0.83
      P1  H  8011  8017       L1    21  0.09

> <Gold.Chemscore.Hbond.Weighted>
-6.5228

> <Gold.Chemscore.Metal.Weighted>
-0.0000

> <Gold.Chemscore.Lipo.Weighted>
-10.2023

> <Gold.Chemscore.Internal_Hbond.Weighted>
0.0000

> <Gold.Chemscore.DEClash.Weighted>
0.3980

> <Gold.Chemscore.DEInternal.Weighted>
5.4184

> <Gold.Chemscore.Rot.Weighted>
5.6919

> <Gold.Chemscore.Internal.Correction.Weighted>
   9.000000E+99

> <Gold.Protein.RotatedTorsions>
[ 6907 6896 6895 6894 ] final  -52.89 input  -60.11 | X-H torsion
[ 7974 7965 7964 7962 ] final  -67.71 input  175.53 | X-H torsion
[ 8008 7997 7996 7995 ] final   67.75 input   59.86 | X-H torsion
[ 10167 10162 10161 10158 ] final  -60.45 input  -65.29 | X-H torsion
[ 10718 10713 10712 10709 ] final  138.06 input   66.30 | X-H torsion
[ 10763 10752 10751 10750 ] final   82.14 input  -60.55 | X-H torsion
[ 11005 11000 10999 10996 ] final  119.05 input  -57.11 | X-H torsion

> <Gold.Protein.ActiveResidues>
 VAL166  LYS551  ARG553  GLY616  TRP617  ASP618  TYR619  PRO620  LYS621  CYS622 
 ASP623  PHE694  ASN695  SER759  ASP760  ASP761  ALA762  ILE779  LEU786  VAL792 
 PHE793  MET794  SER795  GLU796  ALA797  LYS798  CYS799  TRP800  GLU811  SER814 

> <Gold.Protein.RotatedAtoms>
  150.8477  134.7791  159.6982 H   0  0  0  0  0  0  0  0  0  0  0  0  # atno 6907 bound_to 6896
  152.4549  134.5309  159.9820 H   0  0  0  0  0  0  0  0  0  0  0  0  # atno 6908 bound_to 6896
  151.5436  133.3390  159.2976 H   0  0  0  0  0  0  0  0  0  0  0  0  # atno 6909 bound_to 6896
  145.7257  140.9019  143.0607 H   0  0  0  0  0  0  0  0  0  0  0  0  # atno 7974 bound_to 7965
  155.6978  140.3495  155.4920 H   0  0  0  0  0  0  0  0  0  0  0  0  # atno 8008 bound_to 7997
  155.9468  140.1111  157.1032 H   0  0  0  0  0  0  0  0  0  0  0  0  # atno 8009 bound_to 7997
  154.4113  140.1202  156.4985 H   0  0  0  0  0  0  0  0  0  0  0  0  # atno 8010 bound_to 7997
  140.6070  143.2376  151.5798 H   0  0  0  0  0  0  0  0  0  0  0  0  # atno 10167 bound_to 10162
  157.4294  131.1047  151.0267 H   0  0  0  0  0  0  0  0  0  0  0  0  # atno 10718 bound_to 10713
  153.1177  135.4739  154.9143 H   0  0  0  0  0  0  0  0  0  0  0  0  # atno 10763 bound_to 10752
  154.7545  135.3114  154.8498 H   0  0  0  0  0  0  0  0  0  0  0  0  # atno 10764 bound_to 10752
  153.9071  135.6869  153.4806 H   0  0  0  0  0  0  0  0  0  0  0  0  # atno 10765 bound_to 10752
  139.9132  134.9625  156.7595 H   0  0  0  0  0  0  0  0  0  0  0  0  # atno 11005 bound_to 11000
  144.6905  139.9262  143.7470 LP  0  0  0  0  0  0  0  0  0  0  0  0  # atno 17320 bound_to 7965
  146.0584  139.3580  143.0596 LP  0  0  0  0  0  0  0  0  0  0  0  0  # atno 17321 bound_to 7965
  139.5332  144.2855  152.1195 LP  0  0  0  0  0  0  0  0  0  0  0  0  # atno 17342 bound_to 10162
  140.2047  144.4623  150.6414 LP  0  0  0  0  0  0  0  0  0  0  0  0  # atno 17343 bound_to 10162
  157.1168  130.6045  149.5495 LP  0  0  0  0  0  0  0  0  0  0  0  0  # atno 17370 bound_to 10713
  155.9908  130.4960  150.7271 LP  0  0  0  0  0  0  0  0  0  0  0  0  # atno 17371 bound_to 10713
  140.6708  133.9561  155.7856 LP  0  0  0  0  0  0  0  0  0  0  0  0  # atno 17394 bound_to 11000
  141.0578  134.0390  157.3698 LP  0  0  0  0  0  0  0  0  0  0  0  0  # atno 17395 bound_to 11000

$$$$
