AV-unprocessed.smi:648|AV-procd|sdf|3170|dock7
  -GOLD-   22720 0 93D 1   1.00000     0.00000
 Structure written by MMmdl.
 46 47  0  0  0  0  0  0  0  0  2 V2000
  145.6073  133.0250  150.7692 C   0  0  0  0  0  0  0  0  0  0  0  0
  145.3492  134.1831  151.7441 C   0  0  2  0  0  0  0  0  0  0  0  0
  143.8657  134.2420  152.1553 C   0  0  0  0  0  0  0  0  0  0  0  0
  143.5382  135.3932  153.1359 C   0  0  0  0  0  0  0  0  0  0  0  0
  142.0051  135.5125  153.2555 C   0  0  0  0  0  0  0  0  0  0  0  0
  144.0741  135.0804  154.5517 C   0  0  0  0  0  0  0  0  0  0  0  0
  144.0869  136.7357  152.5734 C   0  0  0  0  0  0  0  0  0  0  0  0
  145.5678  136.7342  152.0862 C   0  0  1  0  0  0  0  0  0  0  0  0
  145.8963  138.0562  151.3366 C   0  0  0  0  0  0  0  0  0  0  0  0
  147.2629  138.1761  150.9950 O   0  0  0  0  0  0  0  0  0  0  0  0
  146.5248  136.5795  153.2159 N   0  3  0  0  0  0  0  0  0  0  0  0
  146.9526  137.7889  153.9598 C   0  0  0  0  0  0  0  0  0  0  0  0
  147.9883  137.4363  155.0391 C   0  0  0  0  0  0  0  0  0  0  0  0
  149.1162  138.3498  155.0415 N   0  0  0  0  0  0  0  0  0  0  0  0
  149.9472  138.7040  154.0601 C   0  0  0  0  0  0  0  0  0  0  0  0
  150.8788  139.5690  154.4349 N   0  0  0  0  0  0  0  0  0  0  0  0
  150.5362  139.7207  155.7486 C   0  0  0  0  0  0  0  0  0  0  0  0
  149.4881  139.0091  156.1640 N   0  0  0  0  0  0  0  0  0  0  0  0
  145.7876  135.5295  151.1352 C   0  0  0  0  0  0  0  0  0  0  0  0
  145.0388  133.1467  149.8465 H   0  0  0  0  0  0  0  0  0  0  0  0
  145.3235  132.0695  151.2108 H   0  0  0  0  0  0  0  0  0  0  0  0
  146.6630  132.9629  150.5036 H   0  0  0  0  0  0  0  0  0  0  0  0
  145.9520  133.9845  152.6299 H   0  0  0  0  0  0  0  0  0  0  0  0
  143.2635  134.3573  151.2525 H   0  0  0  0  0  0  0  0  0  0  0  0
  143.5651  133.2880  152.5913 H   0  0  0  0  0  0  0  0  0  0  0  0
  141.7208  136.3152  153.9368 H   0  0  0  0  0  0  0  0  0  0  0  0
  141.5615  134.5903  153.6327 H   0  0  0  0  0  0  0  0  0  0  0  0
  141.5402  135.7237  152.2916 H   0  0  0  0  0  0  0  0  0  0  0  0
  143.8857  135.9073  155.2369 H   0  0  0  0  0  0  0  0  0  0  0  0
  145.1417  134.8741  154.5727 H   0  0  0  0  0  0  0  0  0  0  0  0
  143.5840  134.1997  154.9685 H   0  0  0  0  0  0  0  0  0  0  0  0
  143.4654  136.9936  151.7149 H   0  0  0  0  0  0  0  0  0  0  0  0
  143.9073  137.5425  153.2834 H   0  0  0  0  0  0  0  0  0  0  0  0
  145.3298  138.1337  150.4089 H   0  0  0  0  0  0  0  0  0  0  0  0
  145.6261  138.9182  151.9480 H   0  0  0  0  0  0  0  0  0  0  0  0
  147.7769  137.6938  151.6252 H   0  0  0  0  0  0  0  0  0  0  0  0
  146.1011  135.9482  153.8808 H   0  0  0  0  0  0  0  0  0  0  0  0
  147.3766  138.5299  153.2829 H   0  0  0  0  0  0  0  0  0  0  0  0
  146.0953  138.2506  154.4462 H   0  0  0  0  0  0  0  0  0  0  0  0
  147.5211  137.4740  156.0240 H   0  0  0  0  0  0  0  0  0  0  0  0
  148.3547  136.4168  154.9075 H   0  0  0  0  0  0  0  0  0  0  0  0
  149.8715  138.3205  153.0532 H   0  0  0  0  0  0  0  0  0  0  0  0
  151.0775  140.3715  156.4191 H   0  0  0  0  0  0  0  0  0  0  0  0
  146.8370  135.4778  150.8404 H   0  0  0  0  0  0  0  0  0  0  0  0
  145.2273  135.6740  150.2107 H   0  0  0  0  0  0  0  0  0  0  0  0
  147.3570  136.1347  152.8549 H   0  0  0  0  0  0  0  0  0  0  0  0
  1  2  1  0  0  0  0
  1 20  1  0  0  0  0
  1 21  1  0  0  0  0
  1 22  1  0  0  0  0
  2 19  1  0  0  0  0
  2  3  1  0  0  0  0
  2 23  1  0  0  0  0
  3  4  1  0  0  0  0
  3 24  1  0  0  0  0
  3 25  1  0  0  0  0
  4  5  1  0  0  0  0
  4  6  1  0  0  0  0
  4  7  1  0  0  0  0
  5 26  1  0  0  0  0
  5 27  1  0  0  0  0
  5 28  1  0  0  0  0
  6 29  1  0  0  0  0
  6 30  1  0  0  0  0
  6 31  1  0  0  0  0
  7  8  1  0  0  0  0
  7 32  1  0  0  0  0
  7 33  1  0  0  0  0
  8  9  1  0  0  0  0
  8 11  1  0  0  0  0
  8 19  1  0  0  0  0
  9 10  1  0  0  0  0
  9 34  1  0  0  0  0
  9 35  1  0  0  0  0
 10 36  1  0  0  0  0
 11 12  1  0  0  0  0
 11 37  1  0  0  0  0
 11 46  1  0  0  0  0
 12 13  1  0  0  0  0
 12 38  1  0  0  0  0
 12 39  1  0  0  0  0
 13 14  1  0  0  0  0
 13 40  1  0  0  0  0
 13 41  1  0  0  0  0
 14 18  1  0  0  0  0
 14 15  1  0  0  0  0
 15 16  2  0  0  0  0
 15 42  1  0  0  0  0
 16 17  1  0  0  0  0
 17 18  2  0  0  0  0
 17 43  1  0  0  0  0
 19 44  1  0  0  0  0
 19 45  1  0  0  0  0
M  CHG  1  11   1
M  END
> <s_m_source_file>
AV-unprocessed.smi

> <i_m_source_file_index>
648

> <i_lp_mmshare_version>
43012

> <i_f3d_flags>
0

> <s_epik_input>
W0NIM11DMShbQ0gzXSlbQ0gyXVtDQEBIXShbQ0gzXSlbQ0gyXVtDQF0oW0NIMl0xKShbQ0gyXVtPSF0pW05IXVtDSDJdW0NIMl1uMltjSF1uW2NIXW4y

> <s_epik_cmdline>
J2VwaWtfcHl0aG9uJywgJy1waCcsICc3LjAnLCAnLXRuJywgJzgnLCAnLW1hJywgJzIwMCcsICctbWV0YWxfYmluZGluZycsICctaW1hZScsICc8aW5maWxlLm1hZT4nLCAnLW9tYWUnLCAnPG91dGZpbGUubWFlPic=

> <r_lp_tautomer_probability>
1

> <r_epik_Ionization_Penalty>
0.00942316

> <r_epik_Ionization_Penalty_Charging>
0.00942185

> <r_epik_Ionization_Penalty_Neutral>
1.31257e-06

> <r_epik_State_Penalty>
0.00715409

> <r_epik_Charging_Adjusted_Penalty>
0.0165759

> <i_epik_Tot_Q>
1

> <i_epik_Tot_abs_Q>
1

> <r_epik_Metal_State_Penalty>
0.00715563

> <b_epik_Metal_Only>
0

> <s_lp_Force_Field>
OPLS_2005

> <r_lp_Energy>
29.4172

> <b_lp_Chiralities_Consistent>
1

> <s_lp_Variant>
AV-unprocessed.smi:648-1

> <Gold.Version>
5.8.1

> <Gold.Id.Protein>
6NUR|6NUR_protein|mol2

> <Gold.PLP.Fitness>
46.3414

> <Gold.PLP.PLP>
-29.4329

> <Gold.PLP.part.hbond>
-4.7077

> <Gold.PLP.part.metal>
0.0000

> <Gold.PLP.part.buried>
-0.8412

> <Gold.PLP.part.nonpolar>
-24.2938

> <Gold.PLP.part.repulsive>
0.1243

> <Gold.PLP.ligand.clash>
0.0000

> <Gold.PLP.ligand.torsion>
0.8067

> <Gold.PLP.Chemscore.Hbond>
4.4441

> <Gold.PLP.Chemscore.CHOScore>
1.7147

> <Gold.PLP.Chemscore.Metal>
0.0000

> <Gold.Chemscore.Hbonds>
donor molecule, donor type, donor heavy atom, donor atom, acceptor molecule, acceptor atom, score
      L1  H    10    36       P1  7948  0.86
      L1  H    11    46       P1  7948  2.00
      P1  H  7954  7966       L1    10  0.53
      P1  H  7989  7998       L1    16  1.00
      L1  C    15    42       P1  7948  1.00
      L1  C    15    42       P1  7957  0.72

> <Gold.PLP.Chemscore.Internal.Correction>
0.0455

> <Gold.Rescore>
     Score         DG    S(hbond)    S(metal)    S(lipo)     H(rot)  DE(clash)    DE(int)     intcor
     12.07     -14.20       2.98        0.00      58.90       3.17       1.57       0.56       ----

> <Gold.Chemscore.Fitness>
12.0668

> <Gold.Chemscore.DG>
-14.2011

> <Gold.Chemscore.ZeroCoef>
-5.4800

> <Gold.Chemscore.Hbond>
2.9815

> <Gold.Chemscore.Metal>
0.0000

> <Gold.Chemscore.Lipo>
58.8952

> <Gold.Chemscore.Internal_Hbond>
0.0000

> <Gold.Chemscore.DEClash>
1.5712

> <Gold.Chemscore.DEInternal>
0.5631

> <Gold.Chemscore.Rot>
3.1750

> <Gold.Chemscore.Internal.Correction>
   9.000000E+99

> <Gold.Chemscore.Hbonds>
donor molecule, donor type, donor heavy atom, donor atom, acceptor molecule, acceptor atom, score
      L1  H    10    36       P1  7948  0.85
      L1  H    11    46       P1  7948  0.94
      P1  H  7954  7966       L1    10  0.05
      P1  H  7989  7998       L1    16  0.99

> <Gold.Chemscore.Hbond.Weighted>
-9.9583

> <Gold.Chemscore.Metal.Weighted>
-0.0000

> <Gold.Chemscore.Lipo.Weighted>
-6.8907

> <Gold.Chemscore.Internal_Hbond.Weighted>
0.0000

> <Gold.Chemscore.DEClash.Weighted>
1.5712

> <Gold.Chemscore.DEInternal.Weighted>
0.5631

> <Gold.Chemscore.Rot.Weighted>
8.1279

> <Gold.Chemscore.Internal.Correction.Weighted>
   9.000000E+99

> <Gold.Protein.RotatedTorsions>
[ 6907 6896 6895 6894 ] final   88.68 input  -60.11 | X-H torsion
[ 7974 7965 7964 7962 ] final    9.19 input  175.53 | X-H torsion
[ 8008 7997 7996 7995 ] final   48.45 input   59.86 | X-H torsion
[ 10167 10162 10161 10158 ] final  -22.98 input  -65.29 | X-H torsion
[ 10718 10713 10712 10709 ] final  174.84 input   66.30 | X-H torsion
[ 10763 10752 10751 10750 ] final  159.26 input  -60.55 | X-H torsion
[ 11005 11000 10999 10996 ] final  115.06 input  -57.11 | X-H torsion

> <Gold.Protein.ActiveResidues>
 VAL166  LYS551  ARG553  GLY616  TRP617  ASP618  TYR619  PRO620  LYS621  CYS622 
 ASP623  PHE694  ASN695  SER759  ASP760  ASP761  ALA762  ILE779  LEU786  VAL792 
 PHE793  MET794  SER795  GLU796  ALA797  LYS798  CYS799  TRP800  GLU811  SER814 

> <Gold.Protein.RotatedAtoms>
  152.5428  134.2084  159.8740 H   0  0  0  0  0  0  0  0  0  0  0  0  # atno 6907 bound_to 6896
  151.2069  133.4572  159.2605 H   0  0  0  0  0  0  0  0  0  0  0  0  # atno 6908 bound_to 6896
  151.0935  134.9943  159.8470 H   0  0  0  0  0  0  0  0  0  0  0  0  # atno 6909 bound_to 6896
  146.2407  139.9820  142.8435 H   0  0  0  0  0  0  0  0  0  0  0  0  # atno 7974 bound_to 7965
  155.3859  140.3431  155.4249 H   0  0  0  0  0  0  0  0  0  0  0  0  # atno 8008 bound_to 7997
  156.1585  140.1593  156.8686 H   0  0  0  0  0  0  0  0  0  0  0  0  # atno 8009 bound_to 7997
  154.5117  140.0788  156.7984 H   0  0  0  0  0  0  0  0  0  0  0  0  # atno 8010 bound_to 7997
  140.7287  143.4485  151.0551 H   0  0  0  0  0  0  0  0  0  0  0  0  # atno 10167 bound_to 10162
  156.9437  131.0009  151.2963 H   0  0  0  0  0  0  0  0  0  0  0  0  # atno 10718 bound_to 10713
  154.2290  135.2779  155.2897 H   0  0  0  0  0  0  0  0  0  0  0  0  # atno 10763 bound_to 10752
  154.5639  135.5639  153.7036 H   0  0  0  0  0  0  0  0  0  0  0  0  # atno 10764 bound_to 10752
  153.0024  135.6304  154.2432 H   0  0  0  0  0  0  0  0  0  0  0  0  # atno 10765 bound_to 10752
  139.8998  134.9578  156.6987 H   0  0  0  0  0  0  0  0  0  0  0  0  # atno 11005 bound_to 11000
  145.1583  140.9659  143.4392 LP  0  0  0  0  0  0  0  0  0  0  0  0  # atno 17320 bound_to 7965
  145.0140  139.3484  143.6105 LP  0  0  0  0  0  0  0  0  0  0  0  0  # atno 17321 bound_to 7965
  139.8159  143.7887  152.3174 LP  0  0  0  0  0  0  0  0  0  0  0  0  # atno 17342 bound_to 10162
  139.7952  144.7395  150.9899 LP  0  0  0  0  0  0  0  0  0  0  0  0  # atno 17343 bound_to 10162
  157.5768  130.8349  149.8467 LP  0  0  0  0  0  0  0  0  0  0  0  0  # atno 17370 bound_to 10713
  156.0393  130.3743  150.1477 LP  0  0  0  0  0  0  0  0  0  0  0  0  # atno 17371 bound_to 10713
  140.7167  133.9176  155.8120 LP  0  0  0  0  0  0  0  0  0  0  0  0  # atno 17394 bound_to 11000
  141.0259  134.0825  157.4069 LP  0  0  0  0  0  0  0  0  0  0  0  0  # atno 17395 bound_to 11000

$$$$
