#       Name:                AV-unprocessed.smi:2069
#       Creating user name   scv26
#       Creation time:       Fri Mar 27 11:13:46 2020


#       File generated by GOLD software.
#

@<TRIPOS>MOLECULE
AV-unprocessed.smi:2069
    45    46     1
SMALL
NO_CHARGES


@<TRIPOS>ATOM
      1 ****        -6.5472   3.3906  -0.3979 C.3            1 S1                 0.0000
      2 ****        -5.5808   2.4092  -0.9670 C.2            1 S1                 0.0000
      3 ****        -5.3400   2.3079  -2.2764 N.2            1 S1                 0.0000
      4 ****        -4.4029   1.3248  -2.5611 N.2            1 S1                 0.0000
      5 ****        -3.9412   0.7056  -1.4655 C.2            1 S1                 0.0000
      6 ****        -3.0298  -0.2795  -1.5235 N.pl3          1 S1                -1.0000
      7 ****        -1.7238  -0.0044  -1.3109 C.2            1 S1                 0.0000
      8 ****        -1.2390   1.1032  -1.0675 O.2            1 S1                 0.0000
      9 ****        -0.9285  -1.0815  -1.3755 N.am           1 S1                 0.0000
     10 ****         0.5159  -1.0856  -1.1632 C.3            1 S1                 0.0000
     11 ****         0.9110  -0.9367   0.3313 C.3            1 S1                 0.0000
     12 ****         0.2582  -2.0648   1.1677 C.3            1 S1                 0.0000
     13 ****         2.4022  -0.8759   0.4789 N.4            1 S1                 1.0000
     14 ****         2.9718   0.4187   0.0120 C.3            1 S1                 0.0000
     15 ****         4.5055   0.4216   0.1118 C.3            1 S1                 0.0000
     16 ****         4.8937   0.1697   1.4536 O.3            1 S1                 0.0000
     17 ****         4.4544  -1.1082   1.8881 C.3            1 S1                 0.0000
     18 ****         2.9184  -1.1798   1.8428 C.3            1 S1                 0.0000
     19 ****        -4.6635   1.2944   0.0317 S.3            1 S1                 0.0000
     20 ****        -6.0887   4.3782  -0.3476 H              1 S1                 0.0000
     21 ****        -6.8440   3.0907   0.6073 H              1 S1                 0.0000
     22 ****        -7.4395   3.4477  -1.0217 H              1 S1                 0.0000
     23 ****        -1.3650  -1.9683  -1.5819 H              1 S1                 0.0000
     24 ****         0.9074  -2.0244  -1.5559 H              1 S1                 0.0000
     25 ****         0.9415  -0.2993  -1.7846 H              1 S1                 0.0000
     26 ****         0.5106   0.0051   0.7098 H              1 S1                 0.0000
     27 ****        -0.8201  -2.1099   1.0151 H              1 S1                 0.0000
     28 ****         0.3929  -1.9122   2.2383 H              1 S1                 0.0000
     29 ****         0.6653  -3.0419   0.9056 H              1 S1                 0.0000
     30 ****         2.7004   0.6224  -1.0217 H              1 S1                 0.0000
     31 ****         2.5628   1.2341   0.6109 H              1 S1                 0.0000
     32 ****         4.9430  -0.3218  -0.5566 H              1 S1                 0.0000
     33 ****         4.8984   1.3924  -0.1914 H              1 S1                 0.0000
     34 ****         4.8991  -1.8893   1.2692 H              1 S1                 0.0000
     35 ****         4.8066  -1.2727   2.9065 H              1 S1                 0.0000
     36 ****         2.4889  -0.4793   2.5608 H              1 S1                 0.0000
     37 ****         2.6324  -2.1843   2.1527 H              1 S1                 0.0000
     38 ****         2.7743  -1.5959  -0.1239 H              1 S1                 0.0000
     39 ****        -5.7833   2.8745  -2.9710 LP             1 S1                 0.0000
     40 ****        -4.1028   1.1012  -3.4884 LP             1 S1                 0.0000
     41 ****        -3.3176  -1.2160  -1.7239 LP             1 S1                 0.0000
     42 ****        -1.8313   1.9070  -1.0120 LP             1 S1                 0.0000
     43 ****        -0.2536   1.1974  -0.9256 LP             1 S1                 0.0000
     44 ****         4.4936   0.8698   2.0450 LP             1 S1                 0.0000
     45 ****         5.8909   0.2099   1.5169 LP             1 S1                 0.0000
@<TRIPOS>BOND
    1    1    2 1     
    2    1   20 1     
    3    1   21 1     
    4    1   22 1     
    5    2   19 1     
    6    2    3 2     
    7    3    4 1     
    8    4    5 2     
    9    5    6 1     
   10    5   19 1     
   11    6    7 1     
   12    7    8 2     
   13    7    9 am    
   14    9   10 1     
   15    9   23 1     
   16   10   11 1     
   17   10   24 1     
   18   10   25 1     
   19   11   12 1     
   20   11   13 1     
   21   11   26 1     
   22   12   27 1     
   23   12   28 1     
   24   12   29 1     
   25   13   18 1     
   26   13   14 1     
   27   13   38 1     
   28   14   15 1     
   29   14   30 1     
   30   14   31 1     
   31   15   16 1     
   32   15   32 1     
   33   15   33 1     
   34   16   17 1     
   35   17   18 1     
   36   17   34 1     
   37   17   35 1     
   38   18   36 1     
   39   18   37 1     
   40    3   39 1     
   41    4   40 1     
   42    6   41 1     
   43    8   42 1     
   44    8   43 1     
   45   16   44 1     
   46   16   45 1     
@<TRIPOS>SUBSTRUCTURE
      1 S1             1
@<TRIPOS>SET
LONE_PAIRS      STATIC     ATOMS    <user>   **** ""
7 39 40 41 42 43 44 45
DONOR_HYDROGENS      STATIC     ATOMS    <user>   **** ""
2 23 38
ATOM$BLUE        STATIC     ATOMS    COLORGROUP SYSTEM
7 39 40 41 42 43 44 45
ATOM$RED        STATIC     ATOMS    COLORGROUP SYSTEM
2 23 38
