AV-unprocessed.smi:290|AV-procd|sdf|2217|dock4
  -GOLD-   2262022 53D 1   1.00000     0.00000
 Structure written by MMmdl.
 59 62  0  0  0  0  0  0  0  0  2 V2000
  151.8990  138.1985  154.1661 C   0  0  0  0  0  0  0  0  0  0  0  0
  151.0863  139.0018  155.1944 C   0  0  2  0  0  0  0  0  0  0  0  0
  150.8859  140.3340  154.7441 O   0  0  0  0  0  0  0  0  0  0  0  0
  150.4956  141.0969  155.8710 C   0  0  0  0  0  0  0  0  0  0  0  0
  151.4621  140.6217  156.9489 C   0  0  0  0  0  0  0  0  0  0  0  0
  151.6887  139.1432  156.6179 C   0  0  2  0  0  0  0  0  0  0  0  0
  153.0861  138.8992  156.6247 O   0  0  0  0  0  0  0  0  0  0  0  0
  151.0274  138.2047  157.6574 C   0  0  0  0  0  0  0  0  0  0  0  0
  150.7175  136.8837  157.1313 N   0  0  0  0  0  0  0  0  0  0  0  0
  151.5776  136.0386  156.4672 C   0  0  0  0  0  0  0  0  0  0  0  0
  151.0593  134.9038  156.0851 N   0  0  0  0  0  0  0  0  0  0  0  0
  149.7409  134.9680  156.5209 C   0  0  0  0  0  0  0  0  0  0  0  0
  148.6202  134.0916  156.4464 C   0  0  0  0  0  0  0  0  0  0  0  0
  148.6181  132.8729  155.8626 N   0  0  0  0  0  0  0  0  0  0  0  0
  149.8985  132.4813  155.2756 C   0  0  0  0  0  0  0  0  0  0  0  0
  149.5696  131.6690  154.0187 C   0  0  0  0  0  0  0  0  0  0  0  0
  148.2189  132.2669  153.6149 C   0  0  1  0  0  0  0  0  0  0  0  0
  147.4141  131.5512  152.5759 N   0  3  1  0  0  0  0  0  0  0  0  0
  147.2974  130.1033  152.8802 C   0  0  0  0  0  0  0  0  0  0  0  0
  146.1008  132.1694  152.2383 C   0  0  0  0  0  0  0  0  0  0  0  0
  145.4152  131.5057  151.0302 C   0  0  0  0  0  0  0  0  0  0  0  0
  146.1616  131.7418  149.8555 O   0  0  0  0  0  0  0  0  0  0  0  0
  147.5191  132.5248  154.9630 C   0  0  1  0  0  0  0  0  0  0  0  0
  146.7322  131.3434  155.5548 C   0  0  0  0  0  0  0  0  0  0  0  0
  147.4648  134.4865  157.0345 N   0  0  0  0  0  0  0  0  0  0  0  0
  147.3939  135.6764  157.6386 C   0  0  0  0  0  0  0  0  0  0  0  0
  148.3461  136.6018  157.7731 N   0  0  0  0  0  0  0  0  0  0  0  0
  149.5149  136.2010  157.1956 C   0  0  0  0  0  0  0  0  0  0  0  0
  148.4396  133.2605  153.2209 H   0  0  0  0  0  0  0  0  0  0  0  0
  146.8176  133.3517  154.8504 H   0  0  0  0  0  0  0  0  0  0  0  0
  152.0720  137.1786  154.5102 H   0  0  0  0  0  0  0  0  0  0  0  0
  152.8677  138.6596  153.9714 H   0  0  0  0  0  0  0  0  0  0  0  0
  151.3674  138.1402  153.2162 H   0  0  0  0  0  0  0  0  0  0  0  0
  150.0914  138.5610  155.2665 H   0  0  0  0  0  0  0  0  0  0  0  0
  150.5696  142.1678  155.6797 H   0  0  0  0  0  0  0  0  0  0  0  0
  149.4636  140.8625  156.1375 H   0  0  0  0  0  0  0  0  0  0  0  0
  152.3895  141.1906  156.8614 H   0  0  0  0  0  0  0  0  0  0  0  0
  151.0732  140.7889  157.9540 H   0  0  0  0  0  0  0  0  0  0  0  0
  153.2727  138.2403  157.2757 H   0  0  0  0  0  0  0  0  0  0  0  0
  151.6751  138.0822  158.5266 H   0  0  0  0  0  0  0  0  0  0  0  0
  150.1037  138.6508  158.0286 H   0  0  0  0  0  0  0  0  0  0  0  0
  152.6080  136.2953  156.2686 H   0  0  0  0  0  0  0  0  0  0  0  0
  150.4769  133.3671  155.0063 H   0  0  0  0  0  0  0  0  0  0  0  0
  150.4901  131.9006  155.9841 H   0  0  0  0  0  0  0  0  0  0  0  0
  150.3301  131.7661  153.2436 H   0  0  0  0  0  0  0  0  0  0  0  0
  149.4938  130.6169  154.2913 H   0  0  0  0  0  0  0  0  0  0  0  0
  146.7242  129.9439  153.7944 H   0  0  0  0  0  0  0  0  0  0  0  0
  148.2819  129.6540  153.0140 H   0  0  0  0  0  0  0  0  0  0  0  0
  146.8132  129.5544  152.0744 H   0  0  0  0  0  0  0  0  0  0  0  0
  145.4459  132.1254  153.1098 H   0  0  0  0  0  0  0  0  0  0  0  0
  146.2203  133.2248  152.0022 H   0  0  0  0  0  0  0  0  0  0  0  0
  145.2714  130.4349  151.1668 H   0  0  0  0  0  0  0  0  0  0  0  0
  144.4229  131.9362  150.8925 H   0  0  0  0  0  0  0  0  0  0  0  0
  146.9676  131.2497  149.9056 H   0  0  0  0  0  0  0  0  0  0  0  0
  145.9103  131.0441  154.9055 H   0  0  0  0  0  0  0  0  0  0  0  0
  146.2962  131.6183  156.5155 H   0  0  0  0  0  0  0  0  0  0  0  0
  147.3689  130.4757  155.7274 H   0  0  0  0  0  0  0  0  0  0  0  0
  146.4374  135.9224  158.0763 H   0  0  0  0  0  0  0  0  0  0  0  0
  147.9671  131.6061  151.7322 H   0  0  0  0  0  0  0  0  0  0  0  0
  1  2  1  0  0  0  0
  1 31  1  0  0  0  0
  1 32  1  0  0  0  0
  1 33  1  0  0  0  0
  2  6  1  0  0  0  0
  2  3  1  0  0  0  0
  2 34  1  0  0  0  0
  3  4  1  0  0  0  0
  4  5  1  0  0  0  0
  4 35  1  0  0  0  0
  4 36  1  0  0  0  0
  5  6  1  0  0  0  0
  5 37  1  0  0  0  0
  5 38  1  0  0  0  0
  6  7  1  0  0  0  0
  6  8  1  0  0  0  0
  7 39  1  0  0  0  0
  8  9  1  0  0  0  0
  8 40  1  0  0  0  0
  8 41  1  0  0  0  0
  9 28  1  0  0  0  0
  9 10  1  0  0  0  0
 10 11  2  0  0  0  0
 10 42  1  0  0  0  0
 11 12  1  0  0  0  0
 12 28  2  0  0  0  0
 12 13  1  0  0  0  0
 13 14  1  0  0  0  0
 13 25  2  0  0  0  0
 14 23  1  0  0  0  0
 14 15  1  0  0  0  0
 15 16  1  0  0  0  0
 15 43  1  0  0  0  0
 15 44  1  0  0  0  0
 16 17  1  0  0  0  0
 16 45  1  0  0  0  0
 16 46  1  0  0  0  0
 17 29  1  0  0  0  0
 17 18  1  0  0  0  0
 17 23  1  0  0  0  0
 18 19  1  0  0  0  0
 18 20  1  0  0  0  0
 18 59  1  0  0  0  0
 19 47  1  0  0  0  0
 19 48  1  0  0  0  0
 19 49  1  0  0  0  0
 20 21  1  0  0  0  0
 20 50  1  0  0  0  0
 20 51  1  0  0  0  0
 21 22  1  0  0  0  0
 21 52  1  0  0  0  0
 21 53  1  0  0  0  0
 22 54  1  0  0  0  0
 23 30  1  0  0  0  0
 23 24  1  0  0  0  0
 24 55  1  0  0  0  0
 24 56  1  0  0  0  0
 24 57  1  0  0  0  0
 25 26  1  0  0  0  0
 26 27  2  0  0  0  0
 26 58  1  0  0  0  0
 27 28  1  0  0  0  0
M  CHG  1  18   1
M  END
> <s_m_source_file>
AV-unprocessed.smi

> <i_m_source_file_index>
290

> <i_lp_mmshare_version>
43012

> <i_f3d_flags>
0

> <s_epik_input>
W0NIMl0xW0NIMl1PW0NAQEhdKFtDSDNdKVtDQEBdMShbT0hdKVtDSDJdbihbY0hdbjIpYyhjMjMpbltjSF1uYzNONFtDSDJdW0NIMl1bQ0BIXShbQ0BIXTRbQ0gzXSlOKFtDSDNdKVtDSDJdW0NIMl1bT0hd

> <s_epik_cmdline>
J2VwaWtfcHl0aG9uJywgJy1waCcsICc3LjAnLCAnLXRuJywgJzgnLCAnLW1hJywgJzIwMCcsICctbWV0YWxfYmluZGluZycsICctaW1hZScsICc8aW5maWxlLm1hZT4nLCAnLW9tYWUnLCAnPG91dGZpbGUubWFlPic=

> <r_lp_tautomer_probability>
1

> <r_epik_Ionization_Penalty>
0.0036983

> <r_epik_Ionization_Penalty_Charging>
0.0032725

> <r_epik_Ionization_Penalty_Neutral>
0.000425798

> <r_epik_State_Penalty>
-0

> <r_epik_Charging_Adjusted_Penalty>
0.0032725

> <i_epik_Tot_Q>
1

> <i_epik_Tot_abs_Q>
1

> <r_epik_Metal_State_Penalty>
-0

> <b_epik_Metal_Only>
0

> <s_lp_Force_Field>
OPLS_2005

> <r_lp_Energy>
65.9865

> <b_lp_Chiralities_Consistent>
1

> <s_lp_Variant>
AV-unprocessed.smi:290-3

> <Gold.Version>
5.8.1

> <Gold.Id.Protein>
6NUR|6NUR_protein|mol2

> <Gold.PLP.Fitness>
45.4651

> <Gold.PLP.PLP>
-34.5142

> <Gold.PLP.part.hbond>
-3.9181

> <Gold.PLP.part.metal>
0.0000

> <Gold.PLP.part.buried>
-6.1283

> <Gold.PLP.part.nonpolar>
-24.4319

> <Gold.PLP.part.repulsive>
0.0737

> <Gold.PLP.ligand.clash>
0.0000

> <Gold.PLP.ligand.torsion>
0.7154

> <Gold.PLP.Chemscore.Hbond>
4.0000

> <Gold.PLP.Chemscore.CHOScore>
0.0000

> <Gold.PLP.Chemscore.Metal>
0.0000

> <Gold.Chemscore.Hbonds>
donor molecule, donor type, donor heavy atom, donor atom, acceptor molecule, acceptor atom, score
      L1  H    18    59       P1 10747  1.00
      L1  H    22    54       P1 10747  0.91
      P1  H  7989  7998       L1     3  1.00
      P1  H  7997  8008       L1     7  1.00

> <Gold.PLP.Chemscore.Internal.Correction>
0.3816

> <Gold.Rescore>
     Score         DG    S(hbond)    S(metal)    S(lipo)     H(rot)  DE(clash)    DE(int)     intcor
     15.72     -18.97       3.95        0.00      82.82       3.67       0.05       3.19       ----

> <Gold.Chemscore.Fitness>
15.7194

> <Gold.Chemscore.DG>
-18.9650

> <Gold.Chemscore.ZeroCoef>
-5.4800

> <Gold.Chemscore.Hbond>
3.9459

> <Gold.Chemscore.Metal>
0.0000

> <Gold.Chemscore.Lipo>
82.8216

> <Gold.Chemscore.Internal_Hbond>
0.0000

> <Gold.Chemscore.DEClash>
0.0530

> <Gold.Chemscore.DEInternal>
3.1926

> <Gold.Chemscore.Rot>
3.6658

> <Gold.Chemscore.Internal.Correction>
   9.000000E+99

> <Gold.Chemscore.Hbonds>
donor molecule, donor type, donor heavy atom, donor atom, acceptor molecule, acceptor atom, score
      L1  H    18    59       P1 10747  0.97
      L1  H    22    54       P1 10747  0.88
      P1  H  7989  7998       L1     3  0.93
      P1  H  7997  8008       L1     7  0.89

> <Gold.Chemscore.Hbond.Weighted>
-13.1793

> <Gold.Chemscore.Metal.Weighted>
-0.0000

> <Gold.Chemscore.Lipo.Weighted>
-9.6901

> <Gold.Chemscore.Internal_Hbond.Weighted>
0.0000

> <Gold.Chemscore.DEClash.Weighted>
0.0530

> <Gold.Chemscore.DEInternal.Weighted>
3.1926

> <Gold.Chemscore.Rot.Weighted>
9.3844

> <Gold.Chemscore.Internal.Correction.Weighted>
   9.000000E+99

> <Gold.Protein.RotatedTorsions>
[ 6907 6896 6895 6894 ] final   99.08 input  -60.11 | X-H torsion
[ 7974 7965 7964 7962 ] final -109.91 input  175.53 | X-H torsion
[ 8008 7997 7996 7995 ] final  -45.04 input   59.86 | X-H torsion
[ 10167 10162 10161 10158 ] final  -43.15 input  -65.29 | X-H torsion
[ 10718 10713 10712 10709 ] final  -95.31 input   66.30 | X-H torsion
[ 10763 10752 10751 10750 ] final -133.70 input  -60.55 | X-H torsion
[ 11005 11000 10999 10996 ] final  -68.49 input  -57.11 | X-H torsion

> <Gold.Protein.ActiveResidues>
 VAL166  LYS551  ARG553  GLY616  TRP617  ASP618  TYR619  PRO620  LYS621  CYS622 
 ASP623  PHE694  ASN695  SER759  ASP760  ASP761  ALA762  ILE779  LEU786  VAL792 
 PHE793  MET794  SER795  GLU796  ALA797  LYS798  CYS799  TRP800  GLU811  SER814 

> <Gold.Protein.RotatedAtoms>
  152.5398  134.0483  159.8098 H   0  0  0  0  0  0  0  0  0  0  0  0  # atno 6907 bound_to 6896
  151.0629  133.5522  159.2640 H   0  0  0  0  0  0  0  0  0  0  0  0  # atno 6908 bound_to 6896
  151.2414  135.0598  159.9080 H   0  0  0  0  0  0  0  0  0  0  0  0  # atno 6909 bound_to 6896
  145.1747  140.8942  143.3515 H   0  0  0  0  0  0  0  0  0  0  0  0  # atno 7974 bound_to 7965
  154.3999  140.1407  156.3781 H   0  0  0  0  0  0  0  0  0  0  0  0  # atno 8008 bound_to 7997
  155.8029  140.3475  155.5392 H   0  0  0  0  0  0  0  0  0  0  0  0  # atno 8009 bound_to 7997
  155.8465  140.0935  157.1692 H   0  0  0  0  0  0  0  0  0  0  0  0  # atno 8010 bound_to 7997
  140.6944  143.2998  151.3311 H   0  0  0  0  0  0  0  0  0  0  0  0  # atno 10167 bound_to 10162
  156.0041  130.5104  150.6057 H   0  0  0  0  0  0  0  0  0  0  0  0  # atno 10718 bound_to 10713
  154.8729  135.3758  154.4615 H   0  0  0  0  0  0  0  0  0  0  0  0  # atno 10763 bound_to 10752
  153.5283  135.7028  153.5701 H   0  0  0  0  0  0  0  0  0  0  0  0  # atno 10764 bound_to 10752
  153.3917  135.3970  155.1893 H   0  0  0  0  0  0  0  0  0  0  0  0  # atno 10765 bound_to 10752
  141.1533  133.6742  156.6454 H   0  0  0  0  0  0  0  0  0  0  0  0  # atno 11005 bound_to 11000
  145.0197  139.3435  143.6078 LP  0  0  0  0  0  0  0  0  0  0  0  0  # atno 17320 bound_to 7965
  146.3463  139.9492  142.8731 LP  0  0  0  0  0  0  0  0  0  0  0  0  # atno 17321 bound_to 7965
  139.6382  144.0590  152.2533 LP  0  0  0  0  0  0  0  0  0  0  0  0  # atno 17342 bound_to 10162
  140.0086  144.6240  150.7666 LP  0  0  0  0  0  0  0  0  0  0  0  0  # atno 17343 bound_to 10162
  157.3898  131.0794  151.1404 LP  0  0  0  0  0  0  0  0  0  0  0  0  # atno 17370 bound_to 10713
  157.2099  130.6433  149.5770 LP  0  0  0  0  0  0  0  0  0  0  0  0  # atno 17371 bound_to 10713
  140.3361  134.7888  157.4363 LP  0  0  0  0  0  0  0  0  0  0  0  0  # atno 17394 bound_to 11000
  140.0976  134.5516  155.8383 LP  0  0  0  0  0  0  0  0  0  0  0  0  # atno 17395 bound_to 11000

$$$$
