AV-unprocessed.smi:3010|AV-procd|sdf|11456|dock9
  -GOLD-   2272016393D 1   1.00000     0.00000
 Structure written by MMmdl.
 38 40  0  0  0  0  0  0  0  0  1 V2000
  155.1746  139.6258  160.9012 C   0  0  0  0  0  0  0  0  0  0  0  0
  154.2705  140.7879  160.9916 N   0  0  0  0  0  0  0  0  0  0  0  0
  153.5495  141.1361  159.8794 C   0  0  0  0  0  0  0  0  0  0  0  0
  153.6074  140.5564  158.7944 O   0  0  0  0  0  0  0  0  0  0  0  0
  152.6692  142.2919  160.0808 C   0  0  0  0  0  0  0  0  0  0  0  0
  152.5929  142.9632  161.2554 C   0  0  0  0  0  0  0  0  0  0  0  0
  151.6916  144.0192  161.1791 N   0  0  0  0  0  0  0  0  0  0  0  0
  151.2589  143.9238  159.9213 C   0  0  0  0  0  0  0  0  0  0  0  0
  151.7925  142.9198  159.1961 N   0  0  0  0  0  0  0  0  0  0  0  0
  151.4862  142.6111  157.8069 C   0  0  0  0  0  0  0  0  0  0  0  0
  150.0570  142.0640  157.6176 C   0  0  1  0  0  0  0  0  0  0  0  0
  149.1026  143.0916  157.8061 O   0  0  0  0  0  0  0  0  0  0  0  0
  149.9072  141.3799  156.2676 C   0  0  0  0  0  0  0  0  0  0  0  0
  148.8811  141.7652  155.3761 C   0  0  0  0  0  0  0  0  0  0  0  0
  148.7544  141.1333  154.1238 C   0  0  0  0  0  0  0  0  0  0  0  0
  149.6542  140.1154  153.7541 C   0  0  0  0  0  0  0  0  0  0  0  0
  150.6817  139.7307  154.6366 C   0  0  0  0  0  0  0  0  0  0  0  0
  150.8085  140.3618  155.8896 C   0  0  0  0  0  0  0  0  0  0  0  0
  153.3928  142.5285  162.3409 N   0  0  0  0  0  0  0  0  0  0  0  0
  153.2912  143.2857  163.5921 C   0  0  0  0  0  0  0  0  0  0  0  0
  154.2252  141.4429  162.2109 C   0  0  0  0  0  0  0  0  0  0  0  0
  154.9158  141.0619  163.1601 O   0  0  0  0  0  0  0  0  0  0  0  0
  155.1779  139.1190  159.9356 H   0  0  0  0  0  0  0  0  0  0  0  0
  154.9012  138.8729  161.6424 H   0  0  0  0  0  0  0  0  0  0  0  0
  156.2044  139.9296  161.0961 H   0  0  0  0  0  0  0  0  0  0  0  0
  150.5303  144.6081  159.5119 H   0  0  0  0  0  0  0  0  0  0  0  0
  151.6525  143.4949  157.1927 H   0  0  0  0  0  0  0  0  0  0  0  0
  152.2086  141.8710  157.4603 H   0  0  0  0  0  0  0  0  0  0  0  0
  149.8646  141.3242  158.3961 H   0  0  0  0  0  0  0  0  0  0  0  0
  149.0126  143.5683  156.9951 H   0  0  0  0  0  0  0  0  0  0  0  0
  148.1890  142.5488  155.6485 H   0  0  0  0  0  0  0  0  0  0  0  0
  147.9675  141.4310  153.4463 H   0  0  0  0  0  0  0  0  0  0  0  0
  149.5575  139.6313  152.7933 H   0  0  0  0  0  0  0  0  0  0  0  0
  151.3741  138.9520  154.3523 H   0  0  0  0  0  0  0  0  0  0  0  0
  151.6023  140.0617  156.5580 H   0  0  0  0  0  0  0  0  0  0  0  0
  153.9001  142.8943  164.4074 H   0  0  0  0  0  0  0  0  0  0  0  0
  152.2574  143.2957  163.9387 H   0  0  0  0  0  0  0  0  0  0  0  0
  153.5975  144.3189  163.4253 H   0  0  0  0  0  0  0  0  0  0  0  0
  1  2  1  0  0  0  0
  1 23  1  0  0  0  0
  1 24  1  0  0  0  0
  1 25  1  0  0  0  0
  2 21  1  0  0  0  0
  2  3  1  0  0  0  0
  3  4  2  0  0  0  0
  3  5  1  0  0  0  0
  5  9  1  0  0  0  0
  5  6  2  0  0  0  0
  6  7  1  0  0  0  0
  6 19  1  0  0  0  0
  7  8  2  0  0  0  0
  8  9  1  0  0  0  0
  8 26  1  0  0  0  0
  9 10  1  0  0  0  0
 10 11  1  0  0  0  0
 10 27  1  0  0  0  0
 10 28  1  0  0  0  0
 11 12  1  0  0  0  0
 11 13  1  0  0  0  0
 11 29  1  0  0  0  0
 12 30  1  0  0  0  0
 13 18  1  0  0  0  0
 13 14  2  0  0  0  0
 14 15  1  0  0  0  0
 14 31  1  0  0  0  0
 15 16  2  0  0  0  0
 15 32  1  0  0  0  0
 16 17  1  0  0  0  0
 16 33  1  0  0  0  0
 17 18  2  0  0  0  0
 17 34  1  0  0  0  0
 18 35  1  0  0  0  0
 19 20  1  0  0  0  0
 19 21  1  0  0  0  0
 20 36  1  0  0  0  0
 20 37  1  0  0  0  0
 20 38  1  0  0  0  0
 21 22  2  0  0  0  0
M  END
> <s_m_source_file>
AV-unprocessed.smi

> <i_m_source_file_index>
3010

> <i_lp_mmshare_version>
43012

> <i_f3d_flags>
0

> <s_epik_input>
Tz1jMW4oW0NIM10pYyg9TyluKFtDSDNdKWMoYzEyKW5bY0hdbjJbQ0gyXVtDQEhdKFtPSF0pYzNbY0hdW2NIXVtjSF1bY0hdW2NIXTM=

> <s_epik_cmdline>
J2VwaWtfcHl0aG9uJywgJy1waCcsICc3LjAnLCAnLXRuJywgJzgnLCAnLW1hJywgJzIwMCcsICctbWV0YWxfYmluZGluZycsICctaW1hZScsICc8aW5maWxlLm1hZT4nLCAnLW9tYWUnLCAnPG91dGZpbGUubWFlPic=

> <r_lp_tautomer_probability>
1

> <r_epik_Ionization_Penalty>
1.43747e-06

> <r_epik_Ionization_Penalty_Charging>
3.74189e-09

> <r_epik_Ionization_Penalty_Neutral>
1.43373e-06

> <r_epik_State_Penalty>
-0

> <r_epik_Charging_Adjusted_Penalty>
3.74189e-09

> <i_epik_Tot_Q>
0

> <i_epik_Tot_abs_Q>
0

> <r_epik_Metal_State_Penalty>
-0

> <b_epik_Metal_Only>
0

> <s_lp_Force_Field>
OPLS_2005

> <r_lp_Energy>
36.4427

> <b_lp_Chiralities_Consistent>
1

> <s_lp_Variant>
AV-unprocessed.smi:3010-2

> <Gold.Version>
5.8.1

> <Gold.Id.Protein>
6NUR|6NUR_protein|mol2

> <Gold.PLP.Fitness>
53.1120

> <Gold.PLP.PLP>
-48.1926

> <Gold.PLP.part.hbond>
-3.0000

> <Gold.PLP.part.metal>
0.0000

> <Gold.PLP.part.buried>
1.5552

> <Gold.PLP.part.nonpolar>
-44.9669

> <Gold.PLP.part.repulsive>
0.1429

> <Gold.PLP.ligand.clash>
0.0000

> <Gold.PLP.ligand.torsion>
0.2249

> <Gold.PLP.Chemscore.Hbond>
1.7800

> <Gold.PLP.Chemscore.CHOScore>
0.0000

> <Gold.PLP.Chemscore.Metal>
0.0000

> <Gold.Chemscore.Hbonds>
donor molecule, donor type, donor heavy atom, donor atom, acceptor molecule, acceptor atom, score
      L1  H    12    30       P1  8028  1.00
      P1  H  7997  8008       L1     4  0.72

> <Gold.PLP.Chemscore.Internal.Correction>
0.0292

> <Gold.Rescore>
     Score         DG    S(hbond)    S(metal)    S(lipo)     H(rot)  DE(clash)    DE(int)     intcor
     13.66     -15.70       1.82        0.00      82.27       2.15       1.36       0.68       ----

> <Gold.Chemscore.Fitness>
13.6644

> <Gold.Chemscore.DG>
-15.7024

> <Gold.Chemscore.ZeroCoef>
-5.4800

> <Gold.Chemscore.Hbond>
1.8248

> <Gold.Chemscore.Metal>
0.0000

> <Gold.Chemscore.Lipo>
82.2656

> <Gold.Chemscore.Internal_Hbond>
0.0000

> <Gold.Chemscore.DEClash>
1.3619

> <Gold.Chemscore.DEInternal>
0.6761

> <Gold.Chemscore.Rot>
2.1474

> <Gold.Chemscore.Internal.Correction>
   9.000000E+99

> <Gold.Chemscore.Hbonds>
donor molecule, donor type, donor heavy atom, donor atom, acceptor molecule, acceptor atom, score
      L1  H    12    30       P1  8028  0.60
      P1  H  7997  8008       L1     4  0.69

> <Gold.Chemscore.Hbond.Weighted>
-6.0947

> <Gold.Chemscore.Metal.Weighted>
-0.0000

> <Gold.Chemscore.Lipo.Weighted>
-9.6251

> <Gold.Chemscore.Internal_Hbond.Weighted>
0.0000

> <Gold.Chemscore.DEClash.Weighted>
1.3619

> <Gold.Chemscore.DEInternal.Weighted>
0.6761

> <Gold.Chemscore.Rot.Weighted>
5.4974

> <Gold.Chemscore.Internal.Correction.Weighted>
   9.000000E+99

> <Gold.Protein.RotatedTorsions>
[ 6907 6896 6895 6894 ] final  166.27 input  -60.11 | X-H torsion
[ 7974 7965 7964 7962 ] final -141.61 input  175.53 | X-H torsion
[ 8008 7997 7996 7995 ] final  -99.53 input   59.86 | X-H torsion
[ 10167 10162 10161 10158 ] final  172.95 input  -65.29 | X-H torsion
[ 10718 10713 10712 10709 ] final   76.99 input   66.30 | X-H torsion
[ 10763 10752 10751 10750 ] final   94.08 input  -60.55 | X-H torsion
[ 11005 11000 10999 10996 ] final  176.21 input  -57.11 | X-H torsion

> <Gold.Protein.ActiveResidues>
 VAL166  LYS551  ARG553  GLY616  TRP617  ASP618  TYR619  PRO620  LYS621  CYS622 
 ASP623  PHE694  ASN695  SER759  ASP760  ASP761  ALA762  ILE779  LEU786  VAL792 
 PHE793  MET794  SER795  GLU796  ALA797  LYS798  CYS799  TRP800  GLU811  SER814 

> <Gold.Protein.RotatedAtoms>
  151.8816  133.3496  159.3767 H   0  0  0  0  0  0  0  0  0  0  0  0  # atno 6907 bound_to 6896
  150.7126  134.5013  159.5572 H   0  0  0  0  0  0  0  0  0  0  0  0  # atno 6908 bound_to 6896
  152.2566  134.8078  160.0488 H   0  0  0  0  0  0  0  0  0  0  0  0  # atno 6909 bound_to 6896
  144.8506  140.6058  143.5392 H   0  0  0  0  0  0  0  0  0  0  0  0  # atno 7974 bound_to 7965
  154.8162  140.0447  157.1378 H   0  0  0  0  0  0  0  0  0  0  0  0  # atno 8008 bound_to 7997
  154.9312  140.3040  155.5147 H   0  0  0  0  0  0  0  0  0  0  0  0  # atno 8009 bound_to 7997
  156.2976  140.2322  156.4372 H   0  0  0  0  0  0  0  0  0  0  0  0  # atno 8010 bound_to 7997
  139.5093  144.3316  152.0106 H   0  0  0  0  0  0  0  0  0  0  0  0  # atno 10167 bound_to 10162
  157.6694  130.9800  150.1576 H   0  0  0  0  0  0  0  0  0  0  0  0  # atno 10718 bound_to 10713
  153.2376  135.4302  155.0663 H   0  0  0  0  0  0  0  0  0  0  0  0  # atno 10763 bound_to 10752
  154.8326  135.3395  154.6696 H   0  0  0  0  0  0  0  0  0  0  0  0  # atno 10764 bound_to 10752
  153.7121  135.7022  153.5091 H   0  0  0  0  0  0  0  0  0  0  0  0  # atno 10765 bound_to 10752
  140.3706  134.7033  157.4390 H   0  0  0  0  0  0  0  0  0  0  0  0  # atno 11005 bound_to 11000
  145.4508  139.1524  143.3919 LP  0  0  0  0  0  0  0  0  0  0  0  0  # atno 17320 bound_to 7965
  146.2781  140.4634  142.8787 LP  0  0  0  0  0  0  0  0  0  0  0  0  # atno 17321 bound_to 7965
  140.2755  144.3917  150.6136 LP  0  0  0  0  0  0  0  0  0  0  0  0  # atno 17342 bound_to 10162
  140.6057  143.2167  151.6986 LP  0  0  0  0  0  0  0  0  0  0  0  0  # atno 17343 bound_to 10162
  156.2360  130.3686  149.8390 LP  0  0  0  0  0  0  0  0  0  0  0  0  # atno 17370 bound_to 10713
  156.6204  130.8624  151.3474 LP  0  0  0  0  0  0  0  0  0  0  0  0  # atno 17371 bound_to 10713
  140.0555  134.6070  155.8811 LP  0  0  0  0  0  0  0  0  0  0  0  0  # atno 17394 bound_to 11000
  141.1956  133.6587  156.5649 LP  0  0  0  0  0  0  0  0  0  0  0  0  # atno 17395 bound_to 11000

$$$$
