AV-unprocessed.smi:2043|AV-procd|sdf|8297|dock1
  -GOLD-   2272010563D 1   1.00000     0.00000
 Structure written by MMmdl.
 28 29  0  0  0  0  0  0  0  0  2 V2000
  148.7040  140.6911  154.2423 C   0  0  0  0  0  0  0  0  0  0  0  0
  149.9296  140.3021  154.9957 C   0  0  0  0  0  0  0  0  0  0  0  0
  150.9019  139.5615  154.4583 N   0  0  0  0  0  0  0  0  0  0  0  0
  151.9376  139.3304  155.3524 N   0  0  0  0  0  0  0  0  0  0  0  0
  151.7402  139.9071  156.5465 C   0  0  0  0  0  0  0  0  0  0  0  0
  152.6234  139.8026  157.5533 N   0  5  0  0  0  0  0  0  0  0  0  0
  152.3819  140.4234  158.7306 C   0  0  0  0  0  0  0  0  0  0  0  0
  151.3051  140.4583  159.3309 O   0  0  0  0  0  0  0  0  0  0  0  0
  153.4534  141.0393  159.2476 N   0  0  0  0  0  0  0  0  0  0  0  0
  153.4740  141.7752  160.5049 C   0  0  0  0  0  0  0  0  0  0  0  0
  152.4395  142.8941  160.4850 C   0  0  0  0  0  0  0  0  0  0  0  0
  152.5548  144.0156  159.4421 C   0  0  0  0  0  0  0  0  0  0  0  0
  152.0032  144.9851  160.4910 C   0  0  0  0  0  0  0  0  0  0  0  0
  152.4771  143.9941  161.5574 C   0  0  0  0  0  0  0  0  0  0  0  0
  150.2126  140.7808  156.6608 S   0  0  0  0  0  0  0  0  0  0  0  0
  148.9632  141.3817  153.4396 H   0  0  0  0  0  0  0  0  0  0  0  0
  147.9889  141.1778  154.9055 H   0  0  0  0  0  0  0  0  0  0  0  0
  148.2332  139.8080  153.8096 H   0  0  0  0  0  0  0  0  0  0  0  0
  154.3174  140.9922  158.7276 H   0  0  0  0  0  0  0  0  0  0  0  0
  153.2776  141.0831  161.3250 H   0  0  0  0  0  0  0  0  0  0  0  0
  154.4700  142.1887  160.6699 H   0  0  0  0  0  0  0  0  0  0  0  0
  151.4284  142.4832  160.4400 H   0  0  0  0  0  0  0  0  0  0  0  0
  153.5881  144.2354  159.1681 H   0  0  0  0  0  0  0  0  0  0  0  0
  151.9247  143.8859  158.5618 H   0  0  0  0  0  0  0  0  0  0  0  0
  152.4948  145.9578  160.5190 H   0  0  0  0  0  0  0  0  0  0  0  0
  150.9167  145.0785  160.4522 H   0  0  0  0  0  0  0  0  0  0  0  0
  151.7841  143.8467  162.3861 H   0  0  0  0  0  0  0  0  0  0  0  0
  153.4872  144.2068  161.9113 H   0  0  0  0  0  0  0  0  0  0  0  0
  1  2  1  0  0  0  0
  1 16  1  0  0  0  0
  1 17  1  0  0  0  0
  1 18  1  0  0  0  0
  2 15  1  0  0  0  0
  2  3  2  0  0  0  0
  3  4  1  0  0  0  0
  4  5  2  0  0  0  0
  5  6  1  0  0  0  0
  5 15  1  0  0  0  0
  6  7  1  0  0  0  0
  7  8  2  0  0  0  0
  7  9  1  0  0  0  0
  9 10  1  0  0  0  0
  9 19  1  0  0  0  0
 10 11  1  0  0  0  0
 10 20  1  0  0  0  0
 10 21  1  0  0  0  0
 11 14  1  0  0  0  0
 11 12  1  0  0  0  0
 11 22  1  0  0  0  0
 12 13  1  0  0  0  0
 12 23  1  0  0  0  0
 12 24  1  0  0  0  0
 13 14  1  0  0  0  0
 13 25  1  0  0  0  0
 13 26  1  0  0  0  0
 14 27  1  0  0  0  0
 14 28  1  0  0  0  0
M  CHG  1   6  -1
M  END
> <s_m_source_file>
AV-unprocessed.smi

> <i_m_source_file_index>
2043

> <i_lp_mmshare_version>
43012

> <i_f3d_flags>
0

> <s_epik_input>
W0NIM11jMW5uYyhzMSlbTkhdQyg9TylbTkhdW0NIMl1bQ0hdMltDSDJdW0NIMl1bQ0gyXTI=

> <s_epik_cmdline>
J2VwaWtfcHl0aG9uJywgJy1waCcsICc3LjAnLCAnLXRuJywgJzgnLCAnLW1hJywgJzIwMCcsICctbWV0YWxfYmluZGluZycsICctaW1hZScsICc8aW5maWxlLm1hZT4nLCAnLW9tYWUnLCAnPG91dGZpbGUubWFlPic=

> <r_lp_tautomer_probability>
1

> <r_epik_Ionization_Penalty>
4.53283

> <r_epik_Ionization_Penalty_Charging>
4.38642

> <r_epik_Ionization_Penalty_Neutral>
0.146407

> <r_epik_State_Penalty>
4.38606

> <r_epik_Charging_Adjusted_Penalty>
8.77248

> <i_epik_Tot_Q>
-1

> <i_epik_Tot_abs_Q>
1

> <r_epik_Metal_State_Penalty>
0.765318

> <b_epik_Metal_Only>
1

> <s_lp_Force_Field>
OPLS_2005

> <r_lp_Energy>
10.5339

> <b_lp_Chiralities_Consistent>
1

> <s_lp_Variant>
AV-unprocessed.smi:2043-2

> <Gold.Version>
5.8.1

> <Gold.Id.Protein>
6NUR|6NUR_protein|mol2

> <Gold.PLP.Fitness>
42.5725

> <Gold.PLP.PLP>
-34.3053

> <Gold.PLP.part.hbond>
-2.7405

> <Gold.PLP.part.metal>
0.0000

> <Gold.PLP.part.buried>
-1.9183

> <Gold.PLP.part.nonpolar>
-29.1048

> <Gold.PLP.part.repulsive>
0.2290

> <Gold.PLP.ligand.clash>
0.0000

> <Gold.PLP.ligand.torsion>
0.4018

> <Gold.PLP.Chemscore.Hbond>
3.0000

> <Gold.PLP.Chemscore.CHOScore>
0.0000

> <Gold.PLP.Chemscore.Metal>
0.0000

> <Gold.Chemscore.Hbonds>
donor molecule, donor type, donor heavy atom, donor atom, acceptor molecule, acceptor atom, score
      P1  H  7989  7998       L1     3  0.85
      P1  H  7997  8009       L1     6  2.00

> <Gold.PLP.Chemscore.Internal.Correction>
0.0707

> <Gold.Rescore>
     Score         DG    S(hbond)    S(metal)    S(lipo)     H(rot)  DE(clash)    DE(int)     intcor
     11.60     -14.31       0.86        0.00      78.51       1.26       0.04       2.67       ----

> <Gold.Chemscore.Fitness>
11.6022

> <Gold.Chemscore.DG>
-14.3139

> <Gold.Chemscore.ZeroCoef>
-5.4800

> <Gold.Chemscore.Hbond>
0.8607

> <Gold.Chemscore.Metal>
0.0000

> <Gold.Chemscore.Lipo>
78.5139

> <Gold.Chemscore.Internal_Hbond>
0.0000

> <Gold.Chemscore.DEClash>
0.0426

> <Gold.Chemscore.DEInternal>
2.6691

> <Gold.Chemscore.Rot>
1.2605

> <Gold.Chemscore.Internal.Correction>
   9.000000E+99

> <Gold.Chemscore.Hbonds>
donor molecule, donor type, donor heavy atom, donor atom, acceptor molecule, acceptor atom, score
      P1  H  7989  7998       L1     3  0.04
      P1  H  7997  8009       L1     6  0.27

> <Gold.Chemscore.Hbond.Weighted>
-2.8746

> <Gold.Chemscore.Metal.Weighted>
-0.0000

> <Gold.Chemscore.Lipo.Weighted>
-9.1861

> <Gold.Chemscore.Internal_Hbond.Weighted>
0.0000

> <Gold.Chemscore.DEClash.Weighted>
0.0426

> <Gold.Chemscore.DEInternal.Weighted>
2.6691

> <Gold.Chemscore.Rot.Weighted>
3.2269

> <Gold.Chemscore.Internal.Correction.Weighted>
   9.000000E+99

> <Gold.Protein.RotatedTorsions>
[ 6907 6896 6895 6894 ] final  -46.42 input  -60.11 | X-H torsion
[ 7974 7965 7964 7962 ] final   47.46 input  175.53 | X-H torsion
[ 8008 7997 7996 7995 ] final -175.99 input   59.86 | X-H torsion
[ 10167 10162 10161 10158 ] final -106.31 input  -65.29 | X-H torsion
[ 10718 10713 10712 10709 ] final -178.53 input   66.30 | X-H torsion
[ 10763 10752 10751 10750 ] final   53.57 input  -60.55 | X-H torsion
[ 11005 11000 10999 10996 ] final  -63.50 input  -57.11 | X-H torsion

> <Gold.Protein.ActiveResidues>
 VAL166  LYS551  ARG553  GLY616  TRP617  ASP618  TYR619  PRO620  LYS621  CYS622 
 ASP623  PHE694  ASN695  SER759  ASP760  ASP761  ALA762  ILE779  LEU786  VAL792 
 PHE793  MET794  SER795  GLU796  ALA797  LYS798  CYS799  TRP800  GLU811  SER814 

> <Gold.Protein.RotatedAtoms>
  150.9114  134.8531  159.7427 H   0  0  0  0  0  0  0  0  0  0  0  0  # atno 6907 bound_to 6896
  152.4946  134.4354  159.9536 H   0  0  0  0  0  0  0  0  0  0  0  0  # atno 6908 bound_to 6896
  151.4396  133.3608  159.2815 H   0  0  0  0  0  0  0  0  0  0  0  0  # atno 6909 bound_to 6896
  146.0295  139.4746  142.9846 H   0  0  0  0  0  0  0  0  0  0  0  0  # atno 7974 bound_to 7965
  155.9893  140.1198  157.0653 H   0  0  0  0  0  0  0  0  0  0  0  0  # atno 8008 bound_to 7997
  154.4206  140.1129  156.5612 H   0  0  0  0  0  0  0  0  0  0  0  0  # atno 8009 bound_to 7997
  155.6364  140.3473  155.4702 H   0  0  0  0  0  0  0  0  0  0  0  0  # atno 8010 bound_to 7997
  140.1892  143.3906  152.1220 H   0  0  0  0  0  0  0  0  0  0  0  0  # atno 10167 bound_to 10162
  156.8457  130.9702  151.3096 H   0  0  0  0  0  0  0  0  0  0  0  0  # atno 10718 bound_to 10713
  152.9796  135.5774  154.4764 H   0  0  0  0  0  0  0  0  0  0  0  0  # atno 10763 bound_to 10752
  154.4319  135.2774  155.1908 H   0  0  0  0  0  0  0  0  0  0  0  0  # atno 10764 bound_to 10752
  154.3613  135.6188  153.5746 H   0  0  0  0  0  0  0  0  0  0  0  0  # atno 10765 bound_to 10752
  141.1395  133.6653  156.5690 H   0  0  0  0  0  0  0  0  0  0  0  0  # atno 11005 bound_to 11000
  145.7063  141.0120  143.1477 LP  0  0  0  0  0  0  0  0  0  0  0  0  # atno 17320 bound_to 7965
  144.7024  139.8704  143.7440 LP  0  0  0  0  0  0  0  0  0  0  0  0  # atno 17321 bound_to 7965
  139.5263  144.7106  151.5217 LP  0  0  0  0  0  0  0  0  0  0  0  0  # atno 17342 bound_to 10162
  140.6467  143.8779  150.6745 LP  0  0  0  0  0  0  0  0  0  0  0  0  # atno 17343 bound_to 10162
  157.6331  130.8745  149.9310 LP  0  0  0  0  0  0  0  0  0  0  0  0  # atno 17370 bound_to 10713
  156.0856  130.3668  150.0495 LP  0  0  0  0  0  0  0  0  0  0  0  0  # atno 17371 bound_to 10713
  140.3928  134.7425  157.4732 LP  0  0  0  0  0  0  0  0  0  0  0  0  # atno 17394 bound_to 11000
  140.0554  134.6072  155.8812 LP  0  0  0  0  0  0  0  0  0  0  0  0  # atno 17395 bound_to 11000

$$$$
