AV-unprocessed.smi:2751|AV-procd|sdf|10595|dock3
  -GOLD-   2272015 43D 1   1.00000     0.00000
 Structure written by MMmdl.
 34 35  0  0  0  0  0  0  0  0  1 V2000
  149.0631  145.4223  160.6606 O   0  0  0  0  0  0  0  0  0  0  0  0
  148.6926  144.8186  159.6533 C   0  0  0  0  0  0  0  0  0  0  0  0
  149.4578  144.6569  158.5639 N   0  0  0  0  0  0  0  0  0  0  0  0
  150.8224  145.1506  158.4194 C   0  0  0  0  0  0  0  0  0  0  0  0
  151.8512  144.1445  158.9633 C   0  0  0  0  0  0  0  0  0  0  0  0
  152.1476  144.3464  160.4576 C   0  0  2  0  0  0  0  0  0  0  0  0
  152.1302  145.8356  160.8537 C   0  0  0  0  0  0  0  0  0  0  0  0
  152.4982  146.0036  162.3321 C   0  0  0  0  0  0  0  0  0  0  0  0
  153.8259  145.2941  162.6181 C   0  0  0  0  0  0  0  0  0  0  0  0
  153.7691  143.8384  162.1283 C   0  0  0  0  0  0  0  0  0  0  0  0
  153.4361  143.8049  160.7438 O   0  0  0  0  0  0  0  0  0  0  0  0
  147.4899  144.2408  159.4956 N   0  0  0  0  0  0  0  0  0  0  0  0
  146.4260  144.1932  160.4314 C   0  0  0  0  0  0  0  0  0  0  0  0
  145.1558  144.5347  160.2094 N   0  0  0  0  0  0  0  0  0  0  0  0
  144.5180  144.3162  161.4218 C   0  0  0  0  0  0  0  0  0  0  0  0
  145.4471  143.8505  162.3163 C   0  0  0  0  0  0  0  0  0  0  0  0
  146.6664  143.7658  161.6994 O   0  0  0  0  0  0  0  0  0  0  0  0
  149.0728  144.1499  157.7802 H   0  0  0  0  0  0  0  0  0  0  0  0
  151.0285  145.3819  157.3730 H   0  0  0  0  0  0  0  0  0  0  0  0
  150.8969  146.0922  158.9638 H   0  0  0  0  0  0  0  0  0  0  0  0
  151.4991  143.1261  158.7930 H   0  0  0  0  0  0  0  0  0  0  0  0
  152.7811  144.2451  158.4019 H   0  0  0  0  0  0  0  0  0  0  0  0
  151.3954  143.8098  161.0391 H   0  0  0  0  0  0  0  0  0  0  0  0
  152.8385  146.3897  160.2363 H   0  0  0  0  0  0  0  0  0  0  0  0
  151.1464  146.2665  160.6646 H   0  0  0  0  0  0  0  0  0  0  0  0
  152.5668  147.0606  162.5907 H   0  0  0  0  0  0  0  0  0  0  0  0
  151.7120  145.5771  162.9564 H   0  0  0  0  0  0  0  0  0  0  0  0
  154.6377  145.8172  162.1110 H   0  0  0  0  0  0  0  0  0  0  0  0
  154.0499  145.3263  163.6846 H   0  0  0  0  0  0  0  0  0  0  0  0
  154.7369  143.3573  162.2696 H   0  0  0  0  0  0  0  0  0  0  0  0
  153.0412  143.2625  162.7019 H   0  0  0  0  0  0  0  0  0  0  0  0
  147.3195  143.7767  158.6158 H   0  0  0  0  0  0  0  0  0  0  0  0
  143.4632  144.5084  161.5521 H   0  0  0  0  0  0  0  0  0  0  0  0
  145.4063  143.5544  163.3540 H   0  0  0  0  0  0  0  0  0  0  0  0
  1  2  2  0  0  0  0
  2  3  1  0  0  0  0
  2 12  1  0  0  0  0
  3  4  1  0  0  0  0
  3 18  1  0  0  0  0
  4  5  1  0  0  0  0
  4 19  1  0  0  0  0
  4 20  1  0  0  0  0
  5  6  1  0  0  0  0
  5 21  1  0  0  0  0
  5 22  1  0  0  0  0
  6 11  1  0  0  0  0
  6  7  1  0  0  0  0
  6 23  1  0  0  0  0
  7  8  1  0  0  0  0
  7 24  1  0  0  0  0
  7 25  1  0  0  0  0
  8  9  1  0  0  0  0
  8 26  1  0  0  0  0
  8 27  1  0  0  0  0
  9 10  1  0  0  0  0
  9 28  1  0  0  0  0
  9 29  1  0  0  0  0
 10 11  1  0  0  0  0
 10 30  1  0  0  0  0
 10 31  1  0  0  0  0
 12 13  1  0  0  0  0
 12 32  1  0  0  0  0
 13 17  1  0  0  0  0
 13 14  2  0  0  0  0
 14 15  1  0  0  0  0
 15 16  2  0  0  0  0
 15 33  1  0  0  0  0
 16 17  1  0  0  0  0
 16 34  1  0  0  0  0
M  END
> <s_m_source_file>
AV-unprocessed.smi

> <i_m_source_file_index>
2751

> <i_lp_mmshare_version>
43012

> <i_f3d_flags>
0

> <s_epik_input>
bzFbY0hdW2NIXW5jMVtOSF1DKD1PKVtOSF1bQ0gyXVtDSDJdW0NAQEhdMltDSDJdW0NIMl1bQ0gyXVtDSDJdTzI=

> <s_epik_cmdline>
J2VwaWtfcHl0aG9uJywgJy1waCcsICc3LjAnLCAnLXRuJywgJzgnLCAnLW1hJywgJzIwMCcsICctbWV0YWxfYmluZGluZycsICctaW1hZScsICc8aW5maWxlLm1hZT4nLCAnLW9tYWUnLCAnPG91dGZpbGUubWFlPic=

> <r_lp_tautomer_probability>
0.785861

> <r_epik_Ionization_Penalty>
4.88827e-05

> <r_epik_Ionization_Penalty_Charging>
0

> <r_epik_Ionization_Penalty_Neutral>
4.88827e-05

> <r_epik_State_Penalty>
0.0434822

> <r_epik_Charging_Adjusted_Penalty>
0.0434822

> <i_epik_Tot_Q>
0

> <i_epik_Tot_abs_Q>
0

> <r_epik_Metal_State_Penalty>
0.0598982

> <b_epik_Metal_Only>
0

> <s_lp_Force_Field>
OPLS_2005

> <r_lp_Energy>
7.87484

> <b_lp_Chiralities_Consistent>
1

> <s_lp_Variant>
AV-unprocessed.smi:2751-1

> <Gold.Version>
5.8.1

> <Gold.Id.Protein>
6NUR|6NUR_protein|mol2

> <Gold.PLP.Fitness>
51.7240

> <Gold.PLP.PLP>
-43.6671

> <Gold.PLP.part.hbond>
-5.0000

> <Gold.PLP.part.metal>
0.0000

> <Gold.PLP.part.buried>
-7.3243

> <Gold.PLP.part.nonpolar>
-32.9971

> <Gold.PLP.part.repulsive>
0.7341

> <Gold.PLP.ligand.clash>
0.0000

> <Gold.PLP.ligand.torsion>
1.0752

> <Gold.PLP.Chemscore.Hbond>
3.4012

> <Gold.PLP.Chemscore.CHOScore>
0.0000

> <Gold.PLP.Chemscore.Metal>
0.0000

> <Gold.Chemscore.Hbonds>
donor molecule, donor type, donor heavy atom, donor atom, acceptor molecule, acceptor atom, score
      L1  H     3    18       P1  8028  0.15
      P1  H  6933  6944       L1    17  0.29

> <Gold.PLP.Chemscore.Internal.Correction>
0.0036

> <Gold.Rescore>
     Score         DG    S(hbond)    S(metal)    S(lipo)     H(rot)  DE(clash)    DE(int)     intcor
     19.15     -21.60       2.83        0.00      92.73       1.63       0.54       1.91       ----

> <Gold.Chemscore.Fitness>
19.1489

> <Gold.Chemscore.DG>
-21.6012

> <Gold.Chemscore.ZeroCoef>
-5.4800

> <Gold.Chemscore.Hbond>
2.8299

> <Gold.Chemscore.Metal>
0.0000

> <Gold.Chemscore.Lipo>
92.7288

> <Gold.Chemscore.Internal_Hbond>
0.0000

> <Gold.Chemscore.DEClash>
0.5424

> <Gold.Chemscore.DEInternal>
1.9099

> <Gold.Chemscore.Rot>
1.6328

> <Gold.Chemscore.Internal.Correction>
   9.000000E+99

> <Gold.Chemscore.Hbonds>
donor molecule, donor type, donor heavy atom, donor atom, acceptor molecule, acceptor atom, score
      P1  H  6933  6944       L1    17  0.13

> <Gold.Chemscore.Hbond.Weighted>
-9.4518

> <Gold.Chemscore.Metal.Weighted>
-0.0000

> <Gold.Chemscore.Lipo.Weighted>
-10.8493

> <Gold.Chemscore.Internal_Hbond.Weighted>
0.0000

> <Gold.Chemscore.DEClash.Weighted>
0.5424

> <Gold.Chemscore.DEInternal.Weighted>
1.9099

> <Gold.Chemscore.Rot.Weighted>
4.1799

> <Gold.Chemscore.Internal.Correction.Weighted>
   9.000000E+99

> <Gold.Protein.RotatedTorsions>
[ 6907 6896 6895 6894 ] final  177.07 input  -60.11 | X-H torsion
[ 7974 7965 7964 7962 ] final  105.44 input  175.53 | X-H torsion
[ 8008 7997 7996 7995 ] final -112.46 input   59.86 | X-H torsion
[ 10167 10162 10161 10158 ] final  178.44 input  -65.29 | X-H torsion
[ 10718 10713 10712 10709 ] final -110.20 input   66.30 | X-H torsion
[ 10763 10752 10751 10750 ] final -122.34 input  -60.55 | X-H torsion
[ 11005 11000 10999 10996 ] final   42.99 input  -57.11 | X-H torsion

> <Gold.Protein.ActiveResidues>
 VAL166  LYS551  ARG553  GLY616  TRP617  ASP618  TYR619  PRO620  LYS621  CYS622 
 ASP623  PHE694  ASN695  SER759  ASP760  ASP761  ALA762  ILE779  LEU786  VAL792 
 PHE793  MET794  SER795  GLU796  ALA797  LYS798  CYS799  TRP800  GLU811  SER814 

> <Gold.Protein.RotatedAtoms>
  151.7099  133.3312  159.3287 H   0  0  0  0  0  0  0  0  0  0  0  0  # atno 6907 bound_to 6896
  150.7699  134.6542  159.6314 H   0  0  0  0  0  0  0  0  0  0  0  0  # atno 6908 bound_to 6896
  152.3718  134.6725  160.0225 H   0  0  0  0  0  0  0  0  0  0  0  0  # atno 6909 bound_to 6896
  145.3196  139.2516  143.3719 H   0  0  0  0  0  0  0  0  0  0  0  0  # atno 7974 bound_to 7965
  155.0056  140.0394  157.2378 H   0  0  0  0  0  0  0  0  0  0  0  0  # atno 8008 bound_to 7997
  154.7506  140.2766  155.6273 H   0  0  0  0  0  0  0  0  0  0  0  0  # atno 8009 bound_to 7997
  156.2884  140.2648  156.2258 H   0  0  0  0  0  0  0  0  0  0  0  0  # atno 8010 bound_to 7997
  139.5294  144.2680  152.0652 H   0  0  0  0  0  0  0  0  0  0  0  0  # atno 10167 bound_to 10162
  156.0578  130.5803  150.8205 H   0  0  0  0  0  0  0  0  0  0  0  0  # atno 10718 bound_to 10713
  154.8687  135.4136  154.2765 H   0  0  0  0  0  0  0  0  0  0  0  0  # atno 10763 bound_to 10752
  153.3666  135.7006  153.6676 H   0  0  0  0  0  0  0  0  0  0  0  0  # atno 10764 bound_to 10752
  153.5555  135.3620  155.2749 H   0  0  0  0  0  0  0  0  0  0  0  0  # atno 10765 bound_to 10752
  140.1687  134.4250  155.8271 H   0  0  0  0  0  0  0  0  0  0  0  0  # atno 11005 bound_to 11000
  146.3087  140.3751  142.8678 LP  0  0  0  0  0  0  0  0  0  0  0  0  # atno 17320 bound_to 7965
  144.8950  140.7571  143.5903 LP  0  0  0  0  0  0  0  0  0  0  0  0  # atno 17321 bound_to 7965
  140.2141  144.4533  150.6372 LP  0  0  0  0  0  0  0  0  0  0  0  0  # atno 17342 bound_to 10162
  140.6461  143.2214  151.6182 LP  0  0  0  0  0  0  0  0  0  0  0  0  # atno 17343 bound_to 10162
  157.5562  131.0945  150.9625 LP  0  0  0  0  0  0  0  0  0  0  0  0  # atno 17370 bound_to 10713
  156.9873  130.5550  149.5300 LP  0  0  0  0  0  0  0  0  0  0  0  0  # atno 17371 bound_to 10713
  141.2215  133.6946  156.7724 LP  0  0  0  0  0  0  0  0  0  0  0  0  # atno 17394 bound_to 11000
  140.2403  134.8618  157.3567 LP  0  0  0  0  0  0  0  0  0  0  0  0  # atno 17395 bound_to 11000

$$$$
