#       Name:                AV-unprocessed.smi:249
#       Creating user name   scv26
#       Creation time:       Thu Mar 26 21:00:55 2020


#       File generated by GOLD software.
#

@<TRIPOS>MOLECULE
AV-unprocessed.smi:249
    72    75     1
SMALL
NO_CHARGES


@<TRIPOS>ATOM
      1 ****        -2.9568  -4.7097   2.2924 C.3            1 S1                 0.0000
      2 ****        -3.8876  -3.6473   1.6919 C.3            1 S1                 0.0000
      3 ****        -3.2595  -2.3010   1.6514 N.4            1 S1                 1.0000
      4 ****        -3.2128  -1.6259   2.9770 C.3            1 S1                 0.0000
      5 ****        -2.3799  -0.3366   2.9109 C.3            1 S1                 0.0000
      6 ****        -2.9332   0.6255   1.8414 C.3            1 S1                 0.0000
      7 ****        -2.2297   1.9132   1.7790 N.3            1 S1                 0.0000
      8 ****        -2.8992   3.0116   1.0921 C.3            1 S1                 0.0000
      9 ****        -0.8861   1.8910   1.6092 C.ar           1 S1                 0.0000
     10 ****        -0.1154   1.8419   2.7245 N.ar           1 S1                 0.0000
     11 ****         1.2167   1.8295   2.6194 C.ar           1 S1                 0.0000
     12 ****         1.9669   1.8614   1.5163 N.ar           1 S1                 0.0000
     13 ****         1.1962   1.9149   0.3926 C.ar           1 S1                 0.0000
     14 ****        -0.2266   1.9346   0.3474 C.ar           1 S1                 0.0000
     15 ****        -0.6568   1.9858  -0.9736 N.2            1 S1                 0.0000
     16 ****         0.4476   2.0011  -1.6687 C.2            1 S1                 0.0000
     17 ****         1.6066   1.9546  -0.9285 N.pl3          1 S1                 0.0000
     18 ****         2.9636   1.9581  -1.4473 C.3            1 S1                 0.0000
     19 ****         3.3820   0.6028  -2.0698 C.3            1 S1                 0.0000
     20 ****         3.1852  -0.5861  -1.0977 C.3            1 S1                 0.0000
     21 ****         4.0172  -0.4679   0.0381 O.3            1 S1                 0.0000
     22 ****         4.8199   0.6576  -2.6463 C.3            1 S1                 0.0000
     23 ****         5.0295   1.6899  -3.7405 C.3            1 S1                 0.0000
     24 ****         6.3139   1.2026  -4.4013 C.3            1 S1                 0.0000
     25 ****         6.2907  -0.2153  -4.2854 O.3            1 S1                 0.0000
     26 ****         5.2688  -0.6129  -3.3763 C.3            1 S1                 0.0000
     27 ****        -2.9862  -0.1107   0.4852 C.3            1 S1                 0.0000
     28 ****        -3.7949  -1.4226   0.5685 C.3            1 S1                 0.0000
     29 ****        -5.3146  -1.1702   0.6775 C.3            1 S1                 0.0000
     30 ****        -3.4179  -5.6961   2.2376 H              1 S1                 0.0000
     31 ****        -2.7342  -4.5159   3.3412 H              1 S1                 0.0000
     32 ****        -2.0121  -4.7570   1.7503 H              1 S1                 0.0000
     33 ****        -4.1357  -3.9609   0.6769 H              1 S1                 0.0000
     34 ****        -4.8277  -3.6082   2.2435 H              1 S1                 0.0000
     35 ****        -4.2227  -1.4087   3.3260 H              1 S1                 0.0000
     36 ****        -2.7674  -2.2875   3.7189 H              1 S1                 0.0000
     37 ****        -2.3782   0.1501   3.8869 H              1 S1                 0.0000
     38 ****        -1.3452  -0.6019   2.6909 H              1 S1                 0.0000
     39 ****        -3.9559   0.8705   2.1299 H              1 S1                 0.0000
     40 ****        -2.3147   3.9304   1.1588 H              1 S1                 0.0000
     41 ****        -3.8695   3.2031   1.5508 H              1 S1                 0.0000
     42 ****        -3.0629   2.7860   0.0386 H              1 S1                 0.0000
     43 ****         1.7594   1.7897   3.5524 H              1 S1                 0.0000
     44 ****         0.4480   2.0433  -2.7483 H              1 S1                 0.0000
     45 ****         3.0264   2.7557  -2.1874 H              1 S1                 0.0000
     46 ****         3.6463   2.2337  -0.6428 H              1 S1                 0.0000
     47 ****         2.7091   0.4229  -2.9096 H              1 S1                 0.0000
     48 ****         2.1491  -0.6560  -0.7666 H              1 S1                 0.0000
     49 ****         3.4046  -1.5318  -1.5927 H              1 S1                 0.0000
     50 ****         3.8648  -1.2095   0.6035 H              1 S1                 0.0000
     51 ****         5.5288   0.8640  -1.8425 H              1 S1                 0.0000
     52 ****         4.2066   1.6609  -4.4562 H              1 S1                 0.0000
     53 ****         5.1191   2.7088  -3.3628 H              1 S1                 0.0000
     54 ****         6.3947   1.5178  -5.4420 H              1 S1                 0.0000
     55 ****         7.1846   1.5802  -3.8638 H              1 S1                 0.0000
     56 ****         5.6327  -1.3801  -2.6923 H              1 S1                 0.0000
     57 ****         4.4471  -1.0385  -3.9543 H              1 S1                 0.0000
     58 ****        -3.4107   0.5315  -0.2869 H              1 S1                 0.0000
     59 ****        -1.9730  -0.3474   0.1584 H              1 S1                 0.0000
     60 ****        -3.6303  -1.9473  -0.3738 H              1 S1                 0.0000
     61 ****        -5.6584  -0.5378  -0.1415 H              1 S1                 0.0000
     62 ****        -5.5892  -0.6729   1.6071 H              1 S1                 0.0000
     63 ****        -5.8835  -2.0979   0.6193 H              1 S1                 0.0000
     64 ****        -2.2962  -2.4651   1.3958 H              1 S1                 0.0000
     65 ****        -2.3236   2.1571   2.7442 LP             1 S1                 0.0000
     66 ****        -0.5450   1.8150   3.6271 LP             1 S1                 0.0000
     67 ****         2.9668   1.8478   1.5139 LP             1 S1                 0.0000
     68 ****        -1.5971   2.0063  -1.3134 LP             1 S1                 0.0000
     69 ****         3.8017   0.3777   0.5266 LP             1 S1                 0.0000
     70 ****         4.9756  -0.4532  -0.2469 LP             1 S1                 0.0000
     71 ****         7.1764  -0.5346  -3.9484 LP             1 S1                 0.0000
     72 ****         6.1107  -0.6180  -5.1829 LP             1 S1                 0.0000
@<TRIPOS>BOND
    1    1    2 1     
    2    1   30 1     
    3    1   31 1     
    4    1   32 1     
    5    2    3 1     
    6    2   33 1     
    7    2   34 1     
    8    3   28 1     
    9    3    4 1     
   10    3   64 1     
   11    4    5 1     
   12    4   35 1     
   13    4   36 1     
   14    5    6 1     
   15    5   37 1     
   16    5   38 1     
   17    6    7 1     
   18    6   27 1     
   19    6   39 1     
   20    7    8 1     
   21    7    9 1     
   22    8   40 1     
   23    8   41 1     
   24    8   42 1     
   25    9   14 ar    
   26    9   10 ar    
   27   10   11 ar    
   28   11   12 ar    
   29   11   43 1     
   30   12   13 ar    
   31   13   17 1     
   32   13   14 ar    
   33   14   15 1     
   34   15   16 2     
   35   16   17 1     
   36   16   44 1     
   37   17   18 1     
   38   18   19 1     
   39   18   45 1     
   40   18   46 1     
   41   19   20 1     
   42   19   22 1     
   43   19   47 1     
   44   20   21 1     
   45   20   48 1     
   46   20   49 1     
   47   21   50 1     
   48   22   26 1     
   49   22   23 1     
   50   22   51 1     
   51   23   24 1     
   52   23   52 1     
   53   23   53 1     
   54   24   25 1     
   55   24   54 1     
   56   24   55 1     
   57   25   26 1     
   58   26   56 1     
   59   26   57 1     
   60   27   28 1     
   61   27   58 1     
   62   27   59 1     
   63   28   29 1     
   64   28   60 1     
   65   29   61 1     
   66   29   62 1     
   67   29   63 1     
   68    7   65 1     
   69   10   66 1     
   70   12   67 1     
   71   15   68 1     
   72   21   69 1     
   73   21   70 1     
   74   25   71 1     
   75   25   72 1     
@<TRIPOS>SUBSTRUCTURE
      1 S1             1
@<TRIPOS>SET
LONE_PAIRS      STATIC     ATOMS    <user>   **** ""
8 65 66 67 68 69 70 71 72
DONOR_HYDROGENS      STATIC     ATOMS    <user>   **** ""
2 64 50
ATOM$BLUE        STATIC     ATOMS    COLORGROUP SYSTEM
8 65 66 67 68 69 70 71 72
ATOM$RED        STATIC     ATOMS    COLORGROUP SYSTEM
2 64 50
