AV-unprocessed.smi:2405|AV-procd|sdf|9512|dock5
  -GOLD-   2272013143D 1   1.00000     0.00000
 Structure written by MMmdl.
 36 37  0  0  0  0  0  0  0  0  2 V2000
  143.9904  136.2322  151.9264 C   0  0  0  0  0  0  0  0  0  0  0  0
  145.1548  136.2792  152.9215 C   0  0  0  0  0  0  0  0  0  0  0  0
  146.0078  135.0572  152.8580 C   0  0  0  0  0  0  0  0  0  0  0  0
  147.0973  134.8810  153.6095 N   0  0  0  0  0  0  0  0  0  0  0  0
  147.6943  133.6312  153.4115 C   0  0  0  0  0  0  0  0  0  0  0  0
  148.9223  133.2501  154.1897 C   0  0  0  0  0  0  0  0  0  0  0  0
  149.3534  134.3895  155.1176 C   0  0  0  0  0  0  0  0  0  0  0  0
  149.5388  134.1701  156.3144 O   0  0  0  0  0  0  0  0  0  0  0  0
  149.5085  135.5987  154.5552 N   0  0  0  0  0  0  0  0  0  0  0  0
  149.9741  136.7962  155.2470 C   0  0  2  0  0  0  0  0  0  0  0  0
  148.9749  137.9519  155.0517 C   0  0  0  0  0  0  0  0  0  0  0  0
  149.6770  138.9687  154.1461 C   0  0  0  0  0  0  0  0  0  0  0  0
  151.1706  138.8099  154.4555 C   0  0  1  0  0  0  0  0  0  0  0  0
  151.5600  139.6498  155.6892 C   0  0  0  0  0  0  0  0  0  0  0  0
  150.7037  140.4042  156.2026 O   0  0  0  0  0  0  0  0  0  0  0  0
  152.7361  139.5244  156.0960 O   0  5  0  0  0  0  0  0  0  0  0  0
  151.3193  137.2922  154.6730 C   0  0  0  0  0  0  0  0  0  0  0  0
  147.0379  132.8617  152.4823 C   0  0  0  0  0  0  0  0  0  0  0  0
  145.6347  133.6704  151.8413 S   0  0  0  0  0  0  0  0  0  0  0  0
  143.3842  137.1357  151.9935 H   0  0  0  0  0  0  0  0  0  0  0  0
  143.3398  135.3791  152.1225 H   0  0  0  0  0  0  0  0  0  0  0  0
  144.3523  136.1480  150.9012 H   0  0  0  0  0  0  0  0  0  0  0  0
  145.7785  137.1512  152.7237 H   0  0  0  0  0  0  0  0  0  0  0  0
  144.7729  136.3911  153.9370 H   0  0  0  0  0  0  0  0  0  0  0  0
  148.7393  132.3587  154.7907 H   0  0  0  0  0  0  0  0  0  0  0  0
  149.7416  133.0033  153.5130 H   0  0  0  0  0  0  0  0  0  0  0  0
  149.3320  135.6869  153.5652 H   0  0  0  0  0  0  0  0  0  0  0  0
  150.0714  136.5907  156.3147 H   0  0  0  0  0  0  0  0  0  0  0  0
  148.0168  137.6330  154.6393 H   0  0  0  0  0  0  0  0  0  0  0  0
  148.7671  138.4137  156.0179 H   0  0  0  0  0  0  0  0  0  0  0  0
  149.4967  138.7159  153.1005 H   0  0  0  0  0  0  0  0  0  0  0  0
  149.3040  139.9823  154.3009 H   0  0  0  0  0  0  0  0  0  0  0  0
  151.7826  139.1429  153.6162 H   0  0  0  0  0  0  0  0  0  0  0  0
  152.1615  137.0203  155.3108 H   0  0  0  0  0  0  0  0  0  0  0  0
  151.5138  136.8270  153.7049 H   0  0  0  0  0  0  0  0  0  0  0  0
  147.2866  131.8657  152.1474 H   0  0  0  0  0  0  0  0  0  0  0  0
  1  2  1  0  0  0  0
  1 20  1  0  0  0  0
  1 21  1  0  0  0  0
  1 22  1  0  0  0  0
  2  3  1  0  0  0  0
  2 23  1  0  0  0  0
  2 24  1  0  0  0  0
  3 19  1  0  0  0  0
  3  4  2  0  0  0  0
  4  5  1  0  0  0  0
  5  6  1  0  0  0  0
  5 18  2  0  0  0  0
  6  7  1  0  0  0  0
  6 25  1  0  0  0  0
  6 26  1  0  0  0  0
  7  8  2  0  0  0  0
  7  9  1  0  0  0  0
  9 10  1  0  0  0  0
  9 27  1  0  0  0  0
 10 17  1  0  0  0  0
 10 11  1  0  0  0  0
 10 28  1  0  0  0  0
 11 12  1  0  0  0  0
 11 29  1  0  0  0  0
 11 30  1  0  0  0  0
 12 13  1  0  0  0  0
 12 31  1  0  0  0  0
 12 32  1  0  0  0  0
 13 14  1  0  0  0  0
 13 17  1  0  0  0  0
 13 33  1  0  0  0  0
 14 15  2  0  0  0  0
 14 16  1  0  0  0  0
 17 34  1  0  0  0  0
 17 35  1  0  0  0  0
 18 19  1  0  0  0  0
 18 36  1  0  0  0  0
M  CHG  1  16  -1
M  END
> <s_m_source_file>
AV-unprocessed.smi

> <i_m_source_file_index>
2405

> <i_lp_mmshare_version>
43012

> <i_f3d_flags>
0

> <s_epik_input>
W0NIM11bQ0gyXWMxbmMoW2NIXXMxKVtDSDJdQyg9TylbTkhdW0NAQEhdMltDSDJdW0NIMl1bQ0BIXShbQ0gyXTIpQyg9TylbT0hd

> <s_epik_cmdline>
J2VwaWtfcHl0aG9uJywgJy1waCcsICc3LjAnLCAnLXRuJywgJzgnLCAnLW1hJywgJzIwMCcsICctbWV0YWxfYmluZGluZycsICctaW1hZScsICc8aW5maWxlLm1hZT4nLCAnLW9tYWUnLCAnPG91dGZpbGUubWFlPic=

> <r_epik_Ionization_Penalty>
0.000544611

> <r_epik_Ionization_Penalty_Charging>
0.000481685

> <r_epik_Ionization_Penalty_Neutral>
6.29266e-05

> <r_epik_State_Penalty>
0.00029893

> <r_epik_Charging_Adjusted_Penalty>
0.000780614

> <i_epik_Tot_Q>
-1

> <i_epik_Tot_abs_Q>
1

> <r_epik_Metal_State_Penalty>
-0

> <b_epik_Metal_Only>
0

> <s_lp_Force_Field>
OPLS_2005

> <r_lp_Energy>
8.39141

> <b_lp_Chiralities_Consistent>
1

> <s_lp_Variant>
AV-unprocessed.smi:2405-1

> <Gold.Version>
5.8.1

> <Gold.Id.Protein>
6NUR|6NUR_protein|mol2

> <Gold.PLP.Fitness>
42.4341

> <Gold.PLP.PLP>
-30.6337

> <Gold.PLP.part.hbond>
-2.0134

> <Gold.PLP.part.metal>
0.0000

> <Gold.PLP.part.buried>
-3.3690

> <Gold.PLP.part.nonpolar>
-25.3073

> <Gold.PLP.part.repulsive>
0.8526

> <Gold.PLP.ligand.clash>
0.0000

> <Gold.PLP.ligand.torsion>
0.1252

> <Gold.PLP.Chemscore.Hbond>
3.0000

> <Gold.PLP.Chemscore.CHOScore>
1.0000

> <Gold.PLP.Chemscore.Metal>
0.0000

> <Gold.Chemscore.Hbonds>
donor molecule, donor type, donor heavy atom, donor atom, acceptor molecule, acceptor atom, score
      L1  H     9    27       P1  7948  1.00
      P1  H  7997  8010       L1    16  2.00
      L1  C    18    36       P1 10747  0.54

> <Gold.PLP.Chemscore.Internal.Correction>
0.0509

> <Gold.Rescore>
     Score         DG    S(hbond)    S(metal)    S(lipo)     H(rot)  DE(clash)    DE(int)     intcor
     12.84     -13.06       1.88        0.00      56.29       2.06       0.00       0.22       ----

> <Gold.Chemscore.Fitness>
12.8420

> <Gold.Chemscore.DG>
-13.0612

> <Gold.Chemscore.ZeroCoef>
-5.4800

> <Gold.Chemscore.Hbond>
1.8796

> <Gold.Chemscore.Metal>
0.0000

> <Gold.Chemscore.Lipo>
56.2900

> <Gold.Chemscore.Internal_Hbond>
0.0000

> <Gold.Chemscore.DEClash>
0.0029

> <Gold.Chemscore.DEInternal>
0.2162

> <Gold.Chemscore.Rot>
2.0635

> <Gold.Chemscore.Internal.Correction>
   9.000000E+99

> <Gold.Chemscore.Hbonds>
donor molecule, donor type, donor heavy atom, donor atom, acceptor molecule, acceptor atom, score
      L1  H     9    27       P1  7948  0.45
      P1  H  7997  8010       L1    16  1.00

> <Gold.Chemscore.Hbond.Weighted>
-6.2777

> <Gold.Chemscore.Metal.Weighted>
-0.0000

> <Gold.Chemscore.Lipo.Weighted>
-6.5859

> <Gold.Chemscore.Internal_Hbond.Weighted>
0.0000

> <Gold.Chemscore.DEClash.Weighted>
0.0029

> <Gold.Chemscore.DEInternal.Weighted>
0.2162

> <Gold.Chemscore.Rot.Weighted>
5.2825

> <Gold.Chemscore.Internal.Correction.Weighted>
   9.000000E+99

> <Gold.Protein.RotatedTorsions>
[ 6907 6896 6895 6894 ] final  -51.61 input  -60.11 | X-H torsion
[ 7974 7965 7964 7962 ] final    0.81 input  175.53 | X-H torsion
[ 8008 7997 7996 7995 ] final   78.08 input   59.86 | X-H torsion
[ 10167 10162 10161 10158 ] final   29.15 input  -65.29 | X-H torsion
[ 10718 10713 10712 10709 ] final    9.13 input   66.30 | X-H torsion
[ 10763 10752 10751 10750 ] final -100.52 input  -60.55 | X-H torsion
[ 11005 11000 10999 10996 ] final    3.04 input  -57.11 | X-H torsion

> <Gold.Protein.ActiveResidues>
 VAL166  LYS551  ARG553  GLY616  TRP617  ASP618  TYR619  PRO620  LYS621  CYS622 
 ASP623  PHE694  ASN695  SER759  ASP760  ASP761  ALA762  ILE779  LEU786  VAL792 
 PHE793  MET794  SER795  GLU796  ALA797  LYS798  CYS799  TRP800  GLU811  SER814 

> <Gold.Protein.RotatedAtoms>
  150.8595  134.7943  159.7071 H   0  0  0  0  0  0  0  0  0  0  0  0  # atno 6907 bound_to 6896
  152.4637  134.5123  159.9767 H   0  0  0  0  0  0  0  0  0  0  0  0  # atno 6908 bound_to 6896
  151.5229  133.3425  159.2940 H   0  0  0  0  0  0  0  0  0  0  0  0  # atno 6909 bound_to 6896
  146.2437  140.1081  142.8345 H   0  0  0  0  0  0  0  0  0  0  0  0  # atno 7974 bound_to 7965
  155.8506  140.3458  155.5691 H   0  0  0  0  0  0  0  0  0  0  0  0  # atno 8008 bound_to 7997
  155.8041  140.0889  157.1960 H   0  0  0  0  0  0  0  0  0  0  0  0  # atno 8009 bound_to 7997
  154.4007  140.1460  156.3297 H   0  0  0  0  0  0  0  0  0  0  0  0  # atno 8010 bound_to 7997
  140.4791  144.0644  150.6260 H   0  0  0  0  0  0  0  0  0  0  0  0  # atno 10167 bound_to 10162
  156.9618  130.5935  149.5662 H   0  0  0  0  0  0  0  0  0  0  0  0  # atno 10718 bound_to 10713
  154.7586  135.4932  153.9421 H   0  0  0  0  0  0  0  0  0  0  0  0  # atno 10763 bound_to 10752
  153.1224  135.6735  153.9320 H   0  0  0  0  0  0  0  0  0  0  0  0  # atno 10764 bound_to 10752
  153.9048  135.3105  155.3427 H   0  0  0  0  0  0  0  0  0  0  0  0  # atno 10765 bound_to 10752
  140.5975  133.9866  155.8117 H   0  0  0  0  0  0  0  0  0  0  0  0  # atno 11005 bound_to 11000
  145.0510  140.9018  143.4995 LP  0  0  0  0  0  0  0  0  0  0  0  0  # atno 17320 bound_to 7965
  145.1179  139.2713  143.5603 LP  0  0  0  0  0  0  0  0  0  0  0  0  # atno 17321 bound_to 7965
  140.3881  143.2767  152.0092 LP  0  0  0  0  0  0  0  0  0  0  0  0  # atno 17342 bound_to 10162
  139.4830  144.6100  151.7451 LP  0  0  0  0  0  0  0  0  0  0  0  0  # atno 17343 bound_to 10162
  156.0319  130.5410  150.8556 LP  0  0  0  0  0  0  0  0  0  0  0  0  # atno 17370 bound_to 10713
  157.5653  131.0946  150.9499 LP  0  0  0  0  0  0  0  0  0  0  0  0  # atno 17371 bound_to 10713
  141.0894  133.9940  157.3262 LP  0  0  0  0  0  0  0  0  0  0  0  0  # atno 17394 bound_to 11000
  139.9247  135.0201  156.8190 LP  0  0  0  0  0  0  0  0  0  0  0  0  # atno 17395 bound_to 11000

$$$$
