AV-unprocessed.smi:2807|AV-procd|sdf|10819|dock7
  -GOLD-   2272015253D 1   1.00000     0.00000
 Structure written by MMmdl.
 32 33  0  0  0  0  0  0  0  0  1 V2000
  151.5880  139.9417  155.3150 O   0  0  0  0  0  0  0  0  0  0  0  0
  150.9336  140.5734  156.1466 C   0  0  0  0  0  0  0  0  0  0  0  0
  149.8023  141.2269  155.8361 N   0  0  0  0  0  0  0  0  0  0  0  0
  149.2042  141.2983  154.5050 C   0  0  1  0  0  0  0  0  0  0  0  0
  149.1548  139.9011  153.8576 C   0  0  0  0  0  0  0  0  0  0  0  0
  147.7280  139.4010  154.0759 C   0  0  0  0  0  0  0  0  0  0  0  0
  146.8816  140.6640  153.9575 C   0  0  0  0  0  0  0  0  0  0  0  0
  147.7340  141.7674  154.6000 C   0  0  2  0  0  0  0  0  0  0  0  0
  147.5328  142.9917  153.9248 O   0  0  0  0  0  0  0  0  0  0  0  0
  151.3666  140.6349  157.6214 C   0  0  0  0  0  0  0  0  0  0  0  0
  150.4261  140.0550  158.3714 F   0  0  0  0  0  0  0  0  0  0  0  0
  152.4861  139.9201  157.7509 F   0  0  0  0  0  0  0  0  0  0  0  0
  151.5951  142.0686  158.0991 C   0  0  0  0  0  0  0  0  0  0  0  0
  152.2166  142.3326  159.3412 C   0  0  0  0  0  0  0  0  0  0  0  0
  152.4157  143.6723  159.7256 C   0  0  0  0  0  0  0  0  0  0  0  0
  151.9896  144.6972  158.8602 C   0  0  0  0  0  0  0  0  0  0  0  0
  151.3817  144.3350  157.6423 C   0  0  0  0  0  0  0  0  0  0  0  0
  151.1862  143.0538  157.2641 N   0  0  0  0  0  0  0  0  0  0  0  0
  149.3218  141.7160  156.5775 H   0  0  0  0  0  0  0  0  0  0  0  0
  149.7929  141.9743  153.8810 H   0  0  0  0  0  0  0  0  0  0  0  0
  149.3378  139.9966  152.7866 H   0  0  0  0  0  0  0  0  0  0  0  0
  149.9016  139.2086  154.2482 H   0  0  0  0  0  0  0  0  0  0  0  0
  147.4379  138.6310  153.3606 H   0  0  0  0  0  0  0  0  0  0  0  0
  147.6317  138.9822  155.0785 H   0  0  0  0  0  0  0  0  0  0  0  0
  146.7142  140.8769  152.9002 H   0  0  0  0  0  0  0  0  0  0  0  0
  145.9045  140.5612  154.4305 H   0  0  0  0  0  0  0  0  0  0  0  0
  147.4335  141.8941  155.6414 H   0  0  0  0  0  0  0  0  0  0  0  0
  146.6031  143.1454  153.8521 H   0  0  0  0  0  0  0  0  0  0  0  0
  152.5414  141.5296  159.9861 H   0  0  0  0  0  0  0  0  0  0  0  0
  152.8887  143.9092  160.6672 H   0  0  0  0  0  0  0  0  0  0  0  0
  152.1265  145.7359  159.1222 H   0  0  0  0  0  0  0  0  0  0  0  0
  151.0431  145.0948  156.9537 H   0  0  0  0  0  0  0  0  0  0  0  0
  1  2  2  0  0  0  0
  2  3  1  0  0  0  0
  2 10  1  0  0  0  0
  3  4  1  0  0  0  0
  3 19  1  0  0  0  0
  4  8  1  0  0  0  0
  4  5  1  0  0  0  0
  4 20  1  0  0  0  0
  5  6  1  0  0  0  0
  5 21  1  0  0  0  0
  5 22  1  0  0  0  0
  6  7  1  0  0  0  0
  6 23  1  0  0  0  0
  6 24  1  0  0  0  0
  7  8  1  0  0  0  0
  7 25  1  0  0  0  0
  7 26  1  0  0  0  0
  8  9  1  0  0  0  0
  8 27  1  0  0  0  0
  9 28  1  0  0  0  0
 10 11  1  0  0  0  0
 10 12  1  0  0  0  0
 10 13  1  0  0  0  0
 13 18  1  0  0  0  0
 13 14  2  0  0  0  0
 14 15  1  0  0  0  0
 14 29  1  0  0  0  0
 15 16  2  0  0  0  0
 15 30  1  0  0  0  0
 16 17  1  0  0  0  0
 16 31  1  0  0  0  0
 17 18  2  0  0  0  0
 17 32  1  0  0  0  0
M  END
> <s_m_source_file>
AV-unprocessed.smi

> <i_m_source_file_index>
2807

> <i_lp_mmshare_version>
43012

> <i_f3d_flags>
0

> <s_epik_input>
bjFbY0hdW2NIXVtjSF1bY0hdYzFDKEYpKEYpQyg9TylbTkhdW0NAQEhdMltDSDJdW0NIMl1bQ0gyXVtDQEhdMltPSF0=

> <s_epik_cmdline>
J2VwaWtfcHl0aG9uJywgJy1waCcsICc3LjAnLCAnLXRuJywgJzgnLCAnLW1hJywgJzIwMCcsICctbWV0YWxfYmluZGluZycsICctaW1hZScsICc8aW5maWxlLm1hZT4nLCAnLW9tYWUnLCAnPG91dGZpbGUubWFlPic=

> <r_lp_tautomer_probability>
1

> <r_epik_Ionization_Penalty>
4.08325e-05

> <r_epik_Ionization_Penalty_Charging>
0

> <r_epik_Ionization_Penalty_Neutral>
4.08325e-05

> <r_epik_State_Penalty>
-0

> <r_epik_Charging_Adjusted_Penalty>
0

> <i_epik_Tot_Q>
0

> <i_epik_Tot_abs_Q>
0

> <r_epik_Metal_State_Penalty>
0.034564

> <b_epik_Metal_Only>
0

> <s_lp_Force_Field>
OPLS_2005

> <r_lp_Energy>
23.3641

> <b_lp_Chiralities_Consistent>
1

> <s_lp_Variant>
AV-unprocessed.smi:2807-4

> <Gold.Version>
5.8.1

> <Gold.Id.Protein>
6NUR|6NUR_protein|mol2

> <Gold.PLP.Fitness>
42.7090

> <Gold.PLP.PLP>
-36.4169

> <Gold.PLP.part.hbond>
-3.8525

> <Gold.PLP.part.metal>
0.0000

> <Gold.PLP.part.buried>
1.7697

> <Gold.PLP.part.nonpolar>
-34.8618

> <Gold.PLP.part.repulsive>
0.2441

> <Gold.PLP.ligand.clash>
0.0000

> <Gold.PLP.ligand.torsion>
0.4979

> <Gold.PLP.Chemscore.Hbond>
1.6560

> <Gold.PLP.Chemscore.CHOScore>
0.7654

> <Gold.PLP.Chemscore.Metal>
0.0000

> <Gold.Chemscore.Hbonds>
donor molecule, donor type, donor heavy atom, donor atom, acceptor molecule, acceptor atom, score
      P1  H  7989  7998       L1     1  0.99
      P1  H  8022  8030       L1     9  0.59
      L1  C    17    32       P1  8028  0.81

> <Gold.PLP.Chemscore.Internal.Correction>
0.0237

> <Gold.Rescore>
     Score         DG    S(hbond)    S(metal)    S(lipo)     H(rot)  DE(clash)    DE(int)     intcor
     12.00     -16.35       1.53        0.00      94.07       2.05       1.39       2.97       ----

> <Gold.Chemscore.Fitness>
11.9988

> <Gold.Chemscore.DG>
-16.3544

> <Gold.Chemscore.ZeroCoef>
-5.4800

> <Gold.Chemscore.Hbond>
1.5284

> <Gold.Chemscore.Metal>
0.0000

> <Gold.Chemscore.Lipo>
94.0745

> <Gold.Chemscore.Internal_Hbond>
0.0000

> <Gold.Chemscore.DEClash>
1.3861

> <Gold.Chemscore.DEInternal>
2.9695

> <Gold.Chemscore.Rot>
2.0457

> <Gold.Chemscore.Internal.Correction>
   9.000000E+99

> <Gold.Chemscore.Hbonds>
donor molecule, donor type, donor heavy atom, donor atom, acceptor molecule, acceptor atom, score
      P1  H  7989  7998       L1     1  0.75
      P1  H  8022  8030       L1     9  0.41

> <Gold.Chemscore.Hbond.Weighted>
-5.1048

> <Gold.Chemscore.Metal.Weighted>
-0.0000

> <Gold.Chemscore.Lipo.Weighted>
-11.0067

> <Gold.Chemscore.Internal_Hbond.Weighted>
0.0000

> <Gold.Chemscore.DEClash.Weighted>
1.3861

> <Gold.Chemscore.DEInternal.Weighted>
2.9695

> <Gold.Chemscore.Rot.Weighted>
5.2371

> <Gold.Chemscore.Internal.Correction.Weighted>
   9.000000E+99

> <Gold.Protein.RotatedTorsions>
[ 6907 6896 6895 6894 ] final   92.69 input  -60.11 | X-H torsion
[ 7974 7965 7964 7962 ] final  125.32 input  175.53 | X-H torsion
[ 8008 7997 7996 7995 ] final  -78.32 input   59.86 | X-H torsion
[ 10167 10162 10161 10158 ] final   57.48 input  -65.29 | X-H torsion
[ 10718 10713 10712 10709 ] final  -80.06 input   66.30 | X-H torsion
[ 10763 10752 10751 10750 ] final  161.05 input  -60.55 | X-H torsion
[ 11005 11000 10999 10996 ] final  -35.09 input  -57.11 | X-H torsion

> <Gold.Protein.ActiveResidues>
 VAL166  LYS551  ARG553  GLY616  TRP617  ASP618  TYR619  PRO620  LYS621  CYS622 
 ASP623  PHE694  ASN695  SER759  ASP760  ASP761  ALA762  ILE779  LEU786  VAL792 
 PHE793  MET794  SER795  GLU796  ALA797  LYS798  CYS799  TRP800  GLU811  SER814 

> <Gold.Protein.RotatedAtoms>
  152.5453  134.1463  159.8499 H   0  0  0  0  0  0  0  0  0  0  0  0  # atno 6907 bound_to 6896
  151.1494  133.4910  159.2603 H   0  0  0  0  0  0  0  0  0  0  0  0  # atno 6908 bound_to 6896
  151.1488  135.0227  159.8714 H   0  0  0  0  0  0  0  0  0  0  0  0  # atno 6909 bound_to 6896
  145.0743  139.3706  143.4941 H   0  0  0  0  0  0  0  0  0  0  0  0  # atno 7974 bound_to 7965
  154.5678  140.0696  156.8918 H   0  0  0  0  0  0  0  0  0  0  0  0  # atno 8008 bound_to 7997
  155.2691  140.3364  155.4248 H   0  0  0  0  0  0  0  0  0  0  0  0  # atno 8009 bound_to 7997
  156.2094  140.1753  156.7713 H   0  0  0  0  0  0  0  0  0  0  0  0  # atno 8010 bound_to 7997
  140.1975  144.4022  150.6543 H   0  0  0  0  0  0  0  0  0  0  0  0  # atno 10167 bound_to 10162
  156.0078  130.4563  150.3743 H   0  0  0  0  0  0  0  0  0  0  0  0  # atno 10718 bound_to 10713
  154.2570  135.2769  155.2793 H   0  0  0  0  0  0  0  0  0  0  0  0  # atno 10763 bound_to 10752
  154.5416  135.5701  153.6848 H   0  0  0  0  0  0  0  0  0  0  0  0  # atno 10764 bound_to 10752
  152.9969  135.6252  154.2719 H   0  0  0  0  0  0  0  0  0  0  0  0  # atno 10765 bound_to 10752
  140.9768  133.7078  156.1617 H   0  0  0  0  0  0  0  0  0  0  0  0  # atno 11005 bound_to 11000
  146.3529  140.0503  142.8636 LP  0  0  0  0  0  0  0  0  0  0  0  0  # atno 17320 bound_to 7965
  145.1255  140.9487  143.4575 LP  0  0  0  0  0  0  0  0  0  0  0  0  # atno 17321 bound_to 7965
  140.6413  143.2204  151.6283 LP  0  0  0  0  0  0  0  0  0  0  0  0  # atno 17342 bound_to 10162
  139.5231  144.3144  152.0965 LP  0  0  0  0  0  0  0  0  0  0  0  0  # atno 17343 bound_to 10162
  157.1826  131.0396  151.2741 LP  0  0  0  0  0  0  0  0  0  0  0  0  # atno 17370 bound_to 10713
  157.4133  130.7397  149.6855 LP  0  0  0  0  0  0  0  0  0  0  0  0  # atno 17371 bound_to 10713
  140.7246  134.4321  157.5572 LP  0  0  0  0  0  0  0  0  0  0  0  0  # atno 17394 bound_to 11000
  139.8934  134.8732  156.2226 LP  0  0  0  0  0  0  0  0  0  0  0  0  # atno 17395 bound_to 11000

$$$$
