AV-unprocessed.smi:1102|AV-procd|sdf|4769|dock10
  -GOLD-   22720 3313D 1   1.00000     0.00000
 Structure written by MMmdl.
 39 40  0  0  0  0  0  0  0  0  1 V2000
  152.1027  141.1839  158.2605 C   0  0  0  0  0  0  0  0  0  0  0  0
  151.3613  141.2476  157.0075 N   0  0  0  0  0  0  0  0  0  0  0  0
  151.0713  142.5418  156.3986 C   0  0  0  0  0  0  0  0  0  0  0  0
  150.8760  140.0638  156.4058 C   0  0  0  0  0  0  0  0  0  0  0  0
  150.5813  138.9099  157.1737 C   0  0  0  0  0  0  0  0  0  0  0  0
  150.1007  137.7566  156.5249 C   0  0  0  0  0  0  0  0  0  0  0  0
  149.9313  137.7698  155.1274 C   0  0  0  0  0  0  0  0  0  0  0  0
  149.4240  136.5984  154.5029 N   0  0  0  0  0  0  0  0  0  0  0  0
  149.1537  135.4048  155.0586 C   0  0  0  0  0  0  0  0  0  0  0  0
  149.2469  135.1405  156.2570 O   0  0  0  0  0  0  0  0  0  0  0  0
  148.7422  134.5238  154.1360 N   0  0  0  0  0  0  0  0  0  0  0  0
  148.3885  133.1338  154.4026 C   0  0  0  0  0  0  0  0  0  0  0  0
  147.8668  132.4316  153.1378 C   0  0  2  0  0  0  0  0  0  0  0  0
  146.8045  133.2338  152.3874 C   0  0  0  0  0  0  0  0  0  0  0  0
  146.0614  132.1442  151.6494 C   0  0  0  0  0  0  0  0  0  0  0  0
  146.0458  131.0269  152.6872 C   0  0  0  0  0  0  0  0  0  0  0  0
  147.2315  131.1953  153.4590 O   0  0  0  0  0  0  0  0  0  0  0  0
  150.2397  138.9688  154.4431 C   0  0  0  0  0  0  0  0  0  0  0  0
  150.6993  140.0768  155.0619 N   0  0  0  0  0  0  0  0  0  0  0  0
  151.4928  140.7332  159.0441 H   0  0  0  0  0  0  0  0  0  0  0  0
  152.3968  142.1776  158.5985 H   0  0  0  0  0  0  0  0  0  0  0  0
  153.0109  140.5929  158.1399 H   0  0  0  0  0  0  0  0  0  0  0  0
  149.9947  142.7089  156.3492 H   0  0  0  0  0  0  0  0  0  0  0  0
  151.4764  142.5888  155.3873 H   0  0  0  0  0  0  0  0  0  0  0  0
  151.5098  143.3592  156.9710 H   0  0  0  0  0  0  0  0  0  0  0  0
  150.7125  138.8859  158.2448 H   0  0  0  0  0  0  0  0  0  0  0  0
  149.8681  136.8712  157.0984 H   0  0  0  0  0  0  0  0  0  0  0  0
  149.2104  136.6899  153.5206 H   0  0  0  0  0  0  0  0  0  0  0  0
  148.6877  134.8302  153.1759 H   0  0  0  0  0  0  0  0  0  0  0  0
  149.2348  132.5898  154.8258 H   0  0  0  0  0  0  0  0  0  0  0  0
  147.6105  133.1338  155.1663 H   0  0  0  0  0  0  0  0  0  0  0  0
  148.6927  132.2156  152.4577 H   0  0  0  0  0  0  0  0  0  0  0  0
  146.1318  133.7332  153.0864 H   0  0  0  0  0  0  0  0  0  0  0  0
  147.2298  133.9874  151.7240 H   0  0  0  0  0  0  0  0  0  0  0  0
  145.0633  132.4436  151.3288 H   0  0  0  0  0  0  0  0  0  0  0  0
  146.6269  131.8346  150.7694 H   0  0  0  0  0  0  0  0  0  0  0  0
  145.1855  131.1327  153.3491 H   0  0  0  0  0  0  0  0  0  0  0  0
  146.0031  130.0371  152.2324 H   0  0  0  0  0  0  0  0  0  0  0  0
  150.1015  139.0737  153.3785 H   0  0  0  0  0  0  0  0  0  0  0  0
  1  2  1  0  0  0  0
  1 20  1  0  0  0  0
  1 21  1  0  0  0  0
  1 22  1  0  0  0  0
  2  3  1  0  0  0  0
  2  4  1  0  0  0  0
  3 23  1  0  0  0  0
  3 24  1  0  0  0  0
  3 25  1  0  0  0  0
  4 19  1  0  0  0  0
  4  5  2  0  0  0  0
  5  6  1  0  0  0  0
  5 26  1  0  0  0  0
  6  7  2  0  0  0  0
  6 27  1  0  0  0  0
  7  8  1  0  0  0  0
  7 18  1  0  0  0  0
  8  9  1  0  0  0  0
  8 28  1  0  0  0  0
  9 10  2  0  0  0  0
  9 11  1  0  0  0  0
 11 12  1  0  0  0  0
 11 29  1  0  0  0  0
 12 13  1  0  0  0  0
 12 30  1  0  0  0  0
 12 31  1  0  0  0  0
 13 17  1  0  0  0  0
 13 14  1  0  0  0  0
 13 32  1  0  0  0  0
 14 15  1  0  0  0  0
 14 33  1  0  0  0  0
 14 34  1  0  0  0  0
 15 16  1  0  0  0  0
 15 35  1  0  0  0  0
 15 36  1  0  0  0  0
 16 17  1  0  0  0  0
 16 37  1  0  0  0  0
 16 38  1  0  0  0  0
 18 19  2  0  0  0  0
 18 39  1  0  0  0  0
M  END
> <s_m_source_file>
AV-unprocessed.smi

> <i_m_source_file_index>
1102

> <i_lp_mmshare_version>
43012

> <i_f3d_flags>
0

> <s_epik_input>
W0NIM11OKFtDSDNdKWMxW2NIXVtjSF1jKFtjSF1uMSlbTkhdQyg9TylbTkhdW0NIMl1bQ0BASF0yW0NIMl1bQ0gyXVtDSDJdTzI=

> <s_epik_cmdline>
J2VwaWtfcHl0aG9uJywgJy1waCcsICc3LjAnLCAnLXRuJywgJzgnLCAnLW1hJywgJzIwMCcsICctbWV0YWxfYmluZGluZycsICctaW1hZScsICc8aW5maWxlLm1hZT4nLCAnLW9tYWUnLCAnPG91dGZpbGUubWFlPic=

> <r_lp_tautomer_probability>
1

> <r_epik_Ionization_Penalty>
0.605145

> <r_epik_Ionization_Penalty_Charging>
0

> <r_epik_Ionization_Penalty_Neutral>
0.605145

> <r_epik_State_Penalty>
0.618734

> <r_epik_Charging_Adjusted_Penalty>
0.618734

> <i_epik_Tot_Q>
0

> <i_epik_Tot_abs_Q>
0

> <r_epik_Metal_State_Penalty>
0.302184

> <b_epik_Metal_Only>
0

> <s_lp_Force_Field>
OPLS_2005

> <r_lp_Energy>
22.0104

> <b_lp_Chiralities_Consistent>
1

> <s_lp_Variant>
AV-unprocessed.smi:1102-3

> <Gold.Version>
5.8.1

> <Gold.Id.Protein>
6NUR|6NUR_protein|mol2

> <Gold.PLP.Fitness>
38.8952

> <Gold.PLP.PLP>
-28.1968

> <Gold.PLP.part.hbond>
-3.0000

> <Gold.PLP.part.metal>
0.0000

> <Gold.PLP.part.buried>
-3.4819

> <Gold.PLP.part.nonpolar>
-22.0566

> <Gold.PLP.part.repulsive>
0.1949

> <Gold.PLP.ligand.clash>
0.0000

> <Gold.PLP.ligand.torsion>
0.4173

> <Gold.PLP.Chemscore.Hbond>
2.8420

> <Gold.PLP.Chemscore.CHOScore>
1.0000

> <Gold.PLP.Chemscore.Metal>
0.0000

> <Gold.Chemscore.Hbonds>
donor molecule, donor type, donor heavy atom, donor atom, acceptor molecule, acceptor atom, score
      L1  H     8    28       P1  7948  1.00
      L1  H    11    29       P1  7948  0.99
      P1  H  7989  7998       L1    19  0.85
      L1  C    18    39       P1  7957  1.00

> <Gold.PLP.Chemscore.Internal.Correction>
0.0070

> <Gold.Rescore>
     Score         DG    S(hbond)    S(metal)    S(lipo)     H(rot)  DE(clash)    DE(int)     intcor
     13.76     -15.60       1.77        0.00      62.40       1.21       0.02       1.82       ----

> <Gold.Chemscore.Fitness>
13.7597

> <Gold.Chemscore.DG>
-15.5974

> <Gold.Chemscore.ZeroCoef>
-5.4800

> <Gold.Chemscore.Hbond>
1.7742

> <Gold.Chemscore.Metal>
0.0000

> <Gold.Chemscore.Lipo>
62.4014

> <Gold.Chemscore.Internal_Hbond>
0.0000

> <Gold.Chemscore.DEClash>
0.0208

> <Gold.Chemscore.DEInternal>
1.8168

> <Gold.Chemscore.Rot>
1.2146

> <Gold.Chemscore.Internal.Correction>
   9.000000E+99

> <Gold.Chemscore.Hbonds>
donor molecule, donor type, donor heavy atom, donor atom, acceptor molecule, acceptor atom, score
      L1  H     8    28       P1  7948  0.97
      L1  H    11    29       P1  7948  0.37
      P1  H  7989  7998       L1    19  0.14

> <Gold.Chemscore.Hbond.Weighted>
-5.9257

> <Gold.Chemscore.Metal.Weighted>
-0.0000

> <Gold.Chemscore.Lipo.Weighted>
-7.3010

> <Gold.Chemscore.Internal_Hbond.Weighted>
0.0000

> <Gold.Chemscore.DEClash.Weighted>
0.0208

> <Gold.Chemscore.DEInternal.Weighted>
1.8168

> <Gold.Chemscore.Rot.Weighted>
3.1093

> <Gold.Chemscore.Internal.Correction.Weighted>
   9.000000E+99

> <Gold.Protein.RotatedTorsions>
[ 6907 6896 6895 6894 ] final -126.95 input  -60.11 | X-H torsion
[ 7974 7965 7964 7962 ] final  175.88 input  175.53 | X-H torsion
[ 8008 7997 7996 7995 ] final   47.26 input   59.86 | X-H torsion
[ 10167 10162 10161 10158 ] final   65.61 input  -65.29 | X-H torsion
[ 10718 10713 10712 10709 ] final -111.12 input   66.30 | X-H torsion
[ 10763 10752 10751 10750 ] final  -21.65 input  -60.55 | X-H torsion
[ 11005 11000 10999 10996 ] final   29.48 input  -57.11 | X-H torsion

> <Gold.Protein.ActiveResidues>
 VAL166  LYS551  ARG553  GLY616  TRP617  ASP618  TYR619  PRO620  LYS621  CYS622 
 ASP623  PHE694  ASN695  SER759  ASP760  ASP761  ALA762  ILE779  LEU786  VAL792 
 PHE793  MET794  SER795  GLU796  ALA797  LYS798  CYS799  TRP800  GLU811  SER814 

> <Gold.Protein.RotatedAtoms>
  150.9022  133.7103  159.2875 H   0  0  0  0  0  0  0  0  0  0  0  0  # atno 6907 bound_to 6896
  151.4618  135.1037  159.9736 H   0  0  0  0  0  0  0  0  0  0  0  0  # atno 6908 bound_to 6896
  152.4883  133.8384  159.7195 H   0  0  0  0  0  0  0  0  0  0  0  0  # atno 6909 bound_to 6896
  144.7194  140.0013  143.6440 H   0  0  0  0  0  0  0  0  0  0  0  0  # atno 7974 bound_to 7965
  155.3661  140.3421  155.4242 H   0  0  0  0  0  0  0  0  0  0  0  0  # atno 8008 bound_to 7997
  156.1687  140.1624  156.8519 H   0  0  0  0  0  0  0  0  0  0  0  0  # atno 8009 bound_to 7997
  154.5211  140.0766  156.8156 H   0  0  0  0  0  0  0  0  0  0  0  0  # atno 8010 bound_to 7997
  140.1094  144.4832  150.6987 H   0  0  0  0  0  0  0  0  0  0  0  0  # atno 10167 bound_to 10162
  156.0629  130.5851  150.8330 H   0  0  0  0  0  0  0  0  0  0  0  0  # atno 10718 bound_to 10713
  153.6395  135.6985  153.5246 H   0  0  0  0  0  0  0  0  0  0  0  0  # atno 10763 bound_to 10752
  153.2794  135.4190  155.1063 H   0  0  0  0  0  0  0  0  0  0  0  0  # atno 10764 bound_to 10752
  154.8503  135.3598  154.5939 H   0  0  0  0  0  0  0  0  0  0  0  0  # atno 10765 bound_to 10752
  140.3045  134.2719  155.7747 H   0  0  0  0  0  0  0  0  0  0  0  0  # atno 11005 bound_to 11000
  146.0333  139.3355  143.0742 LP  0  0  0  0  0  0  0  0  0  0  0  0  # atno 17320 bound_to 7965
  145.8425  140.9573  143.0791 LP  0  0  0  0  0  0  0  0  0  0  0  0  # atno 17321 bound_to 7965
  140.6934  143.2389  151.5069 LP  0  0  0  0  0  0  0  0  0  0  0  0  # atno 17342 bound_to 10162
  139.5627  144.2116  152.1717 LP  0  0  0  0  0  0  0  0  0  0  0  0  # atno 17343 bound_to 10162
  157.5650  131.0946  150.9502 LP  0  0  0  0  0  0  0  0  0  0  0  0  # atno 17370 bound_to 10713
  156.9731  130.5498  149.5291 LP  0  0  0  0  0  0  0  0  0  0  0  0  # atno 17371 bound_to 10713
  141.2121  133.7668  156.9816 LP  0  0  0  0  0  0  0  0  0  0  0  0  # atno 17394 bound_to 11000
  140.1079  134.9495  157.2022 LP  0  0  0  0  0  0  0  0  0  0  0  0  # atno 17395 bound_to 11000

$$$$
