AV-unprocessed.smi:1655|AV-procd|sdf|6645|dock2
  -GOLD-   22720 7343D 1   1.00000     0.00000
 Structure written by MMmdl.
 34 35  0  0  0  0  0  0  0  0  1 V2000
  153.8769  141.9000  160.5364 C   0  0  0  0  0  0  0  0  0  0  0  0
  152.9920  142.4840  159.4888 C   0  0  0  0  0  0  0  0  0  0  0  0
  152.1639  141.9268  158.5553 C   0  0  0  0  0  0  0  0  0  0  0  0
  151.6278  143.0591  157.8863 C   0  0  0  0  0  0  0  0  0  0  0  0
  150.7028  142.9049  156.8224 N   0  0  0  0  0  0  0  0  0  0  0  0
  150.3796  141.7724  156.1752 C   0  0  0  0  0  0  0  0  0  0  0  0
  150.8538  140.6603  156.4101 O   0  0  0  0  0  0  0  0  0  0  0  0
  149.4601  141.9995  155.2260 N   0  0  0  0  0  0  0  0  0  0  0  0
  148.8908  140.9816  154.3504 C   0  0  0  0  0  0  0  0  0  0  0  0
  147.6103  141.4803  153.6600 C   0  0  0  0  0  0  0  0  0  0  0  0
  146.8682  142.5424  154.4844 C   0  0  1  0  0  0  0  0  0  0  0  0
  145.8717  143.3723  153.6750 C   0  0  0  0  0  0  0  0  0  0  0  0
  144.8215  143.7819  154.6981 C   0  0  0  0  0  0  0  0  0  0  0  0
  145.1497  142.9396  155.9334 C   0  0  0  0  0  0  0  0  0  0  0  0
  146.0398  141.9377  155.4648 O   0  0  0  0  0  0  0  0  0  0  0  0
  152.0876  144.2042  158.3671 N   0  0  0  0  0  0  0  0  0  0  0  0
  152.9645  143.8414  159.3963 O   0  0  0  0  0  0  0  0  0  0  0  0
  153.5089  140.9249  160.8559 H   0  0  0  0  0  0  0  0  0  0  0  0
  153.9224  142.5465  161.4130 H   0  0  0  0  0  0  0  0  0  0  0  0
  154.8908  141.7717  160.1574 H   0  0  0  0  0  0  0  0  0  0  0  0
  151.9748  140.8778  158.3819 H   0  0  0  0  0  0  0  0  0  0  0  0
  150.2343  143.7473  156.5238 H   0  0  0  0  0  0  0  0  0  0  0  0
  149.1265  142.9439  155.1005 H   0  0  0  0  0  0  0  0  0  0  0  0
  149.6413  140.7254  153.6022 H   0  0  0  0  0  0  0  0  0  0  0  0
  148.6918  140.0692  154.9153 H   0  0  0  0  0  0  0  0  0  0  0  0
  147.8657  141.9047  152.6882 H   0  0  0  0  0  0  0  0  0  0  0  0
  146.9455  140.6383  153.4633 H   0  0  0  0  0  0  0  0  0  0  0  0
  147.5801  143.2048  154.9806 H   0  0  0  0  0  0  0  0  0  0  0  0
  146.3427  144.2257  153.1866 H   0  0  0  0  0  0  0  0  0  0  0  0
  145.4054  142.7601  152.9018 H   0  0  0  0  0  0  0  0  0  0  0  0
  144.8709  144.8467  154.9278 H   0  0  0  0  0  0  0  0  0  0  0  0
  143.8199  143.5644  154.3251 H   0  0  0  0  0  0  0  0  0  0  0  0
  145.6569  143.5443  156.6867 H   0  0  0  0  0  0  0  0  0  0  0  0
  144.2628  142.5000  156.3899 H   0  0  0  0  0  0  0  0  0  0  0  0
  1  2  1  0  0  0  0
  1 18  1  0  0  0  0
  1 19  1  0  0  0  0
  1 20  1  0  0  0  0
  2 17  1  0  0  0  0
  2  3  2  0  0  0  0
  3  4  1  0  0  0  0
  3 21  1  0  0  0  0
  4  5  1  0  0  0  0
  4 16  2  0  0  0  0
  5  6  1  0  0  0  0
  5 22  1  0  0  0  0
  6  7  2  0  0  0  0
  6  8  1  0  0  0  0
  8  9  1  0  0  0  0
  8 23  1  0  0  0  0
  9 10  1  0  0  0  0
  9 24  1  0  0  0  0
  9 25  1  0  0  0  0
 10 11  1  0  0  0  0
 10 26  1  0  0  0  0
 10 27  1  0  0  0  0
 11 15  1  0  0  0  0
 11 12  1  0  0  0  0
 11 28  1  0  0  0  0
 12 13  1  0  0  0  0
 12 29  1  0  0  0  0
 12 30  1  0  0  0  0
 13 14  1  0  0  0  0
 13 31  1  0  0  0  0
 13 32  1  0  0  0  0
 14 15  1  0  0  0  0
 14 33  1  0  0  0  0
 14 34  1  0  0  0  0
 16 17  1  0  0  0  0
M  END
> <s_m_source_file>
AV-unprocessed.smi

> <i_m_source_file_index>
1655

> <i_lp_mmshare_version>
43012

> <i_f3d_flags>
0

> <s_epik_input>
W0NIM11jMVtjSF1jKG5vMSlbTkhdQyg9TylbTkhdW0NIMl1bQ0gyXVtDQEBIXTJbQ0gyXVtDSDJdW0NIMl1PMg==

> <s_epik_cmdline>
J2VwaWtfcHl0aG9uJywgJy1waCcsICc3LjAnLCAnLXRuJywgJzgnLCAnLW1hJywgJzIwMCcsICctbWV0YWxfYmluZGluZycsICctaW1hZScsICc8aW5maWxlLm1hZT4nLCAnLW9tYWUnLCAnPG91dGZpbGUubWFlPic=

> <r_lp_tautomer_probability>
1

> <r_epik_Ionization_Penalty>
2.23964e-05

> <r_epik_Ionization_Penalty_Charging>
0

> <r_epik_Ionization_Penalty_Neutral>
2.23964e-05

> <r_epik_State_Penalty>
-0

> <r_epik_Charging_Adjusted_Penalty>
0

> <i_epik_Tot_Q>
0

> <i_epik_Tot_abs_Q>
0

> <r_epik_Metal_State_Penalty>
-0

> <b_epik_Metal_Only>
0

> <s_lp_Force_Field>
OPLS_2005

> <r_lp_Energy>
15.0992

> <b_lp_Chiralities_Consistent>
1

> <s_lp_Variant>
AV-unprocessed.smi:1655-2

> <Gold.Version>
5.8.1

> <Gold.Id.Protein>
6NUR|6NUR_protein|mol2

> <Gold.PLP.Fitness>
42.2324

> <Gold.PLP.PLP>
-37.3045

> <Gold.PLP.part.hbond>
-2.0000

> <Gold.PLP.part.metal>
0.0000

> <Gold.PLP.part.buried>
-7.8115

> <Gold.PLP.part.nonpolar>
-28.1824

> <Gold.PLP.part.repulsive>
0.4371

> <Gold.PLP.ligand.clash>
0.0000

> <Gold.PLP.ligand.torsion>
0.5439

> <Gold.PLP.Chemscore.Hbond>
2.0000

> <Gold.PLP.Chemscore.CHOScore>
0.0000

> <Gold.PLP.Chemscore.Metal>
0.0000

> <Gold.Chemscore.Hbonds>
donor molecule, donor type, donor heavy atom, donor atom, acceptor molecule, acceptor atom, score
      L1  H     5    22       P1  8028  1.00
      L1  H     8    23       P1  8028  1.00

> <Gold.PLP.Chemscore.Internal.Correction>
0.0158

> <Gold.Rescore>
     Score         DG    S(hbond)    S(metal)    S(lipo)     H(rot)  DE(clash)    DE(int)     intcor
     14.44     -16.26       1.96        0.00      70.00       1.55       0.06       1.77       ----

> <Gold.Chemscore.Fitness>
14.4367

> <Gold.Chemscore.DG>
-16.2642

> <Gold.Chemscore.ZeroCoef>
-5.4800

> <Gold.Chemscore.Hbond>
1.9649

> <Gold.Chemscore.Metal>
0.0000

> <Gold.Chemscore.Lipo>
70.0017

> <Gold.Chemscore.Internal_Hbond>
0.0000

> <Gold.Chemscore.DEClash>
0.0564

> <Gold.Chemscore.DEInternal>
1.7712

> <Gold.Chemscore.Rot>
1.5503

> <Gold.Chemscore.Internal.Correction>
   9.000000E+99

> <Gold.Chemscore.Hbonds>
donor molecule, donor type, donor heavy atom, donor atom, acceptor molecule, acceptor atom, score
      L1  H     5    22       P1  8028  0.98
      L1  H     8    23       P1  8028  0.98

> <Gold.Chemscore.Hbond.Weighted>
-6.5627

> <Gold.Chemscore.Metal.Weighted>
-0.0000

> <Gold.Chemscore.Lipo.Weighted>
-8.1902

> <Gold.Chemscore.Internal_Hbond.Weighted>
0.0000

> <Gold.Chemscore.DEClash.Weighted>
0.0564

> <Gold.Chemscore.DEInternal.Weighted>
1.7712

> <Gold.Chemscore.Rot.Weighted>
3.9687

> <Gold.Chemscore.Internal.Correction.Weighted>
   9.000000E+99

> <Gold.Protein.RotatedTorsions>
[ 6907 6896 6895 6894 ] final -176.25 input  -60.11 | X-H torsion
[ 7974 7965 7964 7962 ] final  -54.11 input  175.53 | X-H torsion
[ 8008 7997 7996 7995 ] final -165.81 input   59.86 | X-H torsion
[ 10167 10162 10161 10158 ] final -107.79 input  -65.29 | X-H torsion
[ 10718 10713 10712 10709 ] final  -84.89 input   66.30 | X-H torsion
[ 10763 10752 10751 10750 ] final   90.63 input  -60.55 | X-H torsion
[ 11005 11000 10999 10996 ] final   90.71 input  -57.11 | X-H torsion

> <Gold.Protein.ActiveResidues>
 VAL166  LYS551  ARG553  GLY616  TRP617  ASP618  TYR619  PRO620  LYS621  CYS622 
 ASP623  PHE694  ASN695  SER759  ASP760  ASP761  ALA762  ILE779  LEU786  VAL792 
 PHE793  MET794  SER795  GLU796  ALA797  LYS798  CYS799  TRP800  GLU811  SER814 

> <Gold.Protein.RotatedAtoms>
  151.6017  133.3355  159.3048 H   0  0  0  0  0  0  0  0  0  0  0  0  # atno 6907 bound_to 6896
  150.8204  134.7412  159.6778 H   0  0  0  0  0  0  0  0  0  0  0  0  # atno 6908 bound_to 6896
  152.4298  134.5806  159.9998 H   0  0  0  0  0  0  0  0  0  0  0  0  # atno 6909 bound_to 6896
  145.8893  140.8083  142.9800 H   0  0  0  0  0  0  0  0  0  0  0  0  # atno 7974 bound_to 7965
  155.8551  140.0969  157.1650 H   0  0  0  0  0  0  0  0  0  0  0  0  # atno 8008 bound_to 7997
  154.3987  140.1376  156.3953 H   0  0  0  0  0  0  0  0  0  0  0  0  # atno 8009 bound_to 7997
  155.7919  140.3455  155.5356 H   0  0  0  0  0  0  0  0  0  0  0  0  # atno 8010 bound_to 7997
  140.1731  143.4026  152.1339 H   0  0  0  0  0  0  0  0  0  0  0  0  # atno 10167 bound_to 10162
  156.0002  130.4713  150.4479 H   0  0  0  0  0  0  0  0  0  0  0  0  # atno 10718 bound_to 10713
  153.1996  135.4427  155.0250 H   0  0  0  0  0  0  0  0  0  0  0  0  # atno 10763 bound_to 10752
  154.8139  135.3306  154.7233 H   0  0  0  0  0  0  0  0  0  0  0  0  # atno 10764 bound_to 10752
  153.7679  135.6987  153.4967 H   0  0  0  0  0  0  0  0  0  0  0  0  # atno 10765 bound_to 10752
  139.8851  134.8630  156.3324 H   0  0  0  0  0  0  0  0  0  0  0  0  # atno 11005 bound_to 11000
  144.6730  140.1504  143.7430 LP  0  0  0  0  0  0  0  0  0  0  0  0  # atno 17320 bound_to 7965
  145.8928  139.2385  143.1539 LP  0  0  0  0  0  0  0  0  0  0  0  0  # atno 17321 bound_to 7965
  139.5329  144.7178  151.4994 LP  0  0  0  0  0  0  0  0  0  0  0  0  # atno 17342 bound_to 10162
  140.6569  143.8581  150.6845 LP  0  0  0  0  0  0  0  0  0  0  0  0  # atno 17343 bound_to 10162
  157.2515  131.0547  151.2376 LP  0  0  0  0  0  0  0  0  0  0  0  0  # atno 17370 bound_to 10713
  157.3524  130.7089  149.6449 LP  0  0  0  0  0  0  0  0  0  0  0  0  # atno 17371 bound_to 10713
  140.9714  133.7325  156.0540 LP  0  0  0  0  0  0  0  0  0  0  0  0  # atno 17394 bound_to 11000
  140.7866  134.3665  157.5475 LP  0  0  0  0  0  0  0  0  0  0  0  0  # atno 17395 bound_to 11000

$$$$
