AV-unprocessed.smi:2807|AV-procd|sdf|10822|dock8
  -GOLD-   2272015263D 1   1.00000     0.00000
 Structure written by MMmdl.
 31 32  0  0  0  0  0  0  0  0  2 V2000
  152.8981  140.1043  158.1159 O   0  0  0  0  0  0  0  0  0  0  0  0
  151.9328  140.8694  158.0089 C   0  0  0  0  0  0  0  0  0  0  0  0
  151.6950  142.0641  158.6217 N   0  5  0  0  0  0  0  0  0  0  0  0
  152.6587  143.1686  158.6923 C   0  0  2  0  0  0  0  0  0  0  0  0
  152.7474  143.6765  160.1394 C   0  0  0  0  0  0  0  0  0  0  0  0
  151.6595  144.7549  160.3005 C   0  0  0  0  0  0  0  0  0  0  0  0
  151.1697  145.1041  158.8867 C   0  0  0  0  0  0  0  0  0  0  0  0
  152.1539  144.4118  157.9353 C   0  0  2  0  0  0  0  0  0  0  0  0
  151.5869  144.1390  156.6679 O   0  0  0  0  0  0  0  0  0  0  0  0
  150.7802  140.4701  157.0631 C   0  0  0  0  0  0  0  0  0  0  0  0
  149.6286  140.4377  157.7425 F   0  0  0  0  0  0  0  0  0  0  0  0
  150.6570  141.4038  156.1161 F   0  0  0  0  0  0  0  0  0  0  0  0
  151.0660  139.1259  156.3946 C   0  0  0  0  0  0  0  0  0  0  0  0
  152.1763  138.9737  155.5328 C   0  0  0  0  0  0  0  0  0  0  0  0
  152.4122  137.7144  154.9492 C   0  0  0  0  0  0  0  0  0  0  0  0
  151.5337  136.6548  155.2440 C   0  0  0  0  0  0  0  0  0  0  0  0
  150.4543  136.9036  156.1143 C   0  0  0  0  0  0  0  0  0  0  0  0
  150.2187  138.1070  156.6779 N   0  0  0  0  0  0  0  0  0  0  0  0
  153.6488  142.8837  158.3327 H   0  0  0  0  0  0  0  0  0  0  0  0
  152.6574  142.8800  160.8798 H   0  0  0  0  0  0  0  0  0  0  0  0
  153.7242  144.1373  160.2917 H   0  0  0  0  0  0  0  0  0  0  0  0
  150.8301  144.3858  160.9059 H   0  0  0  0  0  0  0  0  0  0  0  0
  152.0630  145.6321  160.8076 H   0  0  0  0  0  0  0  0  0  0  0  0
  150.1582  144.7162  158.7463 H   0  0  0  0  0  0  0  0  0  0  0  0
  151.1271  146.1804  158.7174 H   0  0  0  0  0  0  0  0  0  0  0  0
  153.0048  145.0759  157.7775 H   0  0  0  0  0  0  0  0  0  0  0  0
  150.7427  144.5619  156.6297 H   0  0  0  0  0  0  0  0  0  0  0  0
  152.8375  139.8036  155.3313 H   0  0  0  0  0  0  0  0  0  0  0  0
  153.2532  137.5636  154.2887 H   0  0  0  0  0  0  0  0  0  0  0  0
  151.6838  135.6750  154.8158 H   0  0  0  0  0  0  0  0  0  0  0  0
  149.7602  136.1146  156.3634 H   0  0  0  0  0  0  0  0  0  0  0  0
  1  2  2  0  0  0  0
  2  3  1  0  0  0  0
  2 10  1  0  0  0  0
  3  4  1  0  0  0  0
  4  8  1  0  0  0  0
  4  5  1  0  0  0  0
  4 19  1  0  0  0  0
  5  6  1  0  0  0  0
  5 20  1  0  0  0  0
  5 21  1  0  0  0  0
  6  7  1  0  0  0  0
  6 22  1  0  0  0  0
  6 23  1  0  0  0  0
  7  8  1  0  0  0  0
  7 24  1  0  0  0  0
  7 25  1  0  0  0  0
  8  9  1  0  0  0  0
  8 26  1  0  0  0  0
  9 27  1  0  0  0  0
 10 11  1  0  0  0  0
 10 12  1  0  0  0  0
 10 13  1  0  0  0  0
 13 18  1  0  0  0  0
 13 14  2  0  0  0  0
 14 15  1  0  0  0  0
 14 28  1  0  0  0  0
 15 16  2  0  0  0  0
 15 29  1  0  0  0  0
 16 17  1  0  0  0  0
 16 30  1  0  0  0  0
 17 18  2  0  0  0  0
 17 31  1  0  0  0  0
M  CHG  1   3  -1
M  END
> <s_m_source_file>
AV-unprocessed.smi

> <i_m_source_file_index>
2807

> <i_lp_mmshare_version>
43012

> <i_f3d_flags>
0

> <s_epik_input>
bjFbY0hdW2NIXVtjSF1bY0hdYzFDKEYpKEYpQyg9TylbTkhdW0NAQEhdMltDSDJdW0NIMl1bQ0gyXVtDQEhdMltPSF0=

> <s_epik_cmdline>
J2VwaWtfcHl0aG9uJywgJy1waCcsICc3LjAnLCAnLXRuJywgJzgnLCAnLW1hJywgJzIwMCcsICctbWV0YWxfYmluZGluZycsICctaW1hZScsICc8aW5maWxlLm1hZT4nLCAnLW9tYWUnLCAnPG91dGZpbGUubWFlPic=

> <r_lp_tautomer_probability>
1

> <r_epik_Ionization_Penalty>
5.72231

> <r_epik_Ionization_Penalty_Charging>
5.72231

> <r_epik_Ionization_Penalty_Neutral>
5.49816e-06

> <r_epik_State_Penalty>
5.72227

> <r_epik_Charging_Adjusted_Penalty>
11.4446

> <i_epik_Tot_Q>
-1

> <i_epik_Tot_abs_Q>
1

> <r_epik_Metal_State_Penalty>
1.70075

> <b_epik_Metal_Only>
1

> <s_lp_Force_Field>
OPLS_2005

> <r_lp_Energy>
37.6883

> <b_lp_Chiralities_Consistent>
1

> <s_lp_Variant>
AV-unprocessed.smi:2807-7

> <Gold.Version>
5.8.1

> <Gold.Id.Protein>
6NUR|6NUR_protein|mol2

> <Gold.PLP.Fitness>
44.2483

> <Gold.PLP.PLP>
-40.3080

> <Gold.PLP.part.hbond>
-2.0000

> <Gold.PLP.part.metal>
0.0000

> <Gold.PLP.part.buried>
-4.2308

> <Gold.PLP.part.nonpolar>
-34.6254

> <Gold.PLP.part.repulsive>
0.0116

> <Gold.PLP.ligand.clash>
0.0000

> <Gold.PLP.ligand.torsion>
0.5655

> <Gold.PLP.Chemscore.Hbond>
1.6661

> <Gold.PLP.Chemscore.CHOScore>
0.0000

> <Gold.PLP.Chemscore.Metal>
0.0000

> <Gold.Chemscore.Hbonds>
donor molecule, donor type, donor heavy atom, donor atom, acceptor molecule, acceptor atom, score
      L1  H     9    27       P1  8028  0.89
      P1  H  7997  8008       L1     1  0.89

> <Gold.PLP.Chemscore.Internal.Correction>
0.0729

> <Gold.Rescore>
     Score         DG    S(hbond)    S(metal)    S(lipo)     H(rot)  DE(clash)    DE(int)     intcor
     16.12     -17.94       1.97        0.00      93.95       2.00       0.13       1.69       ----

> <Gold.Chemscore.Fitness>
16.1241

> <Gold.Chemscore.DG>
-17.9436

> <Gold.Chemscore.ZeroCoef>
-5.4800

> <Gold.Chemscore.Hbond>
1.9709

> <Gold.Chemscore.Metal>
0.0000

> <Gold.Chemscore.Lipo>
93.9456

> <Gold.Chemscore.Internal_Hbond>
0.0000

> <Gold.Chemscore.DEClash>
0.1271

> <Gold.Chemscore.DEInternal>
1.6924

> <Gold.Chemscore.Rot>
1.9964

> <Gold.Chemscore.Internal.Correction>
   9.000000E+99

> <Gold.Chemscore.Hbonds>
donor molecule, donor type, donor heavy atom, donor atom, acceptor molecule, acceptor atom, score
      L1  H     9    27       P1  8028  0.80
      P1  H  7997  8008       L1     1  0.82

> <Gold.Chemscore.Hbond.Weighted>
-6.5827

> <Gold.Chemscore.Metal.Weighted>
-0.0000

> <Gold.Chemscore.Lipo.Weighted>
-10.9916

> <Gold.Chemscore.Internal_Hbond.Weighted>
0.0000

> <Gold.Chemscore.DEClash.Weighted>
0.1271

> <Gold.Chemscore.DEInternal.Weighted>
1.6924

> <Gold.Chemscore.Rot.Weighted>
5.1108

> <Gold.Chemscore.Internal.Correction.Weighted>
   9.000000E+99

> <Gold.Protein.RotatedTorsions>
[ 6907 6896 6895 6894 ] final  -85.60 input  -60.11 | X-H torsion
[ 7974 7965 7964 7962 ] final   15.56 input  175.53 | X-H torsion
[ 8008 7997 7996 7995 ] final  -65.60 input   59.86 | X-H torsion
[ 10167 10162 10161 10158 ] final   73.10 input  -65.29 | X-H torsion
[ 10718 10713 10712 10709 ] final  175.35 input   66.30 | X-H torsion
[ 10763 10752 10751 10750 ] final  -52.41 input  -60.55 | X-H torsion
[ 11005 11000 10999 10996 ] final   17.66 input  -57.11 | X-H torsion

> <Gold.Protein.ActiveResidues>
 VAL166  LYS551  ARG553  GLY616  TRP617  ASP618  TYR619  PRO620  LYS621  CYS622 
 ASP623  PHE694  ASN695  SER759  ASP760  ASP761  ALA762  ILE779  LEU786  VAL792 
 PHE793  MET794  SER795  GLU796  ALA797  LYS798  CYS799  TRP800  GLU811  SER814 

> <Gold.Protein.RotatedAtoms>
  150.6869  134.3180  159.4773 H   0  0  0  0  0  0  0  0  0  0  0  0  # atno 6907 bound_to 6896
  152.1058  134.9307  160.0577 H   0  0  0  0  0  0  0  0  0  0  0  0  # atno 6908 bound_to 6896
  152.0568  133.4009  159.4437 H   0  0  0  0  0  0  0  0  0  0  0  0  # atno 6909 bound_to 6896
  146.2275  139.8876  142.8560 H   0  0  0  0  0  0  0  0  0  0  0  0  # atno 7974 bound_to 7965
  154.4682  140.0930  156.7075 H   0  0  0  0  0  0  0  0  0  0  0  0  # atno 8008 bound_to 7997
  155.4799  140.3467  155.4320 H   0  0  0  0  0  0  0  0  0  0  0  0  # atno 8009 bound_to 7997
  156.0993  140.1418  156.9477 H   0  0  0  0  0  0  0  0  0  0  0  0  # atno 8010 bound_to 7997
  140.0281  144.5487  150.7529 H   0  0  0  0  0  0  0  0  0  0  0  0  # atno 10167 bound_to 10162
  156.9361  130.9986  151.2977 H   0  0  0  0  0  0  0  0  0  0  0  0  # atno 10718 bound_to 10713
  154.1424  135.6503  153.4945 H   0  0  0  0  0  0  0  0  0  0  0  0  # atno 10763 bound_to 10752
  153.0162  135.5318  154.6892 H   0  0  0  0  0  0  0  0  0  0  0  0  # atno 10764 bound_to 10752
  154.6157  135.2959  155.0354 H   0  0  0  0  0  0  0  0  0  0  0  0  # atno 10765 bound_to 10752
  140.4335  134.1396  155.7683 H   0  0  0  0  0  0  0  0  0  0  0  0  # atno 11005 bound_to 11000
  145.2450  141.0023  143.3914 LP  0  0  0  0  0  0  0  0  0  0  0  0  # atno 17320 bound_to 7965
  144.9421  139.4177  143.6444 LP  0  0  0  0  0  0  0  0  0  0  0  0  # atno 17321 bound_to 7965
  140.7314  143.2694  151.3938 LP  0  0  0  0  0  0  0  0  0  0  0  0  # atno 17342 bound_to 10162
  139.6094  144.1129  152.2283 LP  0  0  0  0  0  0  0  0  0  0  0  0  # atno 17343 bound_to 10162
  157.5815  130.8380  149.8529 LP  0  0  0  0  0  0  0  0  0  0  0  0  # atno 17370 bound_to 10713
  156.0425  130.3735  150.1399 LP  0  0  0  0  0  0  0  0  0  0  0  0  # atno 17371 bound_to 10713
  141.1736  133.8560  157.1494 LP  0  0  0  0  0  0  0  0  0  0  0  0  # atno 17394 bound_to 11000
  140.0118  134.9985  157.0411 LP  0  0  0  0  0  0  0  0  0  0  0  0  # atno 17395 bound_to 11000

$$$$
