AV-unprocessed.smi:3116|AV-procd|sdf|11867|dock1
  -GOLD-   2272017253D 1   1.00000     0.00000
 Structure written by MMmdl.
 34 34  0  0  0  0  0  0  0  0  2 V2000
  146.4994  138.5607  151.6919 C   0  0  0  0  0  0  0  0  0  0  0  0
  146.4444  138.1075  153.1581 C   0  0  1  0  0  0  0  0  0  0  0  0
  146.5676  136.6321  153.2298 N   0  3  0  0  0  0  0  0  0  0  0  0
  145.6924  135.8612  152.3117 C   0  0  2  0  0  0  0  0  0  0  0  0
  144.2269  136.1845  152.6488 C   0  0  0  0  0  0  0  0  0  0  0  0
  146.0041  134.3426  152.4097 C   0  0  1  0  0  0  0  0  0  0  0  0
  145.5741  133.7193  153.7519 C   0  0  0  0  0  0  0  0  0  0  0  0
  145.4100  133.5975  151.3053 N   0  0  0  0  0  0  0  0  0  0  0  0
  146.0317  132.7300  150.4303 C   0  0  0  0  0  0  0  0  0  0  0  0
  145.0833  132.2800  149.5574 C   0  0  0  0  0  0  0  0  0  0  0  0
  143.8934  132.9316  149.9851 C   0  0  0  0  0  0  0  0  0  0  0  0
  144.0919  133.7197  151.0292 N   0  0  0  0  0  0  0  0  0  0  0  0
  147.5433  138.8069  153.9704 C   0  0  0  0  0  0  0  0  0  0  0  0
  148.8084  138.5613  153.6206 N   0  0  0  0  0  0  0  0  0  0  0  0
  147.2563  139.5484  154.9085 O   0  0  0  0  0  0  0  0  0  0  0  0
  146.3862  139.6421  151.6061 H   0  0  0  0  0  0  0  0  0  0  0  0
  145.6956  138.1036  151.1135 H   0  0  0  0  0  0  0  0  0  0  0  0
  147.4445  138.2862  151.2211 H   0  0  0  0  0  0  0  0  0  0  0  0
  145.4719  138.3975  153.5569 H   0  0  0  0  0  0  0  0  0  0  0  0
  147.5230  136.3856  153.0158 H   0  0  0  0  0  0  0  0  0  0  0  0
  145.8668  136.1892  151.2855 H   0  0  0  0  0  0  0  0  0  0  0  0
  143.5396  135.7408  151.9290 H   0  0  0  0  0  0  0  0  0  0  0  0
  144.0485  137.2602  152.6314 H   0  0  0  0  0  0  0  0  0  0  0  0
  143.9570  135.8206  153.6406 H   0  0  0  0  0  0  0  0  0  0  0  0
  147.0849  134.2156  152.3267 H   0  0  0  0  0  0  0  0  0  0  0  0
  146.1437  134.1268  154.5864 H   0  0  0  0  0  0  0  0  0  0  0  0
  145.7400  132.6414  153.7526 H   0  0  0  0  0  0  0  0  0  0  0  0
  144.5164  133.8918  153.9538 H   0  0  0  0  0  0  0  0  0  0  0  0
  147.0864  132.5076  150.4990 H   0  0  0  0  0  0  0  0  0  0  0  0
  145.2179  131.5875  148.7396 H   0  0  0  0  0  0  0  0  0  0  0  0
  142.8989  132.8573  149.5703 H   0  0  0  0  0  0  0  0  0  0  0  0
  149.5694  138.9981  154.1207 H   0  0  0  0  0  0  0  0  0  0  0  0
  149.0012  137.9372  152.8500 H   0  0  0  0  0  0  0  0  0  0  0  0
  146.3702  136.3512  154.1799 H   0  0  0  0  0  0  0  0  0  0  0  0
  1  2  1  0  0  0  0
  1 16  1  0  0  0  0
  1 17  1  0  0  0  0
  1 18  1  0  0  0  0
  2  3  1  0  0  0  0
  2 13  1  0  0  0  0
  2 19  1  0  0  0  0
  3  4  1  0  0  0  0
  3 20  1  0  0  0  0
  3 34  1  0  0  0  0
  4  5  1  0  0  0  0
  4  6  1  0  0  0  0
  4 21  1  0  0  0  0
  5 22  1  0  0  0  0
  5 23  1  0  0  0  0
  5 24  1  0  0  0  0
  6  7  1  0  0  0  0
  6  8  1  0  0  0  0
  6 25  1  0  0  0  0
  7 26  1  0  0  0  0
  7 27  1  0  0  0  0
  7 28  1  0  0  0  0
  8 12  1  0  0  0  0
  8  9  1  0  0  0  0
  9 10  2  0  0  0  0
  9 29  1  0  0  0  0
 10 11  1  0  0  0  0
 10 30  1  0  0  0  0
 11 12  2  0  0  0  0
 11 31  1  0  0  0  0
 13 14  1  0  0  0  0
 13 15  2  0  0  0  0
 14 32  1  0  0  0  0
 14 33  1  0  0  0  0
M  CHG  1   3   1
M  END
> <s_m_source_file>
AV-unprocessed.smi

> <i_m_source_file_index>
3116

> <i_lp_mmshare_version>
43012

> <i_f3d_flags>
0

> <s_epik_input>
W05IMl1DKD1PKVtDQEhdKFtDSDNdKVtOSF1bQ0BIXShbQ0gzXSlbQ0BIXShbQ0gzXSluMVtjSF1bY0hdW2NIXW4x

> <s_epik_cmdline>
J2VwaWtfcHl0aG9uJywgJy1waCcsICc3LjAnLCAnLXRuJywgJzgnLCAnLW1hJywgJzIwMCcsICctbWV0YWxfYmluZGluZycsICctaW1hZScsICc8aW5maWxlLm1hZT4nLCAnLW9tYWUnLCAnPG91dGZpbGUubWFlPic=

> <r_lp_tautomer_probability>
1

> <r_epik_Ionization_Penalty>
0.15658

> <r_epik_Ionization_Penalty_Charging>
0.156568

> <r_epik_Ionization_Penalty_Neutral>
1.19778e-05

> <r_epik_State_Penalty>
0.145866

> <r_epik_Charging_Adjusted_Penalty>
0.302434

> <i_epik_Tot_Q>
1

> <i_epik_Tot_abs_Q>
1

> <r_epik_Metal_State_Penalty>
0.146064

> <b_epik_Metal_Only>
0

> <s_lp_Force_Field>
OPLS_2005

> <r_lp_Energy>
9.77371

> <b_lp_Chiralities_Consistent>
1

> <s_lp_Variant>
AV-unprocessed.smi:3116-6

> <Gold.Version>
5.8.1

> <Gold.Id.Protein>
6NUR|6NUR_protein|mol2

> <Gold.PLP.Fitness>
42.0396

> <Gold.PLP.PLP>
-27.7220

> <Gold.PLP.part.hbond>
-2.9141

> <Gold.PLP.part.metal>
0.0000

> <Gold.PLP.part.buried>
-2.2198

> <Gold.PLP.part.nonpolar>
-24.1000

> <Gold.PLP.part.repulsive>
0.3734

> <Gold.PLP.ligand.clash>
0.0000

> <Gold.PLP.ligand.torsion>
0.3928

> <Gold.PLP.Chemscore.Hbond>
3.0000

> <Gold.PLP.Chemscore.CHOScore>
1.9864

> <Gold.PLP.Chemscore.Metal>
0.0000

> <Gold.Chemscore.Hbonds>
donor molecule, donor type, donor heavy atom, donor atom, acceptor molecule, acceptor atom, score
      L1  H     3    20       P1  7948  2.00
      L1  H    14    33       P1  7948  1.00
      L1  C     9    29       P1 10747  1.00
      L1  C    11    31       P1 10186  1.00

> <Gold.PLP.Chemscore.Internal.Correction>
0.1439

> <Gold.Rescore>
     Score         DG    S(hbond)    S(metal)    S(lipo)     H(rot)  DE(clash)    DE(int)     intcor
     12.55     -12.98       1.99        0.00      60.96       2.45       0.05       0.39       ----

> <Gold.Chemscore.Fitness>
12.5453

> <Gold.Chemscore.DG>
-12.9848

> <Gold.Chemscore.ZeroCoef>
-5.4800

> <Gold.Chemscore.Hbond>
1.9867

> <Gold.Chemscore.Metal>
0.0000

> <Gold.Chemscore.Lipo>
60.9596

> <Gold.Chemscore.Internal_Hbond>
0.0000

> <Gold.Chemscore.DEClash>
0.0515

> <Gold.Chemscore.DEInternal>
0.3880

> <Gold.Chemscore.Rot>
2.4465

> <Gold.Chemscore.Internal.Correction>
   9.000000E+99

> <Gold.Chemscore.Hbonds>
donor molecule, donor type, donor heavy atom, donor atom, acceptor molecule, acceptor atom, score
      L1  H     3    20       P1  7948  0.96
      L1  H    14    33       P1  7948  0.98

> <Gold.Chemscore.Hbond.Weighted>
-6.6356

> <Gold.Chemscore.Metal.Weighted>
-0.0000

> <Gold.Chemscore.Lipo.Weighted>
-7.1323

> <Gold.Chemscore.Internal_Hbond.Weighted>
0.0000

> <Gold.Chemscore.DEClash.Weighted>
0.0515

> <Gold.Chemscore.DEInternal.Weighted>
0.3880

> <Gold.Chemscore.Rot.Weighted>
6.2631

> <Gold.Chemscore.Internal.Correction.Weighted>
   9.000000E+99

> <Gold.Protein.RotatedTorsions>
[ 6907 6896 6895 6894 ] final -124.37 input  -60.11 | X-H torsion
[ 7974 7965 7964 7962 ] final  132.66 input  175.53 | X-H torsion
[ 8008 7997 7996 7995 ] final -136.08 input   59.86 | X-H torsion
[ 10167 10162 10161 10158 ] final -140.70 input  -65.29 | X-H torsion
[ 10718 10713 10712 10709 ] final   37.37 input   66.30 | X-H torsion
[ 10763 10752 10751 10750 ] final -152.12 input  -60.55 | X-H torsion
[ 11005 11000 10999 10996 ] final   76.07 input  -57.11 | X-H torsion

> <Gold.Protein.ActiveResidues>
 VAL166  LYS551  ARG553  GLY616  TRP617  ASP618  TYR619  PRO620  LYS621  CYS622 
 ASP623  PHE694  ASN695  SER759  ASP760  ASP761  ALA762  ILE779  LEU786  VAL792 
 PHE793  MET794  SER795  GLU796  ALA797  LYS798  CYS799  TRP800  GLU811  SER814 

> <Gold.Protein.RotatedAtoms>
  150.8761  133.7436  159.2945 H   0  0  0  0  0  0  0  0  0  0  0  0  # atno 6907 bound_to 6896
  151.5033  135.1061  159.9844 H   0  0  0  0  0  0  0  0  0  0  0  0  # atno 6908 bound_to 6896
  152.4729  133.8025  159.7016 H   0  0  0  0  0  0  0  0  0  0  0  0  # atno 6909 bound_to 6896
  144.9945  139.4373  143.5323 H   0  0  0  0  0  0  0  0  0  0  0  0  # atno 7974 bound_to 7965
  155.3893  140.0499  157.3041 H   0  0  0  0  0  0  0  0  0  0  0  0  # atno 8008 bound_to 7997
  154.5044  140.2169  155.9242 H   0  0  0  0  0  0  0  0  0  0  0  0  # atno 8009 bound_to 7997
  156.1507  140.3136  155.8649 H   0  0  0  0  0  0  0  0  0  0  0  0  # atno 8010 bound_to 7997
  139.8256  143.7515  152.2666 H   0  0  0  0  0  0  0  0  0  0  0  0  # atno 10167 bound_to 10162
  157.3461  130.7574  149.6946 H   0  0  0  0  0  0  0  0  0  0  0  0  # atno 10718 bound_to 10713
  154.8015  135.3244  154.7539 H   0  0  0  0  0  0  0  0  0  0  0  0  # atno 10763 bound_to 10752
  153.8206  135.6888  153.4832 H   0  0  0  0  0  0  0  0  0  0  0  0  # atno 10764 bound_to 10752
  153.1734  135.4614  154.9876 H   0  0  0  0  0  0  0  0  0  0  0  0  # atno 10765 bound_to 10752
  139.9315  134.7570  156.1349 H   0  0  0  0  0  0  0  0  0  0  0  0  # atno 11005 bound_to 11000
  146.3439  139.9296  142.8755 LP  0  0  0  0  0  0  0  0  0  0  0  0  # atno 17320 bound_to 7965
  145.2239  140.9946  143.4029 LP  0  0  0  0  0  0  0  0  0  0  0  0  # atno 17321 bound_to 7965
  139.7707  144.7477  151.0229 LP  0  0  0  0  0  0  0  0  0  0  0  0  # atno 17342 bound_to 10162
  140.7810  143.4648  151.0227 LP  0  0  0  0  0  0  0  0  0  0  0  0  # atno 17343 bound_to 10162
  155.9714  130.4154  150.4178 LP  0  0  0  0  0  0  0  0  0  0  0  0  # atno 17370 bound_to 10713
  157.2233  131.0487  151.2534 LP  0  0  0  0  0  0  0  0  0  0  0  0  # atno 17371 bound_to 10713
  141.0906  133.6716  156.2532 LP  0  0  0  0  0  0  0  0  0  0  0  0  # atno 17394 bound_to 11000
  140.6190  134.5381  157.5545 LP  0  0  0  0  0  0  0  0  0  0  0  0  # atno 17395 bound_to 11000

$$$$
