AV-unprocessed.smi:3128|AV-procd|sdf|11919|dock10
  -GOLD-   2272017303D 1   1.00000     0.00000
 Structure written by MMmdl.
 40 40  0  0  0  0  0  0  0  0  2 V2000
  144.7692  135.0621  150.5156 C   0  0  0  0  0  0  0  0  0  0  0  0
  144.1507  135.0454  151.9271 C   0  0  0  0  0  0  0  0  0  0  0  0
  143.1505  133.8799  152.0334 C   0  0  0  0  0  0  0  0  0  0  0  0
  143.5118  136.4088  152.3033 C   0  0  1  0  0  0  0  0  0  0  0  0
  142.9734  136.4557  153.7445 C   0  0  0  0  0  0  0  0  0  0  0  0
  144.4888  137.4865  152.1445 N   0  0  0  0  0  0  0  0  0  0  0  0
  145.7380  137.4990  152.6359 C   0  0  0  0  0  0  0  0  0  0  0  0
  146.2208  136.5766  153.2936 O   0  0  0  0  0  0  0  0  0  0  0  0
  146.5690  138.7429  152.3173 C   0  0  0  0  0  0  0  0  0  0  0  0
  147.9900  138.5741  152.6838 N   0  3  0  0  0  0  0  0  0  0  0  0
  148.3187  139.0487  154.0417 C   0  0  0  0  0  0  0  0  0  0  0  0
  148.7458  140.5233  154.0257 C   0  0  0  0  0  0  0  0  0  0  0  0
  149.8188  140.7795  154.9670 N   0  0  0  0  0  0  0  0  0  0  0  0
  149.8692  141.7147  155.9795 C   0  0  0  0  0  0  0  0  0  0  0  0
  151.0807  141.5807  156.5953 C   0  0  0  0  0  0  0  0  0  0  0  0
  151.7084  140.5220  155.8810 C   0  0  0  0  0  0  0  0  0  0  0  0
  150.9501  140.0446  154.9067 N   0  0  0  0  0  0  0  0  0  0  0  0
  144.0204  135.3028  149.7600 H   0  0  0  0  0  0  0  0  0  0  0  0
  145.1946  134.0908  150.2616 H   0  0  0  0  0  0  0  0  0  0  0  0
  145.5746  135.7919  150.4311 H   0  0  0  0  0  0  0  0  0  0  0  0
  144.9594  134.8439  152.6313 H   0  0  0  0  0  0  0  0  0  0  0  0
  142.2754  134.0494  151.4053 H   0  0  0  0  0  0  0  0  0  0  0  0
  142.8066  133.7323  153.0568 H   0  0  0  0  0  0  0  0  0  0  0  0
  143.6071  132.9413  151.7178 H   0  0  0  0  0  0  0  0  0  0  0  0
  142.6700  136.5763  151.6287 H   0  0  0  0  0  0  0  0  0  0  0  0
  142.1476  135.7600  153.8911 H   0  0  0  0  0  0  0  0  0  0  0  0
  142.5955  137.4491  153.9891 H   0  0  0  0  0  0  0  0  0  0  0  0
  143.7520  136.2103  154.4677 H   0  0  0  0  0  0  0  0  0  0  0  0
  144.1848  138.2887  151.6117 H   0  0  0  0  0  0  0  0  0  0  0  0
  146.4906  138.9508  151.2494 H   0  0  0  0  0  0  0  0  0  0  0  0
  146.1592  139.6021  152.8505 H   0  0  0  0  0  0  0  0  0  0  0  0
  148.2206  137.5930  152.6171 H   0  0  0  0  0  0  0  0  0  0  0  0
  147.4474  138.9152  154.6847 H   0  0  0  0  0  0  0  0  0  0  0  0
  149.1210  138.4345  154.4529 H   0  0  0  0  0  0  0  0  0  0  0  0
  149.0831  140.8111  153.0289 H   0  0  0  0  0  0  0  0  0  0  0  0
  147.9034  141.1705  154.2751 H   0  0  0  0  0  0  0  0  0  0  0  0
  149.0499  142.3907  156.1752 H   0  0  0  0  0  0  0  0  0  0  0  0
  151.4609  142.1510  157.4298 H   0  0  0  0  0  0  0  0  0  0  0  0
  152.6853  140.0895  156.0405 H   0  0  0  0  0  0  0  0  0  0  0  0
  148.5533  139.0821  152.0162 H   0  0  0  0  0  0  0  0  0  0  0  0
  1  2  1  0  0  0  0
  1 18  1  0  0  0  0
  1 19  1  0  0  0  0
  1 20  1  0  0  0  0
  2  3  1  0  0  0  0
  2  4  1  0  0  0  0
  2 21  1  0  0  0  0
  3 22  1  0  0  0  0
  3 23  1  0  0  0  0
  3 24  1  0  0  0  0
  4  5  1  0  0  0  0
  4  6  1  0  0  0  0
  4 25  1  0  0  0  0
  5 26  1  0  0  0  0
  5 27  1  0  0  0  0
  5 28  1  0  0  0  0
  6  7  1  0  0  0  0
  6 29  1  0  0  0  0
  7  8  2  0  0  0  0
  7  9  1  0  0  0  0
  9 10  1  0  0  0  0
  9 30  1  0  0  0  0
  9 31  1  0  0  0  0
 10 11  1  0  0  0  0
 10 32  1  0  0  0  0
 10 40  1  0  0  0  0
 11 12  1  0  0  0  0
 11 33  1  0  0  0  0
 11 34  1  0  0  0  0
 12 13  1  0  0  0  0
 12 35  1  0  0  0  0
 12 36  1  0  0  0  0
 13 17  1  0  0  0  0
 13 14  1  0  0  0  0
 14 15  2  0  0  0  0
 14 37  1  0  0  0  0
 15 16  1  0  0  0  0
 15 38  1  0  0  0  0
 16 17  2  0  0  0  0
 16 39  1  0  0  0  0
M  CHG  1  10   1
M  END
> <s_m_source_file>
AV-unprocessed.smi

> <i_m_source_file_index>
3128

> <i_lp_mmshare_version>
43012

> <i_f3d_flags>
0

> <s_epik_input>
W0NIM11bQ0hdKFtDSDNdKVtDQEhdKFtDSDNdKVtOSF1DKD1PKVtDSDJdW05IXVtDSDJdW0NIMl1uMVtjSF1bY0hdW2NIXW4x

> <s_epik_cmdline>
J2VwaWtfcHl0aG9uJywgJy1waCcsICc3LjAnLCAnLXRuJywgJzgnLCAnLW1hJywgJzIwMCcsICctbWV0YWxfYmluZGluZycsICctaW1hZScsICc8aW5maWxlLm1hZT4nLCAnLW9tYWUnLCAnPG91dGZpbGUubWFlPic=

> <r_lp_tautomer_probability>
1

> <r_epik_Ionization_Penalty>
0.20724

> <r_epik_Ionization_Penalty_Charging>
0.207237

> <r_epik_Ionization_Penalty_Neutral>
3.20642e-06

> <r_epik_State_Penalty>
0.197613

> <r_epik_Charging_Adjusted_Penalty>
0.40485

> <i_epik_Tot_Q>
1

> <i_epik_Tot_abs_Q>
1

> <r_epik_Metal_State_Penalty>
0.197789

> <b_epik_Metal_Only>
0

> <s_lp_Force_Field>
OPLS_2005

> <r_lp_Energy>
4.49363

> <b_lp_Chiralities_Consistent>
1

> <s_lp_Variant>
AV-unprocessed.smi:3128-2

> <Gold.Version>
5.8.1

> <Gold.Id.Protein>
6NUR|6NUR_protein|mol2

> <Gold.PLP.Fitness>
49.6737

> <Gold.PLP.PLP>
-34.9012

> <Gold.PLP.part.hbond>
-4.8820

> <Gold.PLP.part.metal>
0.0000

> <Gold.PLP.part.buried>
-2.4327

> <Gold.PLP.part.nonpolar>
-27.2194

> <Gold.PLP.part.repulsive>
0.4033

> <Gold.PLP.ligand.clash>
0.0000

> <Gold.PLP.ligand.torsion>
0.9437

> <Gold.PLP.Chemscore.Hbond>
4.5720

> <Gold.PLP.Chemscore.CHOScore>
0.9389

> <Gold.PLP.Chemscore.Metal>
0.0000

> <Gold.Chemscore.Hbonds>
donor molecule, donor type, donor heavy atom, donor atom, acceptor molecule, acceptor atom, score
      L1  H     6    29       P1 10171  0.69
      L1  H    10    32       P1  7948  2.00
      L1  H    10    40       P1  7957  1.00
      P1  H  7989  7998       L1    17  0.80
      L1  C    14    37       P1  8028  0.98

> <Gold.PLP.Chemscore.Internal.Correction>
0.1275

> <Gold.Rescore>
     Score         DG    S(hbond)    S(metal)    S(lipo)     H(rot)  DE(clash)    DE(int)     intcor
     16.92     -19.32       3.72        0.00      61.25       2.24       0.17       2.23       ----

> <Gold.Chemscore.Fitness>
16.9161

> <Gold.Chemscore.DG>
-19.3164

> <Gold.Chemscore.ZeroCoef>
-5.4800

> <Gold.Chemscore.Hbond>
3.7153

> <Gold.Chemscore.Metal>
0.0000

> <Gold.Chemscore.Lipo>
61.2460

> <Gold.Chemscore.Internal_Hbond>
0.0000

> <Gold.Chemscore.DEClash>
0.1697

> <Gold.Chemscore.DEInternal>
2.2306

> <Gold.Chemscore.Rot>
2.2416

> <Gold.Chemscore.Internal.Correction>
   9.000000E+99

> <Gold.Chemscore.Hbonds>
donor molecule, donor type, donor heavy atom, donor atom, acceptor molecule, acceptor atom, score
      L1  H     6    29       P1 10171  0.70
      L1  H    10    32       P1  7948  0.96
      L1  H    10    40       P1  7957  0.98
      P1  H  7989  7998       L1    17  0.04

> <Gold.Chemscore.Hbond.Weighted>
-12.4091

> <Gold.Chemscore.Metal.Weighted>
-0.0000

> <Gold.Chemscore.Lipo.Weighted>
-7.1658

> <Gold.Chemscore.Internal_Hbond.Weighted>
0.0000

> <Gold.Chemscore.DEClash.Weighted>
0.1697

> <Gold.Chemscore.DEInternal.Weighted>
2.2306

> <Gold.Chemscore.Rot.Weighted>
5.7385

> <Gold.Chemscore.Internal.Correction.Weighted>
   9.000000E+99

> <Gold.Protein.RotatedTorsions>
[ 6907 6896 6895 6894 ] final   69.21 input  -60.11 | X-H torsion
[ 7974 7965 7964 7962 ] final   66.44 input  175.53 | X-H torsion
[ 8008 7997 7996 7995 ] final  138.34 input   59.86 | X-H torsion
[ 10167 10162 10161 10158 ] final  111.87 input  -65.29 | X-H torsion
[ 10718 10713 10712 10709 ] final -134.27 input   66.30 | X-H torsion
[ 10763 10752 10751 10750 ] final   28.02 input  -60.55 | X-H torsion
[ 11005 11000 10999 10996 ] final -165.85 input  -57.11 | X-H torsion

> <Gold.Protein.ActiveResidues>
 VAL166  LYS551  ARG553  GLY616  TRP617  ASP618  TYR619  PRO620  LYS621  CYS622 
 ASP623  PHE694  ASN695  SER759  ASP760  ASP761  ALA762  ILE779  LEU786  VAL792 
 PHE793  MET794  SER795  GLU796  ALA797  LYS798  CYS799  TRP800  GLU811  SER814 

> <Gold.Protein.RotatedAtoms>
  152.4671  134.5049  159.9735 H   0  0  0  0  0  0  0  0  0  0  0  0  # atno 6907 bound_to 6896
  151.5085  133.3484  159.2889 H   0  0  0  0  0  0  0  0  0  0  0  0  # atno 6908 bound_to 6896
  150.8661  134.8053  159.7181 H   0  0  0  0  0  0  0  0  0  0  0  0  # atno 6909 bound_to 6896
  145.8266  139.3115  143.1012 H   0  0  0  0  0  0  0  0  0  0  0  0  # atno 7974 bound_to 7965
  156.2998  140.2396  156.4057 H   0  0  0  0  0  0  0  0  0  0  0  0  # atno 8008 bound_to 7997
  154.8486  140.0425  157.1609 H   0  0  0  0  0  0  0  0  0  0  0  0  # atno 8009 bound_to 7997
  154.9023  140.2978  155.5315 H   0  0  0  0  0  0  0  0  0  0  0  0  # atno 8010 bound_to 7997
  139.6579  144.7129  151.1922 H   0  0  0  0  0  0  0  0  0  0  0  0  # atno 10167 bound_to 10162
  156.2537  130.7168  151.1077 H   0  0  0  0  0  0  0  0  0  0  0  0  # atno 10718 bound_to 10713
  153.0518  135.6523  154.0675 H   0  0  0  0  0  0  0  0  0  0  0  0  # atno 10763 bound_to 10752
  154.0361  135.2907  155.3363 H   0  0  0  0  0  0  0  0  0  0  0  0  # atno 10764 bound_to 10752
  154.6811  135.5319  153.8331 H   0  0  0  0  0  0  0  0  0  0  0  0  # atno 10765 bound_to 10752
  140.5710  134.5237  157.5162 H   0  0  0  0  0  0  0  0  0  0  0  0  # atno 11005 bound_to 11000
  145.9617  140.8830  143.0207 LP  0  0  0  0  0  0  0  0  0  0  0  0  # atno 17320 bound_to 7965
  144.6743  140.1822  143.7404 LP  0  0  0  0  0  0  0  0  0  0  0  0  # atno 17321 bound_to 7965
  140.7567  143.6042  150.8669 LP  0  0  0  0  0  0  0  0  0  0  0  0  # atno 17342 bound_to 10162
  139.9697  143.6070  152.2977 LP  0  0  0  0  0  0  0  0  0  0  0  0  # atno 17343 bound_to 10162
  157.7224  131.0672  150.6078 LP  0  0  0  0  0  0  0  0  0  0  0  0  # atno 17370 bound_to 10713
  156.6160  130.4393  149.5840 LP  0  0  0  0  0  0  0  0  0  0  0  0  # atno 17371 bound_to 10713
  139.9362  134.7872  156.0798 LP  0  0  0  0  0  0  0  0  0  0  0  0  # atno 17394 bound_to 11000
  141.1056  133.6661  156.2856 LP  0  0  0  0  0  0  0  0  0  0  0  0  # atno 17395 bound_to 11000

$$$$
