AV-unprocessed.smi:2520|AV-procd|sdf|9909|dock5
  -GOLD-   2272013543D 1   1.00000     0.00000
 Structure written by MMmdl.
 41 44  0  0  0  0  0  0  0  0  1 V2000
  145.6079  138.6471  152.8055 O   0  0  0  0  0  0  0  0  0  0  0  0
  146.5330  137.8724  152.5688 C   0  0  0  0  0  0  0  0  0  0  0  0
  147.8040  138.1824  152.9026 N   0  0  0  0  0  0  0  0  0  0  0  0
  148.3583  139.3333  153.5367 C   0  0  0  0  0  0  0  0  0  0  0  0
  147.5327  140.4777  153.5092 C   0  0  0  0  0  0  0  0  0  0  0  0
  148.0006  141.6563  154.1150 C   0  0  0  0  0  0  0  0  0  0  0  0
  149.2709  141.6114  154.7140 C   0  0  0  0  0  0  0  0  0  0  0  0
  150.0286  140.4940  154.7213 N   0  0  0  0  0  0  0  0  0  0  0  0
  149.5753  139.3775  154.1422 N   0  0  0  0  0  0  0  0  0  0  0  0
  146.3531  136.6851  151.9717 N   0  0  0  0  0  0  0  0  0  0  0  0
  145.0735  136.1204  151.5454 C   0  0  2  0  0  0  0  0  0  0  0  0
  144.0989  135.8927  152.7238 C   0  0  2  0  0  0  0  0  0  0  0  0
  144.3319  136.4693  154.1000 C   0  0  0  0  0  0  0  0  0  0  0  0
  144.9823  135.3042  154.8520 C   0  0  0  0  0  0  0  0  0  0  0  0
  145.4964  134.4503  153.8321 O   0  0  0  0  0  0  0  0  0  0  0  0
  144.5641  134.4453  152.7534 C   0  0  2  0  0  0  0  0  0  0  0  0
  145.1563  134.5901  151.3359 C   0  0  0  0  0  0  0  0  0  0  0  0
  146.5018  133.9186  151.0573 C   0  0  0  0  0  0  0  0  0  0  0  0
  146.1984  132.5047  150.5581 C   0  0  0  0  0  0  0  0  0  0  0  0
  144.7835  132.5704  149.9754 C   0  0  0  0  0  0  0  0  0  0  0  0
  144.3024  134.0055  150.2121 C   0  0  0  0  0  0  0  0  0  0  0  0
  148.4849  137.4861  152.6366 H   0  0  0  0  0  0  0  0  0  0  0  0
  146.5623  140.4563  153.0345 H   0  0  0  0  0  0  0  0  0  0  0  0
  147.4084  142.5594  154.1203 H   0  0  0  0  0  0  0  0  0  0  0  0
  149.6864  142.4842  155.1955 H   0  0  0  0  0  0  0  0  0  0  0  0
  147.1708  136.1136  151.8104 H   0  0  0  0  0  0  0  0  0  0  0  0
  144.6047  136.6396  150.7079 H   0  0  0  0  0  0  0  0  0  0  0  0
  143.0634  135.9634  152.3872 H   0  0  0  0  0  0  0  0  0  0  0  0
  144.9874  137.3398  154.0765 H   0  0  0  0  0  0  0  0  0  0  0  0
  143.4030  136.7767  154.5809 H   0  0  0  0  0  0  0  0  0  0  0  0
  145.7682  135.6296  155.5339 H   0  0  0  0  0  0  0  0  0  0  0  0
  144.2347  134.7567  155.4277 H   0  0  0  0  0  0  0  0  0  0  0  0
  143.7592  133.7183  152.8722 H   0  0  0  0  0  0  0  0  0  0  0  0
  147.0357  134.4673  150.2801 H   0  0  0  0  0  0  0  0  0  0  0  0
  147.1552  133.8986  151.9301 H   0  0  0  0  0  0  0  0  0  0  0  0
  146.9328  132.1707  149.8244 H   0  0  0  0  0  0  0  0  0  0  0  0
  146.2213  131.8012  151.3913 H   0  0  0  0  0  0  0  0  0  0  0  0
  144.7668  132.3169  148.9149 H   0  0  0  0  0  0  0  0  0  0  0  0
  144.1356  131.8618  150.4928 H   0  0  0  0  0  0  0  0  0  0  0  0
  143.2358  134.0353  150.4375 H   0  0  0  0  0  0  0  0  0  0  0  0
  144.4450  134.5860  149.2994 H   0  0  0  0  0  0  0  0  0  0  0  0
  1  2  2  0  0  0  0
  2  3  1  0  0  0  0
  2 10  1  0  0  0  0
  3  4  1  0  0  0  0
  3 22  1  0  0  0  0
  4  9  1  0  0  0  0
  4  5  2  0  0  0  0
  5  6  1  0  0  0  0
  5 23  1  0  0  0  0
  6  7  2  0  0  0  0
  6 24  1  0  0  0  0
  7  8  1  0  0  0  0
  7 25  1  0  0  0  0
  8  9  2  0  0  0  0
 10 11  1  0  0  0  0
 10 26  1  0  0  0  0
 11 17  1  0  0  0  0
 11 12  1  0  0  0  0
 11 27  1  0  0  0  0
 12 16  1  0  0  0  0
 12 13  1  0  0  0  0
 12 28  1  0  0  0  0
 13 14  1  0  0  0  0
 13 29  1  0  0  0  0
 13 30  1  0  0  0  0
 14 15  1  0  0  0  0
 14 31  1  0  0  0  0
 14 32  1  0  0  0  0
 15 16  1  0  0  0  0
 16 17  1  0  0  0  0
 16 33  1  0  0  0  0
 17 21  1  0  0  0  0
 17 18  1  0  0  0  0
 18 19  1  0  0  0  0
 18 34  1  0  0  0  0
 18 35  1  0  0  0  0
 19 20  1  0  0  0  0
 19 36  1  0  0  0  0
 19 37  1  0  0  0  0
 20 21  1  0  0  0  0
 20 38  1  0  0  0  0
 20 39  1  0  0  0  0
 21 40  1  0  0  0  0
 21 41  1  0  0  0  0
M  END
> <s_m_source_file>
AV-unprocessed.smi

> <i_m_source_file_index>
2520

> <i_lp_mmshare_version>
43012

> <i_f3d_flags>
0

> <s_epik_input>
bjFuW2NIXVtjSF1bY0hdYzFbTkhdQyg9TylbTkhdW0NAQEhdMltDQEBIXShbQ0gyXVtDSDJdTzMpW0NASF0zQzI0W0NIMl1bQ0gyXVtDSDJdW0NIMl00

> <s_epik_cmdline>
J2VwaWtfcHl0aG9uJywgJy1waCcsICc3LjAnLCAnLXRuJywgJzgnLCAnLW1hJywgJzIwMCcsICctbWV0YWxfYmluZGluZycsICctaW1hZScsICc8aW5maWxlLm1hZT4nLCAnLW9tYWUnLCAnPG91dGZpbGUubWFlPic=

> <r_lp_tautomer_probability>
1

> <r_epik_Ionization_Penalty>
0.00552561

> <r_epik_Ionization_Penalty_Charging>
0

> <r_epik_Ionization_Penalty_Neutral>
0.00552561

> <r_epik_State_Penalty>
-0

> <r_epik_Charging_Adjusted_Penalty>
0

> <i_epik_Tot_Q>
0

> <i_epik_Tot_abs_Q>
0

> <r_epik_Metal_State_Penalty>
-0

> <b_epik_Metal_Only>
0

> <s_lp_Force_Field>
OPLS_2005

> <r_lp_Energy>
62.4196

> <b_lp_Chiralities_Consistent>
1

> <s_lp_Variant>
AV-unprocessed.smi:2520-3

> <Gold.Version>
5.8.1

> <Gold.Id.Protein>
6NUR|6NUR_protein|mol2

> <Gold.PLP.Fitness>
40.5621

> <Gold.PLP.PLP>
-29.7261

> <Gold.PLP.part.hbond>
-3.6213

> <Gold.PLP.part.metal>
0.0000

> <Gold.PLP.part.buried>
0.2143

> <Gold.PLP.part.nonpolar>
-29.0691

> <Gold.PLP.part.repulsive>
4.1937

> <Gold.PLP.ligand.clash>
0.0754

> <Gold.PLP.ligand.torsion>
0.2123

> <Gold.PLP.Chemscore.Hbond>
2.7113

> <Gold.PLP.Chemscore.CHOScore>
1.0000

> <Gold.PLP.Chemscore.Metal>
0.0000

> <Gold.Chemscore.Hbonds>
donor molecule, donor type, donor heavy atom, donor atom, acceptor molecule, acceptor atom, score
      L1  H     3    22       P1  7948  1.00
      L1  H    10    26       P1  7948  0.82
      P1  H  7989  7998       L1     8  0.83
      L1  C     7    25       P1  8028  1.00

> <Gold.PLP.Chemscore.Internal.Correction>
0.2022

> <Gold.Rescore>
     Score         DG    S(hbond)    S(metal)    S(lipo)     H(rot)  DE(clash)    DE(int)     intcor
     12.23     -17.98       1.91        0.00      74.12       1.00       1.63       4.11       ----

> <Gold.Chemscore.Fitness>
12.2285

> <Gold.Chemscore.DG>
-17.9767

> <Gold.Chemscore.ZeroCoef>
-5.4800

> <Gold.Chemscore.Hbond>
1.9114

> <Gold.Chemscore.Metal>
0.0000

> <Gold.Chemscore.Lipo>
74.1245

> <Gold.Chemscore.Internal_Hbond>
0.0000

> <Gold.Chemscore.DEClash>
1.6334

> <Gold.Chemscore.DEInternal>
4.1148

> <Gold.Chemscore.Rot>
1.0000

> <Gold.Chemscore.Internal.Correction>
   9.000000E+99

> <Gold.Chemscore.Hbonds>
donor molecule, donor type, donor heavy atom, donor atom, acceptor molecule, acceptor atom, score
      L1  H     3    22       P1  7948  0.91
      L1  H    10    26       P1  7948  0.81
      P1  H  7989  7998       L1     8  0.10

> <Gold.Chemscore.Hbond.Weighted>
-6.3841

> <Gold.Chemscore.Metal.Weighted>
-0.0000

> <Gold.Chemscore.Lipo.Weighted>
-8.6726

> <Gold.Chemscore.Internal_Hbond.Weighted>
0.0000

> <Gold.Chemscore.DEClash.Weighted>
1.6334

> <Gold.Chemscore.DEInternal.Weighted>
4.1148

> <Gold.Chemscore.Rot.Weighted>
2.5600

> <Gold.Chemscore.Internal.Correction.Weighted>
   9.000000E+99

> <Gold.Protein.RotatedTorsions>
[ 6907 6896 6895 6894 ] final  -11.01 input  -60.11 | X-H torsion
[ 7974 7965 7964 7962 ] final -106.30 input  175.53 | X-H torsion
[ 8008 7997 7996 7995 ] final -128.36 input   59.86 | X-H torsion
[ 10167 10162 10161 10158 ] final  157.96 input  -65.29 | X-H torsion
[ 10718 10713 10712 10709 ] final  -26.15 input   66.30 | X-H torsion
[ 10763 10752 10751 10750 ] final   20.24 input  -60.55 | X-H torsion
[ 11005 11000 10999 10996 ] final  127.60 input  -57.11 | X-H torsion

> <Gold.Protein.ActiveResidues>
 VAL166  LYS551  ARG553  GLY616  TRP617  ASP618  TYR619  PRO620  LYS621  CYS622 
 ASP623  PHE694  ASN695  SER759  ASP760  ASP761  ALA762  ILE779  LEU786  VAL792 
 PHE793  MET794  SER795  GLU796  ALA797  LYS798  CYS799  TRP800  GLU811  SER814 

> <Gold.Protein.RotatedAtoms>
  151.3929  135.0959  159.9531 H   0  0  0  0  0  0  0  0  0  0  0  0  # atno 6907 bound_to 6896
  152.5074  133.8962  159.7429 H   0  0  0  0  0  0  0  0  0  0  0  0  # atno 6908 bound_to 6896
  150.9419  133.6590  159.2817 H   0  0  0  0  0  0  0  0  0  0  0  0  # atno 6909 bound_to 6896
  145.2196  140.9129  143.3267 H   0  0  0  0  0  0  0  0  0  0  0  0  # atno 7974 bound_to 7965
  155.2614  140.0436  157.2998 H   0  0  0  0  0  0  0  0  0  0  0  0  # atno 8008 bound_to 7997
  154.5708  140.2373  155.8164 H   0  0  0  0  0  0  0  0  0  0  0  0  # atno 8009 bound_to 7997
  156.2121  140.2996  155.9763 H   0  0  0  0  0  0  0  0  0  0  0  0  # atno 8010 bound_to 7997
  139.4825  144.4869  151.8365 H   0  0  0  0  0  0  0  0  0  0  0  0  # atno 10167 bound_to 10162
  156.4550  130.4492  149.6965 H   0  0  0  0  0  0  0  0  0  0  0  0  # atno 10718 bound_to 10713
  153.1094  135.6693  153.9528 H   0  0  0  0  0  0  0  0  0  0  0  0  # atno 10763 bound_to 10752
  153.9076  135.3029  155.3450 H   0  0  0  0  0  0  0  0  0  0  0  0  # atno 10764 bound_to 10752
  154.7514  135.5033  153.9373 H   0  0  0  0  0  0  0  0  0  0  0  0  # atno 10765 bound_to 10752
  139.9516  134.9621  156.8879 H   0  0  0  0  0  0  0  0  0  0  0  0  # atno 11005 bound_to 11000
  144.9778  139.3814  143.6277 LP  0  0  0  0  0  0  0  0  0  0  0  0  # atno 17320 bound_to 7965
  146.3379  139.8905  142.8810 LP  0  0  0  0  0  0  0  0  0  0  0  0  # atno 17321 bound_to 7965
  140.4349  144.2065  150.5889 LP  0  0  0  0  0  0  0  0  0  0  0  0  # atno 17342 bound_to 10162
  140.4742  143.2402  151.9047 LP  0  0  0  0  0  0  0  0  0  0  0  0  # atno 17343 bound_to 10162
  156.3776  130.7563  151.2552 LP  0  0  0  0  0  0  0  0  0  0  0  0  # atno 17370 bound_to 10713
  157.7501  131.0305  150.4139 LP  0  0  0  0  0  0  0  0  0  0  0  0  # atno 17371 bound_to 10713
  140.5705  134.0447  155.7429 LP  0  0  0  0  0  0  0  0  0  0  0  0  # atno 17394 bound_to 11000
  141.1180  133.9508  157.2785 LP  0  0  0  0  0  0  0  0  0  0  0  0  # atno 17395 bound_to 11000

$$$$
