AV-unprocessed.smi:934|AV-procd|sdf|4205|dock8
  -GOLD-   22720 2113D 1   1.00000     0.00000
 Structure written by MMmdl.
 43 44  0  0  0  0  0  0  0  0  2 V2000
  146.6788  142.0265  153.5407 C   0  0  0  0  0  0  0  0  0  0  0  0
  146.5068  140.5719  153.2877 N   0  3  0  0  0  0  0  0  0  0  0  0
  146.9149  140.2395  151.8977 C   0  0  0  0  0  0  0  0  0  0  0  0
  147.0239  139.6657  154.3813 C   0  0  0  0  0  0  0  0  0  0  0  0
  148.5800  139.8111  154.4541 C   0  0  0  0  0  0  0  0  0  0  0  0
  149.0268  141.0104  155.1640 N   0  0  0  0  0  0  0  0  0  0  0  0
  149.9720  141.0465  156.1139 C   0  0  0  0  0  0  0  0  0  0  0  0
  150.5703  140.0482  156.5116 O   0  0  0  0  0  0  0  0  0  0  0  0
  150.1752  142.3020  156.5479 N   0  0  0  0  0  0  0  0  0  0  0  0
  151.0693  142.7598  157.5536 C   0  0  0  0  0  0  0  0  0  0  0  0
  151.6930  141.7930  158.3691 C   0  0  0  0  0  0  0  0  0  0  0  0
  152.5966  142.2121  159.3637 C   0  0  0  0  0  0  0  0  0  0  0  0
  152.8499  143.5905  159.5000 C   0  0  0  0  0  0  0  0  0  0  0  0
  152.2736  144.5287  158.7198 N   0  0  0  0  0  0  0  0  0  0  0  0
  151.4060  144.1199  157.7686 C   0  0  0  0  0  0  0  0  0  0  0  0
  146.3928  140.0272  155.7612 C   0  0  0  0  0  0  0  0  0  0  0  0
  146.7469  139.0219  156.8723 C   0  0  0  0  0  0  0  0  0  0  0  0
  146.3290  137.7208  156.4807 O   0  0  0  0  0  0  0  0  0  0  0  0
  146.9773  137.2589  155.3028 C   0  0  0  0  0  0  0  0  0  0  0  0
  146.6494  138.1820  154.1125 C   0  0  0  0  0  0  0  0  0  0  0  0
  147.7263  142.3224  153.4766 H   0  0  0  0  0  0  0  0  0  0  0  0
  146.2931  142.3313  154.5117 H   0  0  0  0  0  0  0  0  0  0  0  0
  146.1301  142.6051  152.7968 H   0  0  0  0  0  0  0  0  0  0  0  0
  147.9989  140.1937  151.7938 H   0  0  0  0  0  0  0  0  0  0  0  0
  146.5489  140.9912  151.1976 H   0  0  0  0  0  0  0  0  0  0  0  0
  146.4861  139.2937  151.5681 H   0  0  0  0  0  0  0  0  0  0  0  0
  149.0567  138.9306  154.8819 H   0  0  0  0  0  0  0  0  0  0  0  0
  148.9999  139.8670  153.4506 H   0  0  0  0  0  0  0  0  0  0  0  0
  148.6044  141.8851  154.8883 H   0  0  0  0  0  0  0  0  0  0  0  0
  149.6639  143.0271  156.0666 H   0  0  0  0  0  0  0  0  0  0  0  0
  151.4814  140.7418  158.2386 H   0  0  0  0  0  0  0  0  0  0  0  0
  153.0845  141.4940  160.0062 H   0  0  0  0  0  0  0  0  0  0  0  0
  153.5377  143.9484  160.2518 H   0  0  0  0  0  0  0  0  0  0  0  0
  150.9995  144.9145  157.1631 H   0  0  0  0  0  0  0  0  0  0  0  0
  146.6614  141.0385  156.0651 H   0  0  0  0  0  0  0  0  0  0  0  0
  145.3052  140.0088  155.7064 H   0  0  0  0  0  0  0  0  0  0  0  0
  147.8083  139.0267  157.1182 H   0  0  0  0  0  0  0  0  0  0  0  0
  146.2210  139.2893  157.7889 H   0  0  0  0  0  0  0  0  0  0  0  0
  148.0523  137.1852  155.4695 H   0  0  0  0  0  0  0  0  0  0  0  0
  146.6287  136.2479  155.0919 H   0  0  0  0  0  0  0  0  0  0  0  0
  145.5828  138.0967  153.9046 H   0  0  0  0  0  0  0  0  0  0  0  0
  147.1619  137.8039  153.2277 H   0  0  0  0  0  0  0  0  0  0  0  0
  145.5078  140.4233  153.2937 H   0  0  0  0  0  0  0  0  0  0  0  0
  1  2  1  0  0  0  0
  1 21  1  0  0  0  0
  1 22  1  0  0  0  0
  1 23  1  0  0  0  0
  2  3  1  0  0  0  0
  2  4  1  0  0  0  0
  2 43  1  0  0  0  0
  3 24  1  0  0  0  0
  3 25  1  0  0  0  0
  3 26  1  0  0  0  0
  4 20  1  0  0  0  0
  4  5  1  0  0  0  0
  4 16  1  0  0  0  0
  5  6  1  0  0  0  0
  5 27  1  0  0  0  0
  5 28  1  0  0  0  0
  6  7  1  0  0  0  0
  6 29  1  0  0  0  0
  7  8  2  0  0  0  0
  7  9  1  0  0  0  0
  9 10  1  0  0  0  0
  9 30  1  0  0  0  0
 10 15  1  0  0  0  0
 10 11  2  0  0  0  0
 11 12  1  0  0  0  0
 11 31  1  0  0  0  0
 12 13  2  0  0  0  0
 12 32  1  0  0  0  0
 13 14  1  0  0  0  0
 13 33  1  0  0  0  0
 14 15  2  0  0  0  0
 15 34  1  0  0  0  0
 16 17  1  0  0  0  0
 16 35  1  0  0  0  0
 16 36  1  0  0  0  0
 17 18  1  0  0  0  0
 17 37  1  0  0  0  0
 17 38  1  0  0  0  0
 18 19  1  0  0  0  0
 19 20  1  0  0  0  0
 19 39  1  0  0  0  0
 19 40  1  0  0  0  0
 20 41  1  0  0  0  0
 20 42  1  0  0  0  0
M  CHG  1   2   1
M  END
> <s_m_source_file>
AV-unprocessed.smi

> <i_m_source_file_index>
934

> <i_lp_mmshare_version>
43012

> <i_f3d_flags>
0

> <s_epik_input>
W0NIMl0xW0NIMl1PW0NIMl1bQ0gyXUMxKE4oW0NIM10pW0NIM10pW0NIMl1bTkhdQyg9TylbTkhdYzJbY0hdW2NIXVtjSF1uW2NIXTI=

> <s_epik_cmdline>
J2VwaWtfcHl0aG9uJywgJy1waCcsICc3LjAnLCAnLXRuJywgJzgnLCAnLW1hJywgJzIwMCcsICctbWV0YWxfYmluZGluZycsICctaW1hZScsICc8aW5maWxlLm1hZT4nLCAnLW9tYWUnLCAnPG91dGZpbGUubWFlPic=

> <r_epik_Ionization_Penalty>
0.0170741

> <r_epik_Ionization_Penalty_Charging>
0.0128317

> <r_epik_Ionization_Penalty_Neutral>
0.00424236

> <r_epik_State_Penalty>
0.00995429

> <r_epik_Charging_Adjusted_Penalty>
0.022786

> <i_epik_Tot_Q>
1

> <i_epik_Tot_abs_Q>
1

> <r_epik_Metal_State_Penalty>
0.00996615

> <b_epik_Metal_Only>
0

> <s_lp_Force_Field>
OPLS_2005

> <r_lp_Energy>
34.8396

> <b_lp_Chiralities_Consistent>
1

> <s_lp_Variant>
AV-unprocessed.smi:934-1

> <Gold.Version>
5.8.1

> <Gold.Id.Protein>
6NUR|6NUR_protein|mol2

> <Gold.PLP.Fitness>
39.9428

> <Gold.PLP.PLP>
-28.9495

> <Gold.PLP.part.hbond>
-2.0000

> <Gold.PLP.part.metal>
0.0000

> <Gold.PLP.part.buried>
-3.4356

> <Gold.PLP.part.nonpolar>
-24.3556

> <Gold.PLP.part.repulsive>
0.2523

> <Gold.PLP.ligand.clash>
0.0000

> <Gold.PLP.ligand.torsion>
0.4104

> <Gold.PLP.Chemscore.Hbond>
3.0000

> <Gold.PLP.Chemscore.CHOScore>
0.8967

> <Gold.PLP.Chemscore.Metal>
0.0000

> <Gold.Chemscore.Hbonds>
donor molecule, donor type, donor heavy atom, donor atom, acceptor molecule, acceptor atom, score
      L1  H     2    43       P1 10175  2.00
      L1  H     9    30       P1  8028  1.00
      L1  C    15    34       P1  8028  0.87

> <Gold.PLP.Chemscore.Internal.Correction>
0.1240

> <Gold.Rescore>
     Score         DG    S(hbond)    S(metal)    S(lipo)     H(rot)  DE(clash)    DE(int)     intcor
     14.97     -18.01       1.88        0.00      85.98       1.49       1.19       1.84       ----

> <Gold.Chemscore.Fitness>
14.9722

> <Gold.Chemscore.DG>
-18.0074

> <Gold.Chemscore.ZeroCoef>
-5.4800

> <Gold.Chemscore.Hbond>
1.8846

> <Gold.Chemscore.Metal>
0.0000

> <Gold.Chemscore.Lipo>
85.9778

> <Gold.Chemscore.Internal_Hbond>
0.0000

> <Gold.Chemscore.DEClash>
1.1918

> <Gold.Chemscore.DEInternal>
1.8434

> <Gold.Chemscore.Rot>
1.4948

> <Gold.Chemscore.Internal.Correction>
   9.000000E+99

> <Gold.Chemscore.Hbonds>
donor molecule, donor type, donor heavy atom, donor atom, acceptor molecule, acceptor atom, score
      L1  H     2    43       P1 10175  0.90
      L1  H     9    30       P1  8028  0.99

> <Gold.Chemscore.Hbond.Weighted>
-6.2947

> <Gold.Chemscore.Metal.Weighted>
-0.0000

> <Gold.Chemscore.Lipo.Weighted>
-10.0594

> <Gold.Chemscore.Internal_Hbond.Weighted>
0.0000

> <Gold.Chemscore.DEClash.Weighted>
1.1918

> <Gold.Chemscore.DEInternal.Weighted>
1.8434

> <Gold.Chemscore.Rot.Weighted>
3.8267

> <Gold.Chemscore.Internal.Correction.Weighted>
   9.000000E+99

> <Gold.Protein.RotatedTorsions>
[ 6907 6896 6895 6894 ] final  105.18 input  -60.11 | X-H torsion
[ 7974 7965 7964 7962 ] final -107.90 input  175.53 | X-H torsion
[ 8008 7997 7996 7995 ] final  -87.35 input   59.86 | X-H torsion
[ 10167 10162 10161 10158 ] final -115.90 input  -65.29 | X-H torsion
[ 10718 10713 10712 10709 ] final  -87.10 input   66.30 | X-H torsion
[ 10763 10752 10751 10750 ] final  115.76 input  -60.55 | X-H torsion
[ 11005 11000 10999 10996 ] final  -66.85 input  -57.11 | X-H torsion

> <Gold.Protein.ActiveResidues>
 VAL166  LYS551  ARG553  GLY616  TRP617  ASP618  TYR619  PRO620  LYS621  CYS622 
 ASP623  PHE694  ASN695  SER759  ASP760  ASP761  ALA762  ILE779  LEU786  VAL792 
 PHE793  MET794  SER795  GLU796  ALA797  LYS798  CYS799  TRP800  GLU811  SER814 

> <Gold.Protein.RotatedAtoms>
  152.5239  133.9566  159.7696 H   0  0  0  0  0  0  0  0  0  0  0  0  # atno 6907 bound_to 6896
  150.9865  133.6184  159.2721 H   0  0  0  0  0  0  0  0  0  0  0  0  # atno 6908 bound_to 6896
  151.3343  135.0855  159.9402 H   0  0  0  0  0  0  0  0  0  0  0  0  # atno 6909 bound_to 6896
  145.1996  140.9050  143.3377 H   0  0  0  0  0  0  0  0  0  0  0  0  # atno 7974 bound_to 7965
  154.6622  140.0567  157.0075 H   0  0  0  0  0  0  0  0  0  0  0  0  # atno 8008 bound_to 7997
  155.1212  140.3247  155.4478 H   0  0  0  0  0  0  0  0  0  0  0  0  # atno 8009 bound_to 7997
  156.2623  140.1997  156.6334 H   0  0  0  0  0  0  0  0  0  0  0  0  # atno 8010 bound_to 7997
  140.0851  143.4751  152.1903 H   0  0  0  0  0  0  0  0  0  0  0  0  # atno 10167 bound_to 10162
  155.9986  130.4788  150.4816 H   0  0  0  0  0  0  0  0  0  0  0  0  # atno 10718 bound_to 10713
  153.5270  135.3586  155.2658 H   0  0  0  0  0  0  0  0  0  0  0  0  # atno 10763 bound_to 10752
  154.8730  135.4059  154.3194 H   0  0  0  0  0  0  0  0  0  0  0  0  # atno 10764 bound_to 10752
  153.3876  135.7070  153.6586 H   0  0  0  0  0  0  0  0  0  0  0  0  # atno 10765 bound_to 10752
  141.1493  133.6707  156.6203 H   0  0  0  0  0  0  0  0  0  0  0  0  # atno 11005 bound_to 11000
  144.9961  139.3643  143.6191 LP  0  0  0  0  0  0  0  0  0  0  0  0  # atno 17320 bound_to 7965
  146.3420  139.9164  142.8773 LP  0  0  0  0  0  0  0  0  0  0  0  0  # atno 17321 bound_to 7965
  139.5757  144.7486  151.3772 LP  0  0  0  0  0  0  0  0  0  0  0  0  # atno 17342 bound_to 10162
  140.7058  143.7518  150.7479 LP  0  0  0  0  0  0  0  0  0  0  0  0  # atno 17343 bound_to 10162
  157.2820  131.0609  151.2191 LP  0  0  0  0  0  0  0  0  0  0  0  0  # atno 17370 bound_to 10713
  157.3234  130.6948  149.6282 LP  0  0  0  0  0  0  0  0  0  0  0  0  # atno 17371 bound_to 10713
  140.3545  134.7740  157.4491 LP  0  0  0  0  0  0  0  0  0  0  0  0  # atno 17394 bound_to 11000
  140.0834  134.5700  155.8517 LP  0  0  0  0  0  0  0  0  0  0  0  0  # atno 17395 bound_to 11000

$$$$
