#       Name:                AV-unprocessed.smi:3156
#       Creating user name   scv26
#       Creation time:       Fri Mar 27 17:44:58 2020


#       File generated by GOLD software.
#

@<TRIPOS>MOLECULE
AV-unprocessed.smi:3156
    44    45     1
SMALL
NO_CHARGES


@<TRIPOS>ATOM
      1 ****        -2.3876  -0.9130  -1.7470 C.3            1 S1                 0.0000
      2 ****        -1.9660  -0.3847  -0.3620 C.3            1 S1                 0.0000
      3 ****        -0.4901  -0.2627  -0.2969 N.4            1 S1                 1.0000
      4 ****         0.0774   0.9360  -0.9503 C.3            1 S1                 0.0000
      5 ****         1.6034   0.9944  -0.7833 C.3            1 S1                 0.0000
      6 ****         2.3324  -0.0949  -1.5979 C.3            1 S1                 0.0000
      7 ****         3.8520   0.0690  -1.4814 C.3            1 S1                 0.0000
      8 ****         4.2471   1.5015  -1.8538 C.3            1 S1                 0.0000
      9 ****         3.4262   2.5109  -1.0360 C.3            1 S1                 0.0000
     10 ****         2.0347   2.2767  -1.2328 O.3            1 S1                 0.0000
     11 ****        -2.4721  -1.2901   0.7951 C.3            1 S1                 0.0000
     12 ****        -4.0071  -1.3995   0.8554 C.3            1 S1                 0.0000
     13 ****        -1.9681  -0.8494   2.0919 N.pl3          1 S1                 0.0000
     14 ****        -1.3315  -1.6012   3.0583 C.2            1 S1                 0.0000
     15 ****        -1.0634  -0.7735   4.1104 C.2            1 S1                 0.0000
     16 ****        -1.5914   0.4811   3.6971 C.2            1 S1                 0.0000
     17 ****        -2.1355   0.4318   2.4921 N.2            1 S1                 0.0000
     18 ****        -3.4713  -0.9373  -1.8556 H              1 S1                 0.0000
     19 ****        -2.0122  -1.9224  -1.9176 H              1 S1                 0.0000
     20 ****        -2.0129  -0.2814  -2.5518 H              1 S1                 0.0000
     21 ****        -2.3956   0.6098  -0.2294 H              1 S1                 0.0000
     22 ****        -0.2364  -0.2125   0.6798 H              1 S1                 0.0000
     23 ****        -0.1842   0.9595  -2.0079 H              1 S1                 0.0000
     24 ****        -0.3691   1.8198  -0.4925 H              1 S1                 0.0000
     25 ****         1.8483   0.8954   0.2762 H              1 S1                 0.0000
     26 ****         2.0429  -1.0889  -1.2559 H              1 S1                 0.0000
     27 ****         2.0396  -0.0282  -2.6465 H              1 S1                 0.0000
     28 ****         4.1683  -0.1456  -0.4599 H              1 S1                 0.0000
     29 ****         4.3633  -0.6466  -2.1259 H              1 S1                 0.0000
     30 ****         5.3132   1.6555  -1.6851 H              1 S1                 0.0000
     31 ****         4.0709   1.6661  -2.9176 H              1 S1                 0.0000
     32 ****         3.6714   2.4440   0.0252 H              1 S1                 0.0000
     33 ****         3.6607   3.5274  -1.3522 H              1 S1                 0.0000
     34 ****        -2.0786  -2.2949   0.6319 H              1 S1                 0.0000
     35 ****        -4.4139  -1.8955  -0.0251 H              1 S1                 0.0000
     36 ****        -4.4745  -0.4173   0.9332 H              1 S1                 0.0000
     37 ****        -4.3225  -1.9840   1.7205 H              1 S1                 0.0000
     38 ****        -1.1237  -2.6523   2.9195 H              1 S1                 0.0000
     39 ****        -0.5712  -1.0269   5.0377 H              1 S1                 0.0000
     40 ****        -1.5980   1.4183   4.2338 H              1 S1                 0.0000
     41 ****        -0.0743  -1.0930  -0.6937 H              1 S1                 0.0000
     42 ****         1.5226   2.9756  -0.7335 LP             1 S1                 0.0000
     43 ****         1.8363   2.3525  -2.2100 LP             1 S1                 0.0000
     44 ****        -2.5735   1.1766   1.9887 LP             1 S1                 0.0000
@<TRIPOS>BOND
    1    1    2 1     
    2    1   18 1     
    3    1   19 1     
    4    1   20 1     
    5    2    3 1     
    6    2   11 1     
    7    2   21 1     
    8    3    4 1     
    9    3   22 1     
   10    3   41 1     
   11    4    5 1     
   12    4   23 1     
   13    4   24 1     
   14    5   10 1     
   15    5    6 1     
   16    5   25 1     
   17    6    7 1     
   18    6   26 1     
   19    6   27 1     
   20    7    8 1     
   21    7   28 1     
   22    7   29 1     
   23    8    9 1     
   24    8   30 1     
   25    8   31 1     
   26    9   10 1     
   27    9   32 1     
   28    9   33 1     
   29   11   12 1     
   30   11   13 1     
   31   11   34 1     
   32   12   35 1     
   33   12   36 1     
   34   12   37 1     
   35   13   17 1     
   36   13   14 1     
   37   14   15 2     
   38   14   38 1     
   39   15   16 1     
   40   15   39 1     
   41   16   17 2     
   42   16   40 1     
   43   10   42 1     
   44   10   43 1     
   45   17   44 1     
@<TRIPOS>SUBSTRUCTURE
      1 S1             1
@<TRIPOS>SET
LONE_PAIRS      STATIC     ATOMS    <user>   **** ""
3 42 43 44
DONOR_HYDROGENS      STATIC     ATOMS    <user>   **** ""
2 22 41
ATOM$BLUE        STATIC     ATOMS    COLORGROUP SYSTEM
3 42 43 44
ATOM$RED        STATIC     ATOMS    COLORGROUP SYSTEM
2 22 41
