#       Name:                AV-unprocessed.smi:1661
#       Creating user name   scv26
#       Creation time:       Fri Mar 27 07:36:09 2020


#       File generated by GOLD software.
#

@<TRIPOS>MOLECULE
AV-unprocessed.smi:1661
    42    43     1
SMALL
NO_CHARGES


@<TRIPOS>ATOM
      1 ****        -2.4854   4.0916  -2.8433 C.3            1 S1                 0.0000
      2 ****        -2.1455   2.8129  -2.0650 C.3            1 S1                 0.0000
      3 ****        -2.2716   3.0191  -0.5464 C.3            1 S1                 0.0000
      4 ****        -1.8979   1.7417   0.2243 C.3            1 S1                 0.0000
      5 ****        -0.5265   1.2865  -0.1215 N.4            1 S1                 1.0000
      6 ****        -0.0946   0.1309   0.7038 C.3            1 S1                 0.0000
      7 ****         1.4397   0.0139   0.7928 C.3            1 S1                 0.0000
      8 ****         1.8441  -1.1115   1.6275 N.am           1 S1                 0.0000
      9 ****         1.8183  -2.3956   1.2416 C.2            1 S1                 0.0000
     10 ****         1.4340  -2.7575   0.1291 O.2            1 S1                 0.0000
     11 ****         2.2580  -3.2096   2.2174 N.am           1 S1                 0.0000
     12 ****         2.3755  -4.6248   2.1954 C.2            1 S1                 0.0000
     13 ****         2.0418  -5.3829   1.1391 N.2            1 S1                 0.0000
     14 ****         2.2521  -6.7341   1.3822 N.2            1 S1                 0.0000
     15 ****         2.7358  -6.9417   2.6102 C.2            1 S1                 0.0000
     16 ****         2.9820  -5.5064   3.5900 S.3            1 S1                 0.0000
     17 ****        -0.3879   1.0445  -1.5828 C.3            1 S1                 0.0000
     18 ****        -0.7301   2.3076  -2.3904 C.3            1 S1                 0.0000
     19 ****        -1.8050   4.9050  -2.5891 H              1 S1                 0.0000
     20 ****        -3.5000   4.4262  -2.6253 H              1 S1                 0.0000
     21 ****        -2.4184   3.9255  -3.9189 H              1 S1                 0.0000
     22 ****        -2.8585   2.0430  -2.3640 H              1 S1                 0.0000
     23 ****        -1.6247   3.8381  -0.2283 H              1 S1                 0.0000
     24 ****        -3.2903   3.3146  -0.2930 H              1 S1                 0.0000
     25 ****        -1.9617   1.9417   1.2946 H              1 S1                 0.0000
     26 ****        -2.6127   0.9464   0.0067 H              1 S1                 0.0000
     27 ****        -0.4806   0.2465   1.7177 H              1 S1                 0.0000
     28 ****        -0.5403  -0.7838   0.3096 H              1 S1                 0.0000
     29 ****         1.8926  -0.0953  -0.1929 H              1 S1                 0.0000
     30 ****         1.8566   0.9236   1.2257 H              1 S1                 0.0000
     31 ****         2.1764  -0.8971   2.5566 H              1 S1                 0.0000
     32 ****         2.5429  -2.7666   3.0784 H              1 S1                 0.0000
     33 ****         2.9494  -7.9473   2.9412 H              1 S1                 0.0000
     34 ****         0.6293   0.7390  -1.8243 H              1 S1                 0.0000
     35 ****        -1.0408   0.2222  -1.8806 H              1 S1                 0.0000
     36 ****        -0.6466   2.0933  -3.4565 H              1 S1                 0.0000
     37 ****         0.0018   3.0873  -2.1742 H              1 S1                 0.0000
     38 ****         0.0898   2.0519   0.1117 H              1 S1                 0.0000
     39 ****         1.1211  -2.0800  -0.5366 LP             1 S1                 0.0000
     40 ****         1.4348  -3.7288  -0.1086 LP             1 S1                 0.0000
     41 ****         1.6843  -5.0181   0.2794 LP             1 S1                 0.0000
     42 ****         2.0649  -7.4605   0.7210 LP             1 S1                 0.0000
@<TRIPOS>BOND
    1    1    2 1     
    2    1   19 1     
    3    1   20 1     
    4    1   21 1     
    5    2   18 1     
    6    2    3 1     
    7    2   22 1     
    8    3    4 1     
    9    3   23 1     
   10    3   24 1     
   11    4    5 1     
   12    4   25 1     
   13    4   26 1     
   14    5    6 1     
   15    5   17 1     
   16    5   38 1     
   17    6    7 1     
   18    6   27 1     
   19    6   28 1     
   20    7    8 1     
   21    7   29 1     
   22    7   30 1     
   23    8    9 am    
   24    8   31 1     
   25    9   10 2     
   26    9   11 am    
   27   11   12 1     
   28   11   32 1     
   29   12   16 1     
   30   12   13 2     
   31   13   14 1     
   32   14   15 2     
   33   15   16 1     
   34   15   33 1     
   35   17   18 1     
   36   17   34 1     
   37   17   35 1     
   38   18   36 1     
   39   18   37 1     
   40   10   39 1     
   41   10   40 1     
   42   13   41 1     
   43   14   42 1     
@<TRIPOS>SUBSTRUCTURE
      1 S1             1
@<TRIPOS>SET
LONE_PAIRS      STATIC     ATOMS    <user>   **** ""
4 39 40 41 42
DONOR_HYDROGENS      STATIC     ATOMS    <user>   **** ""
3 38 31 32
ATOM$BLUE        STATIC     ATOMS    COLORGROUP SYSTEM
4 39 40 41 42
ATOM$RED        STATIC     ATOMS    COLORGROUP SYSTEM
3 38 31 32
