AV-unprocessed.smi:3287|AV-procd|sdf|12602|dock6
  -GOLD-   2272018533D 1   1.00000     0.00000
 Structure written by MMmdl.
 43 44  0  0  0  0  0  0  0  0  2 V2000
  150.8770  141.9909  156.5499 C   0  0  0  0  0  0  0  0  0  0  0  0
  150.2287  141.1961  155.4045 C   0  0  2  0  0  0  0  0  0  0  0  0
  148.7133  141.4602  155.3086 C   0  0  0  0  0  0  0  0  0  0  0  0
  148.0919  140.7301  154.1079 C   0  0  0  0  0  0  0  0  0  0  0  0
  148.3720  139.2177  154.1520 C   0  0  1  0  0  0  0  0  0  0  0  0
  147.7872  138.5679  152.9583 N   0  3  0  0  0  0  0  0  0  0  0  0
  146.3764  138.1450  153.0952 C   0  0  0  0  0  0  0  0  0  0  0  0
  145.8281  137.5802  151.7732 C   0  0  1  0  0  0  0  0  0  0  0  0
  146.6170  138.0703  150.7064 O   0  0  0  0  0  0  0  0  0  0  0  0
  145.7961  136.0600  151.7968 C   0  0  0  0  0  0  0  0  0  0  0  0
  145.3369  135.3212  150.6848 C   0  0  0  0  0  0  0  0  0  0  0  0
  145.3373  133.9142  150.7635 C   0  0  0  0  0  0  0  0  0  0  0  0
  145.7572  133.2331  151.8509 N   0  0  0  0  0  0  0  0  0  0  0  0
  146.1965  133.9441  152.9109 C   0  0  0  0  0  0  0  0  0  0  0  0
  146.2378  135.3527  152.9346 C   0  0  0  0  0  0  0  0  0  0  0  0
  149.8925  138.9595  154.2519 C   0  0  0  0  0  0  0  0  0  0  0  0
  150.5397  139.6781  155.4550 C   0  0  2  0  0  0  0  0  0  0  0  0
  150.1676  139.0001  156.7894 C   0  0  0  0  0  0  0  0  0  0  0  0
  150.4343  141.7453  157.5152 H   0  0  0  0  0  0  0  0  0  0  0  0
  150.7511  143.0635  156.3988 H   0  0  0  0  0  0  0  0  0  0  0  0
  151.9476  141.7927  156.6099 H   0  0  0  0  0  0  0  0  0  0  0  0
  150.6741  141.5760  154.4834 H   0  0  0  0  0  0  0  0  0  0  0  0
  148.2162  141.1480  156.2275 H   0  0  0  0  0  0  0  0  0  0  0  0
  148.5293  142.5310  155.2135 H   0  0  0  0  0  0  0  0  0  0  0  0
  147.0164  140.9104  154.0890 H   0  0  0  0  0  0  0  0  0  0  0  0
  148.4906  141.1534  153.1845 H   0  0  0  0  0  0  0  0  0  0  0  0
  147.8739  138.8088  155.0320 H   0  0  0  0  0  0  0  0  0  0  0  0
  147.8292  139.2298  152.1968 H   0  0  0  0  0  0  0  0  0  0  0  0
  146.2799  137.4021  153.8873 H   0  0  0  0  0  0  0  0  0  0  0  0
  145.7832  139.0101  153.3948 H   0  0  0  0  0  0  0  0  0  0  0  0
  144.8111  137.9443  151.6204 H   0  0  0  0  0  0  0  0  0  0  0  0
  146.0401  138.4188  150.0431 H   0  0  0  0  0  0  0  0  0  0  0  0
  144.9918  135.8163  149.7888 H   0  0  0  0  0  0  0  0  0  0  0  0
  144.9924  133.3204  149.9300 H   0  0  0  0  0  0  0  0  0  0  0  0
  146.5267  133.3734  153.7664 H   0  0  0  0  0  0  0  0  0  0  0  0
  146.6009  135.8722  153.8093 H   0  0  0  0  0  0  0  0  0  0  0  0
  150.1017  137.8919  154.3177 H   0  0  0  0  0  0  0  0  0  0  0  0
  150.3738  139.3023  153.3346 H   0  0  0  0  0  0  0  0  0  0  0  0
  151.6194  139.5639  155.3468 H   0  0  0  0  0  0  0  0  0  0  0  0
  149.1109  139.1119  157.0294 H   0  0  0  0  0  0  0  0  0  0  0  0
  150.7401  139.4125  157.6201 H   0  0  0  0  0  0  0  0  0  0  0  0
  150.3850  137.9322  156.7568 H   0  0  0  0  0  0  0  0  0  0  0  0
  148.3488  137.7646  152.7130 H   0  0  0  0  0  0  0  0  0  0  0  0
  1  2  1  0  0  0  0
  1 19  1  0  0  0  0
  1 20  1  0  0  0  0
  1 21  1  0  0  0  0
  2 17  1  0  0  0  0
  2  3  1  0  0  0  0
  2 22  1  0  0  0  0
  3  4  1  0  0  0  0
  3 23  1  0  0  0  0
  3 24  1  0  0  0  0
  4  5  1  0  0  0  0
  4 25  1  0  0  0  0
  4 26  1  0  0  0  0
  5  6  1  0  0  0  0
  5 16  1  0  0  0  0
  5 27  1  0  0  0  0
  6  7  1  0  0  0  0
  6 28  1  0  0  0  0
  6 43  1  0  0  0  0
  7  8  1  0  0  0  0
  7 29  1  0  0  0  0
  7 30  1  0  0  0  0
  8  9  1  0  0  0  0
  8 10  1  0  0  0  0
  8 31  1  0  0  0  0
  9 32  1  0  0  0  0
 10 15  1  0  0  0  0
 10 11  2  0  0  0  0
 11 12  1  0  0  0  0
 11 33  1  0  0  0  0
 12 13  2  0  0  0  0
 12 34  1  0  0  0  0
 13 14  1  0  0  0  0
 14 15  2  0  0  0  0
 14 35  1  0  0  0  0
 15 36  1  0  0  0  0
 16 17  1  0  0  0  0
 16 37  1  0  0  0  0
 16 38  1  0  0  0  0
 17 18  1  0  0  0  0
 17 39  1  0  0  0  0
 18 40  1  0  0  0  0
 18 41  1  0  0  0  0
 18 42  1  0  0  0  0
M  CHG  1   6   1
M  END
> <s_m_source_file>
AV-unprocessed.smi

> <i_m_source_file_index>
3287

> <i_lp_mmshare_version>
43012

> <i_f3d_flags>
0

> <s_epik_input>
W0NIM11bQ0BASF0xW0NIMl1bQ0gyXVtDQEhdKFtDSDJdW0NASF0xW0NIM10pW05IXVtDSDJdW0NASF0oW09IXSljMltjSF1bY0hdbltjSF1bY0hdMg==

> <s_epik_cmdline>
J2VwaWtfcHl0aG9uJywgJy1waCcsICc3LjAnLCAnLXRuJywgJzgnLCAnLW1hJywgJzIwMCcsICctbWV0YWxfYmluZGluZycsICctaW1hZScsICc8aW5maWxlLm1hZT4nLCAnLW9tYWUnLCAnPG91dGZpbGUubWFlPic=

> <r_lp_tautomer_probability>
1

> <r_epik_Ionization_Penalty>
0.00537262

> <r_epik_Ionization_Penalty_Charging>
0.00321624

> <r_epik_Ionization_Penalty_Neutral>
0.00215638

> <r_epik_State_Penalty>
-0

> <r_epik_Charging_Adjusted_Penalty>
0.00321624

> <i_epik_Tot_Q>
1

> <i_epik_Tot_abs_Q>
1

> <r_epik_Metal_State_Penalty>
-0

> <b_epik_Metal_Only>
0

> <s_lp_Force_Field>
OPLS_2005

> <r_lp_Energy>
17.6896

> <b_lp_Chiralities_Consistent>
1

> <s_lp_Variant>
AV-unprocessed.smi:3287-13

> <Gold.Version>
5.8.1

> <Gold.Id.Protein>
6NUR|6NUR_protein|mol2

> <Gold.PLP.Fitness>
43.2780

> <Gold.PLP.PLP>
-33.4793

> <Gold.PLP.part.hbond>
-4.5582

> <Gold.PLP.part.metal>
0.0000

> <Gold.PLP.part.buried>
-0.6483

> <Gold.PLP.part.nonpolar>
-29.0734

> <Gold.PLP.part.repulsive>
0.1375

> <Gold.PLP.ligand.clash>
0.0000

> <Gold.PLP.ligand.torsion>
0.9236

> <Gold.PLP.Chemscore.Hbond>
3.8775

> <Gold.PLP.Chemscore.CHOScore>
0.0000

> <Gold.PLP.Chemscore.Metal>
0.0000

> <Gold.Chemscore.Hbonds>
donor molecule, donor type, donor heavy atom, donor atom, acceptor molecule, acceptor atom, score
      L1  H     6    28       P1  7957  0.36
      L1  H     6    43       P1  7948  2.00
      L1  H     9    32       P1 10171  0.50
      P1  H  7954  7966       L1     9  1.00

> <Gold.PLP.Chemscore.Internal.Correction>
0.0133

> <Gold.Rescore>
     Score         DG    S(hbond)    S(metal)    S(lipo)     H(rot)  DE(clash)    DE(int)     intcor
     18.42     -20.01       2.85        0.00      84.41       1.90       0.64       0.95       ----

> <Gold.Chemscore.Fitness>
18.4249

> <Gold.Chemscore.DG>
-20.0071

> <Gold.Chemscore.ZeroCoef>
-5.4800

> <Gold.Chemscore.Hbond>
2.8514

> <Gold.Chemscore.Metal>
0.0000

> <Gold.Chemscore.Lipo>
84.4121

> <Gold.Chemscore.Internal_Hbond>
0.0000

> <Gold.Chemscore.DEClash>
0.6357

> <Gold.Chemscore.DEInternal>
0.9465

> <Gold.Chemscore.Rot>
1.9035

> <Gold.Chemscore.Internal.Correction>
   9.000000E+99

> <Gold.Chemscore.Hbonds>
donor molecule, donor type, donor heavy atom, donor atom, acceptor molecule, acceptor atom, score
      L1  H     6    28       P1  7957  0.36
      L1  H     6    43       P1  7948  1.00
      L1  H     9    32       P1 10171  0.48
      P1  H  7954  7966       L1     9  0.43

> <Gold.Chemscore.Hbond.Weighted>
-9.5238

> <Gold.Chemscore.Metal.Weighted>
-0.0000

> <Gold.Chemscore.Lipo.Weighted>
-9.8762

> <Gold.Chemscore.Internal_Hbond.Weighted>
0.0000

> <Gold.Chemscore.DEClash.Weighted>
0.6357

> <Gold.Chemscore.DEInternal.Weighted>
0.9465

> <Gold.Chemscore.Rot.Weighted>
4.8729

> <Gold.Chemscore.Internal.Correction.Weighted>
   9.000000E+99

> <Gold.Protein.RotatedTorsions>
[ 6907 6896 6895 6894 ] final  -55.43 input  -60.11 | X-H torsion
[ 7974 7965 7964 7962 ] final -113.17 input  175.53 | X-H torsion
[ 8008 7997 7996 7995 ] final  -15.54 input   59.86 | X-H torsion
[ 10167 10162 10161 10158 ] final -143.36 input  -65.29 | X-H torsion
[ 10718 10713 10712 10709 ] final   25.07 input   66.30 | X-H torsion
[ 10763 10752 10751 10750 ] final   14.68 input  -60.55 | X-H torsion
[ 11005 11000 10999 10996 ] final  -67.49 input  -57.11 | X-H torsion

> <Gold.Protein.ActiveResidues>
 VAL166  LYS551  ARG553  GLY616  TRP617  ASP618  TYR619  PRO620  LYS621  CYS622 
 ASP623  PHE694  ASN695  SER759  ASP760  ASP761  ALA762  ILE779  LEU786  VAL792 
 PHE793  MET794  SER795  GLU796  ALA797  LYS798  CYS799  TRP800  GLU811  SER814 

> <Gold.Protein.RotatedAtoms>
  150.8252  134.7480  159.6806 H   0  0  0  0  0  0  0  0  0  0  0  0  # atno 6907 bound_to 6896
  152.4364  134.5675  159.9921 H   0  0  0  0  0  0  0  0  0  0  0  0  # atno 6908 bound_to 6896
  151.5849  133.3336  159.3052 H   0  0  0  0  0  0  0  0  0  0  0  0  # atno 6909 bound_to 6896
  145.1353  140.8747  143.3734 H   0  0  0  0  0  0  0  0  0  0  0  0  # atno 7974 bound_to 7965
  154.5122  140.2193  155.9134 H   0  0  0  0  0  0  0  0  0  0  0  0  # atno 8008 bound_to 7997
  156.1566  140.3151  155.8702 H   0  0  0  0  0  0  0  0  0  0  0  0  # atno 8009 bound_to 7997
  155.3835  140.0474  157.3033 H   0  0  0  0  0  0  0  0  0  0  0  0  # atno 8010 bound_to 7997
  139.8000  143.7846  152.2657 H   0  0  0  0  0  0  0  0  0  0  0  0  # atno 10167 bound_to 10162
  157.1883  130.6834  149.6140 H   0  0  0  0  0  0  0  0  0  0  0  0  # atno 10718 bound_to 10713
  153.1598  135.6794  153.8759 H   0  0  0  0  0  0  0  0  0  0  0  0  # atno 10763 bound_to 10752
  153.8158  135.3137  155.3406 H   0  0  0  0  0  0  0  0  0  0  0  0  # atno 10764 bound_to 10752
  154.7924  135.4827  154.0172 H   0  0  0  0  0  0  0  0  0  0  0  0  # atno 10765 bound_to 10752
  141.1509  133.6720  156.6301 H   0  0  0  0  0  0  0  0  0  0  0  0  # atno 11005 bound_to 11000
  145.0591  139.3120  143.5889 LP  0  0  0  0  0  0  0  0  0  0  0  0  # atno 17320 bound_to 7965
  146.3510  140.0027  142.8674 LP  0  0  0  0  0  0  0  0  0  0  0  0  # atno 17321 bound_to 7965
  139.7964  144.7391  150.9885 LP  0  0  0  0  0  0  0  0  0  0  0  0  # atno 17342 bound_to 10162
  140.7820  143.4390  151.0580 LP  0  0  0  0  0  0  0  0  0  0  0  0  # atno 17343 bound_to 10162
  155.9715  130.4623  150.6141 LP  0  0  0  0  0  0  0  0  0  0  0  0  # atno 17370 bound_to 10713
  157.3885  131.0792  151.1414 LP  0  0  0  0  0  0  0  0  0  0  0  0  # atno 17371 bound_to 10713
  140.3473  134.7798  157.4441 LP  0  0  0  0  0  0  0  0  0  0  0  0  # atno 17394 bound_to 11000
  140.0889  134.5628  155.8464 LP  0  0  0  0  0  0  0  0  0  0  0  0  # atno 17395 bound_to 11000

$$$$
