AV-unprocessed.smi:3354|AV-procd|sdf|12962|dock3
  -GOLD-   2272019403D 1   1.00000     0.00000
 Structure written by MMmdl.
 38 40  0  0  0  0  0  0  0  0  1 V2000
  145.4967  130.3299  151.7080 C   0  0  0  0  0  0  0  0  0  0  0  0
  145.5704  131.7376  151.1573 C   0  0  1  0  0  0  0  0  0  0  0  0
  145.0868  132.0287  149.7549 C   0  0  0  0  0  0  0  0  0  0  0  0
  144.3152  132.5559  150.9483 C   0  0  2  0  0  0  0  0  0  0  0  0
  144.3412  133.9510  151.2685 N   0  0  0  0  0  0  0  0  0  0  0  0
  145.4771  134.7464  150.8338 C   0  0  0  0  0  0  0  0  0  0  0  0
  145.1979  136.1705  151.3433 C   0  0  2  0  0  0  0  0  0  0  0  0
  146.4070  136.7745  151.8960 N   0  0  0  0  0  0  0  0  0  0  0  0
  146.4392  137.9144  152.6000 C   0  0  0  0  0  0  0  0  0  0  0  0
  145.4351  138.5747  152.8660 O   0  0  0  0  0  0  0  0  0  0  0  0
  147.6922  138.2137  152.9832 N   0  0  0  0  0  0  0  0  0  0  0  0
  148.1490  139.3487  153.7061 C   0  0  0  0  0  0  0  0  0  0  0  0
  147.3790  140.5167  153.9251 C   0  0  0  0  0  0  0  0  0  0  0  0
  147.9537  141.5854  154.6396 C   0  0  0  0  0  0  0  0  0  0  0  0
  149.2769  141.4512  155.1025 C   0  0  0  0  0  0  0  0  0  0  0  0
  150.0268  140.3492  154.8903 N   0  0  0  0  0  0  0  0  0  0  0  0
  149.4694  139.3290  154.2038 C   0  0  0  0  0  0  0  0  0  0  0  0
  144.0842  136.0127  152.3905 C   0  0  0  0  0  0  0  0  0  0  0  0
  143.6187  134.5781  152.2073 C   0  0  0  0  0  0  0  0  0  0  0  0
  142.7068  134.0918  152.8746 O   0  0  0  0  0  0  0  0  0  0  0  0
  144.5943  129.8245  151.3622 H   0  0  0  0  0  0  0  0  0  0  0  0
  145.4834  130.3564  152.7976 H   0  0  0  0  0  0  0  0  0  0  0  0
  146.3643  129.7550  151.3839 H   0  0  0  0  0  0  0  0  0  0  0  0
  146.4561  132.2849  151.4752 H   0  0  0  0  0  0  0  0  0  0  0  0
  145.6882  132.7189  149.1663 H   0  0  0  0  0  0  0  0  0  0  0  0
  144.6374  131.2128  149.1922 H   0  0  0  0  0  0  0  0  0  0  0  0
  143.3725  132.0523  151.1546 H   0  0  0  0  0  0  0  0  0  0  0  0
  146.3865  134.3288  151.2694 H   0  0  0  0  0  0  0  0  0  0  0  0
  145.5821  134.7218  149.7483 H   0  0  0  0  0  0  0  0  0  0  0  0
  144.8277  136.7761  150.5135 H   0  0  0  0  0  0  0  0  0  0  0  0
  147.2776  136.2921  151.7267 H   0  0  0  0  0  0  0  0  0  0  0  0
  148.3991  137.5262  152.7673 H   0  0  0  0  0  0  0  0  0  0  0  0
  146.3730  140.6215  153.5501 H   0  0  0  0  0  0  0  0  0  0  0  0
  147.3936  142.4902  154.8239 H   0  0  0  0  0  0  0  0  0  0  0  0
  149.7473  142.2531  155.6522 H   0  0  0  0  0  0  0  0  0  0  0  0
  150.0997  138.4652  154.0500 H   0  0  0  0  0  0  0  0  0  0  0  0
  144.4511  136.1408  153.4101 H   0  0  0  0  0  0  0  0  0  0  0  0
  143.2670  136.7159  152.2258 H   0  0  0  0  0  0  0  0  0  0  0  0
  1  2  1  0  0  0  0
  1 21  1  0  0  0  0
  1 22  1  0  0  0  0
  1 23  1  0  0  0  0
  2  4  1  0  0  0  0
  2  3  1  0  0  0  0
  2 24  1  0  0  0  0
  3  4  1  0  0  0  0
  3 25  1  0  0  0  0
  3 26  1  0  0  0  0
  4  5  1  0  0  0  0
  4 27  1  0  0  0  0
  5 19  1  0  0  0  0
  5  6  1  0  0  0  0
  6  7  1  0  0  0  0
  6 28  1  0  0  0  0
  6 29  1  0  0  0  0
  7  8  1  0  0  0  0
  7 18  1  0  0  0  0
  7 30  1  0  0  0  0
  8  9  1  0  0  0  0
  8 31  1  0  0  0  0
  9 10  2  0  0  0  0
  9 11  1  0  0  0  0
 11 12  1  0  0  0  0
 11 32  1  0  0  0  0
 12 17  1  0  0  0  0
 12 13  2  0  0  0  0
 13 14  1  0  0  0  0
 13 33  1  0  0  0  0
 14 15  2  0  0  0  0
 14 34  1  0  0  0  0
 15 16  1  0  0  0  0
 15 35  1  0  0  0  0
 16 17  2  0  0  0  0
 17 36  1  0  0  0  0
 18 19  1  0  0  0  0
 18 37  1  0  0  0  0
 18 38  1  0  0  0  0
 19 20  2  0  0  0  0
M  END
> <s_m_source_file>
AV-unprocessed.smi

> <i_m_source_file_index>
3354

> <i_lp_mmshare_version>
43012

> <i_f3d_flags>
0

> <s_epik_input>
W0NIM11bQ0BASF0xW0NIMl1bQ0BIXTFOMltDSDJdW0NASF0oW0NIMl1DMj1PKVtOSF1DKD1PKVtOSF1jM1tjSF1bY0hdW2NIXW5bY0hdMw==

> <s_epik_cmdline>
J2VwaWtfcHl0aG9uJywgJy1waCcsICc3LjAnLCAnLXRuJywgJzgnLCAnLW1hJywgJzIwMCcsICctbWV0YWxfYmluZGluZycsICctaW1hZScsICc8aW5maWxlLm1hZT4nLCAnLW9tYWUnLCAnPG91dGZpbGUubWFlPic=

> <r_epik_Ionization_Penalty>
0.00456191

> <r_epik_Ionization_Penalty_Charging>
0

> <r_epik_Ionization_Penalty_Neutral>
0.00456191

> <r_epik_State_Penalty>
0.00327094

> <r_epik_Charging_Adjusted_Penalty>
0.00327094

> <i_epik_Tot_Q>
0

> <i_epik_Tot_abs_Q>
0

> <r_epik_Metal_State_Penalty>
-0

> <b_epik_Metal_Only>
0

> <s_lp_Force_Field>
OPLS_2005

> <r_lp_Energy>
40.9267

> <b_lp_Chiralities_Consistent>
1

> <s_lp_Variant>
AV-unprocessed.smi:3354-8

> <Gold.Version>
5.8.1

> <Gold.Id.Protein>
6NUR|6NUR_protein|mol2

> <Gold.PLP.Fitness>
46.4885

> <Gold.PLP.PLP>
-35.3227

> <Gold.PLP.part.hbond>
-3.8463

> <Gold.PLP.part.metal>
0.0000

> <Gold.PLP.part.buried>
1.1143

> <Gold.PLP.part.nonpolar>
-37.6465

> <Gold.PLP.part.repulsive>
4.3003

> <Gold.PLP.ligand.clash>
0.0000

> <Gold.PLP.ligand.torsion>
0.4176

> <Gold.PLP.Chemscore.Hbond>
2.9120

> <Gold.PLP.Chemscore.CHOScore>
0.9618

> <Gold.PLP.Chemscore.Metal>
0.0000

> <Gold.Chemscore.Hbonds>
donor molecule, donor type, donor heavy atom, donor atom, acceptor molecule, acceptor atom, score
      L1  H     8    31       P1  7948  1.00
      L1  H    11    32       P1  7948  1.00
      P1  H  7989  7998       L1    16  0.58
      L1  C    15    35       P1  8028  0.70

> <Gold.PLP.Chemscore.Internal.Correction>
0.3794

> <Gold.Rescore>
     Score         DG    S(hbond)    S(metal)    S(lipo)     H(rot)  DE(clash)    DE(int)     intcor
     14.07     -18.82       1.90        0.00      86.77       1.24       1.52       3.23       ----

> <Gold.Chemscore.Fitness>
14.0702

> <Gold.Chemscore.DG>
-18.8158

> <Gold.Chemscore.ZeroCoef>
-5.4800

> <Gold.Chemscore.Hbond>
1.9007

> <Gold.Chemscore.Metal>
0.0000

> <Gold.Chemscore.Lipo>
86.7658

> <Gold.Chemscore.Internal_Hbond>
0.0000

> <Gold.Chemscore.DEClash>
1.5154

> <Gold.Chemscore.DEInternal>
3.2302

> <Gold.Chemscore.Rot>
1.2361

> <Gold.Chemscore.Internal.Correction>
   9.000000E+99

> <Gold.Chemscore.Hbonds>
donor molecule, donor type, donor heavy atom, donor atom, acceptor molecule, acceptor atom, score
      L1  H     8    31       P1  7948  0.95
      L1  H    11    32       P1  7948  0.95
      P1  H  7989  7998       L1    16  0.08

> <Gold.Chemscore.Hbond.Weighted>
-6.3485

> <Gold.Chemscore.Metal.Weighted>
-0.0000

> <Gold.Chemscore.Lipo.Weighted>
-10.1516

> <Gold.Chemscore.Internal_Hbond.Weighted>
0.0000

> <Gold.Chemscore.DEClash.Weighted>
1.5154

> <Gold.Chemscore.DEInternal.Weighted>
3.2302

> <Gold.Chemscore.Rot.Weighted>
3.1643

> <Gold.Chemscore.Internal.Correction.Weighted>
   9.000000E+99

> <Gold.Protein.RotatedTorsions>
[ 6907 6896 6895 6894 ] final  126.20 input  -60.11 | X-H torsion
[ 7974 7965 7964 7962 ] final -102.02 input  175.53 | X-H torsion
[ 8008 7997 7996 7995 ] final   27.53 input   59.86 | X-H torsion
[ 10167 10162 10161 10158 ] final -133.56 input  -65.29 | X-H torsion
[ 10718 10713 10712 10709 ] final   29.20 input   66.30 | X-H torsion
[ 10763 10752 10751 10750 ] final   -6.43 input  -60.55 | X-H torsion
[ 11005 11000 10999 10996 ] final  136.28 input  -57.11 | X-H torsion

> <Gold.Protein.ActiveResidues>
 VAL166  LYS551  ARG553  GLY616  TRP617  ASP618  TYR619  PRO620  LYS621  CYS622 
 ASP623  PHE694  ASN695  SER759  ASP760  ASP761  ALA762  ILE779  LEU786  VAL792 
 PHE793  MET794  SER795  GLU796  ALA797  LYS798  CYS799  TRP800  GLU811  SER814 

> <Gold.Protein.RotatedAtoms>
  152.3924  133.6698  159.6248 H   0  0  0  0  0  0  0  0  0  0  0  0  # atno 6907 bound_to 6896
  150.7830  133.8931  159.3328 H   0  0  0  0  0  0  0  0  0  0  0  0  # atno 6908 bound_to 6896
  151.6715  135.0977  160.0250 H   0  0  0  0  0  0  0  0  0  0  0  0  # atno 6909 bound_to 6896
  145.2741  140.9307  143.2969 H   0  0  0  0  0  0  0  0  0  0  0  0  # atno 7974 bound_to 7965
  155.0444  140.3173  155.4713 H   0  0  0  0  0  0  0  0  0  0  0  0  # atno 8008 bound_to 7997
  156.2848  140.2157  156.5512 H   0  0  0  0  0  0  0  0  0  0  0  0  # atno 8009 bound_to 7997
  154.7262  140.0485  157.0673 H   0  0  0  0  0  0  0  0  0  0  0  0  # atno 8010 bound_to 7997
  139.8970  143.6654  152.2602 H   0  0  0  0  0  0  0  0  0  0  0  0  # atno 10167 bound_to 10162
  157.2435  130.7080  149.6370 H   0  0  0  0  0  0  0  0  0  0  0  0  # atno 10718 bound_to 10713
  153.4123  135.7008  153.6351 H   0  0  0  0  0  0  0  0  0  0  0  0  # atno 10763 bound_to 10752
  153.4840  135.3687  155.2457 H   0  0  0  0  0  0  0  0  0  0  0  0  # atno 10764 bound_to 10752
  154.8717  135.4073  154.3477 H   0  0  0  0  0  0  0  0  0  0  0  0  # atno 10765 bound_to 10752
  140.0036  134.9468  157.0125 H   0  0  0  0  0  0  0  0  0  0  0  0  # atno 11005 bound_to 11000
  144.9310  139.4299  143.6495 LP  0  0  0  0  0  0  0  0  0  0  0  0  # atno 17320 bound_to 7965
  146.3237  139.8220  142.8925 LP  0  0  0  0  0  0  0  0  0  0  0  0  # atno 17321 bound_to 7965
  139.7059  144.7628  151.1194 LP  0  0  0  0  0  0  0  0  0  0  0  0  # atno 17342 bound_to 10162
  140.7715  143.5395  150.9329 LP  0  0  0  0  0  0  0  0  0  0  0  0  # atno 17343 bound_to 10162
  155.9669  130.4450  150.5485 LP  0  0  0  0  0  0  0  0  0  0  0  0  # atno 17370 bound_to 10713
  157.3354  131.0707  151.1829 LP  0  0  0  0  0  0  0  0  0  0  0  0  # atno 17371 bound_to 10713
  140.4683  134.1413  155.7200 LP  0  0  0  0  0  0  0  0  0  0  0  0  # atno 17394 bound_to 11000
  141.1660  133.8702  157.1713 LP  0  0  0  0  0  0  0  0  0  0  0  0  # atno 17395 bound_to 11000

$$$$
