#       Name:                AV-unprocessed.smi:2751
#       Creating user name   scv26
#       Creation time:       Fri Mar 27 15:05:12 2020


#       File generated by GOLD software.
#

@<TRIPOS>MOLECULE
AV-unprocessed.smi:2751
    41    42     1
SMALL
NO_CHARGES


@<TRIPOS>ATOM
      1 ****        -1.6307   1.8363   0.7060 O.2            1 S1                 0.0000
      2 ****        -2.1820   0.7473   0.8953 C.2            1 S1                 0.0000
      3 ****        -1.4707  -0.3776   1.0641 N.am           1 S1                 0.0000
      4 ****        -0.0147  -0.4689   1.0537 C.3            1 S1                 0.0000
      5 ****         0.5412  -0.5176  -0.3800 C.3            1 S1                 0.0000
      6 ****         2.0747  -0.6109  -0.4226 C.3            1 S1                 0.0000
      7 ****         2.6179  -0.5229  -1.8623 C.3            1 S1                 0.0000
      8 ****         4.1411  -0.6950  -1.8754 C.3            1 S1                 0.0000
      9 ****         4.5222  -1.9831  -1.1385 C.3            1 S1                 0.0000
     10 ****         3.8830  -2.0079   0.2588 C.3            1 S1                 0.0000
     11 ****         2.4710  -1.8568   0.1488 O.3            1 S1                 0.0000
     12 ****        -3.5385   0.4682   0.9794 N.2            1 S1                 0.0000
     13 ****        -4.3960   1.4416   0.9809 C.2            1 S1                 0.0000
     14 ****        -5.7770   1.3516   1.0544 N.pl3          1 S1                 0.0000
     15 ****        -6.2884   2.6197   1.0310 C.2            1 S1                 0.0000
     16 ****        -5.2727   3.4739   0.9457 C.2            1 S1                 0.0000
     17 ****        -4.0990   2.7835   0.9136 O.3            1 S1                 0.0000
     18 ****        -1.9787  -1.2369   1.2167 H              1 S1                 0.0000
     19 ****         0.4174   0.3678   1.6051 H              1 S1                 0.0000
     20 ****         0.2673  -1.3729   1.5941 H              1 S1                 0.0000
     21 ****         0.1071  -1.3632  -0.9154 H              1 S1                 0.0000
     22 ****         0.2266   0.3785  -0.9165 H              1 S1                 0.0000
     23 ****         2.4920   0.2054   0.1701 H              1 S1                 0.0000
     24 ****         2.1580  -1.2972  -2.4780 H              1 S1                 0.0000
     25 ****         2.3489   0.4339  -2.3109 H              1 S1                 0.0000
     26 ****         4.5136  -0.7172  -2.8998 H              1 S1                 0.0000
     27 ****         4.6111   0.1603  -1.3882 H              1 S1                 0.0000
     28 ****         4.1807  -2.8473  -1.7098 H              1 S1                 0.0000
     29 ****         5.6065  -2.0671  -1.0604 H              1 S1                 0.0000
     30 ****         4.0977  -2.9561   0.7519 H              1 S1                 0.0000
     31 ****         4.2959  -1.2201   0.8908 H              1 S1                 0.0000
     32 ****        -6.3477   0.5208   1.1161 H              1 S1                 0.0000
     33 ****        -7.3555   2.7795   1.0793 H              1 S1                 0.0000
     34 ****        -5.2217   4.5518   0.9007 H              1 S1                 0.0000
     35 ****        -2.1821   2.6625   0.5908 LP             1 S1                 0.0000
     36 ****        -0.6330   1.8917   0.6680 LP             1 S1                 0.0000
     37 ****         2.1174  -2.5952  -0.4255 LP             1 S1                 0.0000
     38 ****         2.0730  -1.9264   1.0636 LP             1 S1                 0.0000
     39 ****        -3.8537  -0.4790   1.0386 LP             1 S1                 0.0000
     40 ****        -3.6115   2.9814   0.0632 LP             1 S1                 0.0000
     41 ****        -3.5295   3.0450   1.6929 LP             1 S1                 0.0000
@<TRIPOS>BOND
    1    1    2 2     
    2    2   12 1     
    3    2    3 am    
    4    3    4 1     
    5    3   18 1     
    6    4    5 1     
    7    4   19 1     
    8    4   20 1     
    9    5    6 1     
   10    5   21 1     
   11    5   22 1     
   12    6   11 1     
   13    6    7 1     
   14    6   23 1     
   15    7    8 1     
   16    7   24 1     
   17    7   25 1     
   18    8    9 1     
   19    8   26 1     
   20    8   27 1     
   21    9   10 1     
   22    9   28 1     
   23    9   29 1     
   24   10   11 1     
   25   10   30 1     
   26   10   31 1     
   27   12   13 2     
   28   13   17 1     
   29   13   14 1     
   30   14   32 1     
   31   14   15 1     
   32   15   33 1     
   33   15   16 2     
   34   16   34 1     
   35   16   17 1     
   36    1   35 1     
   37    1   36 1     
   38   11   37 1     
   39   11   38 1     
   40   12   39 1     
   41   17   40 1     
   42   17   41 1     
@<TRIPOS>SUBSTRUCTURE
      1 S1             1
@<TRIPOS>SET
LONE_PAIRS      STATIC     ATOMS    <user>   **** ""
7 35 36 37 38 39 40 41
DONOR_HYDROGENS      STATIC     ATOMS    <user>   **** ""
2 18 32
ATOM$BLUE        STATIC     ATOMS    COLORGROUP SYSTEM
7 35 36 37 38 39 40 41
ATOM$RED        STATIC     ATOMS    COLORGROUP SYSTEM
2 18 32
