AV-unprocessed.smi:221|AV-procd|sdf|1686|dock9
  -GOLD-   2262020123D 1   1.00000     0.00000
 Structure written by MMmdl.
 50 53  0  0  0  0  0  0  0  0  1 V2000
  143.5471  137.3771  160.8887 N   0  0  0  0  0  0  0  0  0  0  0  0
  144.8723  137.4794  160.7647 C   0  0  0  0  0  0  0  0  0  0  0  0
  145.4197  138.5355  160.4526 O   0  0  0  0  0  0  0  0  0  0  0  0
  145.6934  136.2140  161.0517 C   0  0  2  0  0  0  0  0  0  0  0  0
  145.4770  135.7042  162.4825 C   0  0  0  0  0  0  0  0  0  0  0  0
  146.7380  134.8912  162.7533 C   0  0  1  0  0  0  0  0  0  0  0  0
  146.6052  133.6733  162.2257 F   0  0  0  0  0  0  0  0  0  0  0  0
  147.8236  135.6610  161.9971 C   0  0  0  0  0  0  0  0  0  0  0  0
  147.1362  136.4565  160.9831 N   0  0  0  0  0  0  0  0  0  0  0  0
  147.6827  136.4272  159.7476 C   0  0  0  0  0  0  0  0  0  0  0  0
  146.8992  135.9853  158.7339 N   0  0  0  0  0  0  0  0  0  0  0  0
  147.3862  135.9286  157.4904 C   0  0  0  0  0  0  0  0  0  0  0  0
  148.6037  136.2597  157.0533 N   0  0  0  0  0  0  0  0  0  0  0  0
  149.3918  136.7050  158.0738 C   0  0  0  0  0  0  0  0  0  0  0  0
  149.0146  136.8231  159.4405 C   0  0  0  0  0  0  0  0  0  0  0  0
  150.0783  137.3160  160.1866 N   0  0  0  0  0  0  0  0  0  0  0  0
  151.0323  137.4770  159.3107 C   0  0  0  0  0  0  0  0  0  0  0  0
  150.7078  137.1268  158.0193 N   0  0  0  0  0  0  0  0  0  0  0  0
  151.5700  137.1970  156.8534 C   0  0  0  0  0  0  0  0  0  0  0  0
  151.1776  138.3127  155.8523 C   0  0  2  0  0  0  0  0  0  0  0  0
  152.0748  138.3306  154.5871 C   0  0  0  0  0  0  0  0  0  0  0  0
  151.9891  137.1184  153.8663 O   0  0  0  0  0  0  0  0  0  0  0  0
  151.1155  139.6741  156.5931 C   0  0  2  0  0  0  0  0  0  0  0  0
  150.0584  139.8051  157.6745 C   0  0  0  0  0  0  0  0  0  0  0  0
  150.0423  141.3139  157.8968 C   0  0  0  0  0  0  0  0  0  0  0  0
  150.3094  141.8936  156.6229 O   0  0  0  0  0  0  0  0  0  0  0  0
  150.8398  140.9130  155.7344 C   0  0  0  0  0  0  0  0  0  0  0  0
  145.4111  135.4301  160.3462 H   0  0  0  0  0  0  0  0  0  0  0  0
  146.9560  134.7675  163.8142 H   0  0  0  0  0  0  0  0  0  0  0  0
  142.9641  138.1811  160.7066 H   0  0  0  0  0  0  0  0  0  0  0  0
  143.1320  136.4975  161.1596 H   0  0  0  0  0  0  0  0  0  0  0  0
  145.4224  136.5350  163.1884 H   0  0  0  0  0  0  0  0  0  0  0  0
  144.5657  135.1146  162.5889 H   0  0  0  0  0  0  0  0  0  0  0  0
  148.3258  136.3551  162.6715 H   0  0  0  0  0  0  0  0  0  0  0  0
  148.5879  134.9937  161.5944 H   0  0  0  0  0  0  0  0  0  0  0  0
  146.7023  135.5651  156.7375 H   0  0  0  0  0  0  0  0  0  0  0  0
  152.0079  137.8506  159.5864 H   0  0  0  0  0  0  0  0  0  0  0  0
  152.5902  137.3488  157.2077 H   0  0  0  0  0  0  0  0  0  0  0  0
  151.5578  136.2255  156.3579 H   0  0  0  0  0  0  0  0  0  0  0  0
  150.1564  138.1103  155.5248 H   0  0  0  0  0  0  0  0  0  0  0  0
  151.7825  139.1214  153.8993 H   0  0  0  0  0  0  0  0  0  0  0  0
  153.1159  138.5166  154.8517 H   0  0  0  0  0  0  0  0  0  0  0  0
  151.5761  137.2924  153.0343 H   0  0  0  0  0  0  0  0  0  0  0  0
  152.0752  139.8288  157.0902 H   0  0  0  0  0  0  0  0  0  0  0  0
  149.0790  139.4764  157.3299 H   0  0  0  0  0  0  0  0  0  0  0  0
  150.3033  139.2490  158.5799 H   0  0  0  0  0  0  0  0  0  0  0  0
  149.0958  141.6669  158.3066 H   0  0  0  0  0  0  0  0  0  0  0  0
  150.8381  141.6048  158.5841 H   0  0  0  0  0  0  0  0  0  0  0  0
  151.7387  141.2782  155.2372 H   0  0  0  0  0  0  0  0  0  0  0  0
  150.0890  140.7184  154.9693 H   0  0  0  0  0  0  0  0  0  0  0  0
  1  2  1  0  0  0  0
  1 30  1  0  0  0  0
  1 31  1  0  0  0  0
  2  3  2  0  0  0  0
  2  4  1  0  0  0  0
  4 28  1  0  0  0  0
  4  9  1  0  0  0  0
  4  5  1  0  0  0  0
  5  6  1  0  0  0  0
  5 32  1  0  0  0  0
  5 33  1  0  0  0  0
  6 29  1  0  0  0  0
  6  7  1  0  0  0  0
  6  8  1  0  0  0  0
  8  9  1  0  0  0  0
  8 34  1  0  0  0  0
  8 35  1  0  0  0  0
  9 10  1  0  0  0  0
 10 15  1  0  0  0  0
 10 11  2  0  0  0  0
 11 12  1  0  0  0  0
 12 13  2  0  0  0  0
 12 36  1  0  0  0  0
 13 14  1  0  0  0  0
 14 18  1  0  0  0  0
 14 15  2  0  0  0  0
 15 16  1  0  0  0  0
 16 17  2  0  0  0  0
 17 18  1  0  0  0  0
 17 37  1  0  0  0  0
 18 19  1  0  0  0  0
 19 20  1  0  0  0  0
 19 38  1  0  0  0  0
 19 39  1  0  0  0  0
 20 21  1  0  0  0  0
 20 23  1  0  0  0  0
 20 40  1  0  0  0  0
 21 22  1  0  0  0  0
 21 41  1  0  0  0  0
 21 42  1  0  0  0  0
 22 43  1  0  0  0  0
 23 27  1  0  0  0  0
 23 24  1  0  0  0  0
 23 44  1  0  0  0  0
 24 25  1  0  0  0  0
 24 45  1  0  0  0  0
 24 46  1  0  0  0  0
 25 26  1  0  0  0  0
 25 47  1  0  0  0  0
 25 48  1  0  0  0  0
 26 27  1  0  0  0  0
 27 49  1  0  0  0  0
 27 50  1  0  0  0  0
M  END
> <s_m_source_file>
AV-unprocessed.smi

> <i_m_source_file_index>
221

> <i_lp_mmshare_version>
43012

> <i_f3d_flags>
0

> <s_epik_input>
W05IMl1DKD1PKVtDQEBIXTFbQ0gyXVtDQEBIXShGKVtDSDJdTjFjKG5bY0hdbjIpYyhjMjMpbltjSF1uM1tDSDJdW0NASF0oW0NIMl1bT0hdKVtDQEBIXTRbQ0gyXVtDSDJdT1tDSDJdNA==

> <s_epik_cmdline>
J2VwaWtfcHl0aG9uJywgJy1waCcsICc3LjAnLCAnLXRuJywgJzgnLCAnLW1hJywgJzIwMCcsICctbWV0YWxfYmluZGluZycsICctaW1hZScsICc8aW5maWxlLm1hZT4nLCAnLW9tYWUnLCAnPG91dGZpbGUubWFlPic=

> <r_lp_tautomer_probability>
1

> <r_epik_Ionization_Penalty>
0.000818822

> <r_epik_Ionization_Penalty_Charging>
0

> <r_epik_Ionization_Penalty_Neutral>
0.000818822

> <r_epik_State_Penalty>
0.000440551

> <r_epik_Charging_Adjusted_Penalty>
0.000440551

> <i_epik_Tot_Q>
0

> <i_epik_Tot_abs_Q>
0

> <r_epik_Metal_State_Penalty>
-0

> <b_epik_Metal_Only>
0

> <s_lp_Force_Field>
OPLS_2005

> <r_lp_Energy>
52.3399

> <b_lp_Chiralities_Consistent>
1

> <s_lp_Variant>
AV-unprocessed.smi:221-1

> <Gold.Version>
5.8.1

> <Gold.Id.Protein>
6NUR|6NUR_protein|mol2

> <Gold.PLP.Fitness>
43.8535

> <Gold.PLP.PLP>
-37.0735

> <Gold.PLP.part.hbond>
-4.0000

> <Gold.PLP.part.metal>
0.0000

> <Gold.PLP.part.buried>
-6.2359

> <Gold.PLP.part.nonpolar>
-27.8355

> <Gold.PLP.part.repulsive>
0.1695

> <Gold.PLP.ligand.clash>
0.0000

> <Gold.PLP.ligand.torsion>
0.3010

> <Gold.PLP.Chemscore.Hbond>
2.3494

> <Gold.PLP.Chemscore.CHOScore>
0.0000

> <Gold.PLP.Chemscore.Metal>
0.0000

> <Gold.Chemscore.Hbonds>
donor molecule, donor type, donor heavy atom, donor atom, acceptor molecule, acceptor atom, score
      L1  H    22    43       P1  7949  0.53
      P1  H  6931  6943       L1    16  0.10
      P1  H  6934  6947       L1     3  0.54
      P1  H 10752 10765       L1    22  1.00

> <Gold.PLP.Chemscore.Internal.Correction>
0.3337

> <Gold.Rescore>
     Score         DG    S(hbond)    S(metal)    S(lipo)     H(rot)  DE(clash)    DE(int)     intcor
     10.41     -12.12       2.40        0.00      69.80       3.72       0.02       1.69       ----

> <Gold.Chemscore.Fitness>
10.4147

> <Gold.Chemscore.DG>
-12.1240

> <Gold.Chemscore.ZeroCoef>
-5.4800

> <Gold.Chemscore.Hbond>
2.3956

> <Gold.Chemscore.Metal>
0.0000

> <Gold.Chemscore.Lipo>
69.7973

> <Gold.Chemscore.Internal_Hbond>
0.0000

> <Gold.Chemscore.DEClash>
0.0159

> <Gold.Chemscore.DEInternal>
1.6933

> <Gold.Chemscore.Rot>
3.7202

> <Gold.Chemscore.Internal.Correction>
   9.000000E+99

> <Gold.Chemscore.Hbonds>
donor molecule, donor type, donor heavy atom, donor atom, acceptor molecule, acceptor atom, score
      L1  H    22    43       P1  7949  0.48
      P1  H  6931  6943       L1    16  0.04
      P1  H  6934  6947       L1     3  0.54
      P1  H 10752 10765       L1    22  0.97

> <Gold.Chemscore.Hbond.Weighted>
-8.0014

> <Gold.Chemscore.Metal.Weighted>
-0.0000

> <Gold.Chemscore.Lipo.Weighted>
-8.1663

> <Gold.Chemscore.Internal_Hbond.Weighted>
0.0000

> <Gold.Chemscore.DEClash.Weighted>
0.0159

> <Gold.Chemscore.DEInternal.Weighted>
1.6933

> <Gold.Chemscore.Rot.Weighted>
9.5237

> <Gold.Chemscore.Internal.Correction.Weighted>
   9.000000E+99

> <Gold.Protein.RotatedTorsions>
[ 6907 6896 6895 6894 ] final  113.14 input  -60.11 | X-H torsion
[ 7974 7965 7964 7962 ] final  120.02 input  175.53 | X-H torsion
[ 8008 7997 7996 7995 ] final  166.83 input   59.86 | X-H torsion
[ 10167 10162 10161 10158 ] final  127.04 input  -65.29 | X-H torsion
[ 10718 10713 10712 10709 ] final   82.92 input   66.30 | X-H torsion
[ 10763 10752 10751 10750 ] final  155.31 input  -60.55 | X-H torsion
[ 11005 11000 10999 10996 ] final   58.70 input  -57.11 | X-H torsion

> <Gold.Protein.ActiveResidues>
 VAL166  LYS551  ARG553  GLY616  TRP617  ASP618  TYR619  PRO620  LYS621  CYS622 
 ASP623  PHE694  ASN695  SER759  ASP760  ASP761  ALA762  ILE779  LEU786  VAL792 
 PHE793  MET794  SER795  GLU796  ALA797  LYS798  CYS799  TRP800  GLU811  SER814 

> <Gold.Protein.RotatedAtoms>
  152.4877  133.8417  159.7155 H   0  0  0  0  0  0  0  0  0  0  0  0  # atno 6907 bound_to 6896
  150.8979  133.7148  159.2893 H   0  0  0  0  0  0  0  0  0  0  0  0  # atno 6908 bound_to 6896
  151.4599  135.1041  159.9774 H   0  0  0  0  0  0  0  0  0  0  0  0  # atno 6909 bound_to 6896
  145.1361  139.3297  143.4640 H   0  0  0  0  0  0  0  0  0  0  0  0  # atno 7974 bound_to 7965
  156.1686  140.1633  156.8488 H   0  0  0  0  0  0  0  0  0  0  0  0  # atno 8008 bound_to 7997
  154.5233  140.0773  156.8246 H   0  0  0  0  0  0  0  0  0  0  0  0  # atno 8009 bound_to 7997
  155.3560  140.3392  155.4242 H   0  0  0  0  0  0  0  0  0  0  0  0  # atno 8010 bound_to 7997
  139.5599  144.6874  151.4073 H   0  0  0  0  0  0  0  0  0  0  0  0  # atno 10167 bound_to 10162
  157.6868  131.0068  150.2446 H   0  0  0  0  0  0  0  0  0  0  0  0  # atno 10718 bound_to 10713
  154.1664  135.2807  155.3094 H   0  0  0  0  0  0  0  0  0  0  0  0  # atno 10763 bound_to 10752
  154.6108  135.5499  153.7475 H   0  0  0  0  0  0  0  0  0  0  0  0  # atno 10764 bound_to 10752
  153.0177  135.6415  154.1805 H   0  0  0  0  0  0  0  0  0  0  0  0  # atno 10765 bound_to 10752
  140.0358  134.5945  155.9446 H   0  0  0  0  0  0  0  0  0  0  0  0  # atno 11005 bound_to 11000
  146.3509  140.1380  142.8595 LP  0  0  0  0  0  0  0  0  0  0  0  0  # atno 17320 bound_to 7965
  145.0582  140.9068  143.4954 LP  0  0  0  0  0  0  0  0  0  0  0  0  # atno 17321 bound_to 7965
  140.6877  143.7934  150.7210 LP  0  0  0  0  0  0  0  0  0  0  0  0  # atno 17342 bound_to 10162
  140.1407  143.4443  152.2195 LP  0  0  0  0  0  0  0  0  0  0  0  0  # atno 17343 bound_to 10162
  156.3054  130.3764  149.7711 LP  0  0  0  0  0  0  0  0  0  0  0  0  # atno 17370 bound_to 10713
  156.5328  130.8265  151.3243 LP  0  0  0  0  0  0  0  0  0  0  0  0  # atno 17371 bound_to 10713
  141.1856  133.6555  156.5206 LP  0  0  0  0  0  0  0  0  0  0  0  0  # atno 17394 bound_to 11000
  140.4150  134.7238  157.4857 LP  0  0  0  0  0  0  0  0  0  0  0  0  # atno 17395 bound_to 11000

$$$$
