#       Name:                AV-unprocessed.smi:1309
#       Creating user name   scv26
#       Creation time:       Fri Mar 27 05:01:21 2020


#       File generated by GOLD software.
#

@<TRIPOS>MOLECULE
AV-unprocessed.smi:1309
    46    47     1
SMALL
NO_CHARGES


@<TRIPOS>ATOM
      1 ****        -5.3487   1.2815  -3.5061 C.3            1 S1                 0.0000
      2 ****        -5.0773   0.6515  -2.1322 C.3            1 S1                 0.0000
      3 ****        -5.0251   1.6840  -0.9964 C.3            1 S1                 0.0000
      4 ****        -3.8682  -0.2301  -2.1460 C.2            1 S1                 0.0000
      5 ****        -2.6281   0.2159  -2.3677 N.2            1 S1                 0.0000
      6 ****        -1.6687  -0.8006  -2.3176 C.2            1 S1                 0.0000
      7 ****        -0.2191  -0.4744  -2.5303 C.3            1 S1                 0.0000
      8 ****         0.4249  -0.0544  -1.2080 C.2            1 S1                 0.0000
      9 ****         0.5777   1.1389  -0.9480 O.2            1 S1                 0.0000
     10 ****         0.7992  -1.0443  -0.3812 N.am           1 S1                 0.0000
     11 ****         1.4222  -0.8592   0.9276 C.3            1 S1                 0.0000
     12 ****         2.9404  -0.6106   0.8590 C.2            1 S1                 0.0000
     13 ****         3.5377  -0.7372  -0.2116 O.2            1 S1                 0.0000
     14 ****         3.5785  -0.2680   1.9969 N.am           1 S1                 0.0000
     15 ****         2.9591  -0.1263   3.3143 C.3            1 S1                 0.0000
     16 ****         4.1178   0.0130   4.3022 C.3            1 S1                 0.0000
     17 ****         5.2551   0.5806   3.4645 C.3            1 S1                 0.0000
     18 ****         5.0119   0.0086   2.0675 C.3            1 S1                 0.0000
     19 ****        -2.2078  -2.0386  -2.0681 C.2            1 S1                 0.0000
     20 ****        -3.9369  -1.9673  -1.8701 S.3            1 S1                 0.0000
     21 ****        -5.4569   0.5154  -4.2747 H              1 S1                 0.0000
     22 ****        -4.5351   1.9426  -3.8065 H              1 S1                 0.0000
     23 ****        -6.2669   1.8695  -3.4942 H              1 S1                 0.0000
     24 ****        -5.9275   0.0026  -1.9181 H              1 S1                 0.0000
     25 ****        -4.9125   1.1963  -0.0276 H              1 S1                 0.0000
     26 ****        -5.9385   2.2784  -0.9633 H              1 S1                 0.0000
     27 ****        -4.1874   2.3708  -1.1231 H              1 S1                 0.0000
     28 ****         0.3158  -1.3336  -2.9375 H              1 S1                 0.0000
     29 ****        -0.1064   0.3304  -3.2580 H              1 S1                 0.0000
     30 ****         0.6430  -1.9959  -0.6798 H              1 S1                 0.0000
     31 ****         0.9313  -0.0373   1.4513 H              1 S1                 0.0000
     32 ****         1.2418  -1.7601   1.5140 H              1 S1                 0.0000
     33 ****         2.3419   0.7732   3.3230 H              1 S1                 0.0000
     34 ****         2.3271  -0.9776   3.5710 H              1 S1                 0.0000
     35 ****         3.8694   0.6391   5.1597 H              1 S1                 0.0000
     36 ****         4.3987  -0.9719   4.6776 H              1 S1                 0.0000
     37 ****         5.1763   1.6681   3.4330 H              1 S1                 0.0000
     38 ****         6.2395   0.3282   3.8594 H              1 S1                 0.0000
     39 ****         5.5613  -0.9245   1.9343 H              1 S1                 0.0000
     40 ****         5.3341   0.7057   1.2924 H              1 S1                 0.0000
     41 ****        -1.6937  -2.9844  -1.9830 H              1 S1                 0.0000
     42 ****        -2.4093   1.1745  -2.5500 LP             1 S1                 0.0000
     43 ****         0.2807   1.8351  -1.6015 LP             1 S1                 0.0000
     44 ****         0.9989   1.4123  -0.0832 LP             1 S1                 0.0000
     45 ****         3.0365  -1.0013  -1.0356 LP             1 S1                 0.0000
     46 ****         4.5236  -0.5757  -0.2562 LP             1 S1                 0.0000
@<TRIPOS>BOND
    1    1    2 1     
    2    1   21 1     
    3    1   22 1     
    4    1   23 1     
    5    2    3 1     
    6    2    4 1     
    7    2   24 1     
    8    3   25 1     
    9    3   26 1     
   10    3   27 1     
   11    4   20 1     
   12    4    5 2     
   13    5    6 1     
   14    6    7 1     
   15    6   19 2     
   16    7    8 1     
   17    7   28 1     
   18    7   29 1     
   19    8    9 2     
   20    8   10 am    
   21   10   11 1     
   22   10   30 1     
   23   11   12 1     
   24   11   31 1     
   25   11   32 1     
   26   12   13 2     
   27   12   14 am    
   28   14   18 1     
   29   14   15 1     
   30   15   16 1     
   31   15   33 1     
   32   15   34 1     
   33   16   17 1     
   34   16   35 1     
   35   16   36 1     
   36   17   18 1     
   37   17   37 1     
   38   17   38 1     
   39   18   39 1     
   40   18   40 1     
   41   19   20 1     
   42   19   41 1     
   43    5   42 1     
   44    9   43 1     
   45    9   44 1     
   46   13   45 1     
   47   13   46 1     
@<TRIPOS>SUBSTRUCTURE
      1 S1             1
@<TRIPOS>SET
LONE_PAIRS      STATIC     ATOMS    <user>   **** ""
5 42 43 44 45 46
DONOR_HYDROGENS      STATIC     ATOMS    <user>   **** ""
1 30
ATOM$BLUE        STATIC     ATOMS    COLORGROUP SYSTEM
5 42 43 44 45 46
ATOM$RED        STATIC     ATOMS    COLORGROUP SYSTEM
1 30
