AV-unprocessed.smi:280|AV-procd|sdf|2099|dock1
  -GOLD-   2262021383D 1   1.00000     0.00000
 Structure written by MMmdl.
 59 62  0  0  0  0  0  0  0  0  2 V2000
  146.4357  130.7586  154.5023 C   0  0  0  0  0  0  0  0  0  0  0  0
  147.1989  130.6641  153.1624 C   0  0  2  0  0  0  0  0  0  0  0  0
  148.7224  130.8205  153.3568 C   0  0  0  0  0  0  0  0  0  0  0  0
  149.0769  132.2120  153.6383 N   0  0  0  0  0  0  0  0  0  0  0  0
  149.3064  132.5749  154.9302 C   0  0  0  0  0  0  0  0  0  0  0  0
  149.8100  131.6252  155.7617 N   0  0  0  0  0  0  0  0  0  0  0  0
  150.0657  131.9034  157.0422 C   0  0  0  0  0  0  0  0  0  0  0  0
  149.8945  133.0530  157.6937 N   0  0  0  0  0  0  0  0  0  0  0  0
  149.3882  134.0158  156.8723 C   0  0  0  0  0  0  0  0  0  0  0  0
  149.0658  133.8669  155.4912 C   0  0  0  0  0  0  0  0  0  0  0  0
  148.5552  135.0677  155.0082 N   0  0  0  0  0  0  0  0  0  0  0  0
  148.5910  135.8764  156.0308 C   0  0  0  0  0  0  0  0  0  0  0  0
  149.0893  135.3298  157.1898 N   0  0  0  0  0  0  0  0  0  0  0  0
  149.2451  135.9957  158.4739 C   0  0  0  0  0  0  0  0  0  0  0  0
  148.2546  135.5375  159.5666 C   0  0  0  0  0  0  0  0  0  0  0  0
  148.3729  134.0205  159.8057 C   0  0  0  0  0  0  0  0  0  0  0  0
  147.4362  133.5558  160.7577 O   0  0  0  0  0  0  0  0  0  0  0  0
  148.1647  136.4184  160.8228 C   0  0  0  0  0  0  0  0  0  0  0  0
  146.9575  137.0593  160.3614 O   0  0  0  0  0  0  0  0  0  0  0  0
  146.8233  136.0482  159.3408 C   0  0  0  0  0  0  0  0  0  0  0  0
  148.5991  133.1743  152.6512 C   0  0  0  0  0  0  0  0  0  0  0  0
  147.0798  133.0400  152.4372 C   0  0  0  0  0  0  0  0  0  0  0  0
  146.7103  131.6305  152.1338 N   0  3  2  0  0  0  0  0  0  0  0  0
  145.2852  131.4457  151.7449 C   0  0  0  0  0  0  0  0  0  0  0  0
  144.9145  132.1624  150.4232 C   0  0  0  0  0  0  0  0  0  0  0  0
  144.7934  133.6874  150.5992 C   0  0  0  0  0  0  0  0  0  0  0  0
  145.9548  131.8348  149.3389 C   0  0  0  0  0  0  0  0  0  0  0  0
  143.6785  131.6710  149.9460 O   0  0  0  0  0  0  0  0  0  0  0  0
  146.8221  130.0298  155.2152 H   0  0  0  0  0  0  0  0  0  0  0  0
  145.3722  130.5544  154.3834 H   0  0  0  0  0  0  0  0  0  0  0  0
  146.5314  131.7408  154.9644 H   0  0  0  0  0  0  0  0  0  0  0  0
  147.0318  129.6615  152.7662 H   0  0  0  0  0  0  0  0  0  0  0  0
  149.0727  130.1315  154.1254 H   0  0  0  0  0  0  0  0  0  0  0  0
  149.2360  130.5283  152.4402 H   0  0  0  0  0  0  0  0  0  0  0  0
  150.4662  131.0887  157.6277 H   0  0  0  0  0  0  0  0  0  0  0  0
  148.2499  136.8990  155.9648 H   0  0  0  0  0  0  0  0  0  0  0  0
  150.2721  135.8330  158.8039 H   0  0  0  0  0  0  0  0  0  0  0  0
  149.1594  137.0712  158.3139 H   0  0  0  0  0  0  0  0  0  0  0  0
  148.1921  133.4674  158.8838 H   0  0  0  0  0  0  0  0  0  0  0  0
  149.3772  133.7492  160.1322 H   0  0  0  0  0  0  0  0  0  0  0  0
  147.7683  133.7446  161.6222 H   0  0  0  0  0  0  0  0  0  0  0  0
  147.9963  135.8597  161.7449 H   0  0  0  0  0  0  0  0  0  0  0  0
  148.9879  137.1216  160.9426 H   0  0  0  0  0  0  0  0  0  0  0  0
  146.6532  136.4738  158.3509 H   0  0  0  0  0  0  0  0  0  0  0  0
  146.0423  135.3278  159.5889 H   0  0  0  0  0  0  0  0  0  0  0  0
  148.8776  134.1949  152.9108 H   0  0  0  0  0  0  0  0  0  0  0  0
  149.1120  132.9640  151.7120 H   0  0  0  0  0  0  0  0  0  0  0  0
  146.5345  133.3785  153.3176 H   0  0  0  0  0  0  0  0  0  0  0  0
  146.7805  133.6973  151.6226 H   0  0  0  0  0  0  0  0  0  0  0  0
  145.0870  130.3832  151.5989 H   0  0  0  0  0  0  0  0  0  0  0  0
  144.6307  131.7584  152.5604 H   0  0  0  0  0  0  0  0  0  0  0  0
  145.7232  134.1146  150.9762 H   0  0  0  0  0  0  0  0  0  0  0  0
  144.0000  133.9548  151.2976 H   0  0  0  0  0  0  0  0  0  0  0  0
  144.5682  134.1786  149.6518 H   0  0  0  0  0  0  0  0  0  0  0  0
  146.9460  132.1907  149.6228 H   0  0  0  0  0  0  0  0  0  0  0  0
  145.7003  132.3016  148.3863 H   0  0  0  0  0  0  0  0  0  0  0  0
  146.0283  130.7599  149.1682 H   0  0  0  0  0  0  0  0  0  0  0  0
  143.0161  132.3308  150.0873 H   0  0  0  0  0  0  0  0  0  0  0  0
  147.2330  131.3958  151.3020 H   0  0  0  0  0  0  0  0  0  0  0  0
  1  2  1  0  0  0  0
  1 29  1  0  0  0  0
  1 30  1  0  0  0  0
  1 31  1  0  0  0  0
  2 23  1  0  0  0  0
  2  3  1  0  0  0  0
  2 32  1  0  0  0  0
  3  4  1  0  0  0  0
  3 33  1  0  0  0  0
  3 34  1  0  0  0  0
  4  5  1  0  0  0  0
  4 21  1  0  0  0  0
  5 10  1  0  0  0  0
  5  6  2  0  0  0  0
  6  7  1  0  0  0  0
  7  8  2  0  0  0  0
  7 35  1  0  0  0  0
  8  9  1  0  0  0  0
  9 13  1  0  0  0  0
  9 10  2  0  0  0  0
 10 11  1  0  0  0  0
 11 12  2  0  0  0  0
 12 13  1  0  0  0  0
 12 36  1  0  0  0  0
 13 14  1  0  0  0  0
 14 15  1  0  0  0  0
 14 37  1  0  0  0  0
 14 38  1  0  0  0  0
 15 20  1  0  0  0  0
 15 16  1  0  0  0  0
 15 18  1  0  0  0  0
 16 17  1  0  0  0  0
 16 39  1  0  0  0  0
 16 40  1  0  0  0  0
 17 41  1  0  0  0  0
 18 19  1  0  0  0  0
 18 42  1  0  0  0  0
 18 43  1  0  0  0  0
 19 20  1  0  0  0  0
 20 44  1  0  0  0  0
 20 45  1  0  0  0  0
 21 22  1  0  0  0  0
 21 46  1  0  0  0  0
 21 47  1  0  0  0  0
 22 23  1  0  0  0  0
 22 48  1  0  0  0  0
 22 49  1  0  0  0  0
 23 24  1  0  0  0  0
 23 59  1  0  0  0  0
 24 25  1  0  0  0  0
 24 50  1  0  0  0  0
 24 51  1  0  0  0  0
 25 26  1  0  0  0  0
 25 27  1  0  0  0  0
 25 28  1  0  0  0  0
 26 52  1  0  0  0  0
 26 53  1  0  0  0  0
 26 54  1  0  0  0  0
 27 55  1  0  0  0  0
 27 56  1  0  0  0  0
 27 57  1  0  0  0  0
 28 58  1  0  0  0  0
M  CHG  1  23   1
M  END
> <s_m_source_file>
AV-unprocessed.smi

> <i_m_source_file_index>
280

> <i_lp_mmshare_version>
43012

> <i_f3d_flags>
0

> <s_epik_input>
W0NIM11DKFtDSDNdKShbT0hdKVtDSDJdTjFbQ0gyXVtDSDJdTihbQ0gyXVtDQEhdMVtDSDNdKWMobltjSF1uMiljKGMyMyluW2NIXW4zW0NIMl1DNChbQ0gyXVtPSF0pW0NIMl1PW0NIMl00

> <s_epik_cmdline>
J2VwaWtfcHl0aG9uJywgJy1waCcsICc3LjAnLCAnLXRuJywgJzgnLCAnLW1hJywgJzIwMCcsICctbWV0YWxfYmluZGluZycsICctaW1hZScsICc8aW5maWxlLm1hZT4nLCAnLW9tYWUnLCAnPG91dGZpbGUubWFlPic=

> <r_lp_tautomer_probability>
1

> <r_epik_Ionization_Penalty>
0.00179402

> <r_epik_Ionization_Penalty_Charging>
0.00173996

> <r_epik_Ionization_Penalty_Neutral>
5.40607e-05

> <r_epik_State_Penalty>
-0

> <r_epik_Charging_Adjusted_Penalty>
0.00173996

> <i_epik_Tot_Q>
1

> <i_epik_Tot_abs_Q>
1

> <r_epik_Metal_State_Penalty>
-0

> <b_epik_Metal_Only>
0

> <s_lp_Force_Field>
OPLS_2005

> <r_lp_Energy>
53.0384

> <b_lp_Chiralities_Consistent>
1

> <s_lp_Variant>
AV-unprocessed.smi:280-3

> <Gold.Version>
5.8.1

> <Gold.Id.Protein>
6NUR|6NUR_protein|mol2

> <Gold.PLP.Fitness>
47.9430

> <Gold.PLP.PLP>
-37.3102

> <Gold.PLP.part.hbond>
-4.4181

> <Gold.PLP.part.metal>
0.0000

> <Gold.PLP.part.buried>
-3.2517

> <Gold.PLP.part.nonpolar>
-29.3332

> <Gold.PLP.part.repulsive>
0.1171

> <Gold.PLP.ligand.clash>
0.0000

> <Gold.PLP.ligand.torsion>
0.6855

> <Gold.PLP.Chemscore.Hbond>
3.6760

> <Gold.PLP.Chemscore.CHOScore>
0.0000

> <Gold.PLP.Chemscore.Metal>
0.0000

> <Gold.Chemscore.Hbonds>
donor molecule, donor type, donor heavy atom, donor atom, acceptor molecule, acceptor atom, score
      L1  H    23    59       P1 10747  0.84
      P1  H  6896  6907       L1     8  1.00
      P1  H  6934  6947       L1    19  0.94
      P1  H 10785 10796       L1    28  0.90

> <Gold.PLP.Chemscore.Internal.Correction>
0.9758

> <Gold.Rescore>
     Score         DG    S(hbond)    S(metal)    S(lipo)     H(rot)  DE(clash)    DE(int)     intcor
     14.22     -18.71       3.34        0.00      89.75       3.30       0.51       3.98       ----

> <Gold.Chemscore.Fitness>
14.2214

> <Gold.Chemscore.DG>
-18.7072

> <Gold.Chemscore.ZeroCoef>
-5.4800

> <Gold.Chemscore.Hbond>
3.3450

> <Gold.Chemscore.Metal>
0.0000

> <Gold.Chemscore.Lipo>
89.7486

> <Gold.Chemscore.Internal_Hbond>
0.0000

> <Gold.Chemscore.DEClash>
0.5103

> <Gold.Chemscore.DEInternal>
3.9755

> <Gold.Chemscore.Rot>
3.2991

> <Gold.Chemscore.Internal.Correction>
   9.000000E+99

> <Gold.Chemscore.Hbonds>
donor molecule, donor type, donor heavy atom, donor atom, acceptor molecule, acceptor atom, score
      L1  H    23    59       P1 10747  0.80
      P1  H  6896  6907       L1     8  0.94
      P1  H  6934  6947       L1    19  0.45
      P1  H 10785 10796       L1    28  0.81

> <Gold.Chemscore.Hbond.Weighted>
-11.1722

> <Gold.Chemscore.Metal.Weighted>
-0.0000

> <Gold.Chemscore.Lipo.Weighted>
-10.5006

> <Gold.Chemscore.Internal_Hbond.Weighted>
0.0000

> <Gold.Chemscore.DEClash.Weighted>
0.5103

> <Gold.Chemscore.DEInternal.Weighted>
3.9755

> <Gold.Chemscore.Rot.Weighted>
8.4456

> <Gold.Chemscore.Internal.Correction.Weighted>
   9.000000E+99

> <Gold.Protein.RotatedTorsions>
[ 6907 6896 6895 6894 ] final -143.93 input  -60.11 | X-H torsion
[ 7974 7965 7964 7962 ] final  -54.22 input  175.53 | X-H torsion
[ 8008 7997 7996 7995 ] final   19.37 input   59.86 | X-H torsion
[ 10167 10162 10161 10158 ] final  -70.76 input  -65.29 | X-H torsion
[ 10718 10713 10712 10709 ] final   44.10 input   66.30 | X-H torsion
[ 10763 10752 10751 10750 ] final   29.59 input  -60.55 | X-H torsion
[ 11005 11000 10999 10996 ] final  172.54 input  -57.11 | X-H torsion

> <Gold.Protein.ActiveResidues>
 VAL166  LYS551  ARG553  GLY616  TRP617  ASP618  TYR619  PRO620  LYS621  CYS622 
 ASP623  PHE694  ASN695  SER759  ASP760  ASP761  ALA762  ILE779  LEU786  VAL792 
 PHE793  MET794  SER795  GLU796  ALA797  LYS798  CYS799  TRP800  GLU811  SER814 

> <Gold.Protein.RotatedAtoms>
  151.1071  133.5200  159.2607 H   0  0  0  0  0  0  0  0  0  0  0  0  # atno 6907 bound_to 6896
  151.2008  135.0441  159.8881 H   0  0  0  0  0  0  0  0  0  0  0  0  # atno 6908 bound_to 6896
  152.5447  134.0900  159.8326 H   0  0  0  0  0  0  0  0  0  0  0  0  # atno 6909 bound_to 6896
  145.8881  140.8092  142.9805 H   0  0  0  0  0  0  0  0  0  0  0  0  # atno 7974 bound_to 7965
  154.9197  140.3025  155.5223 H   0  0  0  0  0  0  0  0  0  0  0  0  # atno 8008 bound_to 7997
  156.3010  140.2374  156.4181 H   0  0  0  0  0  0  0  0  0  0  0  0  # atno 8009 bound_to 7997
  154.8343  140.0417  157.1487 H   0  0  0  0  0  0  0  0  0  0  0  0  # atno 8010 bound_to 7997
  140.5327  143.2320  151.7233 H   0  0  0  0  0  0  0  0  0  0  0  0  # atno 10167 bound_to 10162
  157.4232  130.7981  149.7534 H   0  0  0  0  0  0  0  0  0  0  0  0  # atno 10718 bound_to 10713
  153.0421  135.6485  154.0914 H   0  0  0  0  0  0  0  0  0  0  0  0  # atno 10763 bound_to 10752
  154.0618  135.2887  155.3325 H   0  0  0  0  0  0  0  0  0  0  0  0  # atno 10764 bound_to 10752
  154.6652  135.5376  153.8133 H   0  0  0  0  0  0  0  0  0  0  0  0  # atno 10765 bound_to 10752
  140.3308  134.7359  157.4132 H   0  0  0  0  0  0  0  0  0  0  0  0  # atno 11005 bound_to 11000
  144.6729  140.1487  143.7431 LP  0  0  0  0  0  0  0  0  0  0  0  0  # atno 17320 bound_to 7965
  145.8942  139.2393  143.1531 LP  0  0  0  0  0  0  0  0  0  0  0  0  # atno 17321 bound_to 7965
  139.4960  144.4090  152.0101 LP  0  0  0  0  0  0  0  0  0  0  0  0  # atno 17342 bound_to 10162
  140.3193  144.3447  150.6013 LP  0  0  0  0  0  0  0  0  0  0  0  0  # atno 17343 bound_to 10162
  155.9887  130.3957  150.3104 LP  0  0  0  0  0  0  0  0  0  0  0  0  # atno 17370 bound_to 10713
  157.1254  131.0258  151.2992 LP  0  0  0  0  0  0  0  0  0  0  0  0  # atno 17371 bound_to 10713
  140.0862  134.5663  155.8489 LP  0  0  0  0  0  0  0  0  0  0  0  0  # atno 17394 bound_to 11000
  141.2064  133.6655  156.6239 LP  0  0  0  0  0  0  0  0  0  0  0  0  # atno 17395 bound_to 11000

$$$$
