AV-unprocessed.smi:2032|AV-procd|sdf|8249|dock10
  -GOLD-   2272010523D 1   1.00000     0.00000
 Structure written by MMmdl.
 41 42  0  0  0  0  0  0  0  0  2 V2000
  153.3643  142.4533  161.7756 C   0  0  0  0  0  0  0  0  0  0  0  0
  153.0069  142.6744  160.3019 C   0  0  1  0  0  0  0  0  0  0  0  0
  152.4769  141.3915  159.6365 C   0  0  0  0  0  0  0  0  0  0  0  0
  152.0519  141.6027  158.2497 N   0  0  0  0  0  0  0  0  0  0  0  0
  151.5664  140.3584  157.6069 C   0  0  2  0  0  0  0  0  0  0  0  0
  150.9390  140.6109  156.2118 C   0  0  0  0  0  0  0  0  0  0  0  0
  150.5477  139.5714  158.4837 C   0  0  0  0  0  0  0  0  0  0  0  0
  150.6283  138.1213  158.3222 N   0  0  0  0  0  0  0  0  0  0  0  0
  149.8779  137.2144  158.9639 C   0  0  0  0  0  0  0  0  0  0  0  0
  149.0178  137.5839  159.7667 O   0  0  0  0  0  0  0  0  0  0  0  0
  150.1753  135.9357  158.6387 N   0  5  0  0  0  0  0  0  0  0  0  0
  150.0597  135.5203  157.3669 C   0  0  0  0  0  0  0  0  0  0  0  0
  150.6123  134.3882  156.9159 N   0  0  0  0  0  0  0  0  0  0  0  0
  150.3561  134.1451  155.5653 C   0  0  0  0  0  0  0  0  0  0  0  0
  149.5826  135.1100  154.9762 C   0  0  0  0  0  0  0  0  0  0  0  0
  149.1517  136.3612  156.1067 S   0  0  0  0  0  0  0  0  0  0  0  0
  151.0479  142.6729  158.2458 C   0  0  0  0  0  0  0  0  0  0  0  0
  151.5266  143.9696  158.9284 C   0  0  2  0  0  0  0  0  0  0  0  0
  152.5512  144.7554  158.0916 C   0  0  0  0  0  0  0  0  0  0  0  0
  152.0123  143.6908  160.2395 O   0  0  0  0  0  0  0  0  0  0  0  0
  154.1352  141.6898  161.8831 H   0  0  0  0  0  0  0  0  0  0  0  0
  152.4938  142.1336  162.3492 H   0  0  0  0  0  0  0  0  0  0  0  0
  153.7414  143.3713  162.2267 H   0  0  0  0  0  0  0  0  0  0  0  0
  153.9036  143.0100  159.7807 H   0  0  0  0  0  0  0  0  0  0  0  0
  153.2787  140.6573  159.6848 H   0  0  0  0  0  0  0  0  0  0  0  0
  151.6457  140.9912  160.2193 H   0  0  0  0  0  0  0  0  0  0  0  0
  152.4278  139.7070  157.4520 H   0  0  0  0  0  0  0  0  0  0  0  0
  150.5316  139.7040  155.7665 H   0  0  0  0  0  0  0  0  0  0  0  0
  151.6689  140.9727  155.4891 H   0  0  0  0  0  0  0  0  0  0  0  0
  150.1291  141.3386  156.2700 H   0  0  0  0  0  0  0  0  0  0  0  0
  150.6819  139.7709  159.5458 H   0  0  0  0  0  0  0  0  0  0  0  0
  149.5315  139.8806  158.2379 H   0  0  0  0  0  0  0  0  0  0  0  0
  151.3172  137.7738  157.6716 H   0  0  0  0  0  0  0  0  0  0  0  0
  150.7630  133.2574  155.1042 H   0  0  0  0  0  0  0  0  0  0  0  0
  149.2404  135.1606  153.9535 H   0  0  0  0  0  0  0  0  0  0  0  0
  150.7595  142.9357  157.2305 H   0  0  0  0  0  0  0  0  0  0  0  0
  150.1439  142.3214  158.7458 H   0  0  0  0  0  0  0  0  0  0  0  0
  150.6599  144.6182  159.0571 H   0  0  0  0  0  0  0  0  0  0  0  0
  152.1179  145.0644  157.1401 H   0  0  0  0  0  0  0  0  0  0  0  0
  153.4382  144.1637  157.8659 H   0  0  0  0  0  0  0  0  0  0  0  0
  152.8737  145.6553  158.6158 H   0  0  0  0  0  0  0  0  0  0  0  0
  1  2  1  0  0  0  0
  1 21  1  0  0  0  0
  1 22  1  0  0  0  0
  1 23  1  0  0  0  0
  2 20  1  0  0  0  0
  2  3  1  0  0  0  0
  2 24  1  0  0  0  0
  3  4  1  0  0  0  0
  3 25  1  0  0  0  0
  3 26  1  0  0  0  0
  4  5  1  0  0  0  0
  4 17  1  0  0  0  0
  5  6  1  0  0  0  0
  5  7  1  0  0  0  0
  5 27  1  0  0  0  0
  6 28  1  0  0  0  0
  6 29  1  0  0  0  0
  6 30  1  0  0  0  0
  7  8  1  0  0  0  0
  7 31  1  0  0  0  0
  7 32  1  0  0  0  0
  8  9  1  0  0  0  0
  8 33  1  0  0  0  0
  9 10  2  0  0  0  0
  9 11  1  0  0  0  0
 11 12  1  0  0  0  0
 12 16  1  0  0  0  0
 12 13  2  0  0  0  0
 13 14  1  0  0  0  0
 14 15  2  0  0  0  0
 14 34  1  0  0  0  0
 15 16  1  0  0  0  0
 15 35  1  0  0  0  0
 17 18  1  0  0  0  0
 17 36  1  0  0  0  0
 17 37  1  0  0  0  0
 18 19  1  0  0  0  0
 18 20  1  0  0  0  0
 18 38  1  0  0  0  0
 19 39  1  0  0  0  0
 19 40  1  0  0  0  0
 19 41  1  0  0  0  0
M  CHG  1  11  -1
M  END
> <s_m_source_file>
AV-unprocessed.smi

> <i_m_source_file_index>
2032

> <i_lp_mmshare_version>
43012

> <i_f3d_flags>
0

> <s_epik_input>
W0NIM11bQ0BASF0xW0NIMl1OKFtDSDJdW0NASF0oTzEpW0NIM10pW0NASF0oW0NIM10pW0NIMl1bTkhdQyg9TylbTkhdYzJuW2NIXVtjSF1zMg==

> <s_epik_cmdline>
J2VwaWtfcHl0aG9uJywgJy1waCcsICc3LjAnLCAnLXRuJywgJzgnLCAnLW1hJywgJzIwMCcsICctbWV0YWxfYmluZGluZycsICctaW1hZScsICc8aW5maWxlLm1hZT4nLCAnLW9tYWUnLCAnPG91dGZpbGUubWFlPic=

> <r_lp_tautomer_probability>
0.999

> <r_epik_Ionization_Penalty>
7.22375

> <r_epik_Ionization_Penalty_Charging>
5.82415

> <r_epik_Ionization_Penalty_Neutral>
1.39959

> <r_epik_State_Penalty>
6.03347

> <r_epik_Charging_Adjusted_Penalty>
11.8576

> <i_epik_Tot_Q>
-1

> <i_epik_Tot_abs_Q>
1

> <r_epik_Metal_State_Penalty>
2.01024

> <b_epik_Metal_Only>
1

> <s_lp_Force_Field>
OPLS_2005

> <r_lp_Energy>
25.9518

> <b_lp_Chiralities_Consistent>
1

> <s_lp_Variant>
AV-unprocessed.smi:2032-19

> <Gold.Version>
5.8.1

> <Gold.Id.Protein>
6NUR|6NUR_protein|mol2

> <Gold.PLP.Fitness>
45.3749

> <Gold.PLP.PLP>
-38.1485

> <Gold.PLP.part.hbond>
-3.8080

> <Gold.PLP.part.metal>
0.0000

> <Gold.PLP.part.buried>
-5.0993

> <Gold.PLP.part.nonpolar>
-30.1394

> <Gold.PLP.part.repulsive>
0.1647

> <Gold.PLP.ligand.clash>
0.0000

> <Gold.PLP.ligand.torsion>
1.1197

> <Gold.PLP.Chemscore.Hbond>
2.1435

> <Gold.PLP.Chemscore.CHOScore>
1.0000

> <Gold.PLP.Chemscore.Metal>
0.0000

> <Gold.Chemscore.Hbonds>
donor molecule, donor type, donor heavy atom, donor atom, acceptor molecule, acceptor atom, score
      P1  H  6896  6909       L1    11  1.86
      P1  H  6931  6943       L1    10  0.14
      L1  C    15    35       P1  7948  1.00

> <Gold.PLP.Chemscore.Internal.Correction>
0.0352

> <Gold.Rescore>
     Score         DG    S(hbond)    S(metal)    S(lipo)     H(rot)  DE(clash)    DE(int)     intcor
     14.82     -15.88       1.02        0.00      93.44       1.54       0.10       0.97       ----

> <Gold.Chemscore.Fitness>
14.8188

> <Gold.Chemscore.DG>
-15.8811

> <Gold.Chemscore.ZeroCoef>
-5.4800

> <Gold.Chemscore.Hbond>
1.0237

> <Gold.Chemscore.Metal>
0.0000

> <Gold.Chemscore.Lipo>
93.4370

> <Gold.Chemscore.Internal_Hbond>
0.0000

> <Gold.Chemscore.DEClash>
0.0951

> <Gold.Chemscore.DEInternal>
0.9673

> <Gold.Chemscore.Rot>
1.5431

> <Gold.Chemscore.Internal.Correction>
   9.000000E+99

> <Gold.Chemscore.Hbonds>
donor molecule, donor type, donor heavy atom, donor atom, acceptor molecule, acceptor atom, score
      P1  H  6896  6909       L1    11  0.59
      P1  H  6931  6943       L1    10  0.15

> <Gold.Chemscore.Hbond.Weighted>
-3.4192

> <Gold.Chemscore.Metal.Weighted>
-0.0000

> <Gold.Chemscore.Lipo.Weighted>
-10.9321

> <Gold.Chemscore.Internal_Hbond.Weighted>
0.0000

> <Gold.Chemscore.DEClash.Weighted>
0.0951

> <Gold.Chemscore.DEInternal.Weighted>
0.9673

> <Gold.Chemscore.Rot.Weighted>
3.9503

> <Gold.Chemscore.Internal.Correction.Weighted>
   9.000000E+99

> <Gold.Protein.RotatedTorsions>
[ 6907 6896 6895 6894 ] final   53.17 input  -60.11 | X-H torsion
[ 7974 7965 7964 7962 ] final   63.24 input  175.53 | X-H torsion
[ 8008 7997 7996 7995 ] final  157.55 input   59.86 | X-H torsion
[ 10167 10162 10161 10158 ] final  136.05 input  -65.29 | X-H torsion
[ 10718 10713 10712 10709 ] final  178.88 input   66.30 | X-H torsion
[ 10763 10752 10751 10750 ] final -170.98 input  -60.55 | X-H torsion
[ 11005 11000 10999 10996 ] final  177.98 input  -57.11 | X-H torsion

> <Gold.Protein.ActiveResidues>
 VAL166  LYS551  ARG553  GLY616  TRP617  ASP618  TYR619  PRO620  LYS621  CYS622 
 ASP623  PHE694  ASN695  SER759  ASP760  ASP761  ALA762  ILE779  LEU786  VAL792 
 PHE793  MET794  SER795  GLU796  ALA797  LYS798  CYS799  TRP800  GLU811  SER814 

> <Gold.Protein.RotatedAtoms>
  152.3309  134.7260  160.0289 H   0  0  0  0  0  0  0  0  0  0  0  0  # atno 6907 bound_to 6896
  151.7677  133.3333  159.3443 H   0  0  0  0  0  0  0  0  0  0  0  0  # atno 6908 bound_to 6896
  150.7422  134.5979  159.6066 H   0  0  0  0  0  0  0  0  0  0  0  0  # atno 6909 bound_to 6896
  145.8641  139.3334  143.0801 H   0  0  0  0  0  0  0  0  0  0  0  0  # atno 7974 bound_to 7965
  156.2357  140.1882  156.7126 H   0  0  0  0  0  0  0  0  0  0  0  0  # atno 8008 bound_to 7997
  154.6102  140.0623  156.9511 H   0  0  0  0  0  0  0  0  0  0  0  0  # atno 8009 bound_to 7997
  155.2029  140.3293  155.4343 H   0  0  0  0  0  0  0  0  0  0  0  0  # atno 8010 bound_to 7997
  139.5194  144.6485  151.5371 H   0  0  0  0  0  0  0  0  0  0  0  0  # atno 10167 bound_to 10162
  156.8840  130.9825  151.3058 H   0  0  0  0  0  0  0  0  0  0  0  0  # atno 10718 bound_to 10713
  154.6356  135.2892  155.0165 H   0  0  0  0  0  0  0  0  0  0  0  0  # atno 10763 bound_to 10752
  154.1310  135.6533  153.4926 H   0  0  0  0  0  0  0  0  0  0  0  0  # atno 10764 bound_to 10752
  153.0301  135.5310  154.7201 H   0  0  0  0  0  0  0  0  0  0  0  0  # atno 10765 bound_to 10752
  140.3901  134.6870  157.4502 H   0  0  0  0  0  0  0  0  0  0  0  0  # atno 11005 bound_to 11000
  145.9214  140.9113  143.0403 LP  0  0  0  0  0  0  0  0  0  0  0  0  # atno 17320 bound_to 7965
  144.6726  140.1293  143.7444 LP  0  0  0  0  0  0  0  0  0  0  0  0  # atno 17321 bound_to 7965
  140.6279  143.9132  150.6580 LP  0  0  0  0  0  0  0  0  0  0  0  0  # atno 17342 bound_to 10162
  140.2427  143.3652  152.1473 LP  0  0  0  0  0  0  0  0  0  0  0  0  # atno 17343 bound_to 10162
  157.6123  130.8592  149.8972 LP  0  0  0  0  0  0  0  0  0  0  0  0  # atno 17370 bound_to 10713
  156.0662  130.3692  150.0872 LP  0  0  0  0  0  0  0  0  0  0  0  0  # atno 17371 bound_to 10713
  140.0413  134.6263  155.8977 LP  0  0  0  0  0  0  0  0  0  0  0  0  # atno 17394 bound_to 11000
  141.1894  133.6565  156.5365 LP  0  0  0  0  0  0  0  0  0  0  0  0  # atno 17395 bound_to 11000

$$$$
