AV-unprocessed.smi:1005|AV-procd|sdf|4384|dock5
  -GOLD-   22720 2313D 1   1.00000     0.00000
 Structure written by MMmdl.
 58 60  0  0  0  0  0  0  0  0  4 V2000
  152.2013  143.8578  161.5779 C   0  0  0  0  0  0  0  0  0  0  0  0
  152.0443  143.0425  160.3055 C   0  0  0  0  0  0  0  0  0  0  0  0
  151.1724  143.5201  159.3015 C   0  0  0  0  0  0  0  0  0  0  0  0
  151.0467  142.7500  158.1513 C   0  0  0  0  0  0  0  0  0  0  0  0
  150.2788  142.9437  157.0015 N   0  3  0  0  0  0  0  0  0  0  0  0
  150.4839  141.9113  156.1380 C   0  0  0  0  0  0  0  0  0  0  0  0
  151.3688  141.0569  156.7209 N   0  0  0  0  0  0  0  0  0  0  0  0
  151.9258  139.7935  156.2138 C   0  0  0  0  0  0  0  0  0  0  0  0
  150.8937  138.9488  155.4400 C   0  0  2  0  0  0  0  0  0  0  0  0
  150.6863  139.5090  154.1577 O   0  0  0  0  0  0  0  0  0  0  0  0
  149.5397  138.8887  156.1760 C   0  0  0  0  0  0  0  0  0  0  0  0
  149.1453  137.5054  156.5486 N   0  3  2  0  0  0  0  0  0  0  0  0
  149.6896  137.0959  157.8643 C   0  0  0  0  0  0  0  0  0  0  0  0
  149.1922  135.6896  158.2345 C   0  0  0  0  0  0  0  0  0  0  0  0
  149.5583  134.7721  157.2108 O   0  0  0  0  0  0  0  0  0  0  0  0
  148.9687  135.0953  155.9553 C   0  0  2  0  0  0  0  0  0  0  0  0
  149.3702  134.0024  154.9466 C   0  0  0  0  0  0  0  0  0  0  0  0
  148.6710  134.1382  153.6427 N   0  3  0  0  0  0  0  0  0  0  0  0
  148.9335  133.0144  152.7140 C   0  0  0  0  0  0  0  0  0  0  0  0
  147.2197  134.3734  153.8100 C   0  0  0  0  0  0  0  0  0  0  0  0
  149.4701  136.4872  155.5187 C   0  0  0  0  0  0  0  0  0  0  0  0
  151.7522  141.5431  157.9775 C   0  0  0  0  0  0  0  0  0  0  0  0
  152.6180  141.0602  158.9562 C   0  0  0  0  0  0  0  0  0  0  0  0
  152.7592  141.8288  160.1338 C   0  0  0  0  0  0  0  0  0  0  0  0
  153.6954  141.3250  161.2191 C   0  0  0  0  0  0  0  0  0  0  0  0
  151.5522  144.7338  161.5736 H   0  0  0  0  0  0  0  0  0  0  0  0
  153.2293  144.2045  161.6849 H   0  0  0  0  0  0  0  0  0  0  0  0
  151.9444  143.2591  162.4522 H   0  0  0  0  0  0  0  0  0  0  0  0
  150.6259  144.4438  159.4245 H   0  0  0  0  0  0  0  0  0  0  0  0
  150.0265  141.7933  155.1660 H   0  0  0  0  0  0  0  0  0  0  0  0
  152.7566  140.0535  155.5566 H   0  0  0  0  0  0  0  0  0  0  0  0
  152.3591  139.2330  157.0426 H   0  0  0  0  0  0  0  0  0  0  0  0
  151.3006  137.9465  155.3100 H   0  0  0  0  0  0  0  0  0  0  0  0
  150.0954  138.9485  153.6773 H   0  0  0  0  0  0  0  0  0  0  0  0
  149.5615  139.5118  157.0715 H   0  0  0  0  0  0  0  0  0  0  0  0
  148.7760  139.3183  155.5253 H   0  0  0  0  0  0  0  0  0  0  0  0
  150.7803  137.1113  157.8308 H   0  0  0  0  0  0  0  0  0  0  0  0
  149.3818  137.8061  158.6328 H   0  0  0  0  0  0  0  0  0  0  0  0
  149.6399  135.3676  159.1750 H   0  0  0  0  0  0  0  0  0  0  0  0
  148.1104  135.6828  158.3778 H   0  0  0  0  0  0  0  0  0  0  0  0
  147.8837  135.1300  156.0585 H   0  0  0  0  0  0  0  0  0  0  0  0
  150.4485  134.0095  154.7798 H   0  0  0  0  0  0  0  0  0  0  0  0
  149.1362  133.0313  155.3860 H   0  0  0  0  0  0  0  0  0  0  0  0
  148.5790  132.0713  153.1319 H   0  0  0  0  0  0  0  0  0  0  0  0
  149.9956  132.9129  152.4952 H   0  0  0  0  0  0  0  0  0  0  0  0
  148.4232  133.1759  151.7638 H   0  0  0  0  0  0  0  0  0  0  0  0
  146.7381  133.5213  154.2914 H   0  0  0  0  0  0  0  0  0  0  0  0
  146.7408  134.5361  152.8438 H   0  0  0  0  0  0  0  0  0  0  0  0
  147.0374  135.2598  154.4187 H   0  0  0  0  0  0  0  0  0  0  0  0
  149.0095  136.7506  154.5674 H   0  0  0  0  0  0  0  0  0  0  0  0
  150.5490  136.4659  155.3558 H   0  0  0  0  0  0  0  0  0  0  0  0
  153.1605  140.1347  158.8312 H   0  0  0  0  0  0  0  0  0  0  0  0
  154.2154  140.4181  160.9095 H   0  0  0  0  0  0  0  0  0  0  0  0
  153.1381  141.0966  162.1278 H   0  0  0  0  0  0  0  0  0  0  0  0
  154.4505  142.0753  161.4545 H   0  0  0  0  0  0  0  0  0  0  0  0
  149.0364  134.9728  153.2058 H   0  0  0  0  0  0  0  0  0  0  0  0
  148.1400  137.5182  156.6510 H   0  0  0  0  0  0  0  0  0  0  0  0
  149.6611  143.7238  156.8160 H   0  0  0  0  0  0  0  0  0  0  0  0
  1  2  1  0  0  0  0
  1 26  1  0  0  0  0
  1 27  1  0  0  0  0
  1 28  1  0  0  0  0
  2 24  1  0  0  0  0
  2  3  2  0  0  0  0
  3  4  1  0  0  0  0
  3 29  1  0  0  0  0
  4 22  2  0  0  0  0
  4  5  1  0  0  0  0
  5  6  2  0  0  0  0
  5 58  1  0  0  0  0
  6  7  1  0  0  0  0
  6 30  1  0  0  0  0
  7  8  1  0  0  0  0
  7 22  1  0  0  0  0
  8  9  1  0  0  0  0
  8 31  1  0  0  0  0
  8 32  1  0  0  0  0
  9 10  1  0  0  0  0
  9 11  1  0  0  0  0
  9 33  1  0  0  0  0
 10 34  1  0  0  0  0
 11 12  1  0  0  0  0
 11 35  1  0  0  0  0
 11 36  1  0  0  0  0
 12 21  1  0  0  0  0
 12 13  1  0  0  0  0
 12 57  1  0  0  0  0
 13 14  1  0  0  0  0
 13 37  1  0  0  0  0
 13 38  1  0  0  0  0
 14 15  1  0  0  0  0
 14 39  1  0  0  0  0
 14 40  1  0  0  0  0
 15 16  1  0  0  0  0
 16 17  1  0  0  0  0
 16 21  1  0  0  0  0
 16 41  1  0  0  0  0
 17 18  1  0  0  0  0
 17 42  1  0  0  0  0
 17 43  1  0  0  0  0
 18 19  1  0  0  0  0
 18 20  1  0  0  0  0
 18 56  1  0  0  0  0
 19 44  1  0  0  0  0
 19 45  1  0  0  0  0
 19 46  1  0  0  0  0
 20 47  1  0  0  0  0
 20 48  1  0  0  0  0
 20 49  1  0  0  0  0
 21 50  1  0  0  0  0
 21 51  1  0  0  0  0
 22 23  1  0  0  0  0
 23 24  2  0  0  0  0
 23 52  1  0  0  0  0
 24 25  1  0  0  0  0
 25 53  1  0  0  0  0
 25 54  1  0  0  0  0
 25 55  1  0  0  0  0
M  CHG  1   5   1
M  CHG  1  12   1
M  CHG  1  18   1
M  END
> <s_m_source_file>
AV-unprocessed.smi

> <i_m_source_file_index>
1005

> <i_lp_mmshare_version>
43012

> <i_f3d_flags>
0

> <s_epik_input>
W0NIM11jKFtjSF0xKWMoW0NIM10pW2NIXWMoYzEyKW4oW2NIXW4yKVtDSDJdW0NASF0oW09IXSlbQ0gyXU4zW0NIMl1bQ0gyXU9bQ0BIXShbQ0gyXTMpW0NIMl1OKFtDSDNdKVtDSDNd

> <s_epik_cmdline>
J2VwaWtfcHl0aG9uJywgJy1waCcsICc3LjAnLCAnLXRuJywgJzgnLCAnLW1hJywgJzIwMCcsICctbWV0YWxfYmluZGluZycsICctaW1hZScsICc8aW5maWxlLm1hZT4nLCAnLW9tYWUnLCAnPG91dGZpbGUubWFlPic=

> <r_epik_Ionization_Penalty>
2.30802

> <r_epik_Ionization_Penalty_Charging>
2.30798

> <r_epik_Ionization_Penalty_Neutral>
3.4851e-05

> <r_epik_State_Penalty>
2.52618

> <r_epik_Charging_Adjusted_Penalty>
4.83416

> <i_epik_Tot_Q>
3

> <i_epik_Tot_abs_Q>
3

> <r_epik_Metal_State_Penalty>
6.53149

> <b_epik_Metal_Only>
0

> <s_lp_Force_Field>
OPLS_2005

> <r_lp_Energy>
42.4593

> <b_lp_Chiralities_Consistent>
1

> <s_lp_Variant>
AV-unprocessed.smi:1005-23

> <Gold.Version>
5.8.1

> <Gold.Id.Protein>
6NUR|6NUR_protein|mol2

> <Gold.PLP.Fitness>
56.9287

> <Gold.PLP.PLP>
-44.8165

> <Gold.PLP.part.hbond>
-3.3368

> <Gold.PLP.part.metal>
0.0000

> <Gold.PLP.part.buried>
-5.4490

> <Gold.PLP.part.nonpolar>
-35.8830

> <Gold.PLP.part.repulsive>
0.0289

> <Gold.PLP.ligand.clash>
0.0000

> <Gold.PLP.ligand.torsion>
1.5261

> <Gold.PLP.Chemscore.Hbond>
5.0000

> <Gold.PLP.Chemscore.CHOScore>
0.0000

> <Gold.PLP.Chemscore.Metal>
0.0000

> <Gold.Chemscore.Hbonds>
donor molecule, donor type, donor heavy atom, donor atom, acceptor molecule, acceptor atom, score
      L1  H     5    58       P1  8028  1.95
      L1  H    18    56       P1  7948  1.69
      P1  H  7989  7998       L1    10  1.00

> <Gold.PLP.Chemscore.Internal.Correction>
0.1643

> <Gold.Rescore>
     Score         DG    S(hbond)    S(metal)    S(lipo)     H(rot)  DE(clash)    DE(int)     intcor
     20.91     -22.29       2.90        0.00     116.96       2.56       0.01       1.37       ----

> <Gold.Chemscore.Fitness>
20.9138

> <Gold.Chemscore.DG>
-22.2935

> <Gold.Chemscore.ZeroCoef>
-5.4800

> <Gold.Chemscore.Hbond>
2.8964

> <Gold.Chemscore.Metal>
0.0000

> <Gold.Chemscore.Lipo>
116.9617

> <Gold.Chemscore.Internal_Hbond>
0.0000

> <Gold.Chemscore.DEClash>
0.0096

> <Gold.Chemscore.DEInternal>
1.3701

> <Gold.Chemscore.Rot>
2.5566

> <Gold.Chemscore.Internal.Correction>
   9.000000E+99

> <Gold.Chemscore.Hbonds>
donor molecule, donor type, donor heavy atom, donor atom, acceptor molecule, acceptor atom, score
      L1  H     5    58       P1  8028  0.91
      L1  H    18    56       P1  7948  0.14
      P1  H  7989  7998       L1    10  0.99

> <Gold.Chemscore.Hbond.Weighted>
-9.6740

> <Gold.Chemscore.Metal.Weighted>
-0.0000

> <Gold.Chemscore.Lipo.Weighted>
-13.6845

> <Gold.Chemscore.Internal_Hbond.Weighted>
0.0000

> <Gold.Chemscore.DEClash.Weighted>
0.0096

> <Gold.Chemscore.DEInternal.Weighted>
1.3701

> <Gold.Chemscore.Rot.Weighted>
6.5450

> <Gold.Chemscore.Internal.Correction.Weighted>
   9.000000E+99

> <Gold.Protein.RotatedTorsions>
[ 6907 6896 6895 6894 ] final -117.34 input  -60.11 | X-H torsion
[ 7974 7965 7964 7962 ] final   23.94 input  175.53 | X-H torsion
[ 8008 7997 7996 7995 ] final  -23.63 input   59.86 | X-H torsion
[ 10167 10162 10161 10158 ] final -130.93 input  -65.29 | X-H torsion
[ 10718 10713 10712 10709 ] final   64.56 input   66.30 | X-H torsion
[ 10763 10752 10751 10750 ] final  112.74 input  -60.55 | X-H torsion
[ 11005 11000 10999 10996 ] final  124.58 input  -57.11 | X-H torsion

> <Gold.Protein.ActiveResidues>
 VAL166  LYS551  ARG553  GLY616  TRP617  ASP618  TYR619  PRO620  LYS621  CYS622 
 ASP623  PHE694  ASN695  SER759  ASP760  ASP761  ALA762  ILE779  LEU786  VAL792 
 PHE793  MET794  SER795  GLU796  ALA797  LYS798  CYS799  TRP800  GLU811  SER814 

> <Gold.Protein.RotatedAtoms>
  150.8129  133.8389  159.3173 H   0  0  0  0  0  0  0  0  0  0  0  0  # atno 6907 bound_to 6896
  151.6170  135.1034  160.0103 H   0  0  0  0  0  0  0  0  0  0  0  0  # atno 6908 bound_to 6896
  152.4221  133.7093  159.6526 H   0  0  0  0  0  0  0  0  0  0  0  0  # atno 6909 bound_to 6896
  146.1961  139.7674  142.8796 H   0  0  0  0  0  0  0  0  0  0  0  0  # atno 7974 bound_to 7965
  154.4574  140.1975  156.0340 H   0  0  0  0  0  0  0  0  0  0  0  0  # atno 8008 bound_to 7997
  156.0774  140.3276  155.7623 H   0  0  0  0  0  0  0  0  0  0  0  0  # atno 8009 bound_to 7997
  155.5167  140.0566  157.2905 H   0  0  0  0  0  0  0  0  0  0  0  0  # atno 8010 bound_to 7997
  139.9241  143.6347  152.2546 H   0  0  0  0  0  0  0  0  0  0  0  0  # atno 10167 bound_to 10162
  157.6047  130.9166  149.9861 H   0  0  0  0  0  0  0  0  0  0  0  0  # atno 10718 bound_to 10713
  153.4822  135.3677  155.2448 H   0  0  0  0  0  0  0  0  0  0  0  0  # atno 10763 bound_to 10752
  154.8755  135.3957  154.3686 H   0  0  0  0  0  0  0  0  0  0  0  0  # atno 10764 bound_to 10752
  153.4292  135.7082  153.6307 H   0  0  0  0  0  0  0  0  0  0  0  0  # atno 10765 bound_to 10752
  139.9365  134.9639  156.8430 H   0  0  0  0  0  0  0  0  0  0  0  0  # atno 11005 bound_to 11000
  145.3639  141.0331  143.3269 LP  0  0  0  0  0  0  0  0  0  0  0  0  # atno 17320 bound_to 7965
  144.8583  139.5215  143.6824 LP  0  0  0  0  0  0  0  0  0  0  0  0  # atno 17321 bound_to 7965
  139.6836  144.7653  151.1563 LP  0  0  0  0  0  0  0  0  0  0  0  0  # atno 17342 bound_to 10162
  140.7654  143.5689  150.9018 LP  0  0  0  0  0  0  0  0  0  0  0  0  # atno 17343 bound_to 10162
  156.1130  130.3649  150.0016 LP  0  0  0  0  0  0  0  0  0  0  0  0  # atno 17370 bound_to 10713
  156.8110  130.9325  151.3644 LP  0  0  0  0  0  0  0  0  0  0  0  0  # atno 17371 bound_to 10713
  140.6062  134.0125  155.7557 LP  0  0  0  0  0  0  0  0  0  0  0  0  # atno 17394 bound_to 11000
  141.0981  133.9811  157.3126 LP  0  0  0  0  0  0  0  0  0  0  0  0  # atno 17395 bound_to 11000

$$$$
