#       Name:                AV-unprocessed.smi:35
#       Creating user name   scv26
#       Creation time:       Thu Mar 26 16:03:23 2020


#       File generated by GOLD software.
#

@<TRIPOS>MOLECULE
AV-unprocessed.smi:35
    41    42     1
SMALL
NO_CHARGES


@<TRIPOS>ATOM
      1 ****        -4.2142   2.4457  -2.0164 O.2            1 S1                 0.0000
      2 ****        -3.2816   2.0435  -1.3232 C.2            1 S1                 0.0000
      3 ****        -3.4115   1.7695   0.0067 N.pl3          1 S1                -1.0000
      4 ****        -2.3757   1.3118   0.7694 C.2            1 S1                 0.0000
      5 ****        -2.4796   1.0848   1.9753 O.2            1 S1                 0.0000
      6 ****        -1.1118   1.0838   0.1556 N.am           1 S1                 0.0000
      7 ****         0.0372   0.5884   1.0183 C.3            1 S1                 0.0000
      8 ****         1.2196   0.5685   0.2753 O.3            1 S1                 0.0000
      9 ****         1.4156  -0.7292  -0.2722 C.3            1 S1                 0.0000
     10 ****         2.8896  -0.9162  -0.6616 C.3            1 S1                 0.0000
     11 ****         3.1278  -0.3589  -1.9368 O.3            1 S1                 0.0000
     12 ****         0.9654  -1.6293   0.8794 C.3            1 S1                 0.0000
     13 ****         0.5375  -2.8835   0.3870 O.3            1 S1                 0.0000
     14 ****        -0.2035  -0.8622   1.4929 C.3            1 S1                 0.0000
     15 ****        -0.1682  -0.9608   2.9018 O.3            1 S1                 0.0000
     16 ****        -0.9432   1.3889  -1.1866 C.2            1 S1                 0.0000
     17 ****        -1.9687   1.8488  -1.9313 C.2            1 S1                 0.0000
     18 ****        -1.5814   2.2387  -3.8353 Br             1 S1                 0.0000
     19 ****         0.1185   1.3231   1.8216 H              1 S1                 0.0000
     20 ****         0.7601  -0.8768  -1.1329 H              1 S1                 0.0000
     21 ****         3.5558  -0.4725   0.0788 H              1 S1                 0.0000
     22 ****         3.1299  -1.9782  -0.7190 H              1 S1                 0.0000
     23 ****         4.0357  -0.4955  -2.1598 H              1 S1                 0.0000
     24 ****         1.7754  -1.7547   1.6003 H              1 S1                 0.0000
     25 ****         0.1903  -3.3830   1.1104 H              1 S1                 0.0000
     26 ****        -1.1607  -1.2272   1.1166 H              1 S1                 0.0000
     27 ****        -0.8747  -0.4367   3.2495 H              1 S1                 0.0000
     28 ****         0.0175   1.2691  -1.6630 H              1 S1                 0.0000
     29 ****        -4.0696   2.6363  -2.9874 LP             1 S1                 0.0000
     30 ****        -5.1173   2.5822  -1.6092 LP             1 S1                 0.0000
     31 ****        -4.3015   1.9095   0.4406 LP             1 S1                 0.0000
     32 ****        -3.3528   1.2351   2.4389 LP             1 S1                 0.0000
     33 ****        -1.6908   0.7501   2.4908 LP             1 S1                 0.0000
     34 ****         1.9902   0.7992   0.8694 LP             1 S1                 0.0000
     35 ****         1.1584   1.2369  -0.4660 LP             1 S1                 0.0000
     36 ****         2.9288   0.6209  -1.9190 LP             1 S1                 0.0000
     37 ****         2.5434  -0.8054  -2.6144 LP             1 S1                 0.0000
     38 ****         1.3114  -3.3694  -0.0191 LP             1 S1                 0.0000
     39 ****        -0.1728  -2.7510  -0.3044 LP             1 S1                 0.0000
     40 ****         0.7074  -0.6198   3.2439 LP             1 S1                 0.0000
     41 ****        -0.2855  -1.9146   3.1782 LP             1 S1                 0.0000
@<TRIPOS>BOND
    1    1    2 2     
    2    2   17 1     
    3    2    3 1     
    4    3    4 1     
    5    4    5 2     
    6    4    6 am    
    7    6    7 1     
    8    6   16 1     
    9    7   14 1     
   10    7    8 1     
   11    7   19 1     
   12    8    9 1     
   13    9   10 1     
   14    9   12 1     
   15    9   20 1     
   16   10   11 1     
   17   10   21 1     
   18   10   22 1     
   19   11   23 1     
   20   12   13 1     
   21   12   14 1     
   22   12   24 1     
   23   13   25 1     
   24   14   15 1     
   25   14   26 1     
   26   15   27 1     
   27   16   17 2     
   28   16   28 1     
   29   17   18 1     
   30    1   29 1     
   31    1   30 1     
   32    3   31 1     
   33    5   32 1     
   34    5   33 1     
   35    8   34 1     
   36    8   35 1     
   37   11   36 1     
   38   11   37 1     
   39   13   38 1     
   40   13   39 1     
   41   15   40 1     
   42   15   41 1     
@<TRIPOS>SUBSTRUCTURE
      1 S1             1
@<TRIPOS>SET
LONE_PAIRS      STATIC     ATOMS    <user>   **** ""
13 29 30 31 32 33 34 35 36 37 38 39 40 41
DONOR_HYDROGENS      STATIC     ATOMS    <user>   **** ""
3 23 25 27
ATOM$BLUE        STATIC     ATOMS    COLORGROUP SYSTEM
13 29 30 31 32 33 34 35 36 37 38 39 40 41
ATOM$RED        STATIC     ATOMS    COLORGROUP SYSTEM
3 23 25 27
