#       Name:                AV-unprocessed.smi:1007
#       Creating user name   scv26
#       Creation time:       Fri Mar 27 02:33:53 2020


#       File generated by GOLD software.
#

@<TRIPOS>MOLECULE
AV-unprocessed.smi:1007
    62    64     1
SMALL
NO_CHARGES


@<TRIPOS>ATOM
      1 ****        -6.8423   1.3184  -0.4299 C.3            1 S1                 0.0000
      2 ****        -5.5203   1.5504  -0.8912 O.3            1 S1                 0.0000
      3 ****        -4.9931   0.5132  -1.7086 C.3            1 S1                 0.0000
      4 ****        -4.5564  -0.7118  -0.8814 C.3            1 S1                 0.0000
      5 ****        -3.5585  -0.3711   0.1640 N.4            1 S1                 1.0000
      6 ****        -2.2018  -0.0808  -0.3733 C.3            1 S1                 0.0000
      7 ****        -1.2476   0.3081   0.7737 C.3            1 S1                 0.0000
      8 ****        -1.1450  -0.7186   1.8108 N.3            1 S1                 0.0000
      9 ****        -0.4430  -1.9456   1.4107 C.3            1 S1                 0.0000
     10 ****         1.0494  -1.7776   1.0488 C.3            1 S1                 0.0000
     11 ****         1.7431  -2.9192   1.5134 O.3            1 S1                 0.0000
     12 ****         1.2997  -1.6704  -0.4717 C.3            1 S1                 0.0000
     13 ****         2.7012  -1.4626  -0.7885 N.pl3          1 S1                 0.0000
     14 ****         3.5637  -2.3604  -1.3028 C.2            1 S1                 0.0000
     15 ****         4.8104  -1.9511  -1.5194 N.2            1 S1                 0.0000
     16 ****         4.7484  -0.6328  -1.1014 C.ar           1 S1                 0.0000
     17 ****         5.7439   0.3681  -1.0712 C.ar           1 S1                 0.0000
     18 ****         5.4521   1.6665  -0.5956 C.ar           1 S1                 0.0000
     19 ****         6.5536   2.7118  -0.5796 C.3            1 S1                 0.0000
     20 ****         4.1462   1.9797  -0.1399 C.ar           1 S1                 0.0000
     21 ****         3.8105   3.3667   0.3790 C.3            1 S1                 0.0000
     22 ****         3.1395   0.9920  -0.1645 C.ar           1 S1                 0.0000
     23 ****         3.4426  -0.2960  -0.6396 C.ar           1 S1                 0.0000
     24 ****        -2.4873  -0.9822   2.3291 C.3            1 S1                 0.0000
     25 ****        -3.4917  -1.4001   1.2345 C.3            1 S1                 0.0000
     26 ****        -7.1870   2.1883   0.1291 H              1 S1                 0.0000
     27 ****        -6.8950   0.4575   0.2361 H              1 S1                 0.0000
     28 ****        -7.5313   1.1624  -1.2611 H              1 S1                 0.0000
     29 ****        -5.7234   0.2205  -2.4647 H              1 S1                 0.0000
     30 ****        -4.1454   0.9175  -2.2607 H              1 S1                 0.0000
     31 ****        -5.4349  -1.1577  -0.4149 H              1 S1                 0.0000
     32 ****        -4.1470  -1.4809  -1.5380 H              1 S1                 0.0000
     33 ****        -1.8225  -0.9452  -0.9198 H              1 S1                 0.0000
     34 ****        -2.2469   0.7438  -1.0836 H              1 S1                 0.0000
     35 ****        -0.2618   0.5594   0.3872 H              1 S1                 0.0000
     36 ****        -1.6129   1.2297   1.2289 H              1 S1                 0.0000
     37 ****        -0.5033  -2.6360   2.2538 H              1 S1                 0.0000
     38 ****        -0.9635  -2.4500   0.5970 H              1 S1                 0.0000
     39 ****         1.4626  -0.9129   1.5697 H              1 S1                 0.0000
     40 ****         2.6663  -2.7963   1.3512 H              1 S1                 0.0000
     41 ****         0.9569  -2.5745  -0.9773 H              1 S1                 0.0000
     42 ****         0.7386  -0.8478  -0.9112 H              1 S1                 0.0000
     43 ****         3.2605  -3.3725  -1.5280 H              1 S1                 0.0000
     44 ****         6.7385   0.1288  -1.4175 H              1 S1                 0.0000
     45 ****         6.2724   3.5732  -1.1857 H              1 S1                 0.0000
     46 ****         7.4871   2.3133  -0.9780 H              1 S1                 0.0000
     47 ****         6.7423   3.0510   0.4393 H              1 S1                 0.0000
     48 ****         2.7708   3.4299   0.7018 H              1 S1                 0.0000
     49 ****         3.9656   4.1138  -0.3997 H              1 S1                 0.0000
     50 ****         4.4410   3.6185   1.2320 H              1 S1                 0.0000
     51 ****         2.1413   1.2164   0.1807 H              1 S1                 0.0000
     52 ****        -2.4430  -1.7490   3.1034 H              1 S1                 0.0000
     53 ****        -2.8595  -0.0842   2.8242 H              1 S1                 0.0000
     54 ****        -4.4783  -1.5218   1.6831 H              1 S1                 0.0000
     55 ****        -3.2224  -2.3662   0.8058 H              1 S1                 0.0000
     56 ****        -3.8849   0.4751   0.6092 H              1 S1                 0.0000
     57 ****        -4.9247   1.6542  -0.0946 LP             1 S1                 0.0000
     58 ****        -5.5183   2.3982  -1.4215 LP             1 S1                 0.0000
     59 ****        -0.5567  -0.3568   2.5341 LP             1 S1                 0.0000
     60 ****         1.4204  -3.7311   1.0269 LP             1 S1                 0.0000
     61 ****         1.5854  -3.0337   2.4943 LP             1 S1                 0.0000
     62 ****         5.5879  -2.4612  -1.8873 LP             1 S1                 0.0000
@<TRIPOS>BOND
    1    1    2 1     
    2    1   26 1     
    3    1   27 1     
    4    1   28 1     
    5    2    3 1     
    6    3    4 1     
    7    3   29 1     
    8    3   30 1     
    9    4    5 1     
   10    4   31 1     
   11    4   32 1     
   12    5   25 1     
   13    5    6 1     
   14    5   56 1     
   15    6    7 1     
   16    6   33 1     
   17    6   34 1     
   18    7    8 1     
   19    7   35 1     
   20    7   36 1     
   21    8    9 1     
   22    8   24 1     
   23    9   10 1     
   24    9   37 1     
   25    9   38 1     
   26   10   11 1     
   27   10   12 1     
   28   10   39 1     
   29   11   40 1     
   30   12   13 1     
   31   12   41 1     
   32   12   42 1     
   33   13   23 1     
   34   13   14 1     
   35   14   15 2     
   36   14   43 1     
   37   15   16 1     
   38   16   23 ar    
   39   16   17 ar    
   40   17   18 ar    
   41   17   44 1     
   42   18   19 1     
   43   18   20 ar    
   44   19   45 1     
   45   19   46 1     
   46   19   47 1     
   47   20   21 1     
   48   20   22 ar    
   49   21   48 1     
   50   21   49 1     
   51   21   50 1     
   52   22   23 ar    
   53   22   51 1     
   54   24   25 1     
   55   24   52 1     
   56   24   53 1     
   57   25   54 1     
   58   25   55 1     
   59    2   57 1     
   60    2   58 1     
   61    8   59 1     
   62   11   60 1     
   63   11   61 1     
   64   15   62 1     
@<TRIPOS>SUBSTRUCTURE
      1 S1             1
@<TRIPOS>SET
LONE_PAIRS      STATIC     ATOMS    <user>   **** ""
6 57 58 59 60 61 62
DONOR_HYDROGENS      STATIC     ATOMS    <user>   **** ""
2 56 40
ATOM$BLUE        STATIC     ATOMS    COLORGROUP SYSTEM
6 57 58 59 60 61 62
ATOM$RED        STATIC     ATOMS    COLORGROUP SYSTEM
2 56 40
