AV-unprocessed.smi:3329|AV-procd|sdf|12799|dock3
  -GOLD-   2272019153D 1   1.00000     0.00000
 Structure written by MMmdl.
 41 42  0  0  0  0  0  0  0  0  3 V2000
  146.5792  131.4496  152.8630 C   0  0  0  0  0  0  0  0  0  0  0  0
  145.9691  132.5905  152.1004 C   0  0  0  0  0  0  0  0  0  0  0  0
  144.8213  132.5613  151.2583 C   0  0  0  0  0  0  0  0  0  0  0  0
  144.5383  133.7430  150.7343 N   0  0  0  0  0  0  0  0  0  0  0  0
  145.4912  134.5651  151.2213 N   0  0  0  0  0  0  0  0  0  0  0  0
  145.4895  135.9693  150.8524 C   0  0  0  0  0  0  0  0  0  0  0  0
  145.2459  136.8886  152.0603 C   0  0  0  0  0  0  0  0  0  0  0  0
  145.3797  138.3110  151.6902 N   0  3  0  0  0  0  0  0  0  0  0  0
  146.7277  138.8692  151.9082 C   0  0  0  0  0  0  0  0  0  0  0  0
  146.9802  139.0466  153.4087 C   0  0  0  0  0  0  0  0  0  0  0  0
  146.0443  138.9508  154.2036 O   0  0  0  0  0  0  0  0  0  0  0  0
  148.2857  139.3040  153.6622 N   0  5  0  0  0  0  0  0  0  0  0  0
  148.7453  140.0781  154.8225 C   0  0  1  0  0  0  0  0  0  0  0  0
  148.2615  139.4042  156.1229 C   0  0  0  0  0  0  0  0  0  0  0  0
  150.2178  140.1939  154.8195 C   0  0  0  0  0  0  0  0  0  0  0  0
  151.3720  140.2841  154.8179 N   0  0  0  0  0  0  0  0  0  0  0  0
  148.1909  141.5050  154.7653 C   0  0  0  0  0  0  0  0  0  0  0  0
  146.7256  141.8509  154.9102 C   0  0  0  0  0  0  0  0  0  0  0  0
  147.4289  142.0551  153.5809 C   0  0  0  0  0  0  0  0  0  0  0  0
  146.3712  133.8950  152.0448 C   0  0  0  0  0  0  0  0  0  0  0  0
  146.7696  130.5912  152.2186 H   0  0  0  0  0  0  0  0  0  0  0  0
  145.9254  131.1099  153.6664 H   0  0  0  0  0  0  0  0  0  0  0  0
  147.5305  131.7267  153.3182 H   0  0  0  0  0  0  0  0  0  0  0  0
  144.1880  131.7207  151.0152 H   0  0  0  0  0  0  0  0  0  0  0  0
  146.4404  136.2099  150.3750 H   0  0  0  0  0  0  0  0  0  0  0  0
  144.7139  136.1252  150.1013 H   0  0  0  0  0  0  0  0  0  0  0  0
  144.2431  136.7196  152.4541 H   0  0  0  0  0  0  0  0  0  0  0  0
  145.9462  136.6522  152.8629 H   0  0  0  0  0  0  0  0  0  0  0  0
  145.1574  138.4135  150.7102 H   0  0  0  0  0  0  0  0  0  0  0  0
  147.4664  138.2028  151.4584 H   0  0  0  0  0  0  0  0  0  0  0  0
  146.8118  139.8388  151.4159 H   0  0  0  0  0  0  0  0  0  0  0  0
  148.5501  139.9894  156.9964 H   0  0  0  0  0  0  0  0  0  0  0  0
  148.6870  138.4089  156.2535 H   0  0  0  0  0  0  0  0  0  0  0  0
  147.1754  139.3058  156.1394 H   0  0  0  0  0  0  0  0  0  0  0  0
  148.8709  142.2205  155.2252 H   0  0  0  0  0  0  0  0  0  0  0  0
  146.0027  141.0404  154.9771 H   0  0  0  0  0  0  0  0  0  0  0  0
  146.4780  142.7382  155.4889 H   0  0  0  0  0  0  0  0  0  0  0  0
  147.6451  143.0779  153.2791 H   0  0  0  0  0  0  0  0  0  0  0  0
  147.1738  141.3777  152.7686 H   0  0  0  0  0  0  0  0  0  0  0  0
  147.1996  134.3970  152.5231 H   0  0  0  0  0  0  0  0  0  0  0  0
  144.7206  138.8556  152.2277 H   0  0  0  0  0  0  0  0  0  0  0  0
  1  2  1  0  0  0  0
  1 21  1  0  0  0  0
  1 22  1  0  0  0  0
  1 23  1  0  0  0  0
  2 20  2  0  0  0  0
  2  3  1  0  0  0  0
  3  4  2  0  0  0  0
  3 24  1  0  0  0  0
  4  5  1  0  0  0  0
  5  6  1  0  0  0  0
  5 20  1  0  0  0  0
  6  7  1  0  0  0  0
  6 25  1  0  0  0  0
  6 26  1  0  0  0  0
  7  8  1  0  0  0  0
  7 27  1  0  0  0  0
  7 28  1  0  0  0  0
  8  9  1  0  0  0  0
  8 29  1  0  0  0  0
  8 41  1  0  0  0  0
  9 10  1  0  0  0  0
  9 30  1  0  0  0  0
  9 31  1  0  0  0  0
 10 11  2  0  0  0  0
 10 12  1  0  0  0  0
 12 13  1  0  0  0  0
 13 14  1  0  0  0  0
 13 15  1  0  0  0  0
 13 17  1  0  0  0  0
 14 32  1  0  0  0  0
 14 33  1  0  0  0  0
 14 34  1  0  0  0  0
 15 16  3  0  0  0  0
 17 19  1  0  0  0  0
 17 18  1  0  0  0  0
 17 35  1  0  0  0  0
 18 19  1  0  0  0  0
 18 36  1  0  0  0  0
 18 37  1  0  0  0  0
 19 38  1  0  0  0  0
 19 39  1  0  0  0  0
 20 40  1  0  0  0  0
M  CHG  1   8   1
M  CHG  1  12  -1
M  END
> <s_m_source_file>
AV-unprocessed.smi

> <i_m_source_file_index>
3329

> <i_lp_mmshare_version>
43012

> <i_f3d_flags>
0

> <s_epik_input>
W0NIM11jMVtjSF1ubihbY0hdMSlbQ0gyXVtDSDJdW05IXVtDSDJdQyg9TylbTkhdW0NAQF0oW0NIM10pKEMjTilbQ0hdMltDSDJdW0NIMl0y

> <s_epik_cmdline>
J2VwaWtfcHl0aG9uJywgJy1waCcsICc3LjAnLCAnLXRuJywgJzgnLCAnLW1hJywgJzIwMCcsICctbWV0YWxfYmluZGluZycsICctaW1hZScsICc8aW5maWxlLm1hZT4nLCAnLW9tYWUnLCAnPG91dGZpbGUubWFlPic=

> <r_lp_tautomer_probability>
1

> <r_epik_Ionization_Penalty>
5.61187

> <r_epik_Ionization_Penalty_Charging>
5.61186

> <r_epik_Ionization_Penalty_Neutral>
4.91277e-06

> <r_epik_State_Penalty>
5.94522

> <r_epik_Charging_Adjusted_Penalty>
11.5571

> <i_epik_Tot_Q>
0

> <i_epik_Tot_abs_Q>
2

> <r_epik_Metal_State_Penalty>
1.9215

> <b_epik_Metal_Only>
1

> <s_lp_Force_Field>
OPLS_2005

> <r_lp_Energy>
13.6964

> <b_lp_Chiralities_Consistent>
1

> <s_lp_Variant>
AV-unprocessed.smi:3329-5

> <Gold.Version>
5.8.1

> <Gold.Id.Protein>
6NUR|6NUR_protein|mol2

> <Gold.PLP.Fitness>
48.1453

> <Gold.PLP.PLP>
-35.8151

> <Gold.PLP.part.hbond>
-2.8038

> <Gold.PLP.part.metal>
0.0000

> <Gold.PLP.part.buried>
-4.7817

> <Gold.PLP.part.nonpolar>
-28.4115

> <Gold.PLP.part.repulsive>
1.1911

> <Gold.PLP.ligand.clash>
0.0000

> <Gold.PLP.ligand.torsion>
1.7074

> <Gold.PLP.Chemscore.Hbond>
3.6560

> <Gold.PLP.Chemscore.CHOScore>
1.0000

> <Gold.PLP.Chemscore.Metal>
0.0000

> <Gold.Chemscore.Hbonds>
donor molecule, donor type, donor heavy atom, donor atom, acceptor molecule, acceptor atom, score
      L1  H     8    29       P1 10171  0.77
      L1  H     8    41       P1 10175  1.98
      P1  H  7989  7998       L1    16  0.83
      L1  C    20    40       P1  7948  0.86

> <Gold.PLP.Chemscore.Internal.Correction>
1.7770

> <Gold.Rescore>
     Score         DG    S(hbond)    S(metal)    S(lipo)     H(rot)  DE(clash)    DE(int)     intcor
      9.90     -15.20       2.19        0.00      71.04       2.31       0.43       4.86       ----

> <Gold.Chemscore.Fitness>
9.9032

> <Gold.Chemscore.DG>
-15.1951

> <Gold.Chemscore.ZeroCoef>
-5.4800

> <Gold.Chemscore.Hbond>
2.1937

> <Gold.Chemscore.Metal>
0.0000

> <Gold.Chemscore.Lipo>
71.0428

> <Gold.Chemscore.Internal_Hbond>
0.0000

> <Gold.Chemscore.DEClash>
0.4330

> <Gold.Chemscore.DEInternal>
4.8589

> <Gold.Chemscore.Rot>
2.3140

> <Gold.Chemscore.Internal.Correction>
   9.000000E+99

> <Gold.Chemscore.Hbonds>
donor molecule, donor type, donor heavy atom, donor atom, acceptor molecule, acceptor atom, score
      L1  H     8    29       P1 10171  0.75
      L1  H     8    41       P1 10175  0.94
      P1  H  7989  7998       L1    16  0.32

> <Gold.Chemscore.Hbond.Weighted>
-7.3269

> <Gold.Chemscore.Metal.Weighted>
-0.0000

> <Gold.Chemscore.Lipo.Weighted>
-8.3120

> <Gold.Chemscore.Internal_Hbond.Weighted>
0.0000

> <Gold.Chemscore.DEClash.Weighted>
0.4330

> <Gold.Chemscore.DEInternal.Weighted>
4.8589

> <Gold.Chemscore.Rot.Weighted>
5.9238

> <Gold.Chemscore.Internal.Correction.Weighted>
   9.000000E+99

> <Gold.Protein.RotatedTorsions>
[ 6907 6896 6895 6894 ] final  179.69 input  -60.11 | X-H torsion
[ 7974 7965 7964 7962 ] final -172.49 input  175.53 | X-H torsion
[ 8008 7997 7996 7995 ] final  117.45 input   59.86 | X-H torsion
[ 10167 10162 10161 10158 ] final   32.40 input  -65.29 | X-H torsion
[ 10718 10713 10712 10709 ] final  -30.38 input   66.30 | X-H torsion
[ 10763 10752 10751 10750 ] final  111.93 input  -60.55 | X-H torsion
[ 11005 11000 10999 10996 ] final  -63.27 input  -57.11 | X-H torsion

> <Gold.Protein.ActiveResidues>
 VAL166  LYS551  ARG553  GLY616  TRP617  ASP618  TYR619  PRO620  LYS621  CYS622 
 ASP623  PHE694  ASN695  SER759  ASP760  ASP761  ALA762  ILE779  LEU786  VAL792 
 PHE793  MET794  SER795  GLU796  ALA797  LYS798  CYS799  TRP800  GLU811  SER814 

> <Gold.Protein.RotatedAtoms>
  151.6676  133.3315  159.3188 H   0  0  0  0  0  0  0  0  0  0  0  0  # atno 6907 bound_to 6896
  150.7883  134.6890  159.6496 H   0  0  0  0  0  0  0  0  0  0  0  0  # atno 6908 bound_to 6896
  152.3958  134.6372  160.0142 H   0  0  0  0  0  0  0  0  0  0  0  0  # atno 6909 bound_to 6896
  144.7146  140.1764  143.6362 H   0  0  0  0  0  0  0  0  0  0  0  0  # atno 7974 bound_to 7965
  156.2495  140.2896  156.0681 H   0  0  0  0  0  0  0  0  0  0  0  0  # atno 8008 bound_to 7997
  155.1701  140.0401  157.2878 H   0  0  0  0  0  0  0  0  0  0  0  0  # atno 8009 bound_to 7997
  154.6331  140.2504  155.7416 H   0  0  0  0  0  0  0  0  0  0  0  0  # atno 8010 bound_to 7997
  140.4501  144.1060  150.6190 H   0  0  0  0  0  0  0  0  0  0  0  0  # atno 10167 bound_to 10162
  156.4005  130.4389  149.7326 H   0  0  0  0  0  0  0  0  0  0  0  0  # atno 10718 bound_to 10713
  153.4704  135.3702  155.2388 H   0  0  0  0  0  0  0  0  0  0  0  0  # atno 10763 bound_to 10752
  154.8757  135.3930  154.3818 H   0  0  0  0  0  0  0  0  0  0  0  0  # atno 10764 bound_to 10752
  153.4406  135.7084  153.6236 H   0  0  0  0  0  0  0  0  0  0  0  0  # atno 10765 bound_to 10752
  141.1387  133.6650  156.5654 H   0  0  0  0  0  0  0  0  0  0  0  0  # atno 11005 bound_to 11000
  145.8896  139.2368  143.1557 LP  0  0  0  0  0  0  0  0  0  0  0  0  # atno 17320 bound_to 7965
  145.9916  140.8598  143.0063 LP  0  0  0  0  0  0  0  0  0  0  0  0  # atno 17321 bound_to 7965
  140.4217  143.2609  151.9707 LP  0  0  0  0  0  0  0  0  0  0  0  0  # atno 17342 bound_to 10162
  139.4796  144.5825  151.7909 LP  0  0  0  0  0  0  0  0  0  0  0  0  # atno 17343 bound_to 10162
  156.4344  130.7830  151.2851 LP  0  0  0  0  0  0  0  0  0  0  0  0  # atno 17370 bound_to 10713
  157.7503  131.0144  150.3463 LP  0  0  0  0  0  0  0  0  0  0  0  0  # atno 17371 bound_to 10713
  140.3955  134.7403  157.4748 LP  0  0  0  0  0  0  0  0  0  0  0  0  # atno 17394 bound_to 11000
  140.0535  134.6097  155.8833 LP  0  0  0  0  0  0  0  0  0  0  0  0  # atno 17395 bound_to 11000

$$$$
