AV-unprocessed.smi:1545|AV-procd|sdf|6216|dock3
  -GOLD-   22720 6383D 1   1.00000     0.00000
 Structure written by MMmdl.
 41 43  0  0  0  0  0  0  0  0  1 V2000
  151.8851  137.0540  155.9221 O   0  0  0  0  0  0  0  0  0  0  0  0
  152.4955  138.2390  155.4580 C   0  0  0  0  0  0  0  0  0  0  0  0
  151.8468  139.4661  156.1148 C   0  0  0  0  0  0  0  0  0  0  0  0
  152.2512  139.6220  157.5000 N   0  0  0  0  0  0  0  0  0  0  0  0
  152.2349  140.7140  158.3601 C   0  0  0  0  0  0  0  0  0  0  0  0
  151.8002  141.9253  158.0191 N   0  0  0  0  0  0  0  0  0  0  0  0
  151.9836  142.6420  159.1864 C   0  0  0  0  0  0  0  0  0  0  0  0
  151.7143  143.9976  159.4822 C   0  0  0  0  0  0  0  0  0  0  0  0
  151.9878  144.5164  160.7647 C   0  0  0  0  0  0  0  0  0  0  0  0
  152.5328  143.6895  161.7684 C   0  0  0  0  0  0  0  0  0  0  0  0
  152.8088  142.3359  161.4960 C   0  0  0  0  0  0  0  0  0  0  0  0
  152.5353  141.8222  160.2141 C   0  0  0  0  0  0  0  0  0  0  0  0
  152.6830  140.5678  159.6292 N   0  0  0  0  0  0  0  0  0  0  0  0
  153.2060  139.3644  160.2626 C   0  0  0  0  0  0  0  0  0  0  0  0
  154.3529  139.6661  161.2475 C   0  0  2  0  0  0  0  0  0  0  0  0
  155.5937  139.6368  160.5686 O   0  0  0  0  0  0  0  0  0  0  0  0
  154.3250  138.7215  162.4386 C   0  0  0  0  0  0  0  0  0  0  0  0
  153.4992  137.5770  162.4098 C   0  0  0  0  0  0  0  0  0  0  0  0
  153.4742  136.6915  163.5048 C   0  0  0  0  0  0  0  0  0  0  0  0
  154.2772  136.9436  164.6336 C   0  0  0  0  0  0  0  0  0  0  0  0
  155.1060  138.0814  164.6668 C   0  0  0  0  0  0  0  0  0  0  0  0
  155.8811  138.3227  165.7503 F   0  0  0  0  0  0  0  0  0  0  0  0
  155.1308  138.9679  163.5725 C   0  0  0  0  0  0  0  0  0  0  0  0
  151.2293  137.2835  156.5625 H   0  0  0  0  0  0  0  0  0  0  0  0
  153.5727  138.2086  155.6280 H   0  0  0  0  0  0  0  0  0  0  0  0
  152.3425  138.2811  154.3795 H   0  0  0  0  0  0  0  0  0  0  0  0
  152.1686  140.3651  155.5890 H   0  0  0  0  0  0  0  0  0  0  0  0
  150.7594  139.4305  156.0362 H   0  0  0  0  0  0  0  0  0  0  0  0
  152.5714  138.7635  157.9235 H   0  0  0  0  0  0  0  0  0  0  0  0
  151.2962  144.6386  158.7202 H   0  0  0  0  0  0  0  0  0  0  0  0
  151.7777  145.5540  160.9787 H   0  0  0  0  0  0  0  0  0  0  0  0
  152.7387  144.0950  162.7481 H   0  0  0  0  0  0  0  0  0  0  0  0
  153.2246  141.7009  162.2640 H   0  0  0  0  0  0  0  0  0  0  0  0
  152.3867  138.8624  160.7791 H   0  0  0  0  0  0  0  0  0  0  0  0
  153.5400  138.6752  159.4863 H   0  0  0  0  0  0  0  0  0  0  0  0
  154.2355  140.6830  161.6242 H   0  0  0  0  0  0  0  0  0  0  0  0
  156.2654  139.9463  161.1564 H   0  0  0  0  0  0  0  0  0  0  0  0
  152.8819  137.3729  161.5472 H   0  0  0  0  0  0  0  0  0  0  0  0
  152.8399  135.8177  163.4783 H   0  0  0  0  0  0  0  0  0  0  0  0
  154.2585  136.2635  165.4724 H   0  0  0  0  0  0  0  0  0  0  0  0
  155.7726  139.8360  163.6062 H   0  0  0  0  0  0  0  0  0  0  0  0
  1  2  1  0  0  0  0
  1 24  1  0  0  0  0
  2  3  1  0  0  0  0
  2 25  1  0  0  0  0
  2 26  1  0  0  0  0
  3  4  1  0  0  0  0
  3 27  1  0  0  0  0
  3 28  1  0  0  0  0
  4  5  1  0  0  0  0
  4 29  1  0  0  0  0
  5 13  1  0  0  0  0
  5  6  2  0  0  0  0
  6  7  1  0  0  0  0
  7 12  2  0  0  0  0
  7  8  1  0  0  0  0
  8  9  2  0  0  0  0
  8 30  1  0  0  0  0
  9 10  1  0  0  0  0
  9 31  1  0  0  0  0
 10 11  2  0  0  0  0
 10 32  1  0  0  0  0
 11 12  1  0  0  0  0
 11 33  1  0  0  0  0
 12 13  1  0  0  0  0
 13 14  1  0  0  0  0
 14 15  1  0  0  0  0
 14 34  1  0  0  0  0
 14 35  1  0  0  0  0
 15 16  1  0  0  0  0
 15 17  1  0  0  0  0
 15 36  1  0  0  0  0
 16 37  1  0  0  0  0
 17 23  1  0  0  0  0
 17 18  2  0  0  0  0
 18 19  1  0  0  0  0
 18 38  1  0  0  0  0
 19 20  2  0  0  0  0
 19 39  1  0  0  0  0
 20 21  1  0  0  0  0
 20 40  1  0  0  0  0
 21 22  1  0  0  0  0
 21 23  2  0  0  0  0
 23 41  1  0  0  0  0
M  END
> <s_m_source_file>
AV-unprocessed.smi

> <i_m_source_file_index>
1545

> <i_lp_mmshare_version>
43012

> <i_f3d_flags>
0

> <s_epik_input>
W09IXVtDSDJdW0NIMl1bTkhdYyhuMSluKGMoYzEyKVtjSF1bY0hdW2NIXVtjSF0yKVtDSDJdW0NASF0oW09IXSljM1tjSF1bY0hdW2NIXWMoRilbY0hdMw==

> <s_epik_cmdline>
J2VwaWtfcHl0aG9uJywgJy1waCcsICc3LjAnLCAnLXRuJywgJzgnLCAnLW1hJywgJzIwMCcsICctbWV0YWxfYmluZGluZycsICctaW1hZScsICc8aW5maWxlLm1hZT4nLCAnLW9tYWUnLCAnPG91dGZpbGUubWFlPic=

> <r_epik_Ionization_Penalty>
1.30972

> <r_epik_Ionization_Penalty_Charging>
0

> <r_epik_Ionization_Penalty_Neutral>
1.30972

> <r_epik_State_Penalty>
1.38438

> <r_epik_Charging_Adjusted_Penalty>
1.38438

> <i_epik_Tot_Q>
0

> <i_epik_Tot_abs_Q>
0

> <r_epik_Metal_State_Penalty>
0.00551145

> <b_epik_Metal_Only>
0

> <s_lp_Force_Field>
OPLS_2005

> <r_lp_Energy>
9.7293

> <b_lp_Chiralities_Consistent>
1

> <s_lp_Variant>
AV-unprocessed.smi:1545-3

> <Gold.Version>
5.8.1

> <Gold.Id.Protein>
6NUR|6NUR_protein|mol2

> <Gold.PLP.Fitness>
52.9795

> <Gold.PLP.PLP>
-53.0555

> <Gold.PLP.part.hbond>
-1.0000

> <Gold.PLP.part.metal>
0.0000

> <Gold.PLP.part.buried>
-5.9677

> <Gold.PLP.part.nonpolar>
-46.3043

> <Gold.PLP.part.repulsive>
0.7073

> <Gold.PLP.ligand.clash>
0.0000

> <Gold.PLP.ligand.torsion>
1.1295

> <Gold.PLP.Chemscore.Hbond>
0.7137

> <Gold.PLP.Chemscore.CHOScore>
0.0000

> <Gold.PLP.Chemscore.Metal>
0.0000

> <Gold.Chemscore.Hbonds>
donor molecule, donor type, donor heavy atom, donor atom, acceptor molecule, acceptor atom, score
      P1  H 10752 10765       L1     1  0.31

> <Gold.PLP.Chemscore.Internal.Correction>
0.0419

> <Gold.Rescore>
     Score         DG    S(hbond)    S(metal)    S(lipo)     H(rot)  DE(clash)    DE(int)     intcor
     17.27     -18.41       1.74        0.00     128.16       3.08       0.07       1.07       ----

> <Gold.Chemscore.Fitness>
17.2728

> <Gold.Chemscore.DG>
-18.4072

> <Gold.Chemscore.ZeroCoef>
-5.4800

> <Gold.Chemscore.Hbond>
1.7428

> <Gold.Chemscore.Metal>
0.0000

> <Gold.Chemscore.Lipo>
128.1550

> <Gold.Chemscore.Internal_Hbond>
0.0000

> <Gold.Chemscore.DEClash>
0.0650

> <Gold.Chemscore.DEInternal>
1.0694

> <Gold.Chemscore.Rot>
3.0812

> <Gold.Chemscore.Internal.Correction>
   9.000000E+99

> <Gold.Chemscore.Hbonds>
donor molecule, donor type, donor heavy atom, donor atom, acceptor molecule, acceptor atom, score
      P1  H 10752 10765       L1     1  0.06

> <Gold.Chemscore.Hbond.Weighted>
-5.8208

> <Gold.Chemscore.Metal.Weighted>
-0.0000

> <Gold.Chemscore.Lipo.Weighted>
-14.9941

> <Gold.Chemscore.Internal_Hbond.Weighted>
0.0000

> <Gold.Chemscore.DEClash.Weighted>
0.0650

> <Gold.Chemscore.DEInternal.Weighted>
1.0694

> <Gold.Chemscore.Rot.Weighted>
7.8878

> <Gold.Chemscore.Internal.Correction.Weighted>
   9.000000E+99

> <Gold.Protein.RotatedTorsions>
[ 6907 6896 6895 6894 ] final   -4.94 input  -60.11 | X-H torsion
[ 7974 7965 7964 7962 ] final -174.60 input  175.53 | X-H torsion
[ 8008 7997 7996 7995 ] final  112.96 input   59.86 | X-H torsion
[ 10167 10162 10161 10158 ] final   17.90 input  -65.29 | X-H torsion
[ 10718 10713 10712 10709 ] final  132.19 input   66.30 | X-H torsion
[ 10763 10752 10751 10750 ] final  175.58 input  -60.55 | X-H torsion
[ 11005 11000 10999 10996 ] final   11.19 input  -57.11 | X-H torsion

> <Gold.Protein.ActiveResidues>
 VAL166  LYS551  ARG553  GLY616  TRP617  ASP618  TYR619  PRO620  LYS621  CYS622 
 ASP623  PHE694  ASN695  SER759  ASP760  ASP761  ALA762  ILE779  LEU786  VAL792 
 PHE793  MET794  SER795  GLU796  ALA797  LYS798  CYS799  TRP800  GLU811  SER814 

> <Gold.Protein.RotatedAtoms>
  151.4895  135.1057  159.9799 H   0  0  0  0  0  0  0  0  0  0  0  0  # atno 6907 bound_to 6896
  152.4747  133.8106  159.7012 H   0  0  0  0  0  0  0  0  0  0  0  0  # atno 6908 bound_to 6896
  150.8777  133.7354  159.2968 H   0  0  0  0  0  0  0  0  0  0  0  0  # atno 6909 bound_to 6896
  144.7131  140.1447  143.6389 H   0  0  0  0  0  0  0  0  0  0  0  0  # atno 7974 bound_to 7965
  156.2227  140.2989  155.9991 H   0  0  0  0  0  0  0  0  0  0  0  0  # atno 8008 bound_to 7997
  155.2439  140.0423  157.2995 H   0  0  0  0  0  0  0  0  0  0  0  0  # atno 8009 bound_to 7997
  154.5866  140.2390  155.7987 H   0  0  0  0  0  0  0  0  0  0  0  0  # atno 8010 bound_to 7997
  140.5693  143.9192  150.6700 H   0  0  0  0  0  0  0  0  0  0  0  0  # atno 10167 bound_to 10162
  157.4895  131.1090  150.9575 H   0  0  0  0  0  0  0  0  0  0  0  0  # atno 10718 bound_to 10713
  154.4695  135.2770  155.1653 H   0  0  0  0  0  0  0  0  0  0  0  0  # atno 10763 bound_to 10752
  154.3408  135.6170  153.5599 H   0  0  0  0  0  0  0  0  0  0  0  0  # atno 10764 bound_to 10752
  152.9862  135.5788  154.5073 H   0  0  0  0  0  0  0  0  0  0  0  0  # atno 10765 bound_to 10752
  140.5060  134.0699  155.7805 H   0  0  0  0  0  0  0  0  0  0  0  0  # atno 11005 bound_to 11000
  145.9171  139.2522  143.1403 LP  0  0  0  0  0  0  0  0  0  0  0  0  # atno 17320 bound_to 7965
  145.9658  140.8799  143.0187 LP  0  0  0  0  0  0  0  0  0  0  0  0  # atno 17321 bound_to 7965
  140.2663  143.3488  152.1278 LP  0  0  0  0  0  0  0  0  0  0  0  0  # atno 17342 bound_to 10162
  139.5109  144.6892  151.5807 LP  0  0  0  0  0  0  0  0  0  0  0  0  # atno 17343 bound_to 10162
  157.0281  130.5700  149.5339 LP  0  0  0  0  0  0  0  0  0  0  0  0  # atno 17370 bound_to 10713
  156.0166  130.5260  150.8151 LP  0  0  0  0  0  0  0  0  0  0  0  0  # atno 17371 bound_to 10713
  141.1411  133.9137  157.2324 LP  0  0  0  0  0  0  0  0  0  0  0  0  # atno 17394 bound_to 11000
  139.9686  135.0135  156.9453 LP  0  0  0  0  0  0  0  0  0  0  0  0  # atno 17395 bound_to 11000

$$$$
