#       Name:                AV-unprocessed.smi:1381
#       Creating user name   scv26
#       Creation time:       Fri Mar 27 05:22:27 2020


#       File generated by GOLD software.
#

@<TRIPOS>MOLECULE
AV-unprocessed.smi:1381
    50    51     1
SMALL
NO_CHARGES


@<TRIPOS>ATOM
      1 ****        -3.7687   6.3148   3.0017 C.3            1 S1                 0.0000
      2 ****        -2.8798   5.6261   2.0236 C.2            1 S1                 0.0000
      3 ****        -3.1017   4.6476   1.0965 C.2            1 S1                 0.0000
      4 ****        -1.8203   4.4585   0.5107 C.2            1 S1                 0.0000
      5 ****        -1.5228   3.5977  -0.4749 N.pl3          1 S1                -1.0000
      6 ****        -1.2466   2.3049  -0.1905 C.2            1 S1                 0.0000
      7 ****        -1.2311   1.7878   0.9290 O.2            1 S1                 0.0000
      8 ****        -0.9695   1.5626  -1.2721 N.am           1 S1                 0.0000
      9 ****        -0.6356   0.1436  -1.2660 C.3            1 S1                 0.0000
     10 ****         0.8279  -0.0871  -0.8457 C.3            1 S1                 0.0000
     11 ****         1.1979  -1.5235  -0.8679 N.4            1 S1                 1.0000
     12 ****         2.6597  -1.7303  -0.9975 C.3            1 S1                 0.0000
     13 ****         3.0055  -3.2301  -1.0823 C.3            1 S1                 0.0000
     14 ****         2.6497  -3.8692  -2.4367 C.3            1 S1                 0.0000
     15 ****         2.4254  -3.9343   0.0158 O.3            1 S1                 0.0000
     16 ****         1.0144  -3.7802   0.1477 C.3            1 S1                 0.0000
     17 ****         0.5629  -4.5919   1.3665 C.3            1 S1                 0.0000
     18 ****         0.6728  -2.2863   0.2901 C.3            1 S1                 0.0000
     19 ****        -0.9052   5.2625   1.0254 N.2            1 S1                 0.0000
     20 ****        -1.5753   6.0107   2.0004 O.3            1 S1                 0.0000
     21 ****        -4.3785   7.0683   2.5031 H              1 S1                 0.0000
     22 ****        -3.1870   6.8103   3.7793 H              1 S1                 0.0000
     23 ****        -4.4379   5.6023   3.4843 H              1 S1                 0.0000
     24 ****        -4.0305   4.1440   0.8745 H              1 S1                 0.0000
     25 ****        -0.9954   2.0249  -2.1694 H              1 S1                 0.0000
     26 ****        -1.3305  -0.3850  -0.6129 H              1 S1                 0.0000
     27 ****        -0.7991  -0.2457  -2.2712 H              1 S1                 0.0000
     28 ****         1.4672   0.4597  -1.5403 H              1 S1                 0.0000
     29 ****         1.0257   0.3269   0.1444 H              1 S1                 0.0000
     30 ****         3.0374  -1.2122  -1.8801 H              1 S1                 0.0000
     31 ****         3.1580  -1.2866  -0.1340 H              1 S1                 0.0000
     32 ****         4.0852  -3.3270  -0.9649 H              1 S1                 0.0000
     33 ****         3.2098  -3.3978  -3.2447 H              1 S1                 0.0000
     34 ****         1.5915  -3.7709  -2.6773 H              1 S1                 0.0000
     35 ****         2.8974  -4.9309  -2.4418 H              1 S1                 0.0000
     36 ****         0.5147  -4.1878  -0.7316 H              1 S1                 0.0000
     37 ****        -0.5153  -4.5169   1.5102 H              1 S1                 0.0000
     38 ****         1.0475  -4.2402   2.2778 H              1 S1                 0.0000
     39 ****         0.8086  -5.6470   1.2449 H              1 S1                 0.0000
     40 ****         1.0978  -1.8869   1.2127 H              1 S1                 0.0000
     41 ****        -0.4081  -2.1708   0.3636 H              1 S1                 0.0000
     42 ****         0.7800  -1.9152  -1.6996 H              1 S1                 0.0000
     43 ****        -1.5053   3.9136  -1.4236 LP             1 S1                 0.0000
     44 ****        -1.4367   2.3394   1.7374 LP             1 S1                 0.0000
     45 ****        -1.0129   0.8170   1.0284 LP             1 S1                 0.0000
     46 ****         2.8541  -3.6055   0.8573 LP             1 S1                 0.0000
     47 ****         2.6224  -4.9078  -0.1003 LP             1 S1                 0.0000
     48 ****         0.0603   5.3231   0.7719 LP             1 S1                 0.0000
     49 ****        -1.1599   5.8466   2.8952 LP             1 S1                 0.0000
     50 ****        -1.5150   6.9839   1.7785 LP             1 S1                 0.0000
@<TRIPOS>BOND
    1    1    2 1     
    2    1   21 1     
    3    1   22 1     
    4    1   23 1     
    5    2   20 1     
    6    2    3 2     
    7    3    4 1     
    8    3   24 1     
    9    4    5 1     
   10    4   19 2     
   11    5    6 1     
   12    6    7 2     
   13    6    8 am    
   14    8    9 1     
   15    8   25 1     
   16    9   10 1     
   17    9   26 1     
   18    9   27 1     
   19   10   11 1     
   20   10   28 1     
   21   10   29 1     
   22   11   18 1     
   23   11   12 1     
   24   11   42 1     
   25   12   13 1     
   26   12   30 1     
   27   12   31 1     
   28   13   14 1     
   29   13   15 1     
   30   13   32 1     
   31   14   33 1     
   32   14   34 1     
   33   14   35 1     
   34   15   16 1     
   35   16   17 1     
   36   16   18 1     
   37   16   36 1     
   38   17   37 1     
   39   17   38 1     
   40   17   39 1     
   41   18   40 1     
   42   18   41 1     
   43   19   20 1     
   44    5   43 1     
   45    7   44 1     
   46    7   45 1     
   47   15   46 1     
   48   15   47 1     
   49   19   48 1     
   50   20   49 1     
   51   20   50 1     
@<TRIPOS>SUBSTRUCTURE
      1 S1             1
@<TRIPOS>SET
LONE_PAIRS      STATIC     ATOMS    <user>   **** ""
8 43 44 45 46 47 48 49 50
DONOR_HYDROGENS      STATIC     ATOMS    <user>   **** ""
2 25 42
ATOM$BLUE        STATIC     ATOMS    COLORGROUP SYSTEM
8 43 44 45 46 47 48 49 50
ATOM$RED        STATIC     ATOMS    COLORGROUP SYSTEM
2 25 42
