AV-unprocessed.smi:3198|AV-procd|sdf|12227|dock6
  -GOLD-   2272018 63D 1   1.00000     0.00000
 Structure written by MMmdl.
 38 39  0  0  0  0  0  0  0  0  2 V2000
  151.2769  145.3886  159.2699 C   0  0  0  0  0  0  0  0  0  0  0  0
  151.3966  143.9476  158.8213 C   0  0  0  0  0  0  0  0  0  0  0  0
  152.2368  143.0217  159.4735 C   0  0  0  0  0  0  0  0  0  0  0  0
  152.2965  141.6968  158.9966 C   0  0  0  0  0  0  0  0  0  0  0  0
  151.5190  141.3269  157.8797 C   0  0  0  0  0  0  0  0  0  0  0  0
  150.6920  142.2938  157.2588 C   0  0  0  0  0  0  0  0  0  0  0  0
  149.8826  142.0402  156.1444 N   0  0  0  0  0  0  0  0  0  0  0  0
  149.8552  140.7130  155.5496 C   0  0  0  0  0  0  0  0  0  0  0  0
  148.8956  140.6539  154.3568 C   0  0  0  0  0  0  0  0  0  0  0  0
  147.6492  141.2078  154.7438 O   0  0  0  0  0  0  0  0  0  0  0  0
  147.3453  142.4111  154.0585 C   0  0  0  0  0  0  0  0  0  0  0  0
  145.8715  142.7607  154.2997 C   0  0  2  0  0  0  0  0  0  0  0  0
  145.4112  144.0275  153.5801 C   0  0  0  0  0  0  0  0  0  0  0  0
  144.2537  144.5251  154.4331 C   0  0  0  0  0  0  0  0  0  0  0  0
  144.3853  143.7360  155.7388 C   0  0  0  0  0  0  0  0  0  0  0  0
  145.6525  143.0990  155.6596 O   0  0  0  0  0  0  0  0  0  0  0  0
  150.6668  143.5514  157.7544 N   0  3  0  0  0  0  0  0  0  0  0  0
  151.8752  145.5739  160.1625 H   0  0  0  0  0  0  0  0  0  0  0  0
  150.2391  145.6309  159.5004 H   0  0  0  0  0  0  0  0  0  0  0  0
  151.6213  146.0605  158.4833 H   0  0  0  0  0  0  0  0  0  0  0  0
  152.8284  143.3195  160.3271 H   0  0  0  0  0  0  0  0  0  0  0  0
  152.9324  140.9715  159.4823 H   0  0  0  0  0  0  0  0  0  0  0  0
  151.5662  140.3106  157.5177 H   0  0  0  0  0  0  0  0  0  0  0  0
  149.5221  142.8141  155.6048 H   0  0  0  0  0  0  0  0  0  0  0  0
  150.8587  140.4218  155.2368 H   0  0  0  0  0  0  0  0  0  0  0  0
  149.5311  139.9998  156.3080 H   0  0  0  0  0  0  0  0  0  0  0  0
  149.3092  141.2337  153.5303 H   0  0  0  0  0  0  0  0  0  0  0  0
  148.7749  139.6269  154.0079 H   0  0  0  0  0  0  0  0  0  0  0  0
  147.9922  143.2244  154.3919 H   0  0  0  0  0  0  0  0  0  0  0  0
  147.5187  142.2676  152.9908 H   0  0  0  0  0  0  0  0  0  0  0  0
  145.2272  141.9239  154.0224 H   0  0  0  0  0  0  0  0  0  0  0  0
  146.2089  144.7719  153.5805 H   0  0  0  0  0  0  0  0  0  0  0  0
  145.1261  143.8423  152.5441 H   0  0  0  0  0  0  0  0  0  0  0  0
  144.3311  145.5997  154.6026 H   0  0  0  0  0  0  0  0  0  0  0  0
  143.2911  144.3281  153.9597 H   0  0  0  0  0  0  0  0  0  0  0  0
  144.3191  144.3721  156.6219 H   0  0  0  0  0  0  0  0  0  0  0  0
  143.6058  142.9755  155.8078 H   0  0  0  0  0  0  0  0  0  0  0  0
  150.0676  144.2402  157.2993 H   0  0  0  0  0  0  0  0  0  0  0  0
  1  2  1  0  0  0  0
  1 18  1  0  0  0  0
  1 19  1  0  0  0  0
  1 20  1  0  0  0  0
  2 17  1  0  0  0  0
  2  3  2  0  0  0  0
  3  4  1  0  0  0  0
  3 21  1  0  0  0  0
  4  5  2  0  0  0  0
  4 22  1  0  0  0  0
  5  6  1  0  0  0  0
  5 23  1  0  0  0  0
  6  7  1  0  0  0  0
  6 17  2  0  0  0  0
  7  8  1  0  0  0  0
  7 24  1  0  0  0  0
  8  9  1  0  0  0  0
  8 25  1  0  0  0  0
  8 26  1  0  0  0  0
  9 10  1  0  0  0  0
  9 27  1  0  0  0  0
  9 28  1  0  0  0  0
 10 11  1  0  0  0  0
 11 12  1  0  0  0  0
 11 29  1  0  0  0  0
 11 30  1  0  0  0  0
 12 16  1  0  0  0  0
 12 13  1  0  0  0  0
 12 31  1  0  0  0  0
 13 14  1  0  0  0  0
 13 32  1  0  0  0  0
 13 33  1  0  0  0  0
 14 15  1  0  0  0  0
 14 34  1  0  0  0  0
 14 35  1  0  0  0  0
 15 16  1  0  0  0  0
 15 36  1  0  0  0  0
 15 37  1  0  0  0  0
 17 38  1  0  0  0  0
M  CHG  1  17   1
M  END
> <s_m_source_file>
AV-unprocessed.smi

> <i_m_source_file_index>
3198

> <i_lp_mmshare_version>
43012

> <i_f3d_flags>
0

> <s_epik_input>
W0NIM11jMVtjSF1bY0hdW2NIXWMobjEpW05IXVtDSDJdW0NIMl1PW0NIMl1bQ0BASF0yW0NIMl1bQ0gyXVtDSDJdTzI=

> <s_epik_cmdline>
J2VwaWtfcHl0aG9uJywgJy1waCcsICc3LjAnLCAnLXRuJywgJzgnLCAnLW1hJywgJzIwMCcsICctbWV0YWxfYmluZGluZycsICctaW1hZScsICc8aW5maWxlLm1hZT4nLCAnLW9tYWUnLCAnPG91dGZpbGUubWFlPic=

> <r_lp_tautomer_probability>
0.999994

> <r_epik_Ionization_Penalty>
0.0710016

> <r_epik_Ionization_Penalty_Charging>
0.0710012

> <r_epik_Ionization_Penalty_Neutral>
3.47026e-07

> <r_epik_State_Penalty>
0.0622974

> <r_epik_Charging_Adjusted_Penalty>
0.133299

> <i_epik_Tot_Q>
1

> <i_epik_Tot_abs_Q>
1

> <r_epik_Metal_State_Penalty>
2.79497

> <b_epik_Metal_Only>
0

> <s_lp_Force_Field>
OPLS_2005

> <r_lp_Energy>
24.6681

> <b_lp_Chiralities_Consistent>
1

> <s_lp_Variant>
AV-unprocessed.smi:3198-1

> <Gold.Version>
5.8.1

> <Gold.Id.Protein>
6NUR|6NUR_protein|mol2

> <Gold.PLP.Fitness>
49.0390

> <Gold.PLP.PLP>
-38.5239

> <Gold.PLP.part.hbond>
-2.0000

> <Gold.PLP.part.metal>
0.0000

> <Gold.PLP.part.buried>
-5.7135

> <Gold.PLP.part.nonpolar>
-32.7352

> <Gold.PLP.part.repulsive>
0.3757

> <Gold.PLP.ligand.clash>
0.0000

> <Gold.PLP.ligand.torsion>
0.4450

> <Gold.PLP.Chemscore.Hbond>
3.7909

> <Gold.PLP.Chemscore.CHOScore>
0.0000

> <Gold.PLP.Chemscore.Metal>
0.0000

> <Gold.Chemscore.Hbonds>
donor molecule, donor type, donor heavy atom, donor atom, acceptor molecule, acceptor atom, score
      L1  H     7    24       P1  8028  1.86
      L1  H    17    38       P1  8028  1.87

> <Gold.PLP.Chemscore.Internal.Correction>
0.0323

> <Gold.Rescore>
     Score         DG    S(hbond)    S(metal)    S(lipo)     H(rot)  DE(clash)    DE(int)     intcor
     17.33     -17.86       1.59        0.00      97.87       1.71       0.08       0.45       ----

> <Gold.Chemscore.Fitness>
17.3258

> <Gold.Chemscore.DG>
-17.8597

> <Gold.Chemscore.ZeroCoef>
-5.4800

> <Gold.Chemscore.Hbond>
1.5860

> <Gold.Chemscore.Metal>
0.0000

> <Gold.Chemscore.Lipo>
97.8665

> <Gold.Chemscore.Internal_Hbond>
0.0000

> <Gold.Chemscore.DEClash>
0.0802

> <Gold.Chemscore.DEInternal>
0.4537

> <Gold.Chemscore.Rot>
1.7063

> <Gold.Chemscore.Internal.Correction>
   9.000000E+99

> <Gold.Chemscore.Hbonds>
donor molecule, donor type, donor heavy atom, donor atom, acceptor molecule, acceptor atom, score
      L1  H     7    24       P1  8028  0.85
      L1  H    17    38       P1  8028  0.55

> <Gold.Chemscore.Hbond.Weighted>
-5.2974

> <Gold.Chemscore.Metal.Weighted>
-0.0000

> <Gold.Chemscore.Lipo.Weighted>
-11.4504

> <Gold.Chemscore.Internal_Hbond.Weighted>
0.0000

> <Gold.Chemscore.DEClash.Weighted>
0.0802

> <Gold.Chemscore.DEInternal.Weighted>
0.4537

> <Gold.Chemscore.Rot.Weighted>
4.3681

> <Gold.Chemscore.Internal.Correction.Weighted>
   9.000000E+99

> <Gold.Protein.RotatedTorsions>
[ 6907 6896 6895 6894 ] final -156.73 input  -60.11 | X-H torsion
[ 7974 7965 7964 7962 ] final   79.42 input  175.53 | X-H torsion
[ 8008 7997 7996 7995 ] final -169.29 input   59.86 | X-H torsion
[ 10167 10162 10161 10158 ] final  135.29 input  -65.29 | X-H torsion
[ 10718 10713 10712 10709 ] final -108.89 input   66.30 | X-H torsion
[ 10763 10752 10751 10750 ] final  166.72 input  -60.55 | X-H torsion
[ 11005 11000 10999 10996 ] final -173.89 input  -57.11 | X-H torsion

> <Gold.Protein.ActiveResidues>
 VAL166  LYS551  ARG553  GLY616  TRP617  ASP618  TYR619  PRO620  LYS621  CYS622 
 ASP623  PHE694  ASN695  SER759  ASP760  ASP761  ALA762  ILE779  LEU786  VAL792 
 PHE793  MET794  SER795  GLU796  ALA797  LYS798  CYS799  TRP800  GLU811  SER814 

> <Gold.Protein.RotatedAtoms>
  151.2920  133.4161  159.2633 H   0  0  0  0  0  0  0  0  0  0  0  0  # atno 6907 bound_to 6896
  151.0269  134.9511  159.8100 H   0  0  0  0  0  0  0  0  0  0  0  0  # atno 6908 bound_to 6896
  152.5337  134.2882  159.9085 H   0  0  0  0  0  0  0  0  0  0  0  0  # atno 6909 bound_to 6896
  145.6644  139.2480  143.1904 H   0  0  0  0  0  0  0  0  0  0  0  0  # atno 7974 bound_to 7965
  155.9030  140.1044  157.1336 H   0  0  0  0  0  0  0  0  0  0  0  0  # atno 8008 bound_to 7997
  154.4029  140.1289  156.4524 H   0  0  0  0  0  0  0  0  0  0  0  0  # atno 8009 bound_to 7997
  155.7400  140.3467  155.5102 H   0  0  0  0  0  0  0  0  0  0  0  0  # atno 8010 bound_to 7997
  139.5223  144.6524  151.5262 H   0  0  0  0  0  0  0  0  0  0  0  0  # atno 10167 bound_to 10162
  156.0508  130.5736  150.8024 H   0  0  0  0  0  0  0  0  0  0  0  0  # atno 10718 bound_to 10713
  154.3432  135.2754  155.2412 H   0  0  0  0  0  0  0  0  0  0  0  0  # atno 10763 bound_to 10752
  154.4673  135.5892  153.6300 H   0  0  0  0  0  0  0  0  0  0  0  0  # atno 10764 bound_to 10752
  152.9856  135.6079  154.3635 H   0  0  0  0  0  0  0  0  0  0  0  0  # atno 10765 bound_to 10752
  140.4806  134.6078  157.4918 H   0  0  0  0  0  0  0  0  0  0  0  0  # atno 11005 bound_to 11000
  146.1098  140.7442  142.9508 LP  0  0  0  0  0  0  0  0  0  0  0  0  # atno 17320 bound_to 7965
  144.7078  140.3921  143.7104 LP  0  0  0  0  0  0  0  0  0  0  0  0  # atno 17321 bound_to 7965
  140.6335  143.9029  150.6626 LP  0  0  0  0  0  0  0  0  0  0  0  0  # atno 17342 bound_to 10162
  140.2341  143.3713  152.1541 LP  0  0  0  0  0  0  0  0  0  0  0  0  # atno 17343 bound_to 10162
  157.5433  131.0941  150.9798 LP  0  0  0  0  0  0  0  0  0  0  0  0  # atno 17370 bound_to 10713
  157.0075  130.5624  149.5317 LP  0  0  0  0  0  0  0  0  0  0  0  0  # atno 17371 bound_to 10713
  139.9829  134.7109  155.9827 LP  0  0  0  0  0  0  0  0  0  0  0  0  # atno 17394 bound_to 11000
  141.1533  133.6546  156.4081 LP  0  0  0  0  0  0  0  0  0  0  0  0  # atno 17395 bound_to 11000

$$$$
