AV-unprocessed.smi:2784|AV-procd|sdf|10736|dock1
  -GOLD-   2272015173D 1   1.00000     0.00000
 Structure written by MMmdl.
 31 32  0  0  0  0  0  0  0  0  1 V2000
  153.4708  142.1801  160.7113 C   0  0  0  0  0  0  0  0  0  0  0  0
  152.6827  142.6062  159.6120 O   0  0  0  0  0  0  0  0  0  0  0  0
  152.7540  144.0076  159.3622 C   0  0  2  0  0  0  0  0  0  0  0  0
  152.1758  144.7030  160.5959 C   0  0  0  0  0  0  0  0  0  0  0  0
  150.6657  144.6578  160.3800 C   0  0  0  0  0  0  0  0  0  0  0  0
  150.4835  144.8534  158.8726 C   0  0  0  0  0  0  0  0  0  0  0  0
  151.8072  144.4209  158.2110 C   0  0  2  0  0  0  0  0  0  0  0  0
  151.5830  143.3500  157.2413 N   0  0  0  0  0  0  0  0  0  0  0  0
  150.9309  142.2032  157.4820 C   0  0  0  0  0  0  0  0  0  0  0  0
  150.4563  141.9518  158.5944 O   0  0  0  0  0  0  0  0  0  0  0  0
  150.8896  141.4306  156.3300 N   0  0  0  0  0  0  0  0  0  0  0  0
  149.8393  141.4520  155.5677 C   0  0  0  0  0  0  0  0  0  0  0  0
  148.6245  142.1284  155.6434 N   0  0  0  0  0  0  0  0  0  0  0  0
  147.8715  141.7754  154.5586 C   0  0  0  0  0  0  0  0  0  0  0  0
  148.5774  140.9165  153.8294 C   0  0  0  0  0  0  0  0  0  0  0  0
  149.7851  140.6992  154.4217 O   0  0  0  0  0  0  0  0  0  0  0  0
  153.4009  141.0974  160.8133 H   0  0  0  0  0  0  0  0  0  0  0  0
  153.1182  142.6299  161.6402 H   0  0  0  0  0  0  0  0  0  0  0  0
  154.5213  142.4384  160.5747 H   0  0  0  0  0  0  0  0  0  0  0  0
  153.7794  144.3358  159.1792 H   0  0  0  0  0  0  0  0  0  0  0  0
  152.4840  144.2354  161.5317 H   0  0  0  0  0  0  0  0  0  0  0  0
  152.5082  145.7417  160.6202 H   0  0  0  0  0  0  0  0  0  0  0  0
  150.2854  143.6778  160.6720 H   0  0  0  0  0  0  0  0  0  0  0  0
  150.1353  145.4079  160.9672 H   0  0  0  0  0  0  0  0  0  0  0  0
  149.6204  144.2952  158.5068 H   0  0  0  0  0  0  0  0  0  0  0  0
  150.2957  145.9060  158.6564 H   0  0  0  0  0  0  0  0  0  0  0  0
  152.2234  145.2957  157.7077 H   0  0  0  0  0  0  0  0  0  0  0  0
  151.9382  143.5020  156.3084 H   0  0  0  0  0  0  0  0  0  0  0  0
  148.3118  142.7723  156.3560 H   0  0  0  0  0  0  0  0  0  0  0  0
  146.8832  142.1889  154.4209 H   0  0  0  0  0  0  0  0  0  0  0  0
  148.3707  140.3944  152.9067 H   0  0  0  0  0  0  0  0  0  0  0  0
  1  2  1  0  0  0  0
  1 17  1  0  0  0  0
  1 18  1  0  0  0  0
  1 19  1  0  0  0  0
  2  3  1  0  0  0  0
  3  7  1  0  0  0  0
  3  4  1  0  0  0  0
  3 20  1  0  0  0  0
  4  5  1  0  0  0  0
  4 21  1  0  0  0  0
  4 22  1  0  0  0  0
  5  6  1  0  0  0  0
  5 23  1  0  0  0  0
  5 24  1  0  0  0  0
  6  7  1  0  0  0  0
  6 25  1  0  0  0  0
  6 26  1  0  0  0  0
  7  8  1  0  0  0  0
  7 27  1  0  0  0  0
  8 28  1  0  0  0  0
  8  9  1  0  0  0  0
  9 11  1  0  0  0  0
  9 10  2  0  0  0  0
 11 12  2  0  0  0  0
 12 16  1  0  0  0  0
 12 13  1  0  0  0  0
 13 29  1  0  0  0  0
 13 14  1  0  0  0  0
 14 30  1  0  0  0  0
 14 15  2  0  0  0  0
 15 31  1  0  0  0  0
 15 16  1  0  0  0  0
M  END
> <s_m_source_file>
AV-unprocessed.smi

> <i_m_source_file_index>
2784

> <i_lp_mmshare_version>
43012

> <i_f3d_flags>
0

> <s_epik_input>
W0NIM11PW0NAQEhdMVtDSDJdW0NIMl1bQ0gyXVtDQEhdMVtOSF1DKD1PKVtOSF1jMm5bY0hdW2NIXW8y

> <s_epik_cmdline>
J2VwaWtfcHl0aG9uJywgJy1waCcsICc3LjAnLCAnLXRuJywgJzgnLCAnLW1hJywgJzIwMCcsICctbWV0YWxfYmluZGluZycsICctaW1hZScsICc8aW5maWxlLm1hZT4nLCAnLW9tYWUnLCAnPG91dGZpbGUubWFlPic=

> <r_lp_tautomer_probability>
0.107061

> <r_epik_Ionization_Penalty>
1.29244

> <r_epik_Ionization_Penalty_Charging>
1.29208

> <r_epik_Ionization_Penalty_Neutral>
0.000359742

> <r_epik_State_Penalty>
2.59896

> <r_epik_Charging_Adjusted_Penalty>
3.89105

> <i_epik_Tot_Q>
0

> <i_epik_Tot_abs_Q>
0

> <r_epik_Metal_State_Penalty>
3.62496

> <b_epik_Metal_Only>
0

> <s_lp_Force_Field>
OPLS_2005

> <r_lp_Energy>
46.1047

> <b_lp_Chiralities_Consistent>
1

> <s_lp_Variant>
AV-unprocessed.smi:2784-11

> <Gold.Version>
5.8.1

> <Gold.Id.Protein>
6NUR|6NUR_protein|mol2

> <Gold.PLP.Fitness>
39.0028

> <Gold.PLP.PLP>
-35.0602

> <Gold.PLP.part.hbond>
-2.0000

> <Gold.PLP.part.metal>
0.0000

> <Gold.PLP.part.buried>
-2.9117

> <Gold.PLP.part.nonpolar>
-30.2291

> <Gold.PLP.part.repulsive>
0.3693

> <Gold.PLP.ligand.clash>
0.0000

> <Gold.PLP.ligand.torsion>
0.7940

> <Gold.PLP.Chemscore.Hbond>
0.8350

> <Gold.PLP.Chemscore.CHOScore>
1.0000

> <Gold.PLP.Chemscore.Metal>
0.0000

> <Gold.Chemscore.Hbonds>
donor molecule, donor type, donor heavy atom, donor atom, acceptor molecule, acceptor atom, score
      L1  H    13    29       P1  8028  0.09
      P1  H  7989  7998       L1    16  0.65
      L1  C    15    31       P1  7957  1.00

> <Gold.PLP.Chemscore.Internal.Correction>
0.0255

> <Gold.Rescore>
     Score         DG    S(hbond)    S(metal)    S(lipo)     H(rot)  DE(clash)    DE(int)     intcor
      7.25     -12.49       0.16        0.00      84.36       1.32       0.04       5.19       ----

> <Gold.Chemscore.Fitness>
7.2548

> <Gold.Chemscore.DG>
-12.4900

> <Gold.Chemscore.ZeroCoef>
-5.4800

> <Gold.Chemscore.Hbond>
0.1581

> <Gold.Chemscore.Metal>
0.0000

> <Gold.Chemscore.Lipo>
84.3605

> <Gold.Chemscore.Internal_Hbond>
0.0000

> <Gold.Chemscore.DEClash>
0.0409

> <Gold.Chemscore.DEInternal>
5.1943

> <Gold.Chemscore.Rot>
1.3235

> <Gold.Chemscore.Internal.Correction>
   9.000000E+99

> <Gold.Chemscore.Hbonds>
donor molecule, donor type, donor heavy atom, donor atom, acceptor molecule, acceptor atom, score
      L1  H    13    29       P1  8028  0.08
      P1  H  7989  7998       L1    16  0.38

> <Gold.Chemscore.Hbond.Weighted>
-0.5280

> <Gold.Chemscore.Metal.Weighted>
-0.0000

> <Gold.Chemscore.Lipo.Weighted>
-9.8702

> <Gold.Chemscore.Internal_Hbond.Weighted>
0.0000

> <Gold.Chemscore.DEClash.Weighted>
0.0409

> <Gold.Chemscore.DEInternal.Weighted>
5.1943

> <Gold.Chemscore.Rot.Weighted>
3.3882

> <Gold.Chemscore.Internal.Correction.Weighted>
   9.000000E+99

> <Gold.Protein.RotatedTorsions>
[ 6907 6896 6895 6894 ] final -105.41 input  -60.11 | X-H torsion
[ 7974 7965 7964 7962 ] final -111.10 input  175.53 | X-H torsion
[ 8008 7997 7996 7995 ] final  107.46 input   59.86 | X-H torsion
[ 10167 10162 10161 10158 ] final   16.89 input  -65.29 | X-H torsion
[ 10718 10713 10712 10709 ] final  -83.29 input   66.30 | X-H torsion
[ 10763 10752 10751 10750 ] final  136.72 input  -60.55 | X-H torsion
[ 11005 11000 10999 10996 ] final  -13.39 input  -57.11 | X-H torsion

> <Gold.Protein.ActiveResidues>
 VAL166  LYS551  ARG553  GLY616  TRP617  ASP618  TYR619  PRO620  LYS621  CYS622 
 ASP623  PHE694  ASN695  SER759  ASP760  ASP761  ALA762  ILE779  LEU786  VAL792 
 PHE793  MET794  SER795  GLU796  ALA797  LYS798  CYS799  TRP800  GLU811  SER814 

> <Gold.Protein.RotatedAtoms>
  150.7335  134.0131  159.3676 H   0  0  0  0  0  0  0  0  0  0  0  0  # atno 6907 bound_to 6896
  151.8092  135.0684  160.0420 H   0  0  0  0  0  0  0  0  0  0  0  0  # atno 6908 bound_to 6896
  152.3085  133.5691  159.5701 H   0  0  0  0  0  0  0  0  0  0  0  0  # atno 6909 bound_to 6896
  145.1601  140.8874  143.3595 H   0  0  0  0  0  0  0  0  0  0  0  0  # atno 7974 bound_to 7965
  156.1826  140.3094  155.9177 H   0  0  0  0  0  0  0  0  0  0  0  0  # atno 8008 bound_to 7997
  155.3351  140.0463  157.3060 H   0  0  0  0  0  0  0  0  0  0  0  0  # atno 8009 bound_to 7997
  154.5360  140.2246  155.8732 H   0  0  0  0  0  0  0  0  0  0  0  0  # atno 8010 bound_to 7997
  140.5765  143.9062  150.6754 H   0  0  0  0  0  0  0  0  0  0  0  0  # atno 10167 bound_to 10162
  156.0020  130.4661  150.4235 H   0  0  0  0  0  0  0  0  0  0  0  0  # atno 10718 bound_to 10713
  153.8612  135.3067  155.3438 H   0  0  0  0  0  0  0  0  0  0  0  0  # atno 10763 bound_to 10752
  154.7848  135.4816  153.9925 H   0  0  0  0  0  0  0  0  0  0  0  0  # atno 10764 bound_to 10752
  153.1461  135.6834  153.9047 H   0  0  0  0  0  0  0  0  0  0  0  0  # atno 10765 bound_to 10752
  140.7756  133.8403  155.9246 H   0  0  0  0  0  0  0  0  0  0  0  0  # atno 11005 bound_to 11000
  145.0340  139.3317  143.6010 LP  0  0  0  0  0  0  0  0  0  0  0  0  # atno 17320 bound_to 7965
  146.3483  139.9688  142.8708 LP  0  0  0  0  0  0  0  0  0  0  0  0  # atno 17321 bound_to 7965
  140.2550  143.3565  152.1372 LP  0  0  0  0  0  0  0  0  0  0  0  0  # atno 17342 bound_to 10162
  139.5146  144.6950  151.5656 LP  0  0  0  0  0  0  0  0  0  0  0  0  # atno 17343 bound_to 10162
  157.2289  131.0499  151.2504 LP  0  0  0  0  0  0  0  0  0  0  0  0  # atno 17370 bound_to 10713
  157.3730  130.7191  149.6578 LP  0  0  0  0  0  0  0  0  0  0  0  0  # atno 17371 bound_to 10713
  140.9532  134.1752  157.4712 LP  0  0  0  0  0  0  0  0  0  0  0  0  # atno 17394 bound_to 11000
  139.8749  134.9917  156.5561 LP  0  0  0  0  0  0  0  0  0  0  0  0  # atno 17395 bound_to 11000

$$$$
