AV-unprocessed.smi:2894|AV-procd|sdf|11127|dock1
  -GOLD-   2272016 03D 1   1.00000     0.00000
 Structure written by MMmdl.
 35 36  0  0  0  0  0  0  0  0  1 V2000
  151.2588  130.7732  156.0597 C   0  0  0  0  0  0  0  0  0  0  0  0
  150.6120  131.9614  155.4114 C   0  0  0  0  0  0  0  0  0  0  0  0
  149.6126  131.9712  154.3954 C   0  0  0  0  0  0  0  0  0  0  0  0
  149.4023  133.3077  154.1929 C   0  0  0  0  0  0  0  0  0  0  0  0
  148.5503  133.9182  153.3269 N   0  0  0  0  0  0  0  0  0  0  0  0
  147.3784  133.4694  152.8443 C   0  0  0  0  0  0  0  0  0  0  0  0
  146.8592  132.3875  153.1202 O   0  0  0  0  0  0  0  0  0  0  0  0
  146.8273  134.3618  152.0091 N   0  0  0  0  0  0  0  0  0  0  0  0
  145.5684  134.1843  151.2877 C   0  0  1  0  0  0  0  0  0  0  0  0
  145.6835  133.0550  150.2461 C   0  0  0  0  0  0  0  0  0  0  0  0
  144.3109  132.7462  149.6423 C   0  0  0  0  0  0  0  0  0  0  0  0
  143.3133  132.3559  150.7449 C   0  0  0  0  0  0  0  0  0  0  0  0
  143.3584  133.2453  151.9064 N   0  0  0  0  0  0  0  0  0  0  0  0
  144.3800  134.0467  152.2563 C   0  0  0  0  0  0  0  0  0  0  0  0
  144.3578  134.6902  153.3046 O   0  0  0  0  0  0  0  0  0  0  0  0
  150.2263  134.0206  155.0353 N   0  0  0  0  0  0  0  0  0  0  0  0
  150.3690  135.4554  155.1873 C   0  0  0  0  0  0  0  0  0  0  0  0
  150.9728  133.1834  155.7876 N   0  0  0  0  0  0  0  0  0  0  0  0
  150.9023  129.8416  155.6197 H   0  0  0  0  0  0  0  0  0  0  0  0
  151.0393  130.7411  157.1271 H   0  0  0  0  0  0  0  0  0  0  0  0
  152.3421  130.8022  155.9414 H   0  0  0  0  0  0  0  0  0  0  0  0
  149.1444  131.1278  153.9109 H   0  0  0  0  0  0  0  0  0  0  0  0
  148.8414  134.8309  153.0096 H   0  0  0  0  0  0  0  0  0  0  0  0
  147.3261  135.2222  151.8357 H   0  0  0  0  0  0  0  0  0  0  0  0
  145.3618  135.1074  150.7427 H   0  0  0  0  0  0  0  0  0  0  0  0
  146.3809  133.3369  149.4565 H   0  0  0  0  0  0  0  0  0  0  0  0
  146.0870  132.1546  150.7120 H   0  0  0  0  0  0  0  0  0  0  0  0
  143.9440  133.6246  149.1095 H   0  0  0  0  0  0  0  0  0  0  0  0
  144.3896  131.9463  148.9054 H   0  0  0  0  0  0  0  0  0  0  0  0
  142.2988  132.3387  150.3463 H   0  0  0  0  0  0  0  0  0  0  0  0
  143.5300  131.3453  151.0928 H   0  0  0  0  0  0  0  0  0  0  0  0
  142.5697  133.2010  152.5356 H   0  0  0  0  0  0  0  0  0  0  0  0
  149.3922  135.9040  155.3697 H   0  0  0  0  0  0  0  0  0  0  0  0
  150.7917  135.8788  154.2758 H   0  0  0  0  0  0  0  0  0  0  0  0
  151.0267  135.6899  156.0254 H   0  0  0  0  0  0  0  0  0  0  0  0
  1  2  1  0  0  0  0
  1 19  1  0  0  0  0
  1 20  1  0  0  0  0
  1 21  1  0  0  0  0
  2 18  2  0  0  0  0
  2  3  1  0  0  0  0
  3  4  2  0  0  0  0
  3 22  1  0  0  0  0
  4  5  1  0  0  0  0
  4 16  1  0  0  0  0
  5  6  1  0  0  0  0
  5 23  1  0  0  0  0
  6  7  2  0  0  0  0
  6  8  1  0  0  0  0
  8  9  1  0  0  0  0
  8 24  1  0  0  0  0
  9 14  1  0  0  0  0
  9 10  1  0  0  0  0
  9 25  1  0  0  0  0
 10 11  1  0  0  0  0
 10 26  1  0  0  0  0
 10 27  1  0  0  0  0
 11 12  1  0  0  0  0
 11 28  1  0  0  0  0
 11 29  1  0  0  0  0
 12 13  1  0  0  0  0
 12 30  1  0  0  0  0
 12 31  1  0  0  0  0
 13 14  1  0  0  0  0
 13 32  1  0  0  0  0
 14 15  2  0  0  0  0
 16 17  1  0  0  0  0
 16 18  1  0  0  0  0
 17 33  1  0  0  0  0
 17 34  1  0  0  0  0
 17 35  1  0  0  0  0
M  END
> <s_m_source_file>
AV-unprocessed.smi

> <i_m_source_file_index>
2894

> <i_lp_mmshare_version>
43012

> <i_f3d_flags>
0

> <s_epik_input>
W0NIM11jMVtjSF1jKG4objEpW0NIM10pW05IXUMoPU8pW05IXVtDQEBIXTJbQ0gyXVtDSDJdW0NIMl1bTkhdQzI9Tw==

> <s_epik_cmdline>
J2VwaWtfcHl0aG9uJywgJy1waCcsICc3LjAnLCAnLXRuJywgJzgnLCAnLW1hJywgJzIwMCcsICctbWV0YWxfYmluZGluZycsICctaW1hZScsICc8aW5maWxlLm1hZT4nLCAnLW9tYWUnLCAnPG91dGZpbGUubWFlPic=

> <r_lp_tautomer_probability>
1

> <r_epik_Ionization_Penalty>
8.17286e-05

> <r_epik_Ionization_Penalty_Charging>
0

> <r_epik_Ionization_Penalty_Neutral>
8.17286e-05

> <r_epik_State_Penalty>
-0

> <r_epik_Charging_Adjusted_Penalty>
0

> <i_epik_Tot_Q>
0

> <i_epik_Tot_abs_Q>
0

> <r_epik_Metal_State_Penalty>
-0

> <b_epik_Metal_Only>
0

> <s_lp_Force_Field>
OPLS_2005

> <r_lp_Energy>
10.37

> <b_lp_Chiralities_Consistent>
1

> <s_lp_Variant>
AV-unprocessed.smi:2894-2

> <Gold.Version>
5.8.1

> <Gold.Id.Protein>
6NUR|6NUR_protein|mol2

> <Gold.PLP.Fitness>
36.6409

> <Gold.PLP.PLP>
-30.9890

> <Gold.PLP.part.hbond>
-2.0939

> <Gold.PLP.part.metal>
0.0000

> <Gold.PLP.part.buried>
-4.3068

> <Gold.PLP.part.nonpolar>
-24.2756

> <Gold.PLP.part.repulsive>
0.2036

> <Gold.PLP.ligand.clash>
0.0000

> <Gold.PLP.ligand.torsion>
0.1956

> <Gold.PLP.Chemscore.Hbond>
2.0000

> <Gold.PLP.Chemscore.CHOScore>
0.0000

> <Gold.PLP.Chemscore.Metal>
0.0000

> <Gold.Chemscore.Hbonds>
donor molecule, donor type, donor heavy atom, donor atom, acceptor molecule, acceptor atom, score
      L1  H     5    23       P1  7948  0.85
      L1  H     8    24       P1  7948  0.99

> <Gold.PLP.Chemscore.Internal.Correction>
0.0430

> <Gold.Rescore>
     Score         DG    S(hbond)    S(metal)    S(lipo)     H(rot)  DE(clash)    DE(int)     intcor
     14.50     -14.83       1.69        0.00      53.66       1.00       0.05       0.28       ----

> <Gold.Chemscore.Fitness>
14.4987

> <Gold.Chemscore.DG>
-14.8310

> <Gold.Chemscore.ZeroCoef>
-5.4800

> <Gold.Chemscore.Hbond>
1.6863

> <Gold.Chemscore.Metal>
0.0000

> <Gold.Chemscore.Lipo>
53.6649

> <Gold.Chemscore.Internal_Hbond>
0.0000

> <Gold.Chemscore.DEClash>
0.0494

> <Gold.Chemscore.DEInternal>
0.2829

> <Gold.Chemscore.Rot>
1.0000

> <Gold.Chemscore.Internal.Correction>
   9.000000E+99

> <Gold.Chemscore.Hbonds>
donor molecule, donor type, donor heavy atom, donor atom, acceptor molecule, acceptor atom, score
      L1  H     5    23       P1  7948  0.14
      L1  H     8    24       P1  7948  0.91

> <Gold.Chemscore.Hbond.Weighted>
-5.6322

> <Gold.Chemscore.Metal.Weighted>
-0.0000

> <Gold.Chemscore.Lipo.Weighted>
-6.2788

> <Gold.Chemscore.Internal_Hbond.Weighted>
0.0000

> <Gold.Chemscore.DEClash.Weighted>
0.0494

> <Gold.Chemscore.DEInternal.Weighted>
0.2829

> <Gold.Chemscore.Rot.Weighted>
2.5600

> <Gold.Chemscore.Internal.Correction.Weighted>
   9.000000E+99

> <Gold.Protein.RotatedTorsions>
[ 6907 6896 6895 6894 ] final  -38.88 input  -60.11 | X-H torsion
[ 7974 7965 7964 7962 ] final -169.37 input  175.53 | X-H torsion
[ 8008 7997 7996 7995 ] final  -66.08 input   59.86 | X-H torsion
[ 10167 10162 10161 10158 ] final  162.15 input  -65.29 | X-H torsion
[ 10718 10713 10712 10709 ] final  136.14 input   66.30 | X-H torsion
[ 10763 10752 10751 10750 ] final   93.50 input  -60.55 | X-H torsion
[ 11005 11000 10999 10996 ] final  -79.95 input  -57.11 | X-H torsion

> <Gold.Protein.ActiveResidues>
 VAL166  LYS551  ARG553  GLY616  TRP617  ASP618  TYR619  PRO620  LYS621  CYS622 
 ASP623  PHE694  ASN695  SER759  ASP760  ASP761  ALA762  ILE779  LEU786  VAL792 
 PHE793  MET794  SER795  GLU796  ALA797  LYS798  CYS799  TRP800  GLU811  SER814 

> <Gold.Protein.RotatedAtoms>
  150.9971  134.9292  159.7932 H   0  0  0  0  0  0  0  0  0  0  0  0  # atno 6907 bound_to 6896
  152.5267  134.3204  159.9156 H   0  0  0  0  0  0  0  0  0  0  0  0  # atno 6908 bound_to 6896
  151.3209  133.3999  159.2689 H   0  0  0  0  0  0  0  0  0  0  0  0  # atno 6909 bound_to 6896
  144.7186  140.2231  143.6313 H   0  0  0  0  0  0  0  0  0  0  0  0  # atno 7974 bound_to 7965
  154.4712  140.0920  156.7148 H   0  0  0  0  0  0  0  0  0  0  0  0  # atno 8008 bound_to 7997
  155.4720  140.3464  155.4309 H   0  0  0  0  0  0  0  0  0  0  0  0  # atno 8009 bound_to 7997
  156.1041  140.1430  156.9416 H   0  0  0  0  0  0  0  0  0  0  0  0  # atno 8010 bound_to 7997
  139.4857  144.4466  151.8884 H   0  0  0  0  0  0  0  0  0  0  0  0  # atno 10167 bound_to 10162
  157.4498  131.1065  151.0047 H   0  0  0  0  0  0  0  0  0  0  0  0  # atno 10718 bound_to 10713
  153.2310  135.4323  155.0595 H   0  0  0  0  0  0  0  0  0  0  0  0  # atno 10763 bound_to 10752
  154.8296  135.3379  154.6788 H   0  0  0  0  0  0  0  0  0  0  0  0  # atno 10764 bound_to 10752
  153.7215  135.7016  153.5068 H   0  0  0  0  0  0  0  0  0  0  0  0  # atno 10765 bound_to 10752
  141.1668  133.7128  156.8200 H   0  0  0  0  0  0  0  0  0  0  0  0  # atno 11005 bound_to 11000
  145.8482  139.2162  143.1787 LP  0  0  0  0  0  0  0  0  0  0  0  0  # atno 17320 bound_to 7965
  146.0285  140.8281  142.9888 LP  0  0  0  0  0  0  0  0  0  0  0  0  # atno 17321 bound_to 7965
  140.3920  144.2603  150.5899 LP  0  0  0  0  0  0  0  0  0  0  0  0  # atno 17342 bound_to 10162
  140.5137  143.2284  151.8496 LP  0  0  0  0  0  0  0  0  0  0  0  0  # atno 17343 bound_to 10162
  157.0881  130.5931  149.5434 LP  0  0  0  0  0  0  0  0  0  0  0  0  # atno 17370 bound_to 10713
  155.9982  130.5056  150.7563 LP  0  0  0  0  0  0  0  0  0  0  0  0  # atno 17371 bound_to 10713
  140.2126  134.8816  157.3291 LP  0  0  0  0  0  0  0  0  0  0  0  0  # atno 17394 bound_to 11000
  140.2070  134.4184  155.7632 LP  0  0  0  0  0  0  0  0  0  0  0  0  # atno 17395 bound_to 11000

$$$$
