#       Name:                AV-unprocessed.smi:2302
#       Creating user name   scv26
#       Creation time:       Fri Mar 27 12:45:59 2020


#       File generated by GOLD software.
#

@<TRIPOS>MOLECULE
AV-unprocessed.smi:2302
    45    46     1
SMALL
NO_CHARGES


@<TRIPOS>ATOM
      1 ****        -2.9081   4.5564   1.7902 C.3            1 S1                 0.0000
      2 ****        -3.2284   3.0808   1.6754 C.ar           1 S1                 0.0000
      3 ****        -4.5623   2.6284   1.6533 C.ar           1 S1                 0.0000
      4 ****        -4.7911   1.2447   1.5500 C.ar           1 S1                 0.0000
      5 ****        -3.6848   0.3765   1.4736 C.ar           1 S1                 0.0000
      6 ****        -2.3773   0.9120   1.5030 C.ar           1 S1                 0.0000
      7 ****        -1.3315  -0.0460   1.4252 N.am           1 S1                 0.0000
      8 ****        -0.0043   0.1705   1.4308 C.2            1 S1                 0.0000
      9 ****         0.5366   1.2757   1.4792 O.2            1 S1                 0.0000
     10 ****         0.6751  -0.9843   1.3751 N.am           1 S1                 0.0000
     11 ****         2.1307  -1.1032   1.3540 C.3            1 S1                 0.0000
     12 ****         2.7040  -1.1402  -0.0755 C.3            1 S1                 0.0000
     13 ****         2.1185  -2.2708  -0.9492 C.3            1 S1                 0.0000
     14 ****         2.6639  -2.2453  -2.2999 N.3            1 S1                 0.0000
     15 ****         2.1129  -3.3114  -3.1224 C.3            1 S1                 0.0000
     16 ****         2.4349  -0.9346  -2.8933 C.3            1 S1                 0.0000
     17 ****         3.0177   0.1922  -2.0236 C.3            1 S1                 0.0000
     18 ****         2.4726   0.1163  -0.7100 O.3            1 S1                 0.0000
     19 ****        -2.1676   2.2484   1.6035 N.ar           1 S1                 0.0000
     20 ****        -3.7922   5.1670   1.6050 H              1 S1                 0.0000
     21 ****        -2.1431   4.8405   1.0669 H              1 S1                 0.0000
     22 ****        -2.5377   4.7841   2.7901 H              1 S1                 0.0000
     23 ****        -5.3893   3.3205   1.7150 H              1 S1                 0.0000
     24 ****        -5.7980   0.8547   1.5303 H              1 S1                 0.0000
     25 ****        -3.8433  -0.6892   1.3944 H              1 S1                 0.0000
     26 ****        -1.6287  -1.0087   1.3706 H              1 S1                 0.0000
     27 ****         0.1488  -1.8447   1.3381 H              1 S1                 0.0000
     28 ****         2.5927  -0.2960   1.9249 H              1 S1                 0.0000
     29 ****         2.3928  -2.0260   1.8719 H              1 S1                 0.0000
     30 ****         3.7834  -1.2817   0.0041 H              1 S1                 0.0000
     31 ****         2.3310  -3.2347  -0.4852 H              1 S1                 0.0000
     32 ****         1.0322  -2.1792  -0.9946 H              1 S1                 0.0000
     33 ****         2.5584  -3.3000  -4.1177 H              1 S1                 0.0000
     34 ****         1.0326  -3.2073  -3.2320 H              1 S1                 0.0000
     35 ****         2.3177  -4.2862  -2.6788 H              1 S1                 0.0000
     36 ****         2.8819  -0.8944  -3.8872 H              1 S1                 0.0000
     37 ****         1.3642  -0.7702  -3.0250 H              1 S1                 0.0000
     38 ****         4.1054   0.1207  -1.9771 H              1 S1                 0.0000
     39 ****         2.7785   1.1651  -2.4531 H              1 S1                 0.0000
     40 ****        -0.0217   2.1043   1.5186 LP             1 S1                 0.0000
     41 ****         1.5343   1.3445   1.4792 LP             1 S1                 0.0000
     42 ****         3.6495  -2.4071  -2.2506 LP             1 S1                 0.0000
     43 ****         2.8876   0.8350  -0.1520 LP             1 S1                 0.0000
     44 ****         1.4856   0.2664  -0.7667 LP             1 S1                 0.0000
     45 ****        -1.2368   2.6134   1.6241 LP             1 S1                 0.0000
@<TRIPOS>BOND
    1    1    2 1     
    2    1   20 1     
    3    1   21 1     
    4    1   22 1     
    5    2   19 ar    
    6    2    3 ar    
    7    3    4 ar    
    8    3   23 1     
    9    4    5 ar    
   10    4   24 1     
   11    5    6 ar    
   12    5   25 1     
   13    6    7 1     
   14    6   19 ar    
   15    7    8 am    
   16    7   26 1     
   17    8    9 2     
   18    8   10 am    
   19   10   11 1     
   20   10   27 1     
   21   11   12 1     
   22   11   28 1     
   23   11   29 1     
   24   12   18 1     
   25   12   13 1     
   26   12   30 1     
   27   13   14 1     
   28   13   31 1     
   29   13   32 1     
   30   14   15 1     
   31   14   16 1     
   32   15   33 1     
   33   15   34 1     
   34   15   35 1     
   35   16   17 1     
   36   16   36 1     
   37   16   37 1     
   38   17   18 1     
   39   17   38 1     
   40   17   39 1     
   41    9   40 1     
   42    9   41 1     
   43   14   42 1     
   44   18   43 1     
   45   18   44 1     
   46   19   45 1     
@<TRIPOS>SUBSTRUCTURE
      1 S1             1
@<TRIPOS>SET
LONE_PAIRS      STATIC     ATOMS    <user>   **** ""
6 40 41 42 43 44 45
DONOR_HYDROGENS      STATIC     ATOMS    <user>   **** ""
2 26 27
ATOM$BLUE        STATIC     ATOMS    COLORGROUP SYSTEM
6 40 41 42 43 44 45
ATOM$RED        STATIC     ATOMS    COLORGROUP SYSTEM
2 26 27
