AV-unprocessed.smi:1513|AV-procd|sdf|6109|dock1
  -GOLD-   22720 6243D 1   1.00000     0.00000
 Structure written by MMmdl.
 33 34  0  0  0  0  0  0  0  0  2 V2000
  155.6450  137.4847  156.8720 N   0  0  0  0  0  0  0  0  0  0  0  0
  154.2073  137.1801  157.7610 S   0  0  0  0  0  0  0  0  0  0  0  0
  153.2506  136.6074  156.8003 O   0  0  0  0  0  0  0  0  0  0  0  0
  154.6139  136.3679  158.9191 O   0  0  0  0  0  0  0  0  0  0  0  0
  153.9039  138.7258  158.1318 N   0  5  0  0  0  0  0  0  0  0  0  0
  152.5879  139.0826  158.6315 C   0  0  0  0  0  0  0  0  0  0  0  0
  152.4211  140.6047  158.7519 C   0  0  0  0  0  0  0  0  0  0  0  0
  152.9873  141.2511  159.8776 C   0  0  0  0  0  0  0  0  0  0  0  0
  152.8701  142.6459  160.0140 C   0  0  0  0  0  0  0  0  0  0  0  0
  152.1858  143.3567  159.0152 C   0  0  0  0  0  0  0  0  0  0  0  0
  151.6357  142.7664  157.9364 N   0  0  0  0  0  0  0  0  0  0  0  0
  151.7387  141.4208  157.7904 C   0  0  0  0  0  0  0  0  0  0  0  0
  151.1055  140.8884  156.6460 N   0  0  0  0  0  0  0  0  0  0  0  0
  150.4257  141.8961  155.8422 C   0  0  0  0  0  0  0  0  0  0  0  0
  149.5834  141.2135  154.7511 C   0  0  0  0  0  0  0  0  0  0  0  0
  150.4118  140.3552  153.9707 O   0  0  0  0  0  0  0  0  0  0  0  0
  151.0094  139.3285  154.7585 C   0  0  0  0  0  0  0  0  0  0  0  0
  151.8961  139.9628  155.8435 C   0  0  0  0  0  0  0  0  0  0  0  0
  155.5145  137.3506  155.8700 H   0  0  0  0  0  0  0  0  0  0  0  0
  156.4478  136.9865  157.2540 H   0  0  0  0  0  0  0  0  0  0  0  0
  151.7981  138.6905  157.9897 H   0  0  0  0  0  0  0  0  0  0  0  0
  152.3939  138.6524  159.6146 H   0  0  0  0  0  0  0  0  0  0  0  0
  153.5150  140.7003  160.6448 H   0  0  0  0  0  0  0  0  0  0  0  0
  153.2955  143.1565  160.8648 H   0  0  0  0  0  0  0  0  0  0  0  0
  152.0750  144.4287  159.0847 H   0  0  0  0  0  0  0  0  0  0  0  0
  149.7877  142.5154  156.4738 H   0  0  0  0  0  0  0  0  0  0  0  0
  151.1654  142.5563  155.3873 H   0  0  0  0  0  0  0  0  0  0  0  0
  148.7663  140.6414  155.1926 H   0  0  0  0  0  0  0  0  0  0  0  0
  149.1320  141.9624  154.1004 H   0  0  0  0  0  0  0  0  0  0  0  0
  150.2356  138.7016  155.2049 H   0  0  0  0  0  0  0  0  0  0  0  0
  151.6075  138.6865  154.1117 H   0  0  0  0  0  0  0  0  0  0  0  0
  152.7272  140.4915  155.3755 H   0  0  0  0  0  0  0  0  0  0  0  0
  152.3203  139.1891  156.4845 H   0  0  0  0  0  0  0  0  0  0  0  0
  1  2  1  0  0  0  0
  1 19  1  0  0  0  0
  1 20  1  0  0  0  0
  2  3  2  0  0  0  0
  2  4  2  0  0  0  0
  2  5  1  0  0  0  0
  5  6  1  0  0  0  0
  6  7  1  0  0  0  0
  6 21  1  0  0  0  0
  6 22  1  0  0  0  0
  7 12  1  0  0  0  0
  7  8  2  0  0  0  0
  8  9  1  0  0  0  0
  8 23  1  0  0  0  0
  9 10  2  0  0  0  0
  9 24  1  0  0  0  0
 10 11  1  0  0  0  0
 10 25  1  0  0  0  0
 11 12  2  0  0  0  0
 12 13  1  0  0  0  0
 13 18  1  0  0  0  0
 13 14  1  0  0  0  0
 14 15  1  0  0  0  0
 14 26  1  0  0  0  0
 14 27  1  0  0  0  0
 15 16  1  0  0  0  0
 15 28  1  0  0  0  0
 15 29  1  0  0  0  0
 16 17  1  0  0  0  0
 17 18  1  0  0  0  0
 17 30  1  0  0  0  0
 17 31  1  0  0  0  0
 18 32  1  0  0  0  0
 18 33  1  0  0  0  0
M  CHG  1   5  -1
M  END
> <s_m_source_file>
AV-unprocessed.smi

> <i_m_source_file_index>
1513

> <i_lp_mmshare_version>
43012

> <i_f3d_flags>
0

> <s_epik_input>
W05IMl1TKD1PKSg9TylbTkhdW0NIMl1jMVtjSF1bY0hdW2NIXW5jMU4yW0NIMl1bQ0gyXU9bQ0gyXVtDSDJdMg==

> <s_epik_cmdline>
J2VwaWtfcHl0aG9uJywgJy1waCcsICc3LjAnLCAnLXRuJywgJzgnLCAnLW1hJywgJzIwMCcsICctbWV0YWxfYmluZGluZycsICctaW1hZScsICc8aW5maWxlLm1hZT4nLCAnLW9tYWUnLCAnPG91dGZpbGUubWFlPic=

> <r_lp_tautomer_probability>
1

> <r_epik_Ionization_Penalty>
0.860967

> <r_epik_Ionization_Penalty_Charging>
0.789613

> <r_epik_Ionization_Penalty_Neutral>
0.0713544

> <r_epik_State_Penalty>
0.836007

> <r_epik_Charging_Adjusted_Penalty>
1.62562

> <i_epik_Tot_Q>
-1

> <i_epik_Tot_abs_Q>
1

> <r_epik_Metal_State_Penalty>
0.647115

> <b_epik_Metal_Only>
0

> <s_lp_Force_Field>
OPLS_2005

> <r_lp_Energy>
22.5784

> <b_lp_Chiralities_Consistent>
1

> <s_lp_Variant>
AV-unprocessed.smi:1513-2

> <Gold.Version>
5.8.1

> <Gold.Id.Protein>
6NUR|6NUR_protein|mol2

> <Gold.PLP.Fitness>
44.3705

> <Gold.PLP.PLP>
-33.6177

> <Gold.PLP.part.hbond>
-3.9095

> <Gold.PLP.part.metal>
0.0000

> <Gold.PLP.part.buried>
-4.6291

> <Gold.PLP.part.nonpolar>
-26.0151

> <Gold.PLP.part.repulsive>
0.5893

> <Gold.PLP.ligand.clash>
0.0000

> <Gold.PLP.ligand.torsion>
1.0691

> <Gold.PLP.Chemscore.Hbond>
3.9280

> <Gold.PLP.Chemscore.CHOScore>
0.0000

> <Gold.PLP.Chemscore.Metal>
0.0000

> <Gold.Chemscore.Hbonds>
donor molecule, donor type, donor heavy atom, donor atom, acceptor molecule, acceptor atom, score
      P1  H  7989  7998       L1    16  0.49
      P1  H  7997  8009       L1     5  2.00
      P1  H 10752 10765       L1     3  0.85

> <Gold.PLP.Chemscore.Internal.Correction>
1.1071

> <Gold.Rescore>
     Score         DG    S(hbond)    S(metal)    S(lipo)     H(rot)  DE(clash)    DE(int)     intcor
     15.48     -17.92       2.64        0.00      72.05       1.88       0.05       2.39       ----

> <Gold.Chemscore.Fitness>
15.4842

> <Gold.Chemscore.DG>
-17.9215

> <Gold.Chemscore.ZeroCoef>
-5.4800

> <Gold.Chemscore.Hbond>
2.6430

> <Gold.Chemscore.Metal>
0.0000

> <Gold.Chemscore.Lipo>
72.0534

> <Gold.Chemscore.Internal_Hbond>
0.0000

> <Gold.Chemscore.DEClash>
0.0456

> <Gold.Chemscore.DEInternal>
2.3917

> <Gold.Chemscore.Rot>
1.8814

> <Gold.Chemscore.Internal.Correction>
   9.000000E+99

> <Gold.Chemscore.Hbonds>
donor molecule, donor type, donor heavy atom, donor atom, acceptor molecule, acceptor atom, score
      P1  H  7989  7998       L1    16  0.07
      P1  H  7997  8009       L1     5  0.89
      P1  H 10752 10765       L1     3  0.79

> <Gold.Chemscore.Hbond.Weighted>
-8.8277

> <Gold.Chemscore.Metal.Weighted>
-0.0000

> <Gold.Chemscore.Lipo.Weighted>
-8.4303

> <Gold.Chemscore.Internal_Hbond.Weighted>
0.0000

> <Gold.Chemscore.DEClash.Weighted>
0.0456

> <Gold.Chemscore.DEInternal.Weighted>
2.3917

> <Gold.Chemscore.Rot.Weighted>
4.8165

> <Gold.Chemscore.Internal.Correction.Weighted>
   9.000000E+99

> <Gold.Protein.RotatedTorsions>
[ 6907 6896 6895 6894 ] final  -79.06 input  -60.11 | X-H torsion
[ 7974 7965 7964 7962 ] final -156.10 input  175.53 | X-H torsion
[ 8008 7997 7996 7995 ] final  130.50 input   59.86 | X-H torsion
[ 10167 10162 10161 10158 ] final -167.14 input  -65.29 | X-H torsion
[ 10718 10713 10712 10709 ] final   50.38 input   66.30 | X-H torsion
[ 10763 10752 10751 10750 ] final -100.62 input  -60.55 | X-H torsion
[ 11005 11000 10999 10996 ] final  -90.94 input  -57.11 | X-H torsion

> <Gold.Protein.ActiveResidues>
 VAL166  LYS551  ARG553  GLY616  TRP617  ASP618  TYR619  PRO620  LYS621  CYS622 
 ASP623  PHE694  ASN695  SER759  ASP760  ASP761  ALA762  ILE779  LEU786  VAL792 
 PHE793  MET794  SER795  GLU796  ALA797  LYS798  CYS799  TRP800  GLU811  SER814 

> <Gold.Protein.RotatedAtoms>
  150.6958  134.4177  159.5190 H   0  0  0  0  0  0  0  0  0  0  0  0  # atno 6907 bound_to 6896
  152.1925  134.8656  160.0525 H   0  0  0  0  0  0  0  0  0  0  0  0  # atno 6908 bound_to 6896
  151.9606  133.3659  159.4071 H   0  0  0  0  0  0  0  0  0  0  0  0  # atno 6909 bound_to 6896
  144.7608  140.4156  143.5977 H   0  0  0  0  0  0  0  0  0  0  0  0  # atno 7974 bound_to 7965
  156.2955  140.2594  156.2773 H   0  0  0  0  0  0  0  0  0  0  0  0  # atno 8008 bound_to 7997
  154.9637  140.0392  157.2220 H   0  0  0  0  0  0  0  0  0  0  0  0  # atno 8009 bound_to 7997
  154.7923  140.2814  155.5987 H   0  0  0  0  0  0  0  0  0  0  0  0  # atno 8010 bound_to 7997
  139.6069  144.0895  152.1802 H   0  0  0  0  0  0  0  0  0  0  0  0  # atno 10167 bound_to 10162
  157.4879  130.8357  149.8168 H   0  0  0  0  0  0  0  0  0  0  0  0  # atno 10718 bound_to 10713
  154.7594  135.4928  153.9435 H   0  0  0  0  0  0  0  0  0  0  0  0  # atno 10763 bound_to 10752
  153.1233  135.6736  153.9306 H   0  0  0  0  0  0  0  0  0  0  0  0  # atno 10764 bound_to 10752
  153.9032  135.3107  155.3427 H   0  0  0  0  0  0  0  0  0  0  0  0  # atno 10765 bound_to 10752
  141.1555  133.7724  156.9809 H   0  0  0  0  0  0  0  0  0  0  0  0  # atno 11005 bound_to 11000
  145.6624  139.1584  143.2800 LP  0  0  0  0  0  0  0  0  0  0  0  0  # atno 17320 bound_to 7965
  146.1670  140.6704  142.9251 LP  0  0  0  0  0  0  0  0  0  0  0  0  # atno 17321 bound_to 7965
  140.0504  144.5937  150.7340 LP  0  0  0  0  0  0  0  0  0  0  0  0  # atno 17342 bound_to 10162
  140.7291  143.2669  151.4016 LP  0  0  0  0  0  0  0  0  0  0  0  0  # atno 17343 bound_to 10162
  156.0157  130.3815  150.2120 LP  0  0  0  0  0  0  0  0  0  0  0  0  # atno 17370 bound_to 10713
  157.0308  131.0006  151.3313 LP  0  0  0  0  0  0  0  0  0  0  0  0  # atno 17371 bound_to 10713
  140.1066  134.9502  157.2004 LP  0  0  0  0  0  0  0  0  0  0  0  0  # atno 17394 bound_to 11000
  140.3248  134.2876  155.7239 LP  0  0  0  0  0  0  0  0  0  0  0  0  # atno 17395 bound_to 11000

$$$$
