AV-unprocessed.smi:1441|AV-procd|sdf|5875|dock10
  -GOLD-   22720 5553D 1   1.00000     0.00000
 Structure written by MMmdl.
 45 46  0  0  0  0  0  0  0  0  1 V2000
  151.1175  144.2634  158.3476 C   0  0  0  0  0  0  0  0  0  0  0  0
  151.9222  143.3230  159.1955 C   0  0  0  0  0  0  0  0  0  0  0  0
  152.5153  143.5701  160.4649 C   0  0  0  0  0  0  0  0  0  0  0  0
  153.1236  142.3901  160.7886 C   0  0  0  0  0  0  0  0  0  0  0  0
  153.9111  142.0129  162.0000 C   0  0  0  0  0  0  0  0  0  0  0  0
  152.8834  141.5149  159.7439 N   0  0  0  0  0  0  0  0  0  0  0  0
  153.3011  140.1286  159.5911 C   0  0  0  0  0  0  0  0  0  0  0  0
  152.6782  139.4640  158.3577 C   0  0  0  0  0  0  0  0  0  0  0  0
  153.3776  139.1271  157.4011 O   0  0  0  0  0  0  0  0  0  0  0  0
  151.3489  139.2852  158.3927 N   0  0  0  0  0  0  0  0  0  0  0  0
  150.5626  138.6612  157.3357 C   0  0  0  0  0  0  0  0  0  0  0  0
  150.4431  139.5837  156.1084 C   0  0  0  0  0  0  0  0  0  0  0  0
  149.1359  139.4365  155.4507 N   0  0  0  0  0  0  0  0  0  0  0  0
  148.4242  140.6895  155.1531 C   0  0  0  0  0  0  0  0  0  0  0  0
  147.1065  140.8268  155.9400 C   0  0  0  0  0  0  0  0  0  0  0  0
  145.9260  140.0652  155.3192 C   0  0  0  0  0  0  0  0  0  0  0  0
  146.1084  138.5414  155.2748 C   0  0  0  0  0  0  0  0  0  0  0  0
  147.3033  138.0983  154.4142 C   0  0  0  0  0  0  0  0  0  0  0  0
  148.6417  138.2100  155.1561 C   0  0  0  0  0  0  0  0  0  0  0  0
  149.2331  137.1691  155.4459 O   0  0  0  0  0  0  0  0  0  0  0  0
  152.1474  142.0915  158.7685 N   0  0  0  0  0  0  0  0  0  0  0  0
  151.0291  145.2420  158.8198 H   0  0  0  0  0  0  0  0  0  0  0  0
  150.1093  143.8813  158.1858 H   0  0  0  0  0  0  0  0  0  0  0  0
  151.5818  144.4067  157.3716 H   0  0  0  0  0  0  0  0  0  0  0  0
  152.4953  144.4771  161.0506 H   0  0  0  0  0  0  0  0  0  0  0  0
  153.9058  142.8188  162.7340 H   0  0  0  0  0  0  0  0  0  0  0  0
  154.9484  141.8036  161.7385 H   0  0  0  0  0  0  0  0  0  0  0  0
  153.4940  141.1249  162.4753 H   0  0  0  0  0  0  0  0  0  0  0  0
  154.3903  140.0943  159.5270 H   0  0  0  0  0  0  0  0  0  0  0  0
  153.0195  139.5690  160.4834 H   0  0  0  0  0  0  0  0  0  0  0  0
  150.8486  139.5914  159.2146 H   0  0  0  0  0  0  0  0  0  0  0  0
  151.0486  137.7250  157.0610 H   0  0  0  0  0  0  0  0  0  0  0  0
  149.5731  138.3954  157.7124 H   0  0  0  0  0  0  0  0  0  0  0  0
  150.6118  140.6200  156.4033 H   0  0  0  0  0  0  0  0  0  0  0  0
  151.2466  139.3652  155.4026 H   0  0  0  0  0  0  0  0  0  0  0  0
  149.0476  141.5479  155.4049 H   0  0  0  0  0  0  0  0  0  0  0  0
  148.2463  140.7748  154.0804 H   0  0  0  0  0  0  0  0  0  0  0  0
  147.2519  140.5240  156.9778 H   0  0  0  0  0  0  0  0  0  0  0  0
  146.8383  141.8832  155.9749 H   0  0  0  0  0  0  0  0  0  0  0  0
  145.0240  140.2928  155.8881 H   0  0  0  0  0  0  0  0  0  0  0  0
  145.7436  140.4388  154.3109 H   0  0  0  0  0  0  0  0  0  0  0  0
  146.2021  138.1474  156.2883 H   0  0  0  0  0  0  0  0  0  0  0  0
  145.2001  138.0965  154.8673 H   0  0  0  0  0  0  0  0  0  0  0  0
  147.1620  137.0530  154.1361 H   0  0  0  0  0  0  0  0  0  0  0  0
  147.3410  138.6509  153.4748 H   0  0  0  0  0  0  0  0  0  0  0  0
  1  2  1  0  0  0  0
  1 22  1  0  0  0  0
  1 23  1  0  0  0  0
  1 24  1  0  0  0  0
  2 21  2  0  0  0  0
  2  3  1  0  0  0  0
  3  4  2  0  0  0  0
  3 25  1  0  0  0  0
  4  5  1  0  0  0  0
  4  6  1  0  0  0  0
  5 26  1  0  0  0  0
  5 27  1  0  0  0  0
  5 28  1  0  0  0  0
  6  7  1  0  0  0  0
  6 21  1  0  0  0  0
  7  8  1  0  0  0  0
  7 29  1  0  0  0  0
  7 30  1  0  0  0  0
  8  9  2  0  0  0  0
  8 10  1  0  0  0  0
 10 11  1  0  0  0  0
 10 31  1  0  0  0  0
 11 12  1  0  0  0  0
 11 32  1  0  0  0  0
 11 33  1  0  0  0  0
 12 13  1  0  0  0  0
 12 34  1  0  0  0  0
 12 35  1  0  0  0  0
 13 19  1  0  0  0  0
 13 14  1  0  0  0  0
 14 15  1  0  0  0  0
 14 36  1  0  0  0  0
 14 37  1  0  0  0  0
 15 16  1  0  0  0  0
 15 38  1  0  0  0  0
 15 39  1  0  0  0  0
 16 17  1  0  0  0  0
 16 40  1  0  0  0  0
 16 41  1  0  0  0  0
 17 18  1  0  0  0  0
 17 42  1  0  0  0  0
 17 43  1  0  0  0  0
 18 19  1  0  0  0  0
 18 44  1  0  0  0  0
 18 45  1  0  0  0  0
 19 20  2  0  0  0  0
M  END
> <s_m_source_file>
AV-unprocessed.smi

> <i_m_source_file_index>
1441

> <i_lp_mmshare_version>
43012

> <i_f3d_flags>
0

> <s_epik_input>
W0NIM11jMVtjSF1jKFtDSDNdKW4objEpW0NIMl1DKD1PKVtOSF1bQ0gyXVtDSDJdTjJbQ0gyXVtDSDJdW0NIMl1bQ0gyXVtDSDJdQzI9Tw==

> <s_epik_cmdline>
J2VwaWtfcHl0aG9uJywgJy1waCcsICc3LjAnLCAnLXRuJywgJzgnLCAnLW1hJywgJzIwMCcsICctbWV0YWxfYmluZGluZycsICctaW1hZScsICc8aW5maWxlLm1hZT4nLCAnLW9tYWUnLCAnPG91dGZpbGUubWFlPic=

> <r_lp_tautomer_probability>
1

> <r_epik_Ionization_Penalty>
0.000341945

> <r_epik_Ionization_Penalty_Charging>
0

> <r_epik_Ionization_Penalty_Neutral>
0.000341945

> <r_epik_State_Penalty>
-0

> <r_epik_Charging_Adjusted_Penalty>
0

> <i_epik_Tot_Q>
0

> <i_epik_Tot_abs_Q>
0

> <r_epik_Metal_State_Penalty>
-0

> <b_epik_Metal_Only>
0

> <s_lp_Force_Field>
OPLS_2005

> <r_lp_Energy>
16.3244

> <b_lp_Chiralities_Consistent>
1

> <s_lp_Variant>
AV-unprocessed.smi:1441-1

> <Gold.Version>
5.8.1

> <Gold.Id.Protein>
6NUR|6NUR_protein|mol2

> <Gold.PLP.Fitness>
46.7252

> <Gold.PLP.PLP>
-44.7114

> <Gold.PLP.part.hbond>
-1.0000

> <Gold.PLP.part.metal>
0.0000

> <Gold.PLP.part.buried>
-2.8353

> <Gold.PLP.part.nonpolar>
-40.7105

> <Gold.PLP.part.repulsive>
0.2535

> <Gold.PLP.ligand.clash>
0.0000

> <Gold.PLP.ligand.torsion>
0.5035

> <Gold.PLP.Chemscore.Hbond>
1.0000

> <Gold.PLP.Chemscore.CHOScore>
0.0000

> <Gold.PLP.Chemscore.Metal>
0.0000

> <Gold.Chemscore.Hbonds>
donor molecule, donor type, donor heavy atom, donor atom, acceptor molecule, acceptor atom, score
      P1  H  7997  8009       L1     9  1.00

> <Gold.PLP.Chemscore.Internal.Correction>
0.0209

> <Gold.Rescore>
     Score         DG    S(hbond)    S(metal)    S(lipo)     H(rot)  DE(clash)    DE(int)     intcor
     14.05     -16.96       0.99        0.00     108.70       1.77       0.02       2.89       ----

> <Gold.Chemscore.Fitness>
14.0456

> <Gold.Chemscore.DG>
-16.9577

> <Gold.Chemscore.ZeroCoef>
-5.4800

> <Gold.Chemscore.Hbond>
0.9866

> <Gold.Chemscore.Metal>
0.0000

> <Gold.Chemscore.Lipo>
108.6982

> <Gold.Chemscore.Internal_Hbond>
0.0000

> <Gold.Chemscore.DEClash>
0.0239

> <Gold.Chemscore.DEInternal>
2.8883

> <Gold.Chemscore.Rot>
1.7715

> <Gold.Chemscore.Internal.Correction>
   9.000000E+99

> <Gold.Chemscore.Hbonds>
donor molecule, donor type, donor heavy atom, donor atom, acceptor molecule, acceptor atom, score
      P1  H  7997  8009       L1     9  0.91

> <Gold.Chemscore.Hbond.Weighted>
-3.2951

> <Gold.Chemscore.Metal.Weighted>
-0.0000

> <Gold.Chemscore.Lipo.Weighted>
-12.7177

> <Gold.Chemscore.Internal_Hbond.Weighted>
0.0000

> <Gold.Chemscore.DEClash.Weighted>
0.0239

> <Gold.Chemscore.DEInternal.Weighted>
2.8883

> <Gold.Chemscore.Rot.Weighted>
4.5351

> <Gold.Chemscore.Internal.Correction.Weighted>
   9.000000E+99

> <Gold.Protein.RotatedTorsions>
[ 6907 6896 6895 6894 ] final  -42.20 input  -60.11 | X-H torsion
[ 7974 7965 7964 7962 ] final    9.01 input  175.53 | X-H torsion
[ 8008 7997 7996 7995 ] final  149.39 input   59.86 | X-H torsion
[ 10167 10162 10161 10158 ] final  179.65 input  -65.29 | X-H torsion
[ 10718 10713 10712 10709 ] final   16.49 input   66.30 | X-H torsion
[ 10763 10752 10751 10750 ] final   36.64 input  -60.55 | X-H torsion
[ 11005 11000 10999 10996 ] final  133.27 input  -57.11 | X-H torsion

> <Gold.Protein.ActiveResidues>
 VAL166  LYS551  ARG553  GLY616  TRP617  ASP618  TYR619  PRO620  LYS621  CYS622 
 ASP623  PHE694  ASN695  SER759  ASP760  ASP761  ALA762  ILE779  LEU786  VAL792 
 PHE793  MET794  SER795  GLU796  ALA797  LYS798  CYS799  TRP800  GLU811  SER814 

> <Gold.Protein.RotatedAtoms>
  150.9579  134.8971  159.7712 H   0  0  0  0  0  0  0  0  0  0  0  0  # atno 6907 bound_to 6896
  152.5145  134.3714  159.9329 H   0  0  0  0  0  0  0  0  0  0  0  0  # atno 6908 bound_to 6896
  151.3727  133.3808  159.2736 H   0  0  0  0  0  0  0  0  0  0  0  0  # atno 6909 bound_to 6896
  146.2409  139.9848  142.8432 H   0  0  0  0  0  0  0  0  0  0  0  0  # atno 7974 bound_to 7965
  156.2756  140.2103  156.5851 H   0  0  0  0  0  0  0  0  0  0  0  0  # atno 8008 bound_to 7997
  154.7027  140.0519  157.0497 H   0  0  0  0  0  0  0  0  0  0  0  0  # atno 8009 bound_to 7997
  155.0712  140.3177  155.4633 H   0  0  0  0  0  0  0  0  0  0  0  0  # atno 8010 bound_to 7997
  139.5346  144.2535  152.0765 H   0  0  0  0  0  0  0  0  0  0  0  0  # atno 10167 bound_to 10162
  157.0685  130.6338  149.5801 H   0  0  0  0  0  0  0  0  0  0  0  0  # atno 10718 bound_to 10713
  153.0069  135.6300  154.2018 H   0  0  0  0  0  0  0  0  0  0  0  0  # atno 10763 bound_to 10752
  154.1761  135.2816  155.3068 H   0  0  0  0  0  0  0  0  0  0  0  0  # atno 10764 bound_to 10752
  154.5871  135.5629  153.7302 H   0  0  0  0  0  0  0  0  0  0  0  0  # atno 10765 bound_to 10752
  139.9841  134.9538  156.9700 H   0  0  0  0  0  0  0  0  0  0  0  0  # atno 11005 bound_to 11000
  145.1558  140.9647  143.4406 LP  0  0  0  0  0  0  0  0  0  0  0  0  # atno 17320 bound_to 7965
  145.0162  139.3465  143.6095 LP  0  0  0  0  0  0  0  0  0  0  0  0  # atno 17321 bound_to 7965
  140.2004  144.4664  150.6434 LP  0  0  0  0  0  0  0  0  0  0  0  0  # atno 17342 bound_to 10162
  140.6544  143.2233  151.6002 LP  0  0  0  0  0  0  0  0  0  0  0  0  # atno 17343 bound_to 10162
  155.9957  130.5024  150.7469 LP  0  0  0  0  0  0  0  0  0  0  0  0  # atno 17370 bound_to 10713
  157.4897  131.0910  151.0441 LP  0  0  0  0  0  0  0  0  0  0  0  0  # atno 17371 bound_to 10713
  140.5037  134.1071  155.7256 LP  0  0  0  0  0  0  0  0  0  0  0  0  # atno 17394 bound_to 11000
  141.1509  133.8971  157.2101 LP  0  0  0  0  0  0  0  0  0  0  0  0  # atno 17395 bound_to 11000

$$$$
