AV-unprocessed.smi:1446|AV-procd|sdf|5890|dock10
  -GOLD-   22720 5573D 1   1.00000     0.00000
 Structure written by MMmdl.
 47 48  0  0  0  0  0  0  0  0  1 V2000
  154.5222  132.7708  159.8886 C   0  0  0  0  0  0  0  0  0  0  0  0
  154.8306  134.1783  160.3865 C   0  0  0  0  0  0  0  0  0  0  0  0
  155.3954  134.9860  159.6494 O   0  0  0  0  0  0  0  0  0  0  0  0
  154.4549  134.4579  161.6444 N   0  0  0  0  0  0  0  0  0  0  0  0
  154.6427  135.7426  162.3225 C   0  0  1  0  0  0  0  0  0  0  0  0
  153.9134  136.8407  161.5236 C   0  0  0  0  0  0  0  0  0  0  0  0
  152.9691  136.5435  160.7895 O   0  0  0  0  0  0  0  0  0  0  0  0
  154.3702  138.0935  161.7105 N   0  0  0  0  0  0  0  0  0  0  0  0
  153.8777  139.3033  161.1542 C   0  0  0  0  0  0  0  0  0  0  0  0
  154.3090  140.4793  161.8030 C   0  0  0  0  0  0  0  0  0  0  0  0
  153.8645  141.7307  161.3365 C   0  0  0  0  0  0  0  0  0  0  0  0
  152.9909  141.7944  160.2276 C   0  0  0  0  0  0  0  0  0  0  0  0
  152.5284  143.0394  159.7483 N   0  0  0  0  0  0  0  0  0  0  0  0
  151.7816  143.0608  158.4939 C   0  0  0  0  0  0  0  0  0  0  0  0
  151.6290  144.5044  157.9853 C   0  0  0  0  0  0  0  0  0  0  0  0
  151.0277  145.3073  158.9955 O   0  0  0  0  0  0  0  0  0  0  0  0
  151.8278  145.3634  160.1718 C   0  0  0  0  0  0  0  0  0  0  0  0
  151.9945  143.9504  160.7582 C   0  0  0  0  0  0  0  0  0  0  0  0
  152.6234  140.5596  159.6391 C   0  0  0  0  0  0  0  0  0  0  0  0
  153.0473  139.3587  160.0857 N   0  0  0  0  0  0  0  0  0  0  0  0
  154.0477  135.6441  163.7589 C   0  0  0  0  0  0  0  0  0  0  0  0
  154.1000  136.9794  164.5305 C   0  0  0  0  0  0  0  0  0  0  0  0
  154.7463  134.5535  164.5950 C   0  0  0  0  0  0  0  0  0  0  0  0
  153.4525  132.5697  159.9528 H   0  0  0  0  0  0  0  0  0  0  0  0
  155.0505  132.0302  160.4896 H   0  0  0  0  0  0  0  0  0  0  0  0
  154.8303  132.6505  158.8496 H   0  0  0  0  0  0  0  0  0  0  0  0
  153.9906  133.7326  162.1716 H   0  0  0  0  0  0  0  0  0  0  0  0
  155.7087  135.9718  162.3868 H   0  0  0  0  0  0  0  0  0  0  0  0
  155.1576  138.1911  162.3346 H   0  0  0  0  0  0  0  0  0  0  0  0
  154.9752  140.4291  162.6519 H   0  0  0  0  0  0  0  0  0  0  0  0
  154.2088  142.6280  161.8286 H   0  0  0  0  0  0  0  0  0  0  0  0
  152.2949  142.4654  157.7384 H   0  0  0  0  0  0  0  0  0  0  0  0
  150.7974  142.6179  158.6514 H   0  0  0  0  0  0  0  0  0  0  0  0
  152.5968  144.9214  157.7013 H   0  0  0  0  0  0  0  0  0  0  0  0
  151.0004  144.5243  157.0950 H   0  0  0  0  0  0  0  0  0  0  0  0
  152.7988  145.8060  159.9435 H   0  0  0  0  0  0  0  0  0  0  0  0
  151.3446  146.0162  160.8987 H   0  0  0  0  0  0  0  0  0  0  0  0
  151.0290  143.5723  161.0971 H   0  0  0  0  0  0  0  0  0  0  0  0
  152.6384  144.0053  161.6350 H   0  0  0  0  0  0  0  0  0  0  0  0
  151.9574  140.5100  158.7912 H   0  0  0  0  0  0  0  0  0  0  0  0
  152.9967  135.3601  163.6789 H   0  0  0  0  0  0  0  0  0  0  0  0
  155.1220  137.3524  164.6046 H   0  0  0  0  0  0  0  0  0  0  0  0
  153.7178  136.8605  165.5446 H   0  0  0  0  0  0  0  0  0  0  0  0
  153.4950  137.7535  164.0583 H   0  0  0  0  0  0  0  0  0  0  0  0
  155.8146  134.7518  164.6872 H   0  0  0  0  0  0  0  0  0  0  0  0
  154.6284  133.5629  164.1558 H   0  0  0  0  0  0  0  0  0  0  0  0
  154.3313  134.5037  165.6022 H   0  0  0  0  0  0  0  0  0  0  0  0
  1  2  1  0  0  0  0
  1 24  1  0  0  0  0
  1 25  1  0  0  0  0
  1 26  1  0  0  0  0
  2  3  2  0  0  0  0
  2  4  1  0  0  0  0
  4  5  1  0  0  0  0
  4 27  1  0  0  0  0
  5  6  1  0  0  0  0
  5 21  1  0  0  0  0
  5 28  1  0  0  0  0
  6  7  2  0  0  0  0
  6  8  1  0  0  0  0
  8  9  1  0  0  0  0
  8 29  1  0  0  0  0
  9 20  1  0  0  0  0
  9 10  2  0  0  0  0
 10 11  1  0  0  0  0
 10 30  1  0  0  0  0
 11 12  2  0  0  0  0
 11 31  1  0  0  0  0
 12 13  1  0  0  0  0
 12 19  1  0  0  0  0
 13 18  1  0  0  0  0
 13 14  1  0  0  0  0
 14 15  1  0  0  0  0
 14 32  1  0  0  0  0
 14 33  1  0  0  0  0
 15 16  1  0  0  0  0
 15 34  1  0  0  0  0
 15 35  1  0  0  0  0
 16 17  1  0  0  0  0
 17 18  1  0  0  0  0
 17 36  1  0  0  0  0
 17 37  1  0  0  0  0
 18 38  1  0  0  0  0
 18 39  1  0  0  0  0
 19 20  2  0  0  0  0
 19 40  1  0  0  0  0
 21 22  1  0  0  0  0
 21 23  1  0  0  0  0
 21 41  1  0  0  0  0
 22 42  1  0  0  0  0
 22 43  1  0  0  0  0
 22 44  1  0  0  0  0
 23 45  1  0  0  0  0
 23 46  1  0  0  0  0
 23 47  1  0  0  0  0
M  END
> <s_m_source_file>
AV-unprocessed.smi

> <i_m_source_file_index>
1446

> <i_lp_mmshare_version>
43012

> <i_f3d_flags>
0

> <s_epik_input>
W0NIM11DKD1PKVtOSF1bQ0BASF0oW0NIXShbQ0gzXSlbQ0gzXSlDKD1PKVtOSF1jMVtjSF1bY0hdYyhbY0hdbjEpTjJbQ0gyXVtDSDJdT1tDSDJdW0NIMl0y

> <s_epik_cmdline>
J2VwaWtfcHl0aG9uJywgJy1waCcsICc3LjAnLCAnLXRuJywgJzgnLCAnLW1hJywgJzIwMCcsICctbWV0YWxfYmluZGluZycsICctaW1hZScsICc8aW5maWxlLm1hZT4nLCAnLW9tYWUnLCAnPG91dGZpbGUubWFlPic=

> <r_lp_tautomer_probability>
1

> <r_epik_Ionization_Penalty>
0.00298315

> <r_epik_Ionization_Penalty_Charging>
0

> <r_epik_Ionization_Penalty_Neutral>
0.00298315

> <r_epik_State_Penalty>
0.0038483

> <r_epik_Charging_Adjusted_Penalty>
0.0038483

> <i_epik_Tot_Q>
0

> <i_epik_Tot_abs_Q>
0

> <r_epik_Metal_State_Penalty>
-0

> <b_epik_Metal_Only>
0

> <s_lp_Force_Field>
OPLS_2005

> <r_lp_Energy>
27.8209

> <b_lp_Chiralities_Consistent>
1

> <s_lp_Variant>
AV-unprocessed.smi:1446-2

> <Gold.Version>
5.8.1

> <Gold.Id.Protein>
6NUR|6NUR_protein|mol2

> <Gold.PLP.Fitness>
46.9777

> <Gold.PLP.PLP>
-45.6427

> <Gold.PLP.part.hbond>
-1.1871

> <Gold.PLP.part.metal>
0.0000

> <Gold.PLP.part.buried>
-6.7647

> <Gold.PLP.part.nonpolar>
-38.3492

> <Gold.PLP.part.repulsive>
0.2282

> <Gold.PLP.ligand.clash>
0.0000

> <Gold.PLP.ligand.torsion>
0.9314

> <Gold.PLP.Chemscore.Hbond>
0.9425

> <Gold.PLP.Chemscore.CHOScore>
0.0000

> <Gold.PLP.Chemscore.Metal>
0.0000

> <Gold.Chemscore.Hbonds>
donor molecule, donor type, donor heavy atom, donor atom, acceptor molecule, acceptor atom, score
      P1  H  6896  6907       L1     7  1.00

> <Gold.PLP.Chemscore.Internal.Correction>
0.3702

> <Gold.Rescore>
     Score         DG    S(hbond)    S(metal)    S(lipo)     H(rot)  DE(clash)    DE(int)     intcor
     16.31     -18.66       0.98        0.00     122.70       1.74       0.02       2.34       ----

> <Gold.Chemscore.Fitness>
16.3071

> <Gold.Chemscore.DG>
-18.6646

> <Gold.Chemscore.ZeroCoef>
-5.4800

> <Gold.Chemscore.Hbond>
0.9824

> <Gold.Chemscore.Metal>
0.0000

> <Gold.Chemscore.Lipo>
122.7015

> <Gold.Chemscore.Internal_Hbond>
0.0000

> <Gold.Chemscore.DEClash>
0.0215

> <Gold.Chemscore.DEInternal>
2.3360

> <Gold.Chemscore.Rot>
1.7394

> <Gold.Chemscore.Internal.Correction>
   9.000000E+99

> <Gold.Chemscore.Hbonds>
donor molecule, donor type, donor heavy atom, donor atom, acceptor molecule, acceptor atom, score
      P1  H  6896  6907       L1     7  1.00

> <Gold.Chemscore.Hbond.Weighted>
-3.2813

> <Gold.Chemscore.Metal.Weighted>
-0.0000

> <Gold.Chemscore.Lipo.Weighted>
-14.3561

> <Gold.Chemscore.Internal_Hbond.Weighted>
0.0000

> <Gold.Chemscore.DEClash.Weighted>
0.0215

> <Gold.Chemscore.DEInternal.Weighted>
2.3360

> <Gold.Chemscore.Rot.Weighted>
4.4528

> <Gold.Chemscore.Internal.Correction.Weighted>
   9.000000E+99

> <Gold.Protein.RotatedTorsions>
[ 6907 6896 6895 6894 ] final   28.07 input  -60.11 | X-H torsion
[ 7974 7965 7964 7962 ] final   36.24 input  175.53 | X-H torsion
[ 8008 7997 7996 7995 ] final -129.24 input   59.86 | X-H torsion
[ 10167 10162 10161 10158 ] final  118.62 input  -65.29 | X-H torsion
[ 10718 10713 10712 10709 ] final   71.73 input   66.30 | X-H torsion
[ 10763 10752 10751 10750 ] final  167.03 input  -60.55 | X-H torsion
[ 11005 11000 10999 10996 ] final -121.46 input  -57.11 | X-H torsion

> <Gold.Protein.ActiveResidues>
 VAL166  LYS551  ARG553  GLY616  TRP617  ASP618  TYR619  PRO620  LYS621  CYS622 
 ASP623  PHE694  ASN695  SER759  ASP760  ASP761  ALA762  ILE779  LEU786  VAL792 
 PHE793  MET794  SER795  GLU796  ALA797  LYS798  CYS799  TRP800  GLU811  SER814 

> <Gold.Protein.RotatedAtoms>
  152.0116  134.9873  160.0568 H   0  0  0  0  0  0  0  0  0  0  0  0  # atno 6907 bound_to 6896
  152.1423  133.4467  159.4781 H   0  0  0  0  0  0  0  0  0  0  0  0  # atno 6908 bound_to 6896
  150.6866  134.2208  159.4439 H   0  0  0  0  0  0  0  0  0  0  0  0  # atno 6909 bound_to 6896
  146.1225  139.6042  142.9280 H   0  0  0  0  0  0  0  0  0  0  0  0  # atno 7974 bound_to 7965
  155.2760  140.0442  157.3011 H   0  0  0  0  0  0  0  0  0  0  0  0  # atno 8008 bound_to 7997
  154.5625  140.2350  155.8282 H   0  0  0  0  0  0  0  0  0  0  0  0  # atno 8009 bound_to 7997
  156.2058  140.3013  155.9632 H   0  0  0  0  0  0  0  0  0  0  0  0  # atno 8010 bound_to 7997
  139.6100  144.7079  151.2866 H   0  0  0  0  0  0  0  0  0  0  0  0  # atno 10167 bound_to 10162
  157.6466  130.9543  150.0830 H   0  0  0  0  0  0  0  0  0  0  0  0  # atno 10718 bound_to 10713
  154.3479  135.2753  155.2388 H   0  0  0  0  0  0  0  0  0  0  0  0  # atno 10763 bound_to 10752
  154.4630  135.5902  153.6272 H   0  0  0  0  0  0  0  0  0  0  0  0  # atno 10764 bound_to 10752
  152.9852  135.6069  154.3686 H   0  0  0  0  0  0  0  0  0  0  0  0  # atno 10765 bound_to 10752
  141.0068  134.0322  157.3466 H   0  0  0  0  0  0  0  0  0  0  0  0  # atno 11005 bound_to 11000
  145.5435  141.0419  143.2317 LP  0  0  0  0  0  0  0  0  0  0  0  0  # atno 17320 bound_to 7965
  144.7611  139.6955  143.7234 LP  0  0  0  0  0  0  0  0  0  0  0  0  # atno 17321 bound_to 7965
  140.7312  143.6858  150.7963 LP  0  0  0  0  0  0  0  0  0  0  0  0  # atno 17342 bound_to 10162
  140.0451  143.5306  152.2700 LP  0  0  0  0  0  0  0  0  0  0  0  0  # atno 17343 bound_to 10162
  156.1801  130.3649  149.9048 LP  0  0  0  0  0  0  0  0  0  0  0  0  # atno 17370 bound_to 10713
  156.7002  130.8930  151.3598 LP  0  0  0  0  0  0  0  0  0  0  0  0  # atno 17371 bound_to 10713
  139.9068  135.0181  156.7520 LP  0  0  0  0  0  0  0  0  0  0  0  0  # atno 17394 bound_to 11000
  140.6799  133.9484  155.7904 LP  0  0  0  0  0  0  0  0  0  0  0  0  # atno 17395 bound_to 11000

$$$$
