AV-unprocessed.smi:2780|AV-procd|sdf|10713|dock5
  -GOLD-   2272015153D 1   1.00000     0.00000
 Structure written by MMmdl.
 47 49  0  0  0  0  0  0  0  0  2 V2000
  151.9812  144.3676  157.9107 C   0  0  0  0  0  0  0  0  0  0  0  0
  152.2429  143.8070  159.2990 C   0  0  0  0  0  0  0  0  0  0  0  0
  152.1418  144.5924  160.3897 C   0  0  0  0  0  0  0  0  0  0  0  0
  152.4397  144.1457  161.8103 C   0  0  0  0  0  0  0  0  0  0  0  0
  152.6991  142.6347  161.9272 C   0  0  0  0  0  0  0  0  0  0  0  0
  153.4729  142.1008  160.7093 C   0  0  1  0  0  0  0  0  0  0  0  0
  153.9469  140.6514  160.9144 C   0  0  0  0  0  0  0  0  0  0  0  0
  152.6756  142.3377  159.3954 C   0  0  1  0  0  0  0  0  0  0  0  0
  151.4827  141.3600  159.2279 C   0  0  0  0  0  0  0  0  0  0  0  0
  150.6802  141.6311  158.0192 N   0  3  0  0  0  0  0  0  0  0  0  0
  151.4390  141.5307  156.7582 C   0  0  0  0  0  0  0  0  0  0  0  0
  150.4960  141.5090  155.5476 C   0  0  0  0  0  0  0  0  0  0  0  0
  150.3175  140.1625  155.0353 N   0  0  0  0  0  0  0  0  0  0  0  0
  151.2100  139.1611  154.9947 C   0  0  0  0  0  0  0  0  0  0  0  0
  150.7563  138.0215  154.4756 N   0  0  0  0  0  0  0  0  0  0  0  0
  149.4420  138.2884  154.1478 N   0  0  0  0  0  0  0  0  0  0  0  0
  149.2384  139.5668  154.4869 C   0  0  0  0  0  0  0  0  0  0  0  0
  147.9249  140.2651  154.3321 C   0  0  0  0  0  0  0  0  0  0  0  0
  147.2692  140.4138  152.9768 C   0  0  0  0  0  0  0  0  0  0  0  0
  147.8364  141.6237  153.6722 C   0  0  0  0  0  0  0  0  0  0  0  0
  152.7910  144.1011  157.2313 H   0  0  0  0  0  0  0  0  0  0  0  0
  151.9159  145.4560  157.9347 H   0  0  0  0  0  0  0  0  0  0  0  0
  151.0433  143.9986  157.4992 H   0  0  0  0  0  0  0  0  0  0  0  0
  151.8610  145.6297  160.2767 H   0  0  0  0  0  0  0  0  0  0  0  0
  153.3203  144.6947  162.1455 H   0  0  0  0  0  0  0  0  0  0  0  0
  151.6185  144.4385  162.4650 H   0  0  0  0  0  0  0  0  0  0  0  0
  153.2483  142.4340  162.8480 H   0  0  0  0  0  0  0  0  0  0  0  0
  151.7505  142.1060  162.0225 H   0  0  0  0  0  0  0  0  0  0  0  0
  154.3843  142.6969  160.6313 H   0  0  0  0  0  0  0  0  0  0  0  0
  153.1220  139.9808  161.1544 H   0  0  0  0  0  0  0  0  0  0  0  0
  154.6570  140.5916  161.7396 H   0  0  0  0  0  0  0  0  0  0  0  0
  154.4482  140.2702  160.0244 H   0  0  0  0  0  0  0  0  0  0  0  0
  153.3718  142.1551  158.5754 H   0  0  0  0  0  0  0  0  0  0  0  0
  151.8372  140.3335  159.1455 H   0  0  0  0  0  0  0  0  0  0  0  0
  150.8318  141.4027  160.1018 H   0  0  0  0  0  0  0  0  0  0  0  0
  149.9165  140.9706  157.9897 H   0  0  0  0  0  0  0  0  0  0  0  0
  152.1233  142.3766  156.6863 H   0  0  0  0  0  0  0  0  0  0  0  0
  152.0476  140.6254  156.7757 H   0  0  0  0  0  0  0  0  0  0  0  0
  149.5165  141.9036  155.8211 H   0  0  0  0  0  0  0  0  0  0  0  0
  150.8792  142.1471  154.7507 H   0  0  0  0  0  0  0  0  0  0  0  0
  152.2216  139.2675  155.3582 H   0  0  0  0  0  0  0  0  0  0  0  0
  147.2831  140.0712  155.1894 H   0  0  0  0  0  0  0  0  0  0  0  0
  147.8057  140.0386  152.1075 H   0  0  0  0  0  0  0  0  0  0  0  0
  146.1859  140.3212  152.9313 H   0  0  0  0  0  0  0  0  0  0  0  0
  147.1329  142.3399  154.0913 H   0  0  0  0  0  0  0  0  0  0  0  0
  148.7462  142.0514  153.2566 H   0  0  0  0  0  0  0  0  0  0  0  0
  150.2979  142.5633  158.0917 H   0  0  0  0  0  0  0  0  0  0  0  0
  1  2  1  0  0  0  0
  1 21  1  0  0  0  0
  1 22  1  0  0  0  0
  1 23  1  0  0  0  0
  2  8  1  0  0  0  0
  2  3  2  0  0  0  0
  3  4  1  0  0  0  0
  3 24  1  0  0  0  0
  4  5  1  0  0  0  0
  4 25  1  0  0  0  0
  4 26  1  0  0  0  0
  5  6  1  0  0  0  0
  5 27  1  0  0  0  0
  5 28  1  0  0  0  0
  6  7  1  0  0  0  0
  6  8  1  0  0  0  0
  6 29  1  0  0  0  0
  7 30  1  0  0  0  0
  7 31  1  0  0  0  0
  7 32  1  0  0  0  0
  8  9  1  0  0  0  0
  8 33  1  0  0  0  0
  9 10  1  0  0  0  0
  9 34  1  0  0  0  0
  9 35  1  0  0  0  0
 10 11  1  0  0  0  0
 10 36  1  0  0  0  0
 10 47  1  0  0  0  0
 11 12  1  0  0  0  0
 11 37  1  0  0  0  0
 11 38  1  0  0  0  0
 12 13  1  0  0  0  0
 12 39  1  0  0  0  0
 12 40  1  0  0  0  0
 13 17  1  0  0  0  0
 13 14  1  0  0  0  0
 14 15  2  0  0  0  0
 14 41  1  0  0  0  0
 15 16  1  0  0  0  0
 16 17  2  0  0  0  0
 17 18  1  0  0  0  0
 18 20  1  0  0  0  0
 18 19  1  0  0  0  0
 18 42  1  0  0  0  0
 19 20  1  0  0  0  0
 19 43  1  0  0  0  0
 19 44  1  0  0  0  0
 20 45  1  0  0  0  0
 20 46  1  0  0  0  0
M  CHG  1  10   1
M  END
> <s_m_source_file>
AV-unprocessed.smi

> <i_m_source_file_index>
2780

> <i_lp_mmshare_version>
43012

> <i_f3d_flags>
0

> <s_epik_input>
W0NIM11DMT1bQ0hdW0NIMl1bQ0gyXVtDQEBIXShbQ0gzXSlbQ0BIXTFbQ0gyXVtOSF1bQ0gyXVtDSDJdbjJbY0hdbm5jMltDSF0zW0NIMl1bQ0gyXTM=

> <s_epik_cmdline>
J2VwaWtfcHl0aG9uJywgJy1waCcsICc3LjAnLCAnLXRuJywgJzgnLCAnLW1hJywgJzIwMCcsICctbWV0YWxfYmluZGluZycsICctaW1hZScsICc8aW5maWxlLm1hZT4nLCAnLW9tYWUnLCAnPG91dGZpbGUubWFlPic=

> <r_lp_tautomer_probability>
1

> <r_epik_Ionization_Penalty>
0.00176214

> <r_epik_Ionization_Penalty_Charging>
0.00175191

> <r_epik_Ionization_Penalty_Neutral>
1.02377e-05

> <r_epik_State_Penalty>
-0

> <r_epik_Charging_Adjusted_Penalty>
0.00175191

> <i_epik_Tot_Q>
1

> <i_epik_Tot_abs_Q>
1

> <r_epik_Metal_State_Penalty>
-0

> <b_epik_Metal_Only>
0

> <s_lp_Force_Field>
OPLS_2005

> <r_lp_Energy>
21.6978

> <b_lp_Chiralities_Consistent>
1

> <s_lp_Variant>
AV-unprocessed.smi:2780-1

> <Gold.Version>
5.8.1

> <Gold.Id.Protein>
6NUR|6NUR_protein|mol2

> <Gold.PLP.Fitness>
51.3002

> <Gold.PLP.PLP>
-52.6643

> <Gold.PLP.part.hbond>
0.0000

> <Gold.PLP.part.metal>
0.0000

> <Gold.PLP.part.buried>
-4.5129

> <Gold.PLP.part.nonpolar>
-45.7264

> <Gold.PLP.part.repulsive>
0.5295

> <Gold.PLP.ligand.clash>
0.0000

> <Gold.PLP.ligand.torsion>
0.8035

> <Gold.PLP.Chemscore.Hbond>
0.0000

> <Gold.PLP.Chemscore.CHOScore>
0.0000

> <Gold.PLP.Chemscore.Metal>
0.0000

> <Gold.PLP.Chemscore.Internal.Correction>
0.2429

> <Gold.Rescore>
     Score         DG    S(hbond)    S(metal)    S(lipo)     H(rot)  DE(clash)    DE(int)     intcor
     13.89     -16.33       0.00        0.00     136.04       1.98       0.50       1.95       ----

> <Gold.Chemscore.Fitness>
13.8853

> <Gold.Chemscore.DG>
-16.3279

> <Gold.Chemscore.ZeroCoef>
-5.4800

> <Gold.Chemscore.Hbond>
0.0000

> <Gold.Chemscore.Metal>
0.0000

> <Gold.Chemscore.Lipo>
136.0377

> <Gold.Chemscore.Internal_Hbond>
0.0000

> <Gold.Chemscore.DEClash>
0.4965

> <Gold.Chemscore.DEInternal>
1.9461

> <Gold.Chemscore.Rot>
1.9799

> <Gold.Chemscore.Internal.Correction>
   9.000000E+99

> <Gold.Chemscore.Hbond.Weighted>
-0.0000

> <Gold.Chemscore.Metal.Weighted>
-0.0000

> <Gold.Chemscore.Lipo.Weighted>
-15.9164

> <Gold.Chemscore.Internal_Hbond.Weighted>
0.0000

> <Gold.Chemscore.DEClash.Weighted>
0.4965

> <Gold.Chemscore.DEInternal.Weighted>
1.9461

> <Gold.Chemscore.Rot.Weighted>
5.0685

> <Gold.Chemscore.Internal.Correction.Weighted>
   9.000000E+99

> <Gold.Protein.RotatedTorsions>
[ 6907 6896 6895 6894 ] final  100.28 input  -60.11 | X-H torsion
[ 7974 7965 7964 7962 ] final   31.75 input  175.53 | X-H torsion
[ 8008 7997 7996 7995 ] final  -69.40 input   59.86 | X-H torsion
[ 10167 10162 10161 10158 ] final   32.69 input  -65.29 | X-H torsion
[ 10718 10713 10712 10709 ] final  168.67 input   66.30 | X-H torsion
[ 10763 10752 10751 10750 ] final  -70.20 input  -60.55 | X-H torsion
[ 11005 11000 10999 10996 ] final  -55.02 input  -57.11 | X-H torsion

> <Gold.Protein.ActiveResidues>
 VAL166  LYS551  ARG553  GLY616  TRP617  ASP618  TYR619  PRO620  LYS621  CYS622 
 ASP623  PHE694  ASN695  SER759  ASP760  ASP761  ALA762  ILE779  LEU786  VAL792 
 PHE793  MET794  SER795  GLU796  ALA797  LYS798  CYS799  TRP800  GLU811  SER814 

> <Gold.Protein.RotatedAtoms>
  152.5375  134.0301  159.8020 H   0  0  0  0  0  0  0  0  0  0  0  0  # atno 6907 bound_to 6896
  151.0474  133.5646  159.2652 H   0  0  0  0  0  0  0  0  0  0  0  0  # atno 6908 bound_to 6896
  151.2593  135.0656  159.9146 H   0  0  0  0  0  0  0  0  0  0  0  0  # atno 6909 bound_to 6896
  146.1530  139.6616  142.9085 H   0  0  0  0  0  0  0  0  0  0  0  0  # atno 7974 bound_to 7965
  154.4936  140.0854  156.7648 H   0  0  0  0  0  0  0  0  0  0  0  0  # atno 8008 bound_to 7997
  155.4170  140.3444  155.4250 H   0  0  0  0  0  0  0  0  0  0  0  0  # atno 8009 bound_to 7997
  156.1364  140.1516  156.8976 H   0  0  0  0  0  0  0  0  0  0  0  0  # atno 8010 bound_to 7997
  140.4476  144.1096  150.6185 H   0  0  0  0  0  0  0  0  0  0  0  0  # atno 10167 bound_to 10162
  157.0338  131.0267  151.2736 H   0  0  0  0  0  0  0  0  0  0  0  0  # atno 10718 bound_to 10713
  154.4143  135.6001  153.5971 H   0  0  0  0  0  0  0  0  0  0  0  0  # atno 10763 bound_to 10752
  152.9791  135.5937  154.4032 H   0  0  0  0  0  0  0  0  0  0  0  0  # atno 10764 bound_to 10752
  154.3848  135.2841  155.2168 H   0  0  0  0  0  0  0  0  0  0  0  0  # atno 10765 bound_to 10752
  141.1054  133.6614  156.4407 H   0  0  0  0  0  0  0  0  0  0  0  0  # atno 11005 bound_to 11000
  145.4776  141.0437  143.2663 LP  0  0  0  0  0  0  0  0  0  0  0  0  # atno 17320 bound_to 7965
  144.7928  139.6294  143.7106 LP  0  0  0  0  0  0  0  0  0  0  0  0  # atno 17321 bound_to 7965
  140.4245  143.2596  151.9673 LP  0  0  0  0  0  0  0  0  0  0  0  0  # atno 17342 bound_to 10162
  139.4794  144.5800  151.7948 LP  0  0  0  0  0  0  0  0  0  0  0  0  # atno 17343 bound_to 10162
  157.5157  130.7966  149.7754 LP  0  0  0  0  0  0  0  0  0  0  0  0  # atno 17370 bound_to 10713
  156.0060  130.3855  150.2428 LP  0  0  0  0  0  0  0  0  0  0  0  0  # atno 17371 bound_to 10713
  140.4916  134.6570  157.5213 LP  0  0  0  0  0  0  0  0  0  0  0  0  # atno 17394 bound_to 11000
  139.9922  134.6968  155.9671 LP  0  0  0  0  0  0  0  0  0  0  0  0  # atno 17395 bound_to 11000

$$$$
