AV-unprocessed.smi:45|AV-procd|sdf|412|dock3
  -GOLD-   2262016273D 1   1.00000     0.00000
 Structure written by MMmdl.
 61 64  0  0  0  0  0  0  0  0  2 V2000
  142.4788  146.6683  154.4402 C   0  0  0  0  0  0  0  0  0  0  0  0
  142.7603  145.4643  155.1388 O   0  0  0  0  0  0  0  0  0  0  0  0
  143.7759  144.6580  154.6676 C   0  0  0  0  0  0  0  0  0  0  0  0
  144.5324  144.9415  153.5020 C   0  0  0  0  0  0  0  0  0  0  0  0
  145.5539  144.0683  153.0813 C   0  0  0  0  0  0  0  0  0  0  0  0
  145.8372  142.8992  153.8148 C   0  0  0  0  0  0  0  0  0  0  0  0
  146.9332  141.9568  153.3577 C   0  0  0  0  0  0  0  0  0  0  0  0
  146.5402  140.5566  153.4176 N   0  0  0  0  0  0  0  0  0  0  0  0
  147.3749  139.5845  153.9917 C   0  0  0  0  0  0  0  0  0  0  0  0
  148.5642  139.9869  154.5132 N   0  3  0  0  0  0  0  0  0  0  0  0
  149.3999  139.1081  155.0907 C   0  0  0  0  0  0  0  0  0  0  0  0
  150.6130  139.5578  155.6097 N   0  0  0  0  0  0  0  0  0  0  0  0
  150.6853  140.7456  156.4545 C   0  0  0  0  0  0  0  0  0  0  0  0
  151.8375  140.5021  157.4280 C   0  0  0  0  0  0  0  0  0  0  0  0
  152.7594  139.5783  156.6427 C   0  0  0  0  0  0  0  0  0  0  0  0
  151.7874  138.7119  155.8288 C   0  0  2  0  0  0  0  0  0  0  0  0
  152.4162  138.1867  154.5206 C   0  0  0  0  0  0  0  0  0  0  0  0
  151.8391  136.9457  154.1765 O   0  0  0  0  0  0  0  0  0  0  0  0
  149.1088  137.8035  155.1743 N   0  0  0  0  0  0  0  0  0  0  0  0
  147.9441  137.3530  154.6720 C   0  0  0  0  0  0  0  0  0  0  0  0
  147.0124  138.2145  154.0609 C   0  0  0  0  0  0  0  0  0  0  0  0
  145.7351  137.6694  153.4814 C   0  0  0  0  0  0  0  0  0  0  0  0
  144.6366  138.0493  153.8869 O   0  0  0  0  0  0  0  0  0  0  0  0
  145.8911  136.7411  152.5242 N   0  0  0  0  0  0  0  0  0  0  0  0
  144.8002  136.1244  151.7793 C   0  0  0  0  0  0  0  0  0  0  0  0
  145.1498  134.7285  151.2927 C   0  0  0  0  0  0  0  0  0  0  0  0
  146.3624  134.2634  151.6093 N   0  0  0  0  0  0  0  0  0  0  0  0
  146.6675  133.0167  151.1885 C   0  0  0  0  0  0  0  0  0  0  0  0
  145.7530  132.2391  150.4497 C   0  0  0  0  0  0  0  0  0  0  0  0
  144.5053  132.8350  150.1769 C   0  0  0  0  0  0  0  0  0  0  0  0
  144.2051  134.0818  150.6008 N   0  0  0  0  0  0  0  0  0  0  0  0
  145.0923  142.6125  154.9756 C   0  0  0  0  0  0  0  0  0  0  0  0
  144.0694  143.4844  155.3976 C   0  0  0  0  0  0  0  0  0  0  0  0
  143.1725  143.1001  156.8231 Cl  0  0  0  0  0  0  0  0  0  0  0  0
  151.4673  137.8691  156.4438 H   0  0  0  0  0  0  0  0  0  0  0  0
  141.6559  147.1861  154.9329 H   0  0  0  0  0  0  0  0  0  0  0  0
  142.1744  146.4709  153.4114 H   0  0  0  0  0  0  0  0  0  0  0  0
  143.3381  147.3403  154.4416 H   0  0  0  0  0  0  0  0  0  0  0  0
  144.3481  145.8249  152.9097 H   0  0  0  0  0  0  0  0  0  0  0  0
  146.1196  144.2990  152.1903 H   0  0  0  0  0  0  0  0  0  0  0  0
  147.2033  142.2123  152.3324 H   0  0  0  0  0  0  0  0  0  0  0  0
  147.8227  142.1066  153.9713 H   0  0  0  0  0  0  0  0  0  0  0  0
  145.6279  140.2934  153.0712 H   0  0  0  0  0  0  0  0  0  0  0  0
  150.8888  141.6117  155.8237 H   0  0  0  0  0  0  0  0  0  0  0  0
  149.7547  140.9296  156.9929 H   0  0  0  0  0  0  0  0  0  0  0  0
  152.3243  141.4232  157.7495 H   0  0  0  0  0  0  0  0  0  0  0  0
  151.4695  139.9862  158.3161 H   0  0  0  0  0  0  0  0  0  0  0  0
  153.3878  140.1753  155.9799 H   0  0  0  0  0  0  0  0  0  0  0  0
  153.4158  138.9886  157.2835 H   0  0  0  0  0  0  0  0  0  0  0  0
  152.2540  138.8690  153.6874 H   0  0  0  0  0  0  0  0  0  0  0  0
  153.4949  138.0668  154.6273 H   0  0  0  0  0  0  0  0  0  0  0  0
  151.7806  136.8888  153.2347 H   0  0  0  0  0  0  0  0  0  0  0  0
  147.7647  136.2908  154.7551 H   0  0  0  0  0  0  0  0  0  0  0  0
  146.8272  136.4702  152.2610 H   0  0  0  0  0  0  0  0  0  0  0  0
  143.9298  136.0602  152.4330 H   0  0  0  0  0  0  0  0  0  0  0  0
  144.5081  136.7624  150.9428 H   0  0  0  0  0  0  0  0  0  0  0  0
  147.6463  132.6377  151.4420 H   0  0  0  0  0  0  0  0  0  0  0  0
  145.9947  131.2422  150.1117 H   0  0  0  0  0  0  0  0  0  0  0  0
  143.7453  132.3090  149.6184 H   0  0  0  0  0  0  0  0  0  0  0  0
  145.3005  141.7192  155.5461 H   0  0  0  0  0  0  0  0  0  0  0  0
  148.8162  140.9734  154.4593 H   0  0  0  0  0  0  0  0  0  0  0  0
  1  2  1  0  0  0  0
  1 36  1  0  0  0  0
  1 37  1  0  0  0  0
  1 38  1  0  0  0  0
  2  3  1  0  0  0  0
  3 33  1  0  0  0  0
  3  4  2  0  0  0  0
  4  5  1  0  0  0  0
  4 39  1  0  0  0  0
  5  6  2  0  0  0  0
  5 40  1  0  0  0  0
  6  7  1  0  0  0  0
  6 32  1  0  0  0  0
  7  8  1  0  0  0  0
  7 41  1  0  0  0  0
  7 42  1  0  0  0  0
  8  9  1  0  0  0  0
  8 43  1  0  0  0  0
  9 21  1  0  0  0  0
  9 10  2  0  0  0  0
 10 11  1  0  0  0  0
 10 61  1  0  0  0  0
 11 12  1  0  0  0  0
 11 19  2  0  0  0  0
 12 16  1  0  0  0  0
 12 13  1  0  0  0  0
 13 14  1  0  0  0  0
 13 44  1  0  0  0  0
 13 45  1  0  0  0  0
 14 15  1  0  0  0  0
 14 46  1  0  0  0  0
 14 47  1  0  0  0  0
 15 16  1  0  0  0  0
 15 48  1  0  0  0  0
 15 49  1  0  0  0  0
 16 35  1  0  0  0  0
 16 17  1  0  0  0  0
 17 18  1  0  0  0  0
 17 50  1  0  0  0  0
 17 51  1  0  0  0  0
 18 52  1  0  0  0  0
 19 20  1  0  0  0  0
 20 21  2  0  0  0  0
 20 53  1  0  0  0  0
 21 22  1  0  0  0  0
 22 23  2  0  0  0  0
 22 24  1  0  0  0  0
 24 25  1  0  0  0  0
 24 54  1  0  0  0  0
 25 26  1  0  0  0  0
 25 55  1  0  0  0  0
 25 56  1  0  0  0  0
 26 31  1  0  0  0  0
 26 27  2  0  0  0  0
 27 28  1  0  0  0  0
 28 29  2  0  0  0  0
 28 57  1  0  0  0  0
 29 30  1  0  0  0  0
 29 58  1  0  0  0  0
 30 31  2  0  0  0  0
 30 59  1  0  0  0  0
 32 33  2  0  0  0  0
 32 60  1  0  0  0  0
 33 34  1  0  0  0  0
M  CHG  1  10   1
M  END
> <s_m_source_file>
AV-unprocessed.smi

> <i_m_source_file_index>
45

> <i_lp_mmshare_version>
43012

> <i_f3d_flags>
0

> <s_epik_input>
W0NIM11PYzFbY0hdW2NIXWMoW2NIXWMxQ2wpW0NIMl1bTkhdYzJuYyhOM1tDSDJdW0NIMl1bQ0gyXVtDQEhdM1tDSDJdW09IXSluW2NIXWMyQyg9TylbTkhdW0NIMl1jNG5bY0hdW2NIXVtjSF1uNA==

> <s_epik_cmdline>
J2VwaWtfcHl0aG9uJywgJy1waCcsICc3LjAnLCAnLXRuJywgJzgnLCAnLW1hJywgJzIwMCcsICctbWV0YWxfYmluZGluZycsICctaW1hZScsICc8aW5maWxlLm1hZT4nLCAnLW9tYWUnLCAnPG91dGZpbGUubWFlPic=

> <r_lp_tautomer_probability>
0.424989

> <r_epik_Ionization_Penalty>
2.31209

> <r_epik_Ionization_Penalty_Charging>
2.31199

> <r_epik_Ionization_Penalty_Neutral>
9.65277e-05

> <r_epik_State_Penalty>
2.29675

> <r_epik_Charging_Adjusted_Penalty>
4.60874

> <i_epik_Tot_Q>
1

> <i_epik_Tot_abs_Q>
1

> <r_epik_Metal_State_Penalty>
2.3404

> <b_epik_Metal_Only>
0

> <s_epik_Chemistry_Notes>
This compound contains an electron-poor aromatic ring that is susceptible to covalent hydrolysis at low pH, typically resulting in measured values for nitrogen ring protonation that are around two units higher than predicted values.

> <s_lp_Force_Field>
OPLS_2005

> <r_lp_Energy>
35.4262

> <b_lp_Chiralities_Consistent>
1

> <s_lp_Variant>
AV-unprocessed.smi:45-6

> <Gold.Version>
5.8.1

> <Gold.Id.Protein>
6NUR|6NUR_protein|mol2

> <Gold.PLP.Fitness>
62.9140

> <Gold.PLP.PLP>
-48.6818

> <Gold.PLP.part.hbond>
-3.7629

> <Gold.PLP.part.metal>
0.0000

> <Gold.PLP.part.buried>
-6.0407

> <Gold.PLP.part.nonpolar>
-42.6708

> <Gold.PLP.part.repulsive>
1.9674

> <Gold.PLP.ligand.clash>
0.0000

> <Gold.PLP.ligand.torsion>
2.4671

> <Gold.PLP.Chemscore.Hbond>
4.7568

> <Gold.PLP.Chemscore.CHOScore>
1.0000

> <Gold.PLP.Chemscore.Metal>
0.0000

> <Gold.Chemscore.Hbonds>
donor molecule, donor type, donor heavy atom, donor atom, acceptor molecule, acceptor atom, score
      L1  H     8    43       P1 10175  1.95
      L1  H    18    52       P1  7949  0.94
      L1  H    24    54       P1  7948  0.68
      P1  H 10752 10765       L1    18  0.80
      L1  C    28    57       P1 10747  0.97

> <Gold.PLP.Chemscore.Internal.Correction>
1.8962

> <Gold.Rescore>
     Score         DG    S(hbond)    S(metal)    S(lipo)     H(rot)  DE(clash)    DE(int)     intcor
     18.00     -22.18       3.02        0.00     120.81       2.94       1.53       2.65       ----

> <Gold.Chemscore.Fitness>
17.9969

> <Gold.Chemscore.DG>
-22.1790

> <Gold.Chemscore.ZeroCoef>
-5.4800

> <Gold.Chemscore.Hbond>
3.0207

> <Gold.Chemscore.Metal>
0.0000

> <Gold.Chemscore.Lipo>
120.8117

> <Gold.Chemscore.Internal_Hbond>
0.0000

> <Gold.Chemscore.DEClash>
1.5343

> <Gold.Chemscore.DEInternal>
2.6478

> <Gold.Chemscore.Rot>
2.9395

> <Gold.Chemscore.Internal.Correction>
   9.000000E+99

> <Gold.Chemscore.Hbonds>
donor molecule, donor type, donor heavy atom, donor atom, acceptor molecule, acceptor atom, score
      L1  H     8    43       P1 10175  0.88
      L1  H    18    52       P1  7949  0.86
      L1  H    24    54       P1  7948  0.67
      P1  H 10752 10765       L1    18  0.10

> <Gold.Chemscore.Hbond.Weighted>
-10.0892

> <Gold.Chemscore.Metal.Weighted>
-0.0000

> <Gold.Chemscore.Lipo.Weighted>
-14.1350

> <Gold.Chemscore.Internal_Hbond.Weighted>
0.0000

> <Gold.Chemscore.DEClash.Weighted>
1.5343

> <Gold.Chemscore.DEInternal.Weighted>
2.6478

> <Gold.Chemscore.Rot.Weighted>
7.5251

> <Gold.Chemscore.Internal.Correction.Weighted>
   9.000000E+99

> <Gold.Protein.RotatedTorsions>
[ 6907 6896 6895 6894 ] final -141.85 input  -60.11 | X-H torsion
[ 7974 7965 7964 7962 ] final  134.20 input  175.53 | X-H torsion
[ 8008 7997 7996 7995 ] final   63.46 input   59.86 | X-H torsion
[ 10167 10162 10161 10158 ] final  144.09 input  -65.29 | X-H torsion
[ 10718 10713 10712 10709 ] final  -93.37 input   66.30 | X-H torsion
[ 10763 10752 10751 10750 ] final  168.03 input  -60.55 | X-H torsion
[ 11005 11000 10999 10996 ] final  -41.66 input  -57.11 | X-H torsion

> <Gold.Protein.ActiveResidues>
 VAL166  LYS551  ARG553  GLY616  TRP617  ASP618  TYR619  PRO620  LYS621  CYS622 
 ASP623  PHE694  ASN695  SER759  ASP760  ASP761  ALA762  ILE779  LEU786  VAL792 
 PHE793  MET794  SER795  GLU796  ALA797  LYS798  CYS799  TRP800  GLU811  SER814 

> <Gold.Protein.RotatedAtoms>
  151.0792  133.5403  159.2621 H   0  0  0  0  0  0  0  0  0  0  0  0  # atno 6907 bound_to 6896
  151.2313  135.0555  159.8998 H   0  0  0  0  0  0  0  0  0  0  0  0  # atno 6908 bound_to 6896
  152.5421  134.0581  159.8193 H   0  0  0  0  0  0  0  0  0  0  0  0  # atno 6909 bound_to 6896
  144.9788  139.4527  143.5396 H   0  0  0  0  0  0  0  0  0  0  0  0  # atno 7974 bound_to 7965
  155.6305  140.3496  155.4681 H   0  0  0  0  0  0  0  0  0  0  0  0  # atno 8008 bound_to 7997
  156.0007  140.1212  157.0574 H   0  0  0  0  0  0  0  0  0  0  0  0  # atno 8009 bound_to 7997
  154.4248  140.1101  156.5678 H   0  0  0  0  0  0  0  0  0  0  0  0  # atno 8010 bound_to 7997
  139.4955  144.5996  151.6509 H   0  0  0  0  0  0  0  0  0  0  0  0  # atno 10167 bound_to 10162
  156.0012  130.5024  150.5766 H   0  0  0  0  0  0  0  0  0  0  0  0  # atno 10718 bound_to 10713
  154.3625  135.2753  155.2312 H   0  0  0  0  0  0  0  0  0  0  0  0  # atno 10763 bound_to 10752
  154.4494  135.5935  153.6185 H   0  0  0  0  0  0  0  0  0  0  0  0  # atno 10764 bound_to 10752
  152.9842  135.6038  154.3848 H   0  0  0  0  0  0  0  0  0  0  0  0  # atno 10765 bound_to 10752
  141.0262  133.6840  156.2488 H   0  0  0  0  0  0  0  0  0  0  0  0  # atno 11005 bound_to 11000
  146.3402  139.9047  142.8789 LP  0  0  0  0  0  0  0  0  0  0  0  0  # atno 17320 bound_to 7965
  145.2451  141.0024  143.3913 LP  0  0  0  0  0  0  0  0  0  0  0  0  # atno 17321 bound_to 7965
  140.5642  144.0217  150.6184 LP  0  0  0  0  0  0  0  0  0  0  0  0  # atno 17342 bound_to 10162
  140.3313  143.3076  152.0684 LP  0  0  0  0  0  0  0  0  0  0  0  0  # atno 17343 bound_to 10162
  157.3652  131.0756  151.1603 LP  0  0  0  0  0  0  0  0  0  0  0  0  # atno 17370 bound_to 10713
  157.2375  130.6553  149.5875 LP  0  0  0  0  0  0  0  0  0  0  0  0  # atno 17371 bound_to 10713
  140.6488  134.5089  157.5576 LP  0  0  0  0  0  0  0  0  0  0  0  0  # atno 17394 bound_to 11000
  139.9177  134.8212  156.1311 LP  0  0  0  0  0  0  0  0  0  0  0  0  # atno 17395 bound_to 11000

$$$$
