AV-unprocessed.smi:1006|AV-procd|sdf|4390|dock6
  -GOLD-   22720 2323D 1   1.00000     0.00000
 Structure written by MMmdl.
 45 47  0  0  0  0  0  0  0  0  1 V2000
  144.2091  144.9870  158.7657 C   0  0  0  0  0  0  0  0  0  0  0  0
  144.5308  143.8743  157.7907 C   0  0  0  0  0  0  0  0  0  0  0  0
  143.5890  143.4426  156.8321 C   0  0  0  0  0  0  0  0  0  0  0  0
  144.0057  142.4053  155.9719 C   0  0  0  0  0  0  0  0  0  0  0  0
  143.1514  141.9070  154.9918 N   0  0  0  0  0  0  0  0  0  0  0  0
  145.2372  141.8589  156.0600 N   0  0  0  0  0  0  0  0  0  0  0  0
  146.0399  142.3476  157.0082 C   0  0  0  0  0  0  0  0  0  0  0  0
  147.6666  141.6226  157.0804 S   0  0  0  0  0  0  0  0  0  0  0  0
  147.5733  140.3539  155.7795 C   0  0  0  0  0  0  0  0  0  0  0  0
  148.2347  140.8161  154.4714 C   0  0  2  0  0  0  0  0  0  0  0  0
  148.5706  139.6867  153.6872 O   0  0  0  0  0  0  0  0  0  0  0  0
  149.5002  141.6549  154.7310 C   0  0  0  0  0  0  0  0  0  0  0  0
  150.3924  141.0260  155.6878 N   0  0  0  0  0  0  0  0  0  0  0  0
  150.8170  139.7477  155.6919 C   0  0  0  0  0  0  0  0  0  0  0  0
  151.6395  139.3827  156.6716 N   0  0  0  0  0  0  0  0  0  0  0  0
  151.7631  140.5624  157.3859 C   0  0  0  0  0  0  0  0  0  0  0  0
  152.5024  140.8556  158.5528 C   0  0  0  0  0  0  0  0  0  0  0  0
  152.4811  142.1508  159.1181 C   0  0  0  0  0  0  0  0  0  0  0  0
  153.2913  142.4222  160.3735 C   0  0  0  0  0  0  0  0  0  0  0  0
  151.7115  143.1775  158.5142 C   0  0  0  0  0  0  0  0  0  0  0  0
  151.6729  144.5764  159.1035 C   0  0  0  0  0  0  0  0  0  0  0  0
  150.9671  142.9014  157.3482 C   0  0  0  0  0  0  0  0  0  0  0  0
  150.9958  141.6088  156.7961 C   0  0  0  0  0  0  0  0  0  0  0  0
  145.7622  143.3242  157.8775 N   0  0  0  0  0  0  0  0  0  0  0  0
  143.1356  145.0441  158.9477 H   0  0  0  0  0  0  0  0  0  0  0  0
  144.5407  145.9448  158.3643 H   0  0  0  0  0  0  0  0  0  0  0  0
  144.7066  144.8233  159.7223 H   0  0  0  0  0  0  0  0  0  0  0  0
  142.6058  143.8845  156.7608 H   0  0  0  0  0  0  0  0  0  0  0  0
  142.2172  142.2701  154.8693 H   0  0  0  0  0  0  0  0  0  0  0  0
  143.4366  141.1556  154.3805 H   0  0  0  0  0  0  0  0  0  0  0  0
  148.0739  139.4543  156.1386 H   0  0  0  0  0  0  0  0  0  0  0  0
  146.5281  140.0934  155.6080 H   0  0  0  0  0  0  0  0  0  0  0  0
  147.5197  141.4172  153.9078 H   0  0  0  0  0  0  0  0  0  0  0  0
  148.9907  139.9837  152.8946 H   0  0  0  0  0  0  0  0  0  0  0  0
  150.0515  141.8013  153.8015 H   0  0  0  0  0  0  0  0  0  0  0  0
  149.2366  142.6488  155.0959 H   0  0  0  0  0  0  0  0  0  0  0  0
  150.5068  139.0462  154.9311 H   0  0  0  0  0  0  0  0  0  0  0  0
  153.0890  140.0736  159.0122 H   0  0  0  0  0  0  0  0  0  0  0  0
  152.6422  142.7608  161.1815 H   0  0  0  0  0  0  0  0  0  0  0  0
  154.0410  143.1910  160.1850 H   0  0  0  0  0  0  0  0  0  0  0  0
  153.8098  141.5257  160.7148 H   0  0  0  0  0  0  0  0  0  0  0  0
  151.0613  145.2461  158.4984 H   0  0  0  0  0  0  0  0  0  0  0  0
  152.6771  144.9978  159.1557 H   0  0  0  0  0  0  0  0  0  0  0  0
  151.2526  144.5552  160.1092 H   0  0  0  0  0  0  0  0  0  0  0  0
  150.3767  143.6734  156.8770 H   0  0  0  0  0  0  0  0  0  0  0  0
  1  2  1  0  0  0  0
  1 25  1  0  0  0  0
  1 26  1  0  0  0  0
  1 27  1  0  0  0  0
  2 24  1  0  0  0  0
  2  3  2  0  0  0  0
  3  4  1  0  0  0  0
  3 28  1  0  0  0  0
  4  5  1  0  0  0  0
  4  6  2  0  0  0  0
  5 29  1  0  0  0  0
  5 30  1  0  0  0  0
  6  7  1  0  0  0  0
  7  8  1  0  0  0  0
  7 24  2  0  0  0  0
  8  9  1  0  0  0  0
  9 10  1  0  0  0  0
  9 31  1  0  0  0  0
  9 32  1  0  0  0  0
 10 11  1  0  0  0  0
 10 12  1  0  0  0  0
 10 33  1  0  0  0  0
 11 34  1  0  0  0  0
 12 13  1  0  0  0  0
 12 35  1  0  0  0  0
 12 36  1  0  0  0  0
 13 23  1  0  0  0  0
 13 14  1  0  0  0  0
 14 15  2  0  0  0  0
 14 37  1  0  0  0  0
 15 16  1  0  0  0  0
 16 23  2  0  0  0  0
 16 17  1  0  0  0  0
 17 18  2  0  0  0  0
 17 38  1  0  0  0  0
 18 19  1  0  0  0  0
 18 20  1  0  0  0  0
 19 39  1  0  0  0  0
 19 40  1  0  0  0  0
 19 41  1  0  0  0  0
 20 21  1  0  0  0  0
 20 22  2  0  0  0  0
 21 42  1  0  0  0  0
 21 43  1  0  0  0  0
 21 44  1  0  0  0  0
 22 23  1  0  0  0  0
 22 45  1  0  0  0  0
M  END
> <s_m_source_file>
AV-unprocessed.smi

> <i_m_source_file_index>
1006

> <i_lp_mmshare_version>
43012

> <i_f3d_flags>
0

> <s_epik_input>
W0NIM11jMVtjSF1jKFtOSDJdKW5jKG4xKVNbQ0gyXVtDQEhdKFtPSF0pW0NIMl1uKFtjSF1uMiljKGMyMylbY0hdYyhbQ0gzXSljKFtjSF0zKVtDSDNd

> <s_epik_cmdline>
J2VwaWtfcHl0aG9uJywgJy1waCcsICc3LjAnLCAnLXRuJywgJzgnLCAnLW1hJywgJzIwMCcsICctbWV0YWxfYmluZGluZycsICctaW1hZScsICc8aW5maWxlLm1hZT4nLCAnLW9tYWUnLCAnPG91dGZpbGUubWFlPic=

> <r_lp_tautomer_probability>
1

> <r_epik_Ionization_Penalty>
0.490208

> <r_epik_Ionization_Penalty_Charging>
0

> <r_epik_Ionization_Penalty_Neutral>
0.490208

> <r_epik_State_Penalty>
0.473203

> <r_epik_Charging_Adjusted_Penalty>
0.473203

> <i_epik_Tot_Q>
0

> <i_epik_Tot_abs_Q>
0

> <r_epik_Metal_State_Penalty>
0.354099

> <b_epik_Metal_Only>
0

> <s_lp_Force_Field>
OPLS_2005

> <r_lp_Energy>
3.13918

> <b_lp_Chiralities_Consistent>
1

> <s_lp_Variant>
AV-unprocessed.smi:1006-1

> <Gold.Version>
5.8.1

> <Gold.Id.Protein>
6NUR|6NUR_protein|mol2

> <Gold.PLP.Fitness>
46.3230

> <Gold.PLP.PLP>
-41.7405

> <Gold.PLP.part.hbond>
-3.0000

> <Gold.PLP.part.metal>
0.0000

> <Gold.PLP.part.buried>
-2.2749

> <Gold.PLP.part.nonpolar>
-35.6342

> <Gold.PLP.part.repulsive>
0.3810

> <Gold.PLP.ligand.clash>
0.0000

> <Gold.PLP.ligand.torsion>
0.7056

> <Gold.PLP.Chemscore.Hbond>
1.9833

> <Gold.PLP.Chemscore.CHOScore>
0.0000

> <Gold.PLP.Chemscore.Metal>
0.0000

> <Gold.Chemscore.Hbonds>
donor molecule, donor type, donor heavy atom, donor atom, acceptor molecule, acceptor atom, score
      L1  H     5    30       P1 10175  0.93
      L1  H    11    34       P1  7957  1.00

> <Gold.PLP.Chemscore.Internal.Correction>
0.0437

> <Gold.Rescore>
     Score         DG    S(hbond)    S(metal)    S(lipo)     H(rot)  DE(clash)    DE(int)     intcor
     14.20     -16.22       1.63        0.00     106.97       2.82       0.21       1.81       ----

> <Gold.Chemscore.Fitness>
14.2040

> <Gold.Chemscore.DG>
-16.2235

> <Gold.Chemscore.ZeroCoef>
-5.4800

> <Gold.Chemscore.Hbond>
1.6314

> <Gold.Chemscore.Metal>
0.0000

> <Gold.Chemscore.Lipo>
106.9743

> <Gold.Chemscore.Internal_Hbond>
0.0000

> <Gold.Chemscore.DEClash>
0.2127

> <Gold.Chemscore.DEInternal>
1.8067

> <Gold.Chemscore.Rot>
2.8209

> <Gold.Chemscore.Internal.Correction>
   9.000000E+99

> <Gold.Chemscore.Hbonds>
donor molecule, donor type, donor heavy atom, donor atom, acceptor molecule, acceptor atom, score
      L1  H     5    30       P1 10175  0.49
      L1  H    11    34       P1  7957  1.00

> <Gold.Chemscore.Hbond.Weighted>
-5.4490

> <Gold.Chemscore.Metal.Weighted>
-0.0000

> <Gold.Chemscore.Lipo.Weighted>
-12.5160

> <Gold.Chemscore.Internal_Hbond.Weighted>
0.0000

> <Gold.Chemscore.DEClash.Weighted>
0.2127

> <Gold.Chemscore.DEInternal.Weighted>
1.8067

> <Gold.Chemscore.Rot.Weighted>
7.2215

> <Gold.Chemscore.Internal.Correction.Weighted>
   9.000000E+99

> <Gold.Protein.RotatedTorsions>
[ 6907 6896 6895 6894 ] final -130.86 input  -60.11 | X-H torsion
[ 7974 7965 7964 7962 ] final -119.85 input  175.53 | X-H torsion
[ 8008 7997 7996 7995 ] final -146.92 input   59.86 | X-H torsion
[ 10167 10162 10161 10158 ] final   32.28 input  -65.29 | X-H torsion
[ 10718 10713 10712 10709 ] final    6.04 input   66.30 | X-H torsion
[ 10763 10752 10751 10750 ] final  -98.54 input  -60.55 | X-H torsion
[ 11005 11000 10999 10996 ] final  -13.92 input  -57.11 | X-H torsion

> <Gold.Protein.ActiveResidues>
 VAL166  LYS551  ARG553  GLY616  TRP617  ASP618  TYR619  PRO620  LYS621  CYS622 
 ASP623  PHE694  ASN695  SER759  ASP760  ASP761  ALA762  ILE779  LEU786  VAL792 
 PHE793  MET794  SER795  GLU796  ALA797  LYS798  CYS799  TRP800  GLU811  SER814 

> <Gold.Protein.RotatedAtoms>
  150.9444  133.6620  159.2784 H   0  0  0  0  0  0  0  0  0  0  0  0  # atno 6907 bound_to 6896
  151.3997  135.0968  159.9562 H   0  0  0  0  0  0  0  0  0  0  0  0  # atno 6908 bound_to 6896
  152.5083  133.8941  159.7463 H   0  0  0  0  0  0  0  0  0  0  0  0  # atno 6909 bound_to 6896
  145.0579  140.8268  143.4170 H   0  0  0  0  0  0  0  0  0  0  0  0  # atno 7974 bound_to 7965
  155.5672  140.0631  157.2815 H   0  0  0  0  0  0  0  0  0  0  0  0  # atno 8008 bound_to 7997
  154.4372  140.1875  156.0888 H   0  0  0  0  0  0  0  0  0  0  0  0  # atno 8009 bound_to 7997
  156.0403  140.3296  155.7240 H   0  0  0  0  0  0  0  0  0  0  0  0  # atno 8010 bound_to 7997
  140.4513  144.1044  150.6192 H   0  0  0  0  0  0  0  0  0  0  0  0  # atno 10167 bound_to 10162
  156.9163  130.5774  149.5647 H   0  0  0  0  0  0  0  0  0  0  0  0  # atno 10718 bound_to 10713
  154.7423  135.5005  153.9143 H   0  0  0  0  0  0  0  0  0  0  0  0  # atno 10763 bound_to 10752
  153.1056  135.6696  153.9601 H   0  0  0  0  0  0  0  0  0  0  0  0  # atno 10764 bound_to 10752
  153.9375  135.3071  155.3423 H   0  0  0  0  0  0  0  0  0  0  0  0  # atno 10765 bound_to 10752
  140.7811  133.8362  155.9293 H   0  0  0  0  0  0  0  0  0  0  0  0  # atno 11005 bound_to 11000
  145.1445  139.2552  143.5473 LP  0  0  0  0  0  0  0  0  0  0  0  0  # atno 17320 bound_to 7965
  146.3522  140.1131  142.8603 LP  0  0  0  0  0  0  0  0  0  0  0  0  # atno 17321 bound_to 7965
  140.4204  143.2614  151.9722 LP  0  0  0  0  0  0  0  0  0  0  0  0  # atno 17342 bound_to 10162
  139.4797  144.5836  151.7891 LP  0  0  0  0  0  0  0  0  0  0  0  0  # atno 17343 bound_to 10162
  156.0512  130.5581  150.8993 LP  0  0  0  0  0  0  0  0  0  0  0  0  # atno 17370 bound_to 10713
  157.5936  131.0944  150.9078 LP  0  0  0  0  0  0  0  0  0  0  0  0  # atno 17371 bound_to 10713
  140.9481  134.1814  157.4748 LP  0  0  0  0  0  0  0  0  0  0  0  0  # atno 17394 bound_to 11000
  139.8742  134.9898  156.5476 LP  0  0  0  0  0  0  0  0  0  0  0  0  # atno 17395 bound_to 11000

$$$$
