AV-unprocessed.smi:2760|AV-procd|sdf|10630|dock1
  -GOLD-   2272015 83D 1   1.00000     0.00000
 Structure written by MMmdl.
 31 32  0  0  0  0  0  0  0  0  2 V2000
  151.0262  140.1909  154.9727 O   0  0  0  0  0  0  0  0  0  0  0  0
  151.2951  140.5749  156.1091 C   0  0  0  0  0  0  0  0  0  0  0  0
  151.0777  141.9762  156.4669 C   0  0  0  0  0  0  0  0  0  0  0  0
  151.3801  142.3916  157.7226 C   0  0  0  0  0  0  0  0  0  0  0  0
  151.1744  143.8080  158.1457 C   0  0  0  0  0  0  0  0  0  0  0  0
  151.8954  144.9438  157.4551 C   0  0  0  0  0  0  0  0  0  0  0  0
  152.2319  144.6011  158.8857 C   0  0  0  0  0  0  0  0  0  0  0  0
  151.8901  141.4804  158.6673 N   0  0  0  0  0  0  0  0  0  0  0  0
  152.0703  140.2580  158.3335 C   0  0  0  0  0  0  0  0  0  0  0  0
  152.7196  139.1474  159.5970 S   0  0  0  0  0  0  0  0  0  0  0  0
  154.0355  140.1036  160.4069 C   0  0  0  0  0  0  0  0  0  0  0  0
  155.1322  139.1853  160.9528 C   0  0  0  0  0  0  0  0  0  0  0  0
  154.7059  138.6348  162.1877 O   0  0  0  0  0  0  0  0  0  0  0  0
  155.4878  137.5210  162.5891 C   0  0  0  0  0  0  0  0  0  0  0  0
  155.0090  137.0203  163.9570 C   0  0  0  0  0  0  0  0  0  0  0  0
  155.6922  135.9249  164.2868 F   0  0  0  0  0  0  0  0  0  0  0  0
  155.2174  137.9500  164.8891 F   0  0  0  0  0  0  0  0  0  0  0  0
  153.7123  136.7166  163.9093 F   0  0  0  0  0  0  0  0  0  0  0  0
  151.7955  139.7553  157.0779 N   0  5  0  0  0  0  0  0  0  0  0  0
  150.6823  142.6656  155.7354 H   0  0  0  0  0  0  0  0  0  0  0  0
  150.1453  144.0039  158.4422 H   0  0  0  0  0  0  0  0  0  0  0  0
  152.6305  144.6923  156.6928 H   0  0  0  0  0  0  0  0  0  0  0  0
  151.3330  145.8573  157.2751 H   0  0  0  0  0  0  0  0  0  0  0  0
  151.8920  145.2879  159.6578 H   0  0  0  0  0  0  0  0  0  0  0  0
  153.1963  144.1339  159.0748 H   0  0  0  0  0  0  0  0  0  0  0  0
  153.6021  140.6913  161.2170 H   0  0  0  0  0  0  0  0  0  0  0  0
  154.4643  140.8031  159.6885 H   0  0  0  0  0  0  0  0  0  0  0  0
  155.3404  138.3855  160.2404 H   0  0  0  0  0  0  0  0  0  0  0  0
  156.0544  139.7513  161.0936 H   0  0  0  0  0  0  0  0  0  0  0  0
  155.4052  136.7208  161.8519 H   0  0  0  0  0  0  0  0  0  0  0  0
  156.5394  137.8060  162.6455 H   0  0  0  0  0  0  0  0  0  0  0  0
  1  2  2  0  0  0  0
  2 19  1  0  0  0  0
  2  3  1  0  0  0  0
  3 20  1  0  0  0  0
  3  4  2  0  0  0  0
  4  5  1  0  0  0  0
  4  8  1  0  0  0  0
  5  7  1  0  0  0  0
  5  6  1  0  0  0  0
  5 21  1  0  0  0  0
  6  7  1  0  0  0  0
  6 22  1  0  0  0  0
  6 23  1  0  0  0  0
  7 24  1  0  0  0  0
  7 25  1  0  0  0  0
  8  9  2  0  0  0  0
  9 10  1  0  0  0  0
  9 19  1  0  0  0  0
 10 11  1  0  0  0  0
 11 12  1  0  0  0  0
 11 26  1  0  0  0  0
 11 27  1  0  0  0  0
 12 13  1  0  0  0  0
 12 28  1  0  0  0  0
 12 29  1  0  0  0  0
 13 14  1  0  0  0  0
 14 15  1  0  0  0  0
 14 30  1  0  0  0  0
 14 31  1  0  0  0  0
 15 16  1  0  0  0  0
 15 17  1  0  0  0  0
 15 18  1  0  0  0  0
M  CHG  1  19  -1
M  END
> <s_m_source_file>
AV-unprocessed.smi

> <i_m_source_file_index>
2760

> <i_lp_mmshare_version>
43012

> <i_f3d_flags>
0

> <s_epik_input>
W09IXWMxW2NIXWMoW0NIXTJbQ0gyXVtDSDJdMiluYyhuMSlTW0NIMl1bQ0gyXU9bQ0gyXUMoRikoRilG

> <s_epik_cmdline>
J2VwaWtfcHl0aG9uJywgJy1waCcsICc3LjAnLCAnLXRuJywgJzgnLCAnLW1hJywgJzIwMCcsICctbWV0YWxfYmluZGluZycsICctaW1hZScsICc8aW5maWxlLm1hZT4nLCAnLW9tYWUnLCAnPG91dGZpbGUubWFlPic=

> <r_lp_tautomer_probability>
1

> <r_epik_Ionization_Penalty>
4.02042

> <r_epik_Ionization_Penalty_Charging>
0.00362968

> <r_epik_Ionization_Penalty_Neutral>
4.01679

> <r_epik_State_Penalty>
2.30798

> <r_epik_Charging_Adjusted_Penalty>
2.31161

> <i_epik_Tot_Q>
-1

> <i_epik_Tot_abs_Q>
1

> <r_epik_Metal_State_Penalty>
0.234281

> <b_epik_Metal_Only>
0

> <s_lp_Force_Field>
OPLS_2005

> <r_lp_Energy>
16.4735

> <b_lp_Chiralities_Consistent>
1

> <s_lp_Variant>
AV-unprocessed.smi:2760-3

> <Gold.Version>
5.8.1

> <Gold.Id.Protein>
6NUR|6NUR_protein|mol2

> <Gold.PLP.Fitness>
40.5883

> <Gold.PLP.PLP>
-38.7049

> <Gold.PLP.part.hbond>
-1.0000

> <Gold.PLP.part.metal>
0.0000

> <Gold.PLP.part.buried>
-6.4344

> <Gold.PLP.part.nonpolar>
-30.7317

> <Gold.PLP.part.repulsive>
0.0520

> <Gold.PLP.ligand.clash>
0.0000

> <Gold.PLP.ligand.torsion>
0.7110

> <Gold.PLP.Chemscore.Hbond>
1.0000

> <Gold.PLP.Chemscore.CHOScore>
0.0000

> <Gold.PLP.Chemscore.Metal>
0.0000

> <Gold.Chemscore.Hbonds>
donor molecule, donor type, donor heavy atom, donor atom, acceptor molecule, acceptor atom, score
      P1  H  7989  7998       L1     1  1.00

> <Gold.PLP.Chemscore.Internal.Correction>
0.3054

> <Gold.Rescore>
     Score         DG    S(hbond)    S(metal)    S(lipo)     H(rot)  DE(clash)    DE(int)     intcor
     10.85     -12.83       0.99        0.00      88.78       2.48       1.15       0.83       ----

> <Gold.Chemscore.Fitness>
10.8476

> <Gold.Chemscore.DG>
-12.8272

> <Gold.Chemscore.ZeroCoef>
-5.4800

> <Gold.Chemscore.Hbond>
0.9933

> <Gold.Chemscore.Metal>
0.0000

> <Gold.Chemscore.Lipo>
88.7774

> <Gold.Chemscore.Internal_Hbond>
0.0000

> <Gold.Chemscore.DEClash>
1.1511

> <Gold.Chemscore.DEInternal>
0.8285

> <Gold.Chemscore.Rot>
2.4833

> <Gold.Chemscore.Internal.Correction>
   9.000000E+99

> <Gold.Chemscore.Hbonds>
donor molecule, donor type, donor heavy atom, donor atom, acceptor molecule, acceptor atom, score
      P1  H  7989  7998       L1     1  0.99

> <Gold.Chemscore.Hbond.Weighted>
-3.3175

> <Gold.Chemscore.Metal.Weighted>
-0.0000

> <Gold.Chemscore.Lipo.Weighted>
-10.3870

> <Gold.Chemscore.Internal_Hbond.Weighted>
0.0000

> <Gold.Chemscore.DEClash.Weighted>
1.1511

> <Gold.Chemscore.DEInternal.Weighted>
0.8285

> <Gold.Chemscore.Rot.Weighted>
6.3572

> <Gold.Chemscore.Internal.Correction.Weighted>
   9.000000E+99

> <Gold.Protein.RotatedTorsions>
[ 6907 6896 6895 6894 ] final  -44.19 input  -60.11 | X-H torsion
[ 7974 7965 7964 7962 ] final  137.24 input  175.53 | X-H torsion
[ 8008 7997 7996 7995 ] final -177.76 input   59.86 | X-H torsion
[ 10167 10162 10161 10158 ] final  141.13 input  -65.29 | X-H torsion
[ 10718 10713 10712 10709 ] final -124.97 input   66.30 | X-H torsion
[ 10763 10752 10751 10750 ] final  -72.73 input  -60.55 | X-H torsion
[ 11005 11000 10999 10996 ] final  112.33 input  -57.11 | X-H torsion

> <Gold.Protein.ActiveResidues>
 VAL166  LYS551  ARG553  GLY616  TRP617  ASP618  TYR619  PRO620  LYS621  CYS622 
 ASP623  PHE694  ASN695  SER759  ASP760  ASP761  ALA762  ILE779  LEU786  VAL792 
 PHE793  MET794  SER795  GLU796  ALA797  LYS798  CYS799  TRP800  GLU811  SER814 

> <Gold.Protein.RotatedAtoms>
  150.9355  134.8768  159.7578 H   0  0  0  0  0  0  0  0  0  0  0  0  # atno 6907 bound_to 6896
  152.5057  134.4017  159.9428 H   0  0  0  0  0  0  0  0  0  0  0  0  # atno 6908 bound_to 6896
  151.4041  133.3708  159.2771 H   0  0  0  0  0  0  0  0  0  0  0  0  # atno 6909 bound_to 6896
  144.9486  139.4845  143.5536 H   0  0  0  0  0  0  0  0  0  0  0  0  # atno 7974 bound_to 7965
  156.0108  140.1240  157.0455 H   0  0  0  0  0  0  0  0  0  0  0  0  # atno 8008 bound_to 7997
  154.4275  140.1088  156.5896 H   0  0  0  0  0  0  0  0  0  0  0  0  # atno 8009 bound_to 7997
  155.6082  140.3471  155.4616 H   0  0  0  0  0  0  0  0  0  0  0  0  # atno 8010 bound_to 7997
  139.5029  144.6190  151.6095 H   0  0  0  0  0  0  0  0  0  0  0  0  # atno 10167 bound_to 10162
  156.1634  130.6617  151.0081 H   0  0  0  0  0  0  0  0  0  0  0  0  # atno 10718 bound_to 10713
  154.4498  135.5920  153.6184 H   0  0  0  0  0  0  0  0  0  0  0  0  # atno 10763 bound_to 10752
  152.9812  135.6018  154.3619 H   0  0  0  0  0  0  0  0  0  0  0  0  # atno 10764 bound_to 10752
  154.3479  135.2841  155.2367 H   0  0  0  0  0  0  0  0  0  0  0  0  # atno 10765 bound_to 10752
  139.8925  134.9527  156.6569 H   0  0  0  0  0  0  0  0  0  0  0  0  # atno 11005 bound_to 11000
  146.3313  139.8556  142.8865 LP  0  0  0  0  0  0  0  0  0  0  0  0  # atno 17320 bound_to 7965
  145.2878  141.0158  143.3680 LP  0  0  0  0  0  0  0  0  0  0  0  0  # atno 17321 bound_to 7965
  140.5887  143.9818  150.6311 LP  0  0  0  0  0  0  0  0  0  0  0  0  # atno 17342 bound_to 10162
  140.2991  143.3272  152.0989 LP  0  0  0  0  0  0  0  0  0  0  0  0  # atno 17343 bound_to 10162
  157.6749  131.0852  150.7519 LP  0  0  0  0  0  0  0  0  0  0  0  0  # atno 17370 bound_to 10713
  156.7580  130.4790  149.5442 LP  0  0  0  0  0  0  0  0  0  0  0  0  # atno 17371 bound_to 10713
  140.7477  133.8924  155.8324 LP  0  0  0  0  0  0  0  0  0  0  0  0  # atno 17394 bound_to 11000
  141.0026  134.1129  157.4302 LP  0  0  0  0  0  0  0  0  0  0  0  0  # atno 17395 bound_to 11000

$$$$
