AV-unprocessed.smi:509|AV-procd|sdf|2761|dock3
  -GOLD-   2262023223D 1   1.00000     0.00000
 Structure written by MMmdl.
 45 47  0  0  0  0  0  0  0  0  1 V2000
  148.9732  144.7173  159.6179 C   0  0  0  0  0  0  0  0  0  0  0  0
  150.3036  144.7396  160.1018 O   0  0  0  0  0  0  0  0  0  0  0  0
  151.2452  144.3090  159.1326 C   0  0  0  0  0  0  0  0  0  0  0  0
  150.8587  142.9115  158.6293 C   0  0  0  0  0  0  0  0  0  0  0  0
  151.9136  141.9307  158.8811 N   0  0  0  0  0  0  0  0  0  0  0  0
  152.5045  141.0651  158.0108 C   0  0  0  0  0  0  0  0  0  0  0  0
  152.1842  141.0272  156.6533 N   0  0  0  0  0  0  0  0  0  0  0  0
  151.6397  142.1153  155.8441 C   0  0  0  0  0  0  0  0  0  0  0  0
  150.4463  141.6285  154.9986 C   0  0  0  0  0  0  0  0  0  0  0  0
  150.8939  140.5804  154.0880 N   0  0  0  0  0  0  0  0  0  0  0  0
  151.4358  139.4781  154.8758 C   0  0  0  0  0  0  0  0  0  0  0  0
  152.6153  139.9775  155.7346 C   0  0  0  0  0  0  0  0  0  0  0  0
  153.3803  140.2281  158.5721 N   0  0  0  0  0  0  0  0  0  0  0  0
  153.3698  140.6083  159.9044 C   0  0  0  0  0  0  0  0  0  0  0  0
  152.4970  141.6212  160.1132 C   0  0  0  0  0  0  0  0  0  0  0  0
  152.2579  142.1995  161.4426 C   0  0  0  0  0  0  0  0  0  0  0  0
  151.4342  143.0992  161.6115 O   0  0  0  0  0  0  0  0  0  0  0  0
  153.0222  141.6473  162.4369 N   0  0  0  0  0  0  0  0  0  0  0  0
  152.8725  142.1705  163.8078 C   0  0  0  0  0  0  0  0  0  0  0  0
  153.9352  140.6219  162.2643 C   0  0  0  0  0  0  0  0  0  0  0  0
  154.5941  140.1869  163.2134 O   0  0  0  0  0  0  0  0  0  0  0  0
  154.0951  140.0929  161.0089 N   0  0  0  0  0  0  0  0  0  0  0  0
  155.0429  138.9967  160.7887 C   0  0  0  0  0  0  0  0  0  0  0  0
  148.2942  145.0545  160.4010 H   0  0  0  0  0  0  0  0  0  0  0  0
  148.6770  143.7090  159.3256 H   0  0  0  0  0  0  0  0  0  0  0  0
  148.8547  145.3809  158.7605 H   0  0  0  0  0  0  0  0  0  0  0  0
  151.2662  145.0092  158.2965 H   0  0  0  0  0  0  0  0  0  0  0  0
  152.2458  144.2893  159.5669 H   0  0  0  0  0  0  0  0  0  0  0  0
  149.9317  142.6058  159.1025 H   0  0  0  0  0  0  0  0  0  0  0  0
  150.6353  142.9343  157.5638 H   0  0  0  0  0  0  0  0  0  0  0  0
  151.3497  142.9528  156.4773 H   0  0  0  0  0  0  0  0  0  0  0  0
  152.4250  142.5011  155.1924 H   0  0  0  0  0  0  0  0  0  0  0  0
  149.6428  141.2532  155.6339 H   0  0  0  0  0  0  0  0  0  0  0  0
  150.0376  142.4530  154.4145 H   0  0  0  0  0  0  0  0  0  0  0  0
  150.1134  140.2520  153.5376 H   0  0  0  0  0  0  0  0  0  0  0  0
  150.6535  139.0503  155.5038 H   0  0  0  0  0  0  0  0  0  0  0  0
  151.7703  138.6915  154.1995 H   0  0  0  0  0  0  0  0  0  0  0  0
  153.4225  140.3502  155.1025 H   0  0  0  0  0  0  0  0  0  0  0  0
  153.0253  139.1435  156.3053 H   0  0  0  0  0  0  0  0  0  0  0  0
  153.8267  142.5501  164.1767 H   0  0  0  0  0  0  0  0  0  0  0  0
  152.5432  141.3788  164.4826 H   0  0  0  0  0  0  0  0  0  0  0  0
  152.1564  142.9861  163.9134 H   0  0  0  0  0  0  0  0  0  0  0  0
  156.0665  139.3547  160.9024 H   0  0  0  0  0  0  0  0  0  0  0  0
  154.9550  138.5592  159.7945 H   0  0  0  0  0  0  0  0  0  0  0  0
  154.8821  138.1898  161.5051 H   0  0  0  0  0  0  0  0  0  0  0  0
  1  2  1  0  0  0  0
  1 24  1  0  0  0  0
  1 25  1  0  0  0  0
  1 26  1  0  0  0  0
  2  3  1  0  0  0  0
  3  4  1  0  0  0  0
  3 27  1  0  0  0  0
  3 28  1  0  0  0  0
  4  5  1  0  0  0  0
  4 29  1  0  0  0  0
  4 30  1  0  0  0  0
  5 15  1  0  0  0  0
  5  6  1  0  0  0  0
  6  7  1  0  0  0  0
  6 13  2  0  0  0  0
  7 12  1  0  0  0  0
  7  8  1  0  0  0  0
  8  9  1  0  0  0  0
  8 31  1  0  0  0  0
  8 32  1  0  0  0  0
  9 10  1  0  0  0  0
  9 33  1  0  0  0  0
  9 34  1  0  0  0  0
 10 11  1  0  0  0  0
 10 35  1  0  0  0  0
 11 12  1  0  0  0  0
 11 36  1  0  0  0  0
 11 37  1  0  0  0  0
 12 38  1  0  0  0  0
 12 39  1  0  0  0  0
 13 14  1  0  0  0  0
 14 22  1  0  0  0  0
 14 15  2  0  0  0  0
 15 16  1  0  0  0  0
 16 17  2  0  0  0  0
 16 18  1  0  0  0  0
 18 19  1  0  0  0  0
 18 20  1  0  0  0  0
 19 40  1  0  0  0  0
 19 41  1  0  0  0  0
 19 42  1  0  0  0  0
 20 21  2  0  0  0  0
 20 22  1  0  0  0  0
 22 23  1  0  0  0  0
 23 43  1  0  0  0  0
 23 44  1  0  0  0  0
 23 45  1  0  0  0  0
M  END
> <s_m_source_file>
AV-unprocessed.smi

> <i_m_source_file_index>
509

> <i_lp_mmshare_version>
43012

> <i_f3d_flags>
0

> <s_epik_input>
W0NIM11uMWMoPU8pbihbQ0gzXSljKD1PKWMoYzEyKW4oW0NIMl1bQ0gyXU9bQ0gzXSljKG4yKU4zW0NIMl1bQ0gyXVtOSF1bQ0gyXVtDSDJdMw==

> <s_epik_cmdline>
J2VwaWtfcHl0aG9uJywgJy1waCcsICc3LjAnLCAnLXRuJywgJzgnLCAnLW1hJywgJzIwMCcsICctbWV0YWxfYmluZGluZycsICctaW1hZScsICc8aW5maWxlLm1hZT4nLCAnLW9tYWUnLCAnPG91dGZpbGUubWFlPic=

> <r_epik_Ionization_Penalty>
2.51424

> <r_epik_Ionization_Penalty_Charging>
1.27827e-08

> <r_epik_Ionization_Penalty_Neutral>
2.51424

> <r_epik_State_Penalty>
2.67993

> <r_epik_Charging_Adjusted_Penalty>
2.67993

> <i_epik_Tot_Q>
0

> <i_epik_Tot_abs_Q>
0

> <r_epik_Metal_State_Penalty>
2.67967

> <b_epik_Metal_Only>
0

> <s_lp_Force_Field>
OPLS_2005

> <r_lp_Energy>
54.3442

> <b_lp_Chiralities_Consistent>
1

> <s_lp_Variant>
AV-unprocessed.smi:509-2

> <Gold.Version>
5.8.1

> <Gold.Id.Protein>
6NUR|6NUR_protein|mol2

> <Gold.PLP.Fitness>
52.7548

> <Gold.PLP.PLP>
-47.8609

> <Gold.PLP.part.hbond>
-3.2206

> <Gold.PLP.part.metal>
0.0000

> <Gold.PLP.part.buried>
-4.7306

> <Gold.PLP.part.nonpolar>
-38.2258

> <Gold.PLP.part.repulsive>
0.3316

> <Gold.PLP.ligand.clash>
0.0137

> <Gold.PLP.ligand.torsion>
0.5667

> <Gold.PLP.Chemscore.Hbond>
1.9030

> <Gold.PLP.Chemscore.CHOScore>
0.0000

> <Gold.PLP.Chemscore.Metal>
0.0000

> <Gold.Chemscore.Hbonds>
donor molecule, donor type, donor heavy atom, donor atom, acceptor molecule, acceptor atom, score
      P1  H  6933  6945       L1    17  0.32
      P1  H  7997  8010       L1    13  0.91

> <Gold.PLP.Chemscore.Internal.Correction>
0.3319

> <Gold.Rescore>
     Score         DG    S(hbond)    S(metal)    S(lipo)     H(rot)  DE(clash)    DE(int)     intcor
     11.57     -13.45       0.75        0.00      79.47       1.49       0.11       1.78       ----

> <Gold.Chemscore.Fitness>
11.5660

> <Gold.Chemscore.DG>
-13.4541

> <Gold.Chemscore.ZeroCoef>
-5.4800

> <Gold.Chemscore.Hbond>
0.7470

> <Gold.Chemscore.Metal>
0.0000

> <Gold.Chemscore.Lipo>
79.4665

> <Gold.Chemscore.Internal_Hbond>
0.0000

> <Gold.Chemscore.DEClash>
0.1088

> <Gold.Chemscore.DEInternal>
1.7794

> <Gold.Chemscore.Rot>
1.4915

> <Gold.Chemscore.Internal.Correction>
   9.000000E+99

> <Gold.Chemscore.Hbonds>
donor molecule, donor type, donor heavy atom, donor atom, acceptor molecule, acceptor atom, score
      L1  H    10    35       P1  7957  0.04
      P1  H  6933  6945       L1    17  0.02
      P1  H  7997  8010       L1    13  0.31

> <Gold.Chemscore.Hbond.Weighted>
-2.4948

> <Gold.Chemscore.Metal.Weighted>
-0.0000

> <Gold.Chemscore.Lipo.Weighted>
-9.2976

> <Gold.Chemscore.Internal_Hbond.Weighted>
0.0000

> <Gold.Chemscore.DEClash.Weighted>
0.1088

> <Gold.Chemscore.DEInternal.Weighted>
1.7794

> <Gold.Chemscore.Rot.Weighted>
3.8183

> <Gold.Chemscore.Internal.Correction.Weighted>
   9.000000E+99

> <Gold.Protein.RotatedTorsions>
[ 6907 6896 6895 6894 ] final  -25.12 input  -60.11 | X-H torsion
[ 7974 7965 7964 7962 ] final  116.70 input  175.53 | X-H torsion
[ 8008 7997 7996 7995 ] final   23.05 input   59.86 | X-H torsion
[ 10167 10162 10161 10158 ] final   65.92 input  -65.29 | X-H torsion
[ 10718 10713 10712 10709 ] final   62.36 input   66.30 | X-H torsion
[ 10763 10752 10751 10750 ] final   -3.99 input  -60.55 | X-H torsion
[ 11005 11000 10999 10996 ] final  -28.61 input  -57.11 | X-H torsion

> <Gold.Protein.ActiveResidues>
 VAL166  LYS551  ARG553  GLY616  TRP617  ASP618  TYR619  PRO620  LYS621  CYS622 
 ASP623  PHE694  ASN695  SER759  ASP760  ASP761  ALA762  ILE779  LEU786  VAL792 
 PHE793  MET794  SER795  GLU796  ALA797  LYS798  CYS799  TRP800  GLU811  SER814 

> <Gold.Protein.RotatedAtoms>
  151.1797  135.0355  159.8786 H   0  0  0  0  0  0  0  0  0  0  0  0  # atno 6907 bound_to 6896
  152.5445  134.1077  159.8355 H   0  0  0  0  0  0  0  0  0  0  0  0  # atno 6908 bound_to 6896
  151.1192  133.5069  159.2635 H   0  0  0  0  0  0  0  0  0  0  0  0  # atno 6909 bound_to 6896
  145.1764  139.3074  143.4441 H   0  0  0  0  0  0  0  0  0  0  0  0  # atno 7974 bound_to 7965
  154.9750  140.3095  155.4971 H   0  0  0  0  0  0  0  0  0  0  0  0  # atno 8008 bound_to 7997
  156.2961  140.2277  156.4785 H   0  0  0  0  0  0  0  0  0  0  0  0  # atno 8009 bound_to 7997
  154.7841  140.0444  157.1139 H   0  0  0  0  0  0  0  0  0  0  0  0  # atno 8010 bound_to 7997
  140.1060  144.4861  150.7007 H   0  0  0  0  0  0  0  0  0  0  0  0  # atno 10167 bound_to 10162
  157.5895  130.9046  149.9577 H   0  0  0  0  0  0  0  0  0  0  0  0  # atno 10718 bound_to 10713
  153.3788  135.6997  153.6581 H   0  0  0  0  0  0  0  0  0  0  0  0  # atno 10763 bound_to 10752
  153.5201  135.3614  155.2628 H   0  0  0  0  0  0  0  0  0  0  0  0  # atno 10764 bound_to 10752
  154.8690  135.4155  154.3082 H   0  0  0  0  0  0  0  0  0  0  0  0  # atno 10765 bound_to 10752
  140.9223  133.7391  156.0819 H   0  0  0  0  0  0  0  0  0  0  0  0  # atno 11005 bound_to 11000
  146.3460  140.1927  142.8589 LP  0  0  0  0  0  0  0  0  0  0  0  0  # atno 17320 bound_to 7965
  145.0181  140.8770  143.5183 LP  0  0  0  0  0  0  0  0  0  0  0  0  # atno 17321 bound_to 7965
  140.6952  143.2399  151.5022 LP  0  0  0  0  0  0  0  0  0  0  0  0  # atno 17342 bound_to 10162
  139.5645  144.2076  152.1743 LP  0  0  0  0  0  0  0  0  0  0  0  0  # atno 17343 bound_to 10162
  156.0948  130.3660  150.0328 LP  0  0  0  0  0  0  0  0  0  0  0  0  # atno 17370 bound_to 10713
  156.8453  130.9440  151.3629 LP  0  0  0  0  0  0  0  0  0  0  0  0  # atno 17371 bound_to 10713
  140.7971  134.3551  157.5449 LP  0  0  0  0  0  0  0  0  0  0  0  0  # atno 17394 bound_to 11000
  139.8778  134.9175  156.3181 LP  0  0  0  0  0  0  0  0  0  0  0  0  # atno 17395 bound_to 11000

$$$$
