AV-unprocessed.smi:1046|AV-procd|sdf|4553|dock2
  -GOLD-   22720 2583D 1   1.00000     0.00000
 Structure written by MMmdl.
 54 56  0  0  0  0  0  0  0  0  3 V2000
  154.3892  142.4724  163.5143 C   0  0  0  0  0  0  0  0  0  0  0  0
  153.6070  142.7211  162.2357 C   0  0  0  0  0  0  0  0  0  0  0  0
  152.8028  143.8804  162.1532 C   0  0  0  0  0  0  0  0  0  0  0  0
  152.0963  144.0795  160.9728 C   0  0  0  0  0  0  0  0  0  0  0  0
  151.2270  145.1021  160.5868 N   0  3  0  0  0  0  0  0  0  0  0  0
  150.7694  144.8590  159.3271 C   0  0  0  0  0  0  0  0  0  0  0  0
  151.3439  143.7015  158.8988 N   0  0  0  0  0  0  0  0  0  0  0  0
  151.1956  142.9833  157.6263 C   0  0  0  0  0  0  0  0  0  0  0  0
  150.7076  141.5306  157.8020 C   0  0  1  0  0  0  0  0  0  0  0  0
  149.5295  141.5758  158.5809 O   0  0  0  0  0  0  0  0  0  0  0  0
  150.4014  140.8277  156.4609 C   0  0  0  0  0  0  0  0  0  0  0  0
  149.0476  141.1426  155.9382 N   0  3  0  0  0  0  0  0  0  0  0  0
  148.0064  140.1694  156.3662 C   0  0  0  0  0  0  0  0  0  0  0  0
  146.6258  140.5815  155.8159 C   0  0  0  0  0  0  0  0  0  0  0  0
  146.6003  140.7220  154.3579 N   0  0  0  0  0  0  0  0  0  0  0  0
  146.7063  139.4578  153.6217 C   0  0  0  0  0  0  0  0  0  0  0  0
  146.3939  139.5516  152.1197 C   0  0  0  0  0  0  0  0  0  0  0  0
  147.0574  138.5072  151.4420 O   0  0  0  0  0  0  0  0  0  0  0  0
  147.6269  141.6883  153.9691 C   0  0  0  0  0  0  0  0  0  0  0  0
  149.0383  141.3078  154.4614 C   0  0  0  0  0  0  0  0  0  0  0  0
  152.1712  143.1747  159.8964 C   0  0  0  0  0  0  0  0  0  0  0  0
  152.9561  142.0263  159.9616 C   0  0  0  0  0  0  0  0  0  0  0  0
  153.6805  141.8044  161.1547 C   0  0  0  0  0  0  0  0  0  0  0  0
  154.5427  140.5576  161.2562 C   0  0  0  0  0  0  0  0  0  0  0  0
  154.3164  143.3193  164.1972 H   0  0  0  0  0  0  0  0  0  0  0  0
  155.4457  142.3128  163.2978 H   0  0  0  0  0  0  0  0  0  0  0  0
  154.0036  141.5922  164.0295 H   0  0  0  0  0  0  0  0  0  0  0  0
  152.7381  144.5790  162.9748 H   0  0  0  0  0  0  0  0  0  0  0  0
  150.0786  145.4750  158.7694 H   0  0  0  0  0  0  0  0  0  0  0  0
  150.5126  143.5525  156.9936 H   0  0  0  0  0  0  0  0  0  0  0  0
  152.1656  143.0002  157.1269 H   0  0  0  0  0  0  0  0  0  0  0  0
  151.4580  140.9764  158.3641 H   0  0  0  0  0  0  0  0  0  0  0  0
  149.5582  140.8857  159.2259 H   0  0  0  0  0  0  0  0  0  0  0  0
  151.1577  141.1280  155.7337 H   0  0  0  0  0  0  0  0  0  0  0  0
  150.4902  139.7451  156.5566 H   0  0  0  0  0  0  0  0  0  0  0  0
  148.2716  139.1653  156.0328 H   0  0  0  0  0  0  0  0  0  0  0  0
  147.9531  140.1296  157.4535 H   0  0  0  0  0  0  0  0  0  0  0  0
  145.8665  139.8733  156.1456 H   0  0  0  0  0  0  0  0  0  0  0  0
  146.3428  141.5346  156.2651 H   0  0  0  0  0  0  0  0  0  0  0  0
  147.7267  139.0850  153.7215 H   0  0  0  0  0  0  0  0  0  0  0  0
  146.0698  138.6970  154.0726 H   0  0  0  0  0  0  0  0  0  0  0  0
  145.3259  139.4616  151.9236 H   0  0  0  0  0  0  0  0  0  0  0  0
  146.7262  140.5079  151.7148 H   0  0  0  0  0  0  0  0  0  0  0  0
  147.4731  137.9486  152.0815 H   0  0  0  0  0  0  0  0  0  0  0  0
  147.6322  141.8080  152.8850 H   0  0  0  0  0  0  0  0  0  0  0  0
  147.3643  142.6674  154.3725 H   0  0  0  0  0  0  0  0  0  0  0  0
  149.7384  142.0951  154.1795 H   0  0  0  0  0  0  0  0  0  0  0  0
  149.3867  140.3927  153.9807 H   0  0  0  0  0  0  0  0  0  0  0  0
  153.0094  141.3272  159.1401 H   0  0  0  0  0  0  0  0  0  0  0  0
  154.4229  139.9173  160.3815 H   0  0  0  0  0  0  0  0  0  0  0  0
  154.2723  139.9716  162.1350 H   0  0  0  0  0  0  0  0  0  0  0  0
  155.5962  140.8283  161.3304 H   0  0  0  0  0  0  0  0  0  0  0  0
  148.7887  142.0416  156.3185 H   0  0  0  0  0  0  0  0  0  0  0  0
  150.9588  145.9043  161.1429 H   0  0  0  0  0  0  0  0  0  0  0  0
  1  2  1  0  0  0  0
  1 25  1  0  0  0  0
  1 26  1  0  0  0  0
  1 27  1  0  0  0  0
  2 23  1  0  0  0  0
  2  3  2  0  0  0  0
  3  4  1  0  0  0  0
  3 28  1  0  0  0  0
  4 21  2  0  0  0  0
  4  5  1  0  0  0  0
  5  6  2  0  0  0  0
  5 54  1  0  0  0  0
  6  7  1  0  0  0  0
  6 29  1  0  0  0  0
  7  8  1  0  0  0  0
  7 21  1  0  0  0  0
  8  9  1  0  0  0  0
  8 30  1  0  0  0  0
  8 31  1  0  0  0  0
  9 10  1  0  0  0  0
  9 11  1  0  0  0  0
  9 32  1  0  0  0  0
 10 33  1  0  0  0  0
 11 12  1  0  0  0  0
 11 34  1  0  0  0  0
 11 35  1  0  0  0  0
 12 20  1  0  0  0  0
 12 13  1  0  0  0  0
 12 53  1  0  0  0  0
 13 14  1  0  0  0  0
 13 36  1  0  0  0  0
 13 37  1  0  0  0  0
 14 15  1  0  0  0  0
 14 38  1  0  0  0  0
 14 39  1  0  0  0  0
 15 16  1  0  0  0  0
 15 19  1  0  0  0  0
 16 17  1  0  0  0  0
 16 40  1  0  0  0  0
 16 41  1  0  0  0  0
 17 18  1  0  0  0  0
 17 42  1  0  0  0  0
 17 43  1  0  0  0  0
 18 44  1  0  0  0  0
 19 20  1  0  0  0  0
 19 45  1  0  0  0  0
 19 46  1  0  0  0  0
 20 47  1  0  0  0  0
 20 48  1  0  0  0  0
 21 22  1  0  0  0  0
 22 23  2  0  0  0  0
 22 49  1  0  0  0  0
 23 24  1  0  0  0  0
 24 50  1  0  0  0  0
 24 51  1  0  0  0  0
 24 52  1  0  0  0  0
M  CHG  1   5   1
M  CHG  1  12   1
M  END
> <s_m_source_file>
AV-unprocessed.smi

> <i_m_source_file_index>
1046

> <i_lp_mmshare_version>
43012

> <i_f3d_flags>
0

> <s_epik_input>
W0NIM11jKFtjSF0xKWMoW0NIM10pW2NIXWMoYzEyKW4oW2NIXW4yKVtDSDJdW0NASF0oW09IXSlbQ0gyXU4zW0NIMl1bQ0gyXU4oW0NIMl1bQ0gyXTMpW0NIMl1bQ0gyXVtPSF0=

> <s_epik_cmdline>
J2VwaWtfcHl0aG9uJywgJy1waCcsICc3LjAnLCAnLXRuJywgJzgnLCAnLW1hJywgJzIwMCcsICctbWV0YWxfYmluZGluZycsICctaW1hZScsICc8aW5maWxlLm1hZT4nLCAnLW9tYWUnLCAnPG91dGZpbGUubWFlPic=

> <r_epik_Ionization_Penalty>
1.22056

> <r_epik_Ionization_Penalty_Charging>
1.17959

> <r_epik_Ionization_Penalty_Neutral>
0.0409743

> <r_epik_State_Penalty>
1.27074

> <r_epik_Charging_Adjusted_Penalty>
2.45032

> <i_epik_Tot_Q>
2

> <i_epik_Tot_abs_Q>
2

> <r_epik_Metal_State_Penalty>
5.26922

> <b_epik_Metal_Only>
0

> <s_lp_Force_Field>
OPLS_2005

> <r_lp_Energy>
42.2252

> <b_lp_Chiralities_Consistent>
1

> <s_lp_Variant>
AV-unprocessed.smi:1046-6

> <Gold.Version>
5.8.1

> <Gold.Id.Protein>
6NUR|6NUR_protein|mol2

> <Gold.PLP.Fitness>
63.3961

> <Gold.PLP.PLP>
-57.4464

> <Gold.PLP.part.hbond>
-4.1659

> <Gold.PLP.part.metal>
0.0000

> <Gold.PLP.part.buried>
-3.2491

> <Gold.PLP.part.nonpolar>
-49.0644

> <Gold.PLP.part.repulsive>
0.3677

> <Gold.PLP.ligand.clash>
0.0000

> <Gold.PLP.ligand.torsion>
0.9492

> <Gold.PLP.Chemscore.Hbond>
1.5920

> <Gold.PLP.Chemscore.CHOScore>
0.9994

> <Gold.PLP.Chemscore.Metal>
0.0000

> <Gold.Chemscore.Hbonds>
donor molecule, donor type, donor heavy atom, donor atom, acceptor molecule, acceptor atom, score
      L1  H    18    44       P1  7948  0.27
      P1  H  7954  7966       L1    18  0.75
      L1  C     6    29       P1  8029  0.65

> <Gold.PLP.Chemscore.Internal.Correction>
0.0738

> <Gold.Rescore>
     Score         DG    S(hbond)    S(metal)    S(lipo)     H(rot)  DE(clash)    DE(int)     intcor
     16.25     -18.07       1.36        0.00     140.86       3.29       0.00       1.82       ----

> <Gold.Chemscore.Fitness>
16.2479

> <Gold.Chemscore.DG>
-18.0718

> <Gold.Chemscore.ZeroCoef>
-5.4800

> <Gold.Chemscore.Hbond>
1.3572

> <Gold.Chemscore.Metal>
0.0000

> <Gold.Chemscore.Lipo>
140.8557

> <Gold.Chemscore.Internal_Hbond>
0.0000

> <Gold.Chemscore.DEClash>
0.0038

> <Gold.Chemscore.DEInternal>
1.8200

> <Gold.Chemscore.Rot>
3.2896

> <Gold.Chemscore.Internal.Correction>
   9.000000E+99

> <Gold.Chemscore.Hbonds>
donor molecule, donor type, donor heavy atom, donor atom, acceptor molecule, acceptor atom, score
      L1  H    18    44       P1  7948  0.27
      P1  H  7954  7966       L1    18  0.09

> <Gold.Chemscore.Hbond.Weighted>
-4.5331

> <Gold.Chemscore.Metal.Weighted>
-0.0000

> <Gold.Chemscore.Lipo.Weighted>
-16.4801

> <Gold.Chemscore.Internal_Hbond.Weighted>
0.0000

> <Gold.Chemscore.DEClash.Weighted>
0.0038

> <Gold.Chemscore.DEInternal.Weighted>
1.8200

> <Gold.Chemscore.Rot.Weighted>
8.4215

> <Gold.Chemscore.Internal.Correction.Weighted>
   9.000000E+99

> <Gold.Protein.RotatedTorsions>
[ 6907 6896 6895 6894 ] final  -44.53 input  -60.11 | X-H torsion
[ 7974 7965 7964 7962 ] final -117.45 input  175.53 | X-H torsion
[ 8008 7997 7996 7995 ] final   -2.18 input   59.86 | X-H torsion
[ 10167 10162 10161 10158 ] final   54.14 input  -65.29 | X-H torsion
[ 10718 10713 10712 10709 ] final -162.44 input   66.30 | X-H torsion
[ 10763 10752 10751 10750 ] final -102.07 input  -60.55 | X-H torsion
[ 11005 11000 10999 10996 ] final  171.72 input  -57.11 | X-H torsion

> <Gold.Protein.ActiveResidues>
 VAL166  LYS551  ARG553  GLY616  TRP617  ASP618  TYR619  PRO620  LYS621  CYS622 
 ASP623  PHE694  ASN695  SER759  ASP760  ASP761  ALA762  ILE779  LEU786  VAL792 
 PHE793  MET794  SER795  GLU796  ALA797  LYS798  CYS799  TRP800  GLU811  SER814 

> <Gold.Protein.RotatedAtoms>
  150.9318  134.8733  159.7555 H   0  0  0  0  0  0  0  0  0  0  0  0  # atno 6907 bound_to 6896
  152.5041  134.4068  159.9445 H   0  0  0  0  0  0  0  0  0  0  0  0  # atno 6908 bound_to 6896
  151.4094  133.3692  159.2777 H   0  0  0  0  0  0  0  0  0  0  0  0  # atno 6909 bound_to 6896
  145.0851  140.8452  143.4016 H   0  0  0  0  0  0  0  0  0  0  0  0  # atno 7974 bound_to 7965
  154.6386  140.2541  155.7349 H   0  0  0  0  0  0  0  0  0  0  0  0  # atno 8008 bound_to 7997
  156.2517  140.2892  156.0690 H   0  0  0  0  0  0  0  0  0  0  0  0  # atno 8009 bound_to 7997
  155.1632  140.0385  157.2837 H   0  0  0  0  0  0  0  0  0  0  0  0  # atno 8010 bound_to 7997
  140.2333  144.3663  150.6406 H   0  0  0  0  0  0  0  0  0  0  0  0  # atno 10167 bound_to 10162
  156.6104  130.8848  151.2935 H   0  0  0  0  0  0  0  0  0  0  0  0  # atno 10718 bound_to 10713
  154.7706  135.4874  153.9642 H   0  0  0  0  0  0  0  0  0  0  0  0  # atno 10763 bound_to 10752
  153.1363  135.6763  153.9105 H   0  0  0  0  0  0  0  0  0  0  0  0  # atno 10764 bound_to 10752
  153.8793  135.3134  155.3423 H   0  0  0  0  0  0  0  0  0  0  0  0  # atno 10765 bound_to 10752
  140.3220  134.7429  157.4071 H   0  0  0  0  0  0  0  0  0  0  0  0  # atno 11005 bound_to 11000
  145.1132  139.2743  143.5626 LP  0  0  0  0  0  0  0  0  0  0  0  0  # atno 17320 bound_to 7965
  146.3531  140.0734  142.8622 LP  0  0  0  0  0  0  0  0  0  0  0  0  # atno 17321 bound_to 7965
  140.6169  143.2173  151.6774 LP  0  0  0  0  0  0  0  0  0  0  0  0  # atno 17342 bound_to 10162
  139.5102  144.3549  152.0617 LP  0  0  0  0  0  0  0  0  0  0  0  0  # atno 17343 bound_to 10162
  157.7256  130.9617  150.1620 LP  0  0  0  0  0  0  0  0  0  0  0  0  # atno 17370 bound_to 10713
  156.2394  130.3689  149.8354 LP  0  0  0  0  0  0  0  0  0  0  0  0  # atno 17371 bound_to 10713
  140.0933  134.5571  155.8423 LP  0  0  0  0  0  0  0  0  0  0  0  0  # atno 17394 bound_to 11000
  141.2084  133.6673  156.6369 LP  0  0  0  0  0  0  0  0  0  0  0  0  # atno 17395 bound_to 11000

$$$$
