AV-unprocessed.smi:338|AV-procd|sdf|2374|dock2
  -GOLD-   2262022293D 1   1.00000     0.00000
 Structure written by MMmdl.
 41 43  0  0  0  0  0  0  0  0  1 V2000
  147.2829  136.8861  162.8311 C   0  0  0  0  0  0  0  0  0  0  0  0
  147.7109  136.3579  161.4627 C   0  0  0  0  0  0  0  0  0  0  0  0
  148.1270  137.1586  160.6256 O   0  0  0  0  0  0  0  0  0  0  0  0
  147.6007  134.8912  161.2163 C   0  0  0  0  0  0  0  0  0  0  0  0
  147.0705  134.0137  162.1906 C   0  0  0  0  0  0  0  0  0  0  0  0
  146.9800  132.6344  161.9298 C   0  0  0  0  0  0  0  0  0  0  0  0
  147.4162  132.1185  160.6966 C   0  0  0  0  0  0  0  0  0  0  0  0
  147.9464  132.9707  159.7082 C   0  0  0  0  0  0  0  0  0  0  0  0
  148.3488  132.3822  158.5281 O   0  0  0  0  0  0  0  0  0  0  0  0
  148.8666  133.2164  157.4997 C   0  0  0  0  0  0  0  0  0  0  0  0
  149.9630  132.4554  156.7399 C   0  0  2  0  0  0  0  0  0  0  0  0
  151.1459  132.4874  157.5140 O   0  0  0  0  0  0  0  0  0  0  0  0
  150.2359  133.0502  155.3448 C   0  0  0  0  0  0  0  0  0  0  0  0
  149.1613  132.7806  154.4061 N   0  0  0  0  0  0  0  0  0  0  0  0
  148.5056  133.6796  153.6471 C   0  0  0  0  0  0  0  0  0  0  0  0
  147.5481  133.2190  152.8472 N   0  0  0  0  0  0  0  0  0  0  0  0
  147.5874  131.8617  153.1168 C   0  0  0  0  0  0  0  0  0  0  0  0
  146.8181  130.7991  152.5910 C   0  0  0  0  0  0  0  0  0  0  0  0
  147.0378  129.4750  153.0246 C   0  0  0  0  0  0  0  0  0  0  0  0
  148.0266  129.1932  153.9896 C   0  0  0  0  0  0  0  0  0  0  0  0
  148.8062  130.2351  154.5276 C   0  0  0  0  0  0  0  0  0  0  0  0
  148.5857  131.5545  154.0903 C   0  0  0  0  0  0  0  0  0  0  0  0
  148.0352  134.3599  159.9789 C   0  0  0  0  0  0  0  0  0  0  0  0
  147.8834  136.4338  163.6205 H   0  0  0  0  0  0  0  0  0  0  0  0
  146.2322  136.6624  163.0160 H   0  0  0  0  0  0  0  0  0  0  0  0
  147.4146  137.9673  162.8813 H   0  0  0  0  0  0  0  0  0  0  0  0
  146.7261  134.3765  163.1475 H   0  0  0  0  0  0  0  0  0  0  0  0
  146.5742  131.9701  162.6786 H   0  0  0  0  0  0  0  0  0  0  0  0
  147.3420  131.0577  160.5066 H   0  0  0  0  0  0  0  0  0  0  0  0
  148.0752  133.5175  156.8110 H   0  0  0  0  0  0  0  0  0  0  0  0
  149.2906  134.1184  157.9450 H   0  0  0  0  0  0  0  0  0  0  0  0
  149.6650  131.4110  156.6393 H   0  0  0  0  0  0  0  0  0  0  0  0
  151.7442  131.8400  157.1732 H   0  0  0  0  0  0  0  0  0  0  0  0
  150.3632  134.1315  155.4129 H   0  0  0  0  0  0  0  0  0  0  0  0
  151.1661  132.6547  154.9350 H   0  0  0  0  0  0  0  0  0  0  0  0
  148.7444  134.7324  153.6861 H   0  0  0  0  0  0  0  0  0  0  0  0
  146.0574  131.0031  151.8519 H   0  0  0  0  0  0  0  0  0  0  0  0
  146.4438  128.6712  152.6150 H   0  0  0  0  0  0  0  0  0  0  0  0
  148.1864  128.1763  154.3166 H   0  0  0  0  0  0  0  0  0  0  0  0
  149.5631  130.0233  155.2682 H   0  0  0  0  0  0  0  0  0  0  0  0
  148.4405  135.0346  159.2398 H   0  0  0  0  0  0  0  0  0  0  0  0
  1  2  1  0  0  0  0
  1 24  1  0  0  0  0
  1 25  1  0  0  0  0
  1 26  1  0  0  0  0
  2  3  2  0  0  0  0
  2  4  1  0  0  0  0
  4 23  1  0  0  0  0
  4  5  2  0  0  0  0
  5  6  1  0  0  0  0
  5 27  1  0  0  0  0
  6  7  2  0  0  0  0
  6 28  1  0  0  0  0
  7  8  1  0  0  0  0
  7 29  1  0  0  0  0
  8  9  1  0  0  0  0
  8 23  2  0  0  0  0
  9 10  1  0  0  0  0
 10 11  1  0  0  0  0
 10 30  1  0  0  0  0
 10 31  1  0  0  0  0
 11 12  1  0  0  0  0
 11 13  1  0  0  0  0
 11 32  1  0  0  0  0
 12 33  1  0  0  0  0
 13 14  1  0  0  0  0
 13 34  1  0  0  0  0
 13 35  1  0  0  0  0
 14 22  1  0  0  0  0
 14 15  1  0  0  0  0
 15 16  2  0  0  0  0
 15 36  1  0  0  0  0
 16 17  1  0  0  0  0
 17 22  2  0  0  0  0
 17 18  1  0  0  0  0
 18 19  2  0  0  0  0
 18 37  1  0  0  0  0
 19 20  1  0  0  0  0
 19 38  1  0  0  0  0
 20 21  2  0  0  0  0
 20 39  1  0  0  0  0
 21 22  1  0  0  0  0
 21 40  1  0  0  0  0
 23 41  1  0  0  0  0
M  END
> <s_m_source_file>
AV-unprocessed.smi

> <i_m_source_file_index>
338

> <i_lp_mmshare_version>
43012

> <i_f3d_flags>
0

> <s_epik_input>
W0NIM11DKD1PKWMxW2NIXVtjSF1bY0hdYyhbY0hdMSlPW0NIMl1bQ0BIXShbT0hdKVtDSDJdbihbY0hdbjIpYyhjMjMpW2NIXVtjSF1bY0hdW2NIXTM=

> <s_epik_cmdline>
J2VwaWtfcHl0aG9uJywgJy1waCcsICc3LjAnLCAnLXRuJywgJzgnLCAnLW1hJywgJzIwMCcsICctbWV0YWxfYmluZGluZycsICctaW1hZScsICc8aW5maWxlLm1hZT4nLCAnLW9tYWUnLCAnPG91dGZpbGUubWFlPic=

> <r_lp_tautomer_probability>
0.99995

> <r_epik_Ionization_Penalty>
0.0640132

> <r_epik_Ionization_Penalty_Charging>
0

> <r_epik_Ionization_Penalty_Neutral>
0.0640132

> <r_epik_State_Penalty>
0.0557325

> <r_epik_Charging_Adjusted_Penalty>
0.0557325

> <i_epik_Tot_Q>
0

> <i_epik_Tot_abs_Q>
0

> <r_epik_Metal_State_Penalty>
5.8435e-05

> <b_epik_Metal_Only>
0

> <s_lp_Force_Field>
OPLS_2005

> <r_lp_Energy>
20.8584

> <b_lp_Chiralities_Consistent>
1

> <s_lp_Variant>
AV-unprocessed.smi:338-1

> <Gold.Version>
5.8.1

> <Gold.Id.Protein>
6NUR|6NUR_protein|mol2

> <Gold.PLP.Fitness>
48.6103

> <Gold.PLP.PLP>
-40.0004

> <Gold.PLP.part.hbond>
-3.0000

> <Gold.PLP.part.metal>
0.0000

> <Gold.PLP.part.buried>
-2.5754

> <Gold.PLP.part.nonpolar>
-35.0707

> <Gold.PLP.part.repulsive>
0.1497

> <Gold.PLP.ligand.clash>
0.0000

> <Gold.PLP.ligand.torsion>
0.5400

> <Gold.PLP.Chemscore.Hbond>
2.2333

> <Gold.PLP.Chemscore.CHOScore>
0.9714

> <Gold.PLP.Chemscore.Metal>
0.0000

> <Gold.Chemscore.Hbonds>
donor molecule, donor type, donor heavy atom, donor atom, acceptor molecule, acceptor atom, score
      P1  H  6896  6907       L1    12  0.96
      P1  H  6931  6943       L1     3  0.61
      P1  H  6934  6947       L1     3  0.57
      L1  C    15    36       P1  7948  0.93

> <Gold.PLP.Chemscore.Internal.Correction>
0.0756

> <Gold.Rescore>
     Score         DG    S(hbond)    S(metal)    S(lipo)     H(rot)  DE(clash)    DE(int)     intcor
     16.22     -17.08       2.11        0.00      91.36       2.40       0.35       0.51       ----

> <Gold.Chemscore.Fitness>
16.2217

> <Gold.Chemscore.DG>
-17.0778

> <Gold.Chemscore.ZeroCoef>
-5.4800

> <Gold.Chemscore.Hbond>
2.1120

> <Gold.Chemscore.Metal>
0.0000

> <Gold.Chemscore.Lipo>
91.3580

> <Gold.Chemscore.Internal_Hbond>
0.0000

> <Gold.Chemscore.DEClash>
0.3471

> <Gold.Chemscore.DEInternal>
0.5091

> <Gold.Chemscore.Rot>
2.4005

> <Gold.Chemscore.Internal.Correction>
   9.000000E+99

> <Gold.Chemscore.Hbonds>
donor molecule, donor type, donor heavy atom, donor atom, acceptor molecule, acceptor atom, score
      P1  H  6896  6907       L1    12  0.83
      P1  H  6931  6943       L1     3  0.08
      P1  H  6934  6947       L1     3  0.42

> <Gold.Chemscore.Hbond.Weighted>
-7.0542

> <Gold.Chemscore.Metal.Weighted>
-0.0000

> <Gold.Chemscore.Lipo.Weighted>
-10.6889

> <Gold.Chemscore.Internal_Hbond.Weighted>
0.0000

> <Gold.Chemscore.DEClash.Weighted>
0.3471

> <Gold.Chemscore.DEInternal.Weighted>
0.5091

> <Gold.Chemscore.Rot.Weighted>
6.1453

> <Gold.Chemscore.Internal.Correction.Weighted>
   9.000000E+99

> <Gold.Protein.RotatedTorsions>
[ 6907 6896 6895 6894 ] final -179.74 input  -60.11 | X-H torsion
[ 7974 7965 7964 7962 ] final  -89.04 input  175.53 | X-H torsion
[ 8008 7997 7996 7995 ] final  110.19 input   59.86 | X-H torsion
[ 10167 10162 10161 10158 ] final -127.29 input  -65.29 | X-H torsion
[ 10718 10713 10712 10709 ] final  -95.56 input   66.30 | X-H torsion
[ 10763 10752 10751 10750 ] final  170.37 input  -60.55 | X-H torsion
[ 11005 11000 10999 10996 ] final  178.44 input  -57.11 | X-H torsion

> <Gold.Protein.ActiveResidues>
 VAL166  LYS551  ARG553  GLY616  TRP617  ASP618  TYR619  PRO620  LYS621  CYS622 
 ASP623  PHE694  ASN695  SER759  ASP760  ASP761  ALA762  ILE779  LEU786  VAL792 
 PHE793  MET794  SER795  GLU796  ALA797  LYS798  CYS799  TRP800  GLU811  SER814 

> <Gold.Protein.RotatedAtoms>
  151.6583  133.3318  159.3167 H   0  0  0  0  0  0  0  0  0  0  0  0  # atno 6907 bound_to 6896
  150.7926  134.6965  159.6535 H   0  0  0  0  0  0  0  0  0  0  0  0  # atno 6908 bound_to 6896
  152.4008  134.6293  160.0123 H   0  0  0  0  0  0  0  0  0  0  0  0  # atno 6909 bound_to 6896
  145.4451  140.9560  143.2053 H   0  0  0  0  0  0  0  0  0  0  0  0  # atno 7974 bound_to 7965
  156.2034  140.3043  155.9576 H   0  0  0  0  0  0  0  0  0  0  0  0  # atno 8008 bound_to 7997
  155.2898  140.0441  157.3039 H   0  0  0  0  0  0  0  0  0  0  0  0  # atno 8009 bound_to 7997
  154.5601  140.2318  155.8357 H   0  0  0  0  0  0  0  0  0  0  0  0  # atno 8010 bound_to 7997
  139.9624  143.5935  152.2440 H   0  0  0  0  0  0  0  0  0  0  0  0  # atno 10167 bound_to 10162
  156.0045  130.5114  150.6095 H   0  0  0  0  0  0  0  0  0  0  0  0  # atno 10718 bound_to 10713
  154.3967  135.2754  155.2122 H   0  0  0  0  0  0  0  0  0  0  0  0  # atno 10763 bound_to 10752
  154.4165  135.6010  153.5987 H   0  0  0  0  0  0  0  0  0  0  0  0  # atno 10764 bound_to 10752
  152.9831  135.5962  154.4229 H   0  0  0  0  0  0  0  0  0  0  0  0  # atno 10765 bound_to 10752
  140.3951  134.6827  157.4530 H   0  0  0  0  0  0  0  0  0  0  0  0  # atno 11005 bound_to 11000
  144.8097  139.5985  143.7035 LP  0  0  0  0  0  0  0  0  0  0  0  0  # atno 17320 bound_to 7965
  146.2535  139.6251  142.9411 LP  0  0  0  0  0  0  0  0  0  0  0  0  # atno 17321 bound_to 7965
  139.6543  144.7662  151.2086 LP  0  0  0  0  0  0  0  0  0  0  0  0  # atno 17342 bound_to 10162
  140.7549  143.6110  150.8605 LP  0  0  0  0  0  0  0  0  0  0  0  0  # atno 17343 bound_to 10162
  157.3930  131.0798  151.1377 LP  0  0  0  0  0  0  0  0  0  0  0  0  # atno 17370 bound_to 10713
  157.2063  130.6417  149.5757 LP  0  0  0  0  0  0  0  0  0  0  0  0  # atno 17371 bound_to 10713
  140.0377  134.6313  155.9021 LP  0  0  0  0  0  0  0  0  0  0  0  0  # atno 17394 bound_to 11000
  141.1877  133.6560  156.5292 LP  0  0  0  0  0  0  0  0  0  0  0  0  # atno 17395 bound_to 11000

$$$$
