AV-unprocessed.smi:1802|AV-procd|sdf|7276|dock3
  -GOLD-   22720 8533D 1   1.00000     0.00000
 Structure written by MMmdl.
 40 41  0  0  0  0  0  0  0  0  3 V2000
  145.7136  136.1518  151.0079 C   0  0  0  0  0  0  0  0  0  0  0  0
  145.1166  134.9735  151.7977 C   0  0  1  0  0  0  0  0  0  0  0  0
  145.0025  133.6873  150.9585 C   0  0  0  0  0  0  0  0  0  0  0  0
  146.3772  133.0388  150.7435 C   0  0  0  0  0  0  0  0  0  0  0  0
  147.0997  132.8191  152.0823 C   0  0  0  0  0  0  0  0  0  0  0  0
  147.2214  134.0902  152.8416 N   0  3  2  0  0  0  0  0  0  0  0  0
  148.0471  133.9361  154.0658 C   0  0  0  0  0  0  0  0  0  0  0  0
  147.2543  133.3255  155.2325 C   0  0  0  0  0  0  0  0  0  0  0  0
  148.1537  132.9752  156.4291 C   0  0  0  0  0  0  0  0  0  0  0  0
  147.4716  133.2105  157.6967 N   0  0  0  0  0  0  0  0  0  0  0  0
  147.9534  133.9277  158.7223 C   0  0  0  0  0  0  0  0  0  0  0  0
  149.0608  134.4632  158.6312 O   0  0  0  0  0  0  0  0  0  0  0  0
  147.1269  133.9736  159.7911 N   0  5  0  0  0  0  0  0  0  0  0  0
  147.2980  134.9195  160.7295 C   0  0  0  0  0  0  0  0  0  0  0  0
  147.4767  136.2141  160.4216 N   0  0  0  0  0  0  0  0  0  0  0  0
  147.6350  137.0240  161.5381 N   0  0  0  0  0  0  0  0  0  0  0  0
  147.5613  136.3169  162.6656 C   0  0  0  0  0  0  0  0  0  0  0  0
  147.2888  134.5989  162.4660 S   0  0  0  0  0  0  0  0  0  0  0  0
  145.8885  134.6991  153.1047 C   0  0  0  0  0  0  0  0  0  0  0  0
  146.7420  135.9595  150.7023 H   0  0  0  0  0  0  0  0  0  0  0  0
  145.7153  137.0625  151.6076 H   0  0  0  0  0  0  0  0  0  0  0  0
  145.1322  136.3548  150.1084 H   0  0  0  0  0  0  0  0  0  0  0  0
  144.1041  135.2713  152.0732 H   0  0  0  0  0  0  0  0  0  0  0  0
  144.3525  132.9792  151.4743 H   0  0  0  0  0  0  0  0  0  0  0  0
  144.5267  133.8950  149.9993 H   0  0  0  0  0  0  0  0  0  0  0  0
  146.2594  132.0866  150.2251 H   0  0  0  0  0  0  0  0  0  0  0  0
  146.9884  133.6654  150.0932 H   0  0  0  0  0  0  0  0  0  0  0  0
  146.5642  132.0839  152.6849 H   0  0  0  0  0  0  0  0  0  0  0  0
  148.0907  132.4077  151.8863 H   0  0  0  0  0  0  0  0  0  0  0  0
  148.9335  133.3399  153.8438 H   0  0  0  0  0  0  0  0  0  0  0  0
  148.4060  134.9163  154.3828 H   0  0  0  0  0  0  0  0  0  0  0  0
  146.4812  134.0247  155.5539 H   0  0  0  0  0  0  0  0  0  0  0  0
  146.7362  132.4255  154.9030 H   0  0  0  0  0  0  0  0  0  0  0  0
  148.4842  131.9368  156.3718 H   0  0  0  0  0  0  0  0  0  0  0  0
  149.0546  133.5890  156.4115 H   0  0  0  0  0  0  0  0  0  0  0  0
  146.5586  132.7945  157.8109 H   0  0  0  0  0  0  0  0  0  0  0  0
  147.6651  136.8102  163.6204 H   0  0  0  0  0  0  0  0  0  0  0  0
  145.9910  135.6309  153.6596 H   0  0  0  0  0  0  0  0  0  0  0  0
  145.3103  134.0259  153.7398 H   0  0  0  0  0  0  0  0  0  0  0  0
  147.7228  134.7292  152.2412 H   0  0  0  0  0  0  0  0  0  0  0  0
  1  2  1  0  0  0  0
  1 20  1  0  0  0  0
  1 21  1  0  0  0  0
  1 22  1  0  0  0  0
  2 19  1  0  0  0  0
  2  3  1  0  0  0  0
  2 23  1  0  0  0  0
  3  4  1  0  0  0  0
  3 24  1  0  0  0  0
  3 25  1  0  0  0  0
  4  5  1  0  0  0  0
  4 26  1  0  0  0  0
  4 27  1  0  0  0  0
  5  6  1  0  0  0  0
  5 28  1  0  0  0  0
  5 29  1  0  0  0  0
  6  7  1  0  0  0  0
  6 19  1  0  0  0  0
  6 40  1  0  0  0  0
  7  8  1  0  0  0  0
  7 30  1  0  0  0  0
  7 31  1  0  0  0  0
  8  9  1  0  0  0  0
  8 32  1  0  0  0  0
  8 33  1  0  0  0  0
  9 10  1  0  0  0  0
  9 34  1  0  0  0  0
  9 35  1  0  0  0  0
 10 11  1  0  0  0  0
 10 36  1  0  0  0  0
 11 12  2  0  0  0  0
 11 13  1  0  0  0  0
 13 14  1  0  0  0  0
 14 18  1  0  0  0  0
 14 15  2  0  0  0  0
 15 16  1  0  0  0  0
 16 17  2  0  0  0  0
 17 18  1  0  0  0  0
 17 37  1  0  0  0  0
 19 38  1  0  0  0  0
 19 39  1  0  0  0  0
M  CHG  1   6   1
M  CHG  1  13  -1
M  END
> <s_m_source_file>
AV-unprocessed.smi

> <i_m_source_file_index>
1802

> <i_lp_mmshare_version>
43012

> <i_f3d_flags>
0

> <s_epik_input>
W0NIM11bQ0BASF0xW0NIMl1bQ0gyXVtDSDJdTihbQ0gyXTEpW0NIMl1bQ0gyXVtDSDJdW05IXUMoPU8pW05IXWMybm5bY0hdczI=

> <s_epik_cmdline>
J2VwaWtfcHl0aG9uJywgJy1waCcsICc3LjAnLCAnLXRuJywgJzgnLCAnLW1hJywgJzIwMCcsICctbWV0YWxfYmluZGluZycsICctaW1hZScsICc8aW5maWxlLm1hZT4nLCAnLW9tYWUnLCAnPG91dGZpbGUubWFlPic=

> <r_lp_tautomer_probability>
1

> <r_epik_Ionization_Penalty>
3.29702

> <r_epik_Ionization_Penalty_Charging>
3.26059

> <r_epik_Ionization_Penalty_Neutral>
0.0364294

> <r_epik_State_Penalty>
3.25788

> <r_epik_Charging_Adjusted_Penalty>
6.51847

> <i_epik_Tot_Q>
0

> <i_epik_Tot_abs_Q>
2

> <r_epik_Metal_State_Penalty>
0.477639

> <b_epik_Metal_Only>
1

> <s_lp_Force_Field>
OPLS_2005

> <r_lp_Energy>
11.8287

> <b_lp_Chiralities_Consistent>
1

> <s_lp_Variant>
AV-unprocessed.smi:1802-6

> <Gold.Version>
5.8.1

> <Gold.Id.Protein>
6NUR|6NUR_protein|mol2

> <Gold.PLP.Fitness>
43.2408

> <Gold.PLP.PLP>
-30.5998

> <Gold.PLP.part.hbond>
-4.0000

> <Gold.PLP.part.metal>
0.0000

> <Gold.PLP.part.buried>
-3.1908

> <Gold.PLP.part.nonpolar>
-23.2562

> <Gold.PLP.part.repulsive>
0.0243

> <Gold.PLP.ligand.clash>
0.0000

> <Gold.PLP.ligand.torsion>
0.9091

> <Gold.PLP.Chemscore.Hbond>
4.8080

> <Gold.PLP.Chemscore.CHOScore>
0.0000

> <Gold.PLP.Chemscore.Metal>
0.0000

> <Gold.Chemscore.Hbonds>
donor molecule, donor type, donor heavy atom, donor atom, acceptor molecule, acceptor atom, score
      L1  H     6    40       P1  7948  2.00
      P1  H  6896  6908       L1    12  1.00
      P1  H  6931  6943       L1    16  1.00
      P1  H  6934  6947       L1    16  0.61

> <Gold.PLP.Chemscore.Internal.Correction>
0.0352

> <Gold.Rescore>
     Score         DG    S(hbond)    S(metal)    S(lipo)     H(rot)  DE(clash)    DE(int)     intcor
     16.31     -18.48       3.28        0.00      59.81       1.94       0.05       2.12       ----

> <Gold.Chemscore.Fitness>
16.3097

> <Gold.Chemscore.DG>
-18.4837

> <Gold.Chemscore.ZeroCoef>
-5.4800

> <Gold.Chemscore.Hbond>
3.2839

> <Gold.Chemscore.Metal>
0.0000

> <Gold.Chemscore.Lipo>
59.8087

> <Gold.Chemscore.Internal_Hbond>
0.0000

> <Gold.Chemscore.DEClash>
0.0536

> <Gold.Chemscore.DEInternal>
2.1203

> <Gold.Chemscore.Rot>
1.9383

> <Gold.Chemscore.Internal.Correction>
   9.000000E+99

> <Gold.Chemscore.Hbonds>
donor molecule, donor type, donor heavy atom, donor atom, acceptor molecule, acceptor atom, score
      L1  H     6    40       P1  7948  0.69
      P1  H  6896  6908       L1    12  1.00
      P1  H  6931  6943       L1    16  0.38
      P1  H  6934  6947       L1    16  0.40

> <Gold.Chemscore.Hbond.Weighted>
-10.9681

> <Gold.Chemscore.Metal.Weighted>
-0.0000

> <Gold.Chemscore.Lipo.Weighted>
-6.9976

> <Gold.Chemscore.Internal_Hbond.Weighted>
0.0000

> <Gold.Chemscore.DEClash.Weighted>
0.0536

> <Gold.Chemscore.DEInternal.Weighted>
2.1203

> <Gold.Chemscore.Rot.Weighted>
4.9620

> <Gold.Chemscore.Internal.Correction.Weighted>
   9.000000E+99

> <Gold.Protein.RotatedTorsions>
[ 6907 6896 6895 6894 ] final  140.22 input  -60.11 | X-H torsion
[ 7974 7965 7964 7962 ] final  -79.09 input  175.53 | X-H torsion
[ 8008 7997 7996 7995 ] final  148.00 input   59.86 | X-H torsion
[ 10167 10162 10161 10158 ] final -142.15 input  -65.29 | X-H torsion
[ 10718 10713 10712 10709 ] final   85.02 input   66.30 | X-H torsion
[ 10763 10752 10751 10750 ] final  135.95 input  -60.55 | X-H torsion
[ 11005 11000 10999 10996 ] final   95.87 input  -57.11 | X-H torsion

> <Gold.Protein.ActiveResidues>
 VAL166  LYS551  ARG553  GLY616  TRP617  ASP618  TYR619  PRO620  LYS621  CYS622 
 ASP623  PHE694  ASN695  SER759  ASP760  ASP761  ALA762  ILE779  LEU786  VAL792 
 PHE793  MET794  SER795  GLU796  ALA797  LYS798  CYS799  TRP800  GLU811  SER814 

> <Gold.Protein.RotatedAtoms>
  152.2457  133.5172  159.5295 H   0  0  0  0  0  0  0  0  0  0  0  0  # atno 6907 bound_to 6896
  150.7078  134.1029  159.3981 H   0  0  0  0  0  0  0  0  0  0  0  0  # atno 6908 bound_to 6896
  151.8949  135.0401  160.0552 H   0  0  0  0  0  0  0  0  0  0  0  0  # atno 6909 bound_to 6896
  145.5778  140.9454  143.1360 H   0  0  0  0  0  0  0  0  0  0  0  0  # atno 7974 bound_to 7965
  156.2806  140.2140  156.5628 H   0  0  0  0  0  0  0  0  0  0  0  0  # atno 8008 bound_to 7997
  154.7199  140.0504  157.0652 H   0  0  0  0  0  0  0  0  0  0  0  0  # atno 8009 bound_to 7997
  155.0492  140.3154  155.4700 H   0  0  0  0  0  0  0  0  0  0  0  0  # atno 8010 bound_to 7997
  139.8116  143.7695  152.2663 H   0  0  0  0  0  0  0  0  0  0  0  0  # atno 10167 bound_to 10162
  157.6908  131.0157  150.2759 H   0  0  0  0  0  0  0  0  0  0  0  0  # atno 10718 bound_to 10713
  153.8485  135.3082  155.3431 H   0  0  0  0  0  0  0  0  0  0  0  0  # atno 10763 bound_to 10752
  154.7901  135.4787  154.0037 H   0  0  0  0  0  0  0  0  0  0  0  0  # atno 10764 bound_to 10752
  153.1532  135.6847  153.8943 H   0  0  0  0  0  0  0  0  0  0  0  0  # atno 10765 bound_to 10752
  139.8785  134.8921  156.4075 H   0  0  0  0  0  0  0  0  0  0  0  0  # atno 11005 bound_to 11000
  144.7408  139.7455  143.7311 LP  0  0  0  0  0  0  0  0  0  0  0  0  # atno 17320 bound_to 7965
  146.1738  139.4900  142.9910 LP  0  0  0  0  0  0  0  0  0  0  0  0  # atno 17321 bound_to 7965
  139.7845  144.7432  151.0041 LP  0  0  0  0  0  0  0  0  0  0  0  0  # atno 17342 bound_to 10162
  140.7817  143.4506  151.0418 LP  0  0  0  0  0  0  0  0  0  0  0  0  # atno 17343 bound_to 10162
  156.3314  130.3801  149.7487 LP  0  0  0  0  0  0  0  0  0  0  0  0  # atno 17370 bound_to 10713
  156.5026  130.8135  151.3138 LP  0  0  0  0  0  0  0  0  0  0  0  0  # atno 17371 bound_to 10713
  140.9224  133.7636  155.9922 LP  0  0  0  0  0  0  0  0  0  0  0  0  # atno 17394 bound_to 11000
  140.8425  134.3050  157.5308 LP  0  0  0  0  0  0  0  0  0  0  0  0  # atno 17395 bound_to 11000

$$$$
