AV-unprocessed.smi:1978|AV-procd|sdf|7994|dock9
  -GOLD-   2272010173D 1   1.00000     0.00000
 Structure written by MMmdl.
 45 46  0  0  0  0  0  0  0  0  2 V2000
  153.2470  141.4085  160.6837 C   0  0  0  0  0  0  0  0  0  0  0  0
  152.4263  142.0320  159.6076 C   0  0  0  0  0  0  0  0  0  0  0  0
  151.5330  141.5240  158.7068 C   0  0  0  0  0  0  0  0  0  0  0  0
  151.1277  142.6725  157.9767 C   0  0  0  0  0  0  0  0  0  0  0  0
  150.1831  142.5694  156.9239 N   0  0  0  0  0  0  0  0  0  0  0  0
  150.0020  141.5338  156.0873 C   0  0  0  0  0  0  0  0  0  0  0  0
  150.6407  140.4813  156.1101 O   0  0  0  0  0  0  0  0  0  0  0  0
  149.0239  141.7825  155.2044 N   0  0  0  0  0  0  0  0  0  0  0  0
  148.5806  140.8503  154.1729 C   0  0  0  0  0  0  0  0  0  0  0  0
  147.2026  141.2360  153.5757 C   0  0  2  0  0  0  0  0  0  0  0  0
  146.8009  142.6886  153.9050 C   0  0  0  0  0  0  0  0  0  0  0  0
  146.1168  140.2677  153.9357 N   0  3  2  0  0  0  0  0  0  0  0  0
  145.7467  140.2857  155.3814 C   0  0  0  0  0  0  0  0  0  0  0  0
  144.4578  139.4925  155.6399 C   0  0  0  0  0  0  0  0  0  0  0  0
  144.6089  138.0481  155.1588 C   0  0  0  0  0  0  0  0  0  0  0  0
  145.0197  138.0380  153.6828 C   0  0  0  0  0  0  0  0  0  0  0  0
  146.3013  138.8636  153.4365 C   0  0  1  0  0  0  0  0  0  0  0  0
  146.6746  138.7792  151.9425 C   0  0  0  0  0  0  0  0  0  0  0  0
  151.7174  143.7817  158.3953 N   0  0  0  0  0  0  0  0  0  0  0  0
  152.5528  143.3769  159.4431 O   0  0  0  0  0  0  0  0  0  0  0  0
  153.0482  140.3390  160.7544 H   0  0  0  0  0  0  0  0  0  0  0  0
  153.0227  141.8582  161.6510 H   0  0  0  0  0  0  0  0  0  0  0  0
  154.3105  141.5427  160.4856 H   0  0  0  0  0  0  0  0  0  0  0  0
  151.2246  140.4957  158.5900 H   0  0  0  0  0  0  0  0  0  0  0  0
  149.5790  143.3680  156.7983 H   0  0  0  0  0  0  0  0  0  0  0  0
  148.5480  142.6718  155.2540 H   0  0  0  0  0  0  0  0  0  0  0  0
  149.3457  140.7967  153.3976 H   0  0  0  0  0  0  0  0  0  0  0  0
  148.5365  139.8620  154.6300 H   0  0  0  0  0  0  0  0  0  0  0  0
  147.2893  141.2347  152.4912 H   0  0  0  0  0  0  0  0  0  0  0  0
  147.4706  143.3991  153.4200 H   0  0  0  0  0  0  0  0  0  0  0  0
  146.8384  142.8982  154.9737 H   0  0  0  0  0  0  0  0  0  0  0  0
  145.7928  142.9082  153.5521 H   0  0  0  0  0  0  0  0  0  0  0  0
  146.5581  139.8672  155.9780 H   0  0  0  0  0  0  0  0  0  0  0  0
  145.5891  141.3032  155.7341 H   0  0  0  0  0  0  0  0  0  0  0  0
  144.2177  139.5071  156.7035 H   0  0  0  0  0  0  0  0  0  0  0  0
  143.6216  139.9687  155.1261 H   0  0  0  0  0  0  0  0  0  0  0  0
  145.3615  137.5334  155.7576 H   0  0  0  0  0  0  0  0  0  0  0  0
  143.6737  137.5042  155.2951 H   0  0  0  0  0  0  0  0  0  0  0  0
  145.1687  137.0068  153.3600 H   0  0  0  0  0  0  0  0  0  0  0  0
  144.2038  138.4345  153.0766 H   0  0  0  0  0  0  0  0  0  0  0  0
  147.1076  138.4005  154.0068 H   0  0  0  0  0  0  0  0  0  0  0  0
  146.6583  137.7459  151.5950 H   0  0  0  0  0  0  0  0  0  0  0  0
  147.6821  139.1468  151.7493 H   0  0  0  0  0  0  0  0  0  0  0  0
  145.9772  139.3446  151.3235 H   0  0  0  0  0  0  0  0  0  0  0  0
  145.3027  140.6101  153.4459 H   0  0  0  0  0  0  0  0  0  0  0  0
  1  2  1  0  0  0  0
  1 21  1  0  0  0  0
  1 22  1  0  0  0  0
  1 23  1  0  0  0  0
  2 20  1  0  0  0  0
  2  3  2  0  0  0  0
  3  4  1  0  0  0  0
  3 24  1  0  0  0  0
  4  5  1  0  0  0  0
  4 19  2  0  0  0  0
  5  6  1  0  0  0  0
  5 25  1  0  0  0  0
  6  7  2  0  0  0  0
  6  8  1  0  0  0  0
  8  9  1  0  0  0  0
  8 26  1  0  0  0  0
  9 10  1  0  0  0  0
  9 27  1  0  0  0  0
  9 28  1  0  0  0  0
 10 11  1  0  0  0  0
 10 12  1  0  0  0  0
 10 29  1  0  0  0  0
 11 30  1  0  0  0  0
 11 31  1  0  0  0  0
 11 32  1  0  0  0  0
 12 17  1  0  0  0  0
 12 13  1  0  0  0  0
 12 45  1  0  0  0  0
 13 14  1  0  0  0  0
 13 33  1  0  0  0  0
 13 34  1  0  0  0  0
 14 15  1  0  0  0  0
 14 35  1  0  0  0  0
 14 36  1  0  0  0  0
 15 16  1  0  0  0  0
 15 37  1  0  0  0  0
 15 38  1  0  0  0  0
 16 17  1  0  0  0  0
 16 39  1  0  0  0  0
 16 40  1  0  0  0  0
 17 18  1  0  0  0  0
 17 41  1  0  0  0  0
 18 42  1  0  0  0  0
 18 43  1  0  0  0  0
 18 44  1  0  0  0  0
 19 20  1  0  0  0  0
M  CHG  1  12   1
M  END
> <s_m_source_file>
AV-unprocessed.smi

> <i_m_source_file_index>
1978

> <i_lp_mmshare_version>
43012

> <i_f3d_flags>
0

> <s_epik_input>
W0NIM11jMVtjSF1jKG5vMSlbTkhdQyg9TylbTkhdW0NIMl1bQ0BIXShbQ0gzXSlOMltDSDJdW0NIMl1bQ0gyXVtDSDJdW0NASF0yW0NIM10=

> <s_epik_cmdline>
J2VwaWtfcHl0aG9uJywgJy1waCcsICc3LjAnLCAnLXRuJywgJzgnLCAnLW1hJywgJzIwMCcsICctbWV0YWxfYmluZGluZycsICctaW1hZScsICc8aW5maWxlLm1hZT4nLCAnLW9tYWUnLCAnPG91dGZpbGUubWFlPic=

> <r_epik_Ionization_Penalty>
0.00265971

> <r_epik_Ionization_Penalty_Charging>
0.00262393

> <r_epik_Ionization_Penalty_Neutral>
3.57846e-05

> <r_epik_State_Penalty>
0.00182566

> <r_epik_Charging_Adjusted_Penalty>
0.00444959

> <i_epik_Tot_Q>
1

> <i_epik_Tot_abs_Q>
1

> <r_epik_Metal_State_Penalty>
0.0216344

> <b_epik_Metal_Only>
0

> <s_lp_Force_Field>
OPLS_2005

> <r_lp_Energy>
19.2971

> <b_lp_Chiralities_Consistent>
1

> <s_lp_Variant>
AV-unprocessed.smi:1978-3

> <Gold.Version>
5.8.1

> <Gold.Id.Protein>
6NUR|6NUR_protein|mol2

> <Gold.PLP.Fitness>
45.7699

> <Gold.PLP.PLP>
-37.1774

> <Gold.PLP.part.hbond>
-3.0755

> <Gold.PLP.part.metal>
0.0000

> <Gold.PLP.part.buried>
-6.3932

> <Gold.PLP.part.nonpolar>
-27.9237

> <Gold.PLP.part.repulsive>
0.3644

> <Gold.PLP.ligand.clash>
0.7352

> <Gold.PLP.ligand.torsion>
1.0330

> <Gold.PLP.Chemscore.Hbond>
3.7600

> <Gold.PLP.Chemscore.CHOScore>
0.0000

> <Gold.PLP.Chemscore.Metal>
0.0000

> <Gold.Chemscore.Hbonds>
donor molecule, donor type, donor heavy atom, donor atom, acceptor molecule, acceptor atom, score
      L1  H     5    25       P1  8028  0.99
      L1  H     8    26       P1  8028  0.72
      L1  H    12    45       P1 10175  2.00

> <Gold.PLP.Chemscore.Internal.Correction>
0.1138

> <Gold.Rescore>
     Score         DG    S(hbond)    S(metal)    S(lipo)     H(rot)  DE(clash)    DE(int)     intcor
     17.01     -18.96       2.77        0.00      69.89       1.55       0.05       1.90       ----

> <Gold.Chemscore.Fitness>
17.0072

> <Gold.Chemscore.DG>
-18.9583

> <Gold.Chemscore.ZeroCoef>
-5.4800

> <Gold.Chemscore.Hbond>
2.7732

> <Gold.Chemscore.Metal>
0.0000

> <Gold.Chemscore.Lipo>
69.8895

> <Gold.Chemscore.Internal_Hbond>
0.0000

> <Gold.Chemscore.DEClash>
0.0486

> <Gold.Chemscore.DEInternal>
1.9024

> <Gold.Chemscore.Rot>
1.5474

> <Gold.Chemscore.Internal.Correction>
   9.000000E+99

> <Gold.Chemscore.Hbonds>
donor molecule, donor type, donor heavy atom, donor atom, acceptor molecule, acceptor atom, score
      L1  H     5    25       P1  8028  0.94
      L1  H     8    26       P1  8028  0.68
      L1  H    12    45       P1 10175  0.93

> <Gold.Chemscore.Hbond.Weighted>
-9.2624

> <Gold.Chemscore.Metal.Weighted>
-0.0000

> <Gold.Chemscore.Lipo.Weighted>
-8.1771

> <Gold.Chemscore.Internal_Hbond.Weighted>
0.0000

> <Gold.Chemscore.DEClash.Weighted>
0.0486

> <Gold.Chemscore.DEInternal.Weighted>
1.9024

> <Gold.Chemscore.Rot.Weighted>
3.9612

> <Gold.Chemscore.Internal.Correction.Weighted>
   9.000000E+99

> <Gold.Protein.RotatedTorsions>
[ 6907 6896 6895 6894 ] final -179.60 input  -60.11 | X-H torsion
[ 7974 7965 7964 7962 ] final   84.56 input  175.53 | X-H torsion
[ 8008 7997 7996 7995 ] final -124.08 input   59.86 | X-H torsion
[ 10167 10162 10161 10158 ] final -115.73 input  -65.29 | X-H torsion
[ 10718 10713 10712 10709 ] final  163.69 input   66.30 | X-H torsion
[ 10763 10752 10751 10750 ] final    5.44 input  -60.55 | X-H torsion
[ 11005 11000 10999 10996 ] final -139.71 input  -57.11 | X-H torsion

> <Gold.Protein.ActiveResidues>
 VAL166  LYS551  ARG553  GLY616  TRP617  ASP618  TYR619  PRO620  LYS621  CYS622 
 ASP623  PHE694  ASN695  SER759  ASP760  ASP761  ALA762  ILE779  LEU786  VAL792 
 PHE793  MET794  SER795  GLU796  ALA797  LYS798  CYS799  TRP800  GLU811  SER814 

> <Gold.Protein.RotatedAtoms>
  151.6561  133.3319  159.3162 H   0  0  0  0  0  0  0  0  0  0  0  0  # atno 6907 bound_to 6896
  150.7936  134.6983  159.6545 H   0  0  0  0  0  0  0  0  0  0  0  0  # atno 6908 bound_to 6896
  152.4020  134.6274  160.0118 H   0  0  0  0  0  0  0  0  0  0  0  0  # atno 6909 bound_to 6896
  145.5971  139.2346  143.2267 H   0  0  0  0  0  0  0  0  0  0  0  0  # atno 7974 bound_to 7965
  155.1910  140.0413  157.2900 H   0  0  0  0  0  0  0  0  0  0  0  0  # atno 8008 bound_to 7997
  154.6139  140.2483  155.7606 H   0  0  0  0  0  0  0  0  0  0  0  0  # atno 8009 bound_to 7997
  156.2395  140.2909  156.0414 H   0  0  0  0  0  0  0  0  0  0  0  0  # atno 8010 bound_to 7997
  140.0869  143.4736  152.1893 H   0  0  0  0  0  0  0  0  0  0  0  0  # atno 10167 bound_to 10162
  157.1050  131.0453  151.2482 H   0  0  0  0  0  0  0  0  0  0  0  0  # atno 10718 bound_to 10713
  153.2594  135.6921  153.7594 H   0  0  0  0  0  0  0  0  0  0  0  0  # atno 10763 bound_to 10752
  153.6659  135.3352  155.3141 H   0  0  0  0  0  0  0  0  0  0  0  0  # atno 10764 bound_to 10752
  154.8425  135.4488  154.1579 H   0  0  0  0  0  0  0  0  0  0  0  0  # atno 10765 bound_to 10752
  140.8493  134.2306  157.4769 H   0  0  0  0  0  0  0  0  0  0  0  0  # atno 11005 bound_to 11000
  146.1604  140.6796  142.9280 LP  0  0  0  0  0  0  0  0  0  0  0  0  # atno 17320 bound_to 7965
  144.7326  140.4716  143.6927 LP  0  0  0  0  0  0  0  0  0  0  0  0  # atno 17321 bound_to 7965
  139.5747  144.7481  151.3796 LP  0  0  0  0  0  0  0  0  0  0  0  0  # atno 17342 bound_to 10162
  140.7049  143.7539  150.7465 LP  0  0  0  0  0  0  0  0  0  0  0  0  # atno 17343 bound_to 10162
  157.4608  130.7652  149.7235 LP  0  0  0  0  0  0  0  0  0  0  0  0  # atno 17370 bound_to 10713
  155.9864  130.3975  150.3213 LP  0  0  0  0  0  0  0  0  0  0  0  0  # atno 17371 bound_to 10713
  139.8704  134.9675  156.4599 LP  0  0  0  0  0  0  0  0  0  0  0  0  # atno 17394 bound_to 11000
  140.8808  133.7919  155.9465 LP  0  0  0  0  0  0  0  0  0  0  0  0  # atno 17395 bound_to 11000

$$$$
