#       Name:                AV-unprocessed.smi:104
#       Creating user name   scv26
#       Creation time:       Thu Mar 26 17:57:15 2020


#       File generated by GOLD software.
#

@<TRIPOS>MOLECULE
AV-unprocessed.smi:104
    58    60     1
SMALL
NO_CHARGES


@<TRIPOS>ATOM
      1 ****        -5.0091   3.0375   2.3332 C.3            1 S1                 0.0000
      2 ****        -4.4867   1.6272   2.0893 C.2            1 S1                 0.0000
      3 ****        -5.2545   0.6780   1.9317 O.2            1 S1                 0.0000
      4 ****        -3.1461   1.5680   2.0730 O.3            1 S1                 0.0000
      5 ****        -2.5031   0.3219   1.8619 C.3            1 S1                 0.0000
      6 ****        -0.9844   0.5407   1.7652 C.3            1 S1                 0.0000
      7 ****        -0.6568   1.1516   0.5226 O.3            1 S1                 0.0000
      8 ****        -0.5551   0.1680  -0.4554 C.3            1 S1                 0.0000
      9 ****         0.4378   0.6130  -1.4854 N.pl3          1 S1                 0.0000
     10 ****         1.6495   1.2590  -1.3482 C.2            1 S1                 0.0000
     11 ****         2.3783   1.7635   0.3378 Br             1 S1                 0.0000
     12 ****         2.3144   1.5083  -2.4420 N.2            1 S1                 0.0000
     13 ****         1.4927   0.9808  -3.4297 C.ar           1 S1                 0.0000
     14 ****         1.5813   0.8890  -4.8416 C.ar           1 S1                 0.0000
     15 ****         2.6178   1.3694  -5.5421 N.pl3          1 S1                 0.0000
     16 ****         0.5738   0.2860  -5.5151 N.ar           1 S1                 0.0000
     17 ****        -0.4707  -0.2042  -4.8395 C.ar           1 S1                 0.0000
     18 ****        -0.6948  -0.1927  -3.5225 N.ar           1 S1                 0.0000
     19 ****         0.3213   0.4183  -2.8452 C.ar           1 S1                 0.0000
     20 ****        -0.1573  -1.1464   0.2440 C.3            1 S1                 0.0000
     21 ****         1.1103  -1.6397  -0.1866 O.3            1 S1                 0.0000
     22 ****         1.4136  -2.9402  -0.0511 C.2            1 S1                 0.0000
     23 ****         2.8064  -3.2667  -0.5723 C.3            1 S1                 0.0000
     24 ****         0.6894  -3.8058   0.4402 O.2            1 S1                 0.0000
     25 ****        -0.2029  -0.7795   1.7302 C.3            1 S1                 0.0000
     26 ****         1.1055  -0.5698   2.2540 O.3            1 S1                 0.0000
     27 ****         1.3570  -0.7441   3.5621 C.2            1 S1                 0.0000
     28 ****         2.8149  -0.4759   3.9102 C.3            1 S1                 0.0000
     29 ****         0.5391  -1.0736   4.4211 O.2            1 S1                 0.0000
     30 ****        -4.2146   3.7742   2.2108 H              1 S1                 0.0000
     31 ****        -5.4061   3.1213   3.3449 H              1 S1                 0.0000
     32 ****        -5.8071   3.2719   1.6284 H              1 S1                 0.0000
     33 ****        -2.7275  -0.3318   2.7059 H              1 S1                 0.0000
     34 ****        -2.8872  -0.1640   0.9639 H              1 S1                 0.0000
     35 ****        -0.6612   1.1726   2.5936 H              1 S1                 0.0000
     36 ****        -1.5035   0.0858  -0.9876 H              1 S1                 0.0000
     37 ****         3.3825   1.8219  -5.0619 H              1 S1                 0.0000
     38 ****         2.6322   1.2786  -6.5476 H              1 S1                 0.0000
     39 ****        -1.2369  -0.6722  -5.4398 H              1 S1                 0.0000
     40 ****        -0.9426  -1.8681   0.0137 H              1 S1                 0.0000
     41 ****         2.9754  -2.7862  -1.5364 H              1 S1                 0.0000
     42 ****         2.9258  -4.3432  -0.6972 H              1 S1                 0.0000
     43 ****         3.5625  -2.9131   0.1287 H              1 S1                 0.0000
     44 ****        -0.7075  -1.5652   2.2947 H              1 S1                 0.0000
     45 ****         3.4731  -1.0393   3.2485 H              1 S1                 0.0000
     46 ****         3.0240  -0.7704   4.9387 H              1 S1                 0.0000
     47 ****         3.0391   0.5852   3.8011 H              1 S1                 0.0000
     48 ****        -6.2433   0.8243   1.9624 LP             1 S1                 0.0000
     49 ****        -4.8895  -0.2393   1.7729 LP             1 S1                 0.0000
     50 ****         0.2159   1.6326   0.6057 LP             1 S1                 0.0000
     51 ****        -1.3732   1.8021   0.2701 LP             1 S1                 0.0000
     52 ****         3.1975   1.9661  -2.5444 LP             1 S1                 0.0000
     53 ****         0.6104   0.2077  -6.5114 LP             1 S1                 0.0000
     54 ****        -1.5059  -0.5830  -3.0869 LP             1 S1                 0.0000
     55 ****        -0.2180  -3.5629   0.7833 LP             1 S1                 0.0000
     56 ****         1.0083  -4.7519   0.4961 LP             1 S1                 0.0000
     57 ****        -0.4142  -1.2376   4.1671 LP             1 S1                 0.0000
     58 ****         0.8279  -1.1773   5.3728 LP             1 S1                 0.0000
@<TRIPOS>BOND
    1    1    2 1     
    2    1   30 1     
    3    1   31 1     
    4    1   32 1     
    5    2    3 2     
    6    2    4 1     
    7    4    5 1     
    8    5    6 1     
    9    5   33 1     
   10    5   34 1     
   11    6   25 1     
   12    6    7 1     
   13    6   35 1     
   14    7    8 1     
   15    8    9 1     
   16    8   20 1     
   17    8   36 1     
   18    9   19 1     
   19    9   10 1     
   20   10   11 1     
   21   10   12 2     
   22   12   13 1     
   23   13   19 ar    
   24   13   14 ar    
   25   14   15 1     
   26   14   16 ar    
   27   15   37 1     
   28   15   38 1     
   29   16   17 ar    
   30   17   18 ar    
   31   17   39 1     
   32   18   19 ar    
   33   20   21 1     
   34   20   25 1     
   35   20   40 1     
   36   21   22 1     
   37   22   23 1     
   38   22   24 2     
   39   23   41 1     
   40   23   42 1     
   41   23   43 1     
   42   25   26 1     
   43   25   44 1     
   44   26   27 1     
   45   27   28 1     
   46   27   29 2     
   47   28   45 1     
   48   28   46 1     
   49   28   47 1     
   50    3   48 1     
   51    3   49 1     
   52    7   50 1     
   53    7   51 1     
   54   12   52 1     
   55   16   53 1     
   56   18   54 1     
   57   24   55 1     
   58   24   56 1     
   59   29   57 1     
   60   29   58 1     
@<TRIPOS>SUBSTRUCTURE
      1 S1             1
@<TRIPOS>SET
LONE_PAIRS      STATIC     ATOMS    <user>   **** ""
11 48 49 50 51 52 53 54 55 56 57 58
DONOR_HYDROGENS      STATIC     ATOMS    <user>   **** ""
2 37 38
ATOM$BLUE        STATIC     ATOMS    COLORGROUP SYSTEM
11 48 49 50 51 52 53 54 55 56 57 58
ATOM$RED        STATIC     ATOMS    COLORGROUP SYSTEM
2 37 38
