AV-unprocessed.smi:707|AV-procd|sdf|3453|dock4
  -GOLD-   22720 0443D 1   1.00000     0.00000
 Structure written by MMmdl.
 44 45  0  0  0  0  0  0  0  0  1 V2000
  144.6963  144.1441  162.4193 C   0  0  0  0  0  0  0  0  0  0  0  0
  143.4100  143.9849  161.6757 C   0  0  0  0  0  0  0  0  0  0  0  0
  142.2722  143.5608  162.2384 N   0  0  0  0  0  0  0  0  0  0  0  0
  141.3353  143.5566  161.2236 N   0  0  0  0  0  0  0  0  0  0  0  0
  142.0022  143.9783  160.1496 C   0  0  0  0  0  0  0  0  0  0  0  0
  143.2965  144.2618  160.3608 N   0  0  0  0  0  0  0  0  0  0  0  0
  144.2841  144.7419  159.4122 C   0  0  0  0  0  0  0  0  0  0  0  0
  145.4260  143.7332  159.2294 C   0  0  0  0  0  0  0  0  0  0  0  0
  146.7179  144.3942  159.3468 N   0  0  0  0  0  0  0  0  0  0  0  0
  147.5252  144.2923  160.4123 C   0  0  0  0  0  0  0  0  0  0  0  0
  147.2524  143.6224  161.4081 O   0  0  0  0  0  0  0  0  0  0  0  0
  148.8453  145.0544  160.3443 C   0  0  0  0  0  0  0  0  0  0  0  0
  149.8987  144.1376  160.5996 O   0  0  0  0  0  0  0  0  0  0  0  0
  151.1703  144.7361  160.8246 C   0  0  2  0  0  0  0  0  0  0  0  0
  151.6997  145.2329  159.4674 C   0  0  0  0  0  0  0  0  0  0  0  0
  152.0322  144.0666  158.5214 C   0  0  0  0  0  0  0  0  0  0  0  0
  153.0131  143.0785  159.1714 C   0  0  0  0  0  0  0  0  0  0  0  0
  152.4818  142.5593  160.5209 C   0  0  1  0  0  0  0  0  0  0  0  0
  153.4629  141.5721  161.1690 C   0  0  0  0  0  0  0  0  0  0  0  0
  152.1644  143.7394  161.4607 C   0  0  0  0  0  0  0  0  0  0  0  0
  144.5552  143.9207  163.4772 H   0  0  0  0  0  0  0  0  0  0  0  0
  145.0615  145.1672  162.3284 H   0  0  0  0  0  0  0  0  0  0  0  0
  145.4485  143.4639  162.0192 H   0  0  0  0  0  0  0  0  0  0  0  0
  141.5324  144.0845  159.1826 H   0  0  0  0  0  0  0  0  0  0  0  0
  143.7910  144.9436  158.4607 H   0  0  0  0  0  0  0  0  0  0  0  0
  144.6737  145.6948  159.7732 H   0  0  0  0  0  0  0  0  0  0  0  0
  145.3488  142.9433  159.9784 H   0  0  0  0  0  0  0  0  0  0  0  0
  145.3589  143.2566  158.2504 H   0  0  0  0  0  0  0  0  0  0  0  0
  147.0230  144.9586  158.5669 H   0  0  0  0  0  0  0  0  0  0  0  0
  148.9668  145.5136  159.3616 H   0  0  0  0  0  0  0  0  0  0  0  0
  148.8247  145.8548  161.0837 H   0  0  0  0  0  0  0  0  0  0  0  0
  151.0481  145.6008  161.4789 H   0  0  0  0  0  0  0  0  0  0  0  0
  150.9693  145.8948  159.0009 H   0  0  0  0  0  0  0  0  0  0  0  0
  152.5973  145.8316  159.6275 H   0  0  0  0  0  0  0  0  0  0  0  0
  151.1153  143.5433  158.2477 H   0  0  0  0  0  0  0  0  0  0  0  0
  152.4553  144.4515  157.5932 H   0  0  0  0  0  0  0  0  0  0  0  0
  153.1919  142.2432  158.4936 H   0  0  0  0  0  0  0  0  0  0  0  0
  153.9769  143.5682  159.3184 H   0  0  0  0  0  0  0  0  0  0  0  0
  151.5531  142.0185  160.3322 H   0  0  0  0  0  0  0  0  0  0  0  0
  154.4192  142.0486  161.3870 H   0  0  0  0  0  0  0  0  0  0  0  0
  153.6551  140.7227  160.5130 H   0  0  0  0  0  0  0  0  0  0  0  0
  153.0642  141.1804  162.1052 H   0  0  0  0  0  0  0  0  0  0  0  0
  153.0892  144.2675  161.6970 H   0  0  0  0  0  0  0  0  0  0  0  0
  151.7868  143.3700  162.4134 H   0  0  0  0  0  0  0  0  0  0  0  0
  1  2  1  0  0  0  0
  1 21  1  0  0  0  0
  1 22  1  0  0  0  0
  1 23  1  0  0  0  0
  2  6  1  0  0  0  0
  2  3  2  0  0  0  0
  3  4  1  0  0  0  0
  4  5  2  0  0  0  0
  5  6  1  0  0  0  0
  5 24  1  0  0  0  0
  6  7  1  0  0  0  0
  7  8  1  0  0  0  0
  7 25  1  0  0  0  0
  7 26  1  0  0  0  0
  8  9  1  0  0  0  0
  8 27  1  0  0  0  0
  8 28  1  0  0  0  0
  9 10  1  0  0  0  0
  9 29  1  0  0  0  0
 10 11  2  0  0  0  0
 10 12  1  0  0  0  0
 12 13  1  0  0  0  0
 12 30  1  0  0  0  0
 12 31  1  0  0  0  0
 13 14  1  0  0  0  0
 14 20  1  0  0  0  0
 14 15  1  0  0  0  0
 14 32  1  0  0  0  0
 15 16  1  0  0  0  0
 15 33  1  0  0  0  0
 15 34  1  0  0  0  0
 16 17  1  0  0  0  0
 16 35  1  0  0  0  0
 16 36  1  0  0  0  0
 17 18  1  0  0  0  0
 17 37  1  0  0  0  0
 17 38  1  0  0  0  0
 18 19  1  0  0  0  0
 18 20  1  0  0  0  0
 18 39  1  0  0  0  0
 19 40  1  0  0  0  0
 19 41  1  0  0  0  0
 19 42  1  0  0  0  0
 20 43  1  0  0  0  0
 20 44  1  0  0  0  0
M  END
> <s_m_source_file>
AV-unprocessed.smi

> <i_m_source_file_index>
707

> <i_lp_mmshare_version>
43012

> <i_f3d_flags>
0

> <s_epik_input>
W0NIM11jMW5uW2NIXW4xW0NIMl1bQ0gyXVtOSF1DKD1PKVtDSDJdT1tDQEBIXTJbQ0gyXVtDSDJdW0NIMl1bQ0BASF0oW0NIM10pW0NIMl0y

> <s_epik_cmdline>
J2VwaWtfcHl0aG9uJywgJy1waCcsICc3LjAnLCAnLXRuJywgJzgnLCAnLW1hJywgJzIwMCcsICctbWV0YWxfYmluZGluZycsICctaW1hZScsICc8aW5maWxlLm1hZT4nLCAnLW9tYWUnLCAnPG91dGZpbGUubWFlPic=

> <r_lp_tautomer_probability>
1

> <r_epik_Ionization_Penalty>
0.000271783

> <r_epik_Ionization_Penalty_Charging>
0

> <r_epik_Ionization_Penalty_Neutral>
0.000271783

> <r_epik_State_Penalty>
-0

> <r_epik_Charging_Adjusted_Penalty>
0

> <i_epik_Tot_Q>
0

> <i_epik_Tot_abs_Q>
0

> <r_epik_Metal_State_Penalty>
-0

> <b_epik_Metal_Only>
0

> <s_lp_Force_Field>
OPLS_2005

> <r_lp_Energy>
13.9065

> <b_lp_Chiralities_Consistent>
1

> <s_lp_Variant>
AV-unprocessed.smi:707-1

> <Gold.Version>
5.8.1

> <Gold.Id.Protein>
6NUR|6NUR_protein|mol2

> <Gold.PLP.Fitness>
52.9852

> <Gold.PLP.PLP>
-48.2269

> <Gold.PLP.part.hbond>
-5.0000

> <Gold.PLP.part.metal>
0.0000

> <Gold.PLP.part.buried>
-5.4314

> <Gold.PLP.part.nonpolar>
-38.3807

> <Gold.PLP.part.repulsive>
0.3382

> <Gold.PLP.ligand.clash>
0.0000

> <Gold.PLP.ligand.torsion>
0.6199

> <Gold.PLP.Chemscore.Hbond>
1.9600

> <Gold.PLP.Chemscore.CHOScore>
0.0000

> <Gold.PLP.Chemscore.Metal>
0.0000

> <Gold.Chemscore.Hbonds>
donor molecule, donor type, donor heavy atom, donor atom, acceptor molecule, acceptor atom, score
      L1  H     9    29       P1  8029  1.00
      P1  H  6933  6944       L1    11  1.00

> <Gold.PLP.Chemscore.Internal.Correction>
0.1181

> <Gold.Rescore>
     Score         DG    S(hbond)    S(metal)    S(lipo)     H(rot)  DE(clash)    DE(int)     intcor
     17.59     -18.14       1.94        0.00     105.82       2.42       0.02       0.53       ----

> <Gold.Chemscore.Fitness>
17.5906

> <Gold.Chemscore.DG>
-18.1402

> <Gold.Chemscore.ZeroCoef>
-5.4800

> <Gold.Chemscore.Hbond>
1.9378

> <Gold.Chemscore.Metal>
0.0000

> <Gold.Chemscore.Lipo>
105.8201

> <Gold.Chemscore.Internal_Hbond>
0.0000

> <Gold.Chemscore.DEClash>
0.0199

> <Gold.Chemscore.DEInternal>
0.5296

> <Gold.Chemscore.Rot>
2.4191

> <Gold.Chemscore.Internal.Correction>
   9.000000E+99

> <Gold.Chemscore.Hbonds>
donor molecule, donor type, donor heavy atom, donor atom, acceptor molecule, acceptor atom, score
      L1  H     9    29       P1  8029  1.00
      P1  H  6933  6944       L1    11  0.50

> <Gold.Chemscore.Hbond.Weighted>
-6.4722

> <Gold.Chemscore.Metal.Weighted>
-0.0000

> <Gold.Chemscore.Lipo.Weighted>
-12.3809

> <Gold.Chemscore.Internal_Hbond.Weighted>
0.0000

> <Gold.Chemscore.DEClash.Weighted>
0.0199

> <Gold.Chemscore.DEInternal.Weighted>
0.5296

> <Gold.Chemscore.Rot.Weighted>
6.1929

> <Gold.Chemscore.Internal.Correction.Weighted>
   9.000000E+99

> <Gold.Protein.RotatedTorsions>
[ 6907 6896 6895 6894 ] final  -54.47 input  -60.11 | X-H torsion
[ 7974 7965 7964 7962 ] final   94.80 input  175.53 | X-H torsion
[ 8008 7997 7996 7995 ] final   82.97 input   59.86 | X-H torsion
[ 10167 10162 10161 10158 ] final  101.37 input  -65.29 | X-H torsion
[ 10718 10713 10712 10709 ] final  102.78 input   66.30 | X-H torsion
[ 10763 10752 10751 10750 ] final  137.20 input  -60.55 | X-H torsion
[ 11005 11000 10999 10996 ] final -160.17 input  -57.11 | X-H torsion

> <Gold.Protein.ActiveResidues>
 VAL166  LYS551  ARG553  GLY616  TRP617  ASP618  TYR619  PRO620  LYS621  CYS622 
 ASP623  PHE694  ASN695  SER759  ASP760  ASP761  ALA762  ILE779  LEU786  VAL792 
 PHE793  MET794  SER795  GLU796  ALA797  LYS798  CYS799  TRP800  GLU811  SER814 

> <Gold.Protein.RotatedAtoms>
  150.8335  134.7598  159.6873 H   0  0  0  0  0  0  0  0  0  0  0  0  # atno 6907 bound_to 6896
  152.4436  134.5538  159.9884 H   0  0  0  0  0  0  0  0  0  0  0  0  # atno 6908 bound_to 6896
  151.5694  133.3354  159.3022 H   0  0  0  0  0  0  0  0  0  0  0  0  # atno 6909 bound_to 6896
  145.4607  139.2287  143.2989 H   0  0  0  0  0  0  0  0  0  0  0  0  # atno 7974 bound_to 7965
  155.9177  140.3423  155.6148 H   0  0  0  0  0  0  0  0  0  0  0  0  # atno 8008 bound_to 7997
  155.7311  140.0795  157.2307 H   0  0  0  0  0  0  0  0  0  0  0  0  # atno 8009 bound_to 7997
  154.4065  140.1588  156.2497 H   0  0  0  0  0  0  0  0  0  0  0  0  # atno 8010 bound_to 7997
  139.7444  144.7002  151.0526 H   0  0  0  0  0  0  0  0  0  0  0  0  # atno 10167 bound_to 10162
  157.6792  131.0762  150.5455 H   0  0  0  0  0  0  0  0  0  0  0  0  # atno 10718 bound_to 10713
  153.8692  135.3058  155.3441 H   0  0  0  0  0  0  0  0  0  0  0  0  # atno 10763 bound_to 10752
  154.7813  135.4834  153.9854 H   0  0  0  0  0  0  0  0  0  0  0  0  # atno 10764 bound_to 10752
  153.1416  135.6825  153.9114 H   0  0  0  0  0  0  0  0  0  0  0  0  # atno 10765 bound_to 10752
  140.6345  134.4616  157.5231 H   0  0  0  0  0  0  0  0  0  0  0  0  # atno 11005 bound_to 11000
  146.2452  140.5376  142.8917 LP  0  0  0  0  0  0  0  0  0  0  0  0  # atno 17320 bound_to 7965
  144.8004  140.6203  143.6482 LP  0  0  0  0  0  0  0  0  0  0  0  0  # atno 17321 bound_to 7965
  140.7790  143.4885  150.9925 LP  0  0  0  0  0  0  0  0  0  0  0  0  # atno 17342 bound_to 10162
  139.8573  143.7360  152.3175 LP  0  0  0  0  0  0  0  0  0  0  0  0  # atno 17343 bound_to 10162
  156.5761  130.4292  149.5998 LP  0  0  0  0  0  0  0  0  0  0  0  0  # atno 17370 bound_to 10713
  156.2700  130.7011  151.1806 LP  0  0  0  0  0  0  0  0  0  0  0  0  # atno 17371 bound_to 10713
  139.9103  134.8359  156.1552 LP  0  0  0  0  0  0  0  0  0  0  0  0  # atno 17394 bound_to 11000
  141.0651  133.6823  156.2029 LP  0  0  0  0  0  0  0  0  0  0  0  0  # atno 17395 bound_to 11000

$$$$
