AV-unprocessed.smi:2255|AV-procd|sdf|9125|dock2
  -GOLD-   2272012333D 1   1.00000     0.00000
 Structure written by MMmdl.
 46 47  0  0  0  0  0  0  0  0  1 V2000
  145.3743  129.4127  152.0792 C   0  0  0  0  0  0  0  0  0  0  0  0
  145.4593  130.8859  151.7398 C   0  0  0  0  0  0  0  0  0  0  0  0
  144.5726  131.4697  150.8139 C   0  0  0  0  0  0  0  0  0  0  0  0
  144.7104  132.8420  150.5390 C   0  0  0  0  0  0  0  0  0  0  0  0
  145.7224  133.5686  151.1954 C   0  0  0  0  0  0  0  0  0  0  0  0
  146.5702  132.9068  152.1121 C   0  0  0  0  0  0  0  0  0  0  0  0
  147.5615  133.7256  152.7150 N   0  0  0  0  0  0  0  0  0  0  0  0
  148.1206  133.5951  153.9311 C   0  0  0  0  0  0  0  0  0  0  0  0
  147.8165  132.7427  154.7661 O   0  0  0  0  0  0  0  0  0  0  0  0
  149.0643  134.5272  154.1294 N   0  0  0  0  0  0  0  0  0  0  0  0
  149.8815  134.6739  155.3327 C   0  0  0  0  0  0  0  0  0  0  0  0
  149.7734  136.0908  155.9354 C   0  0  0  0  0  0  0  0  0  0  0  0
  151.0520  136.9476  155.8373 C   0  0  0  0  0  0  0  0  0  0  0  0
  152.0092  136.6877  156.5680 O   0  0  0  0  0  0  0  0  0  0  0  0
  151.0872  137.9782  154.9565 N   0  0  0  0  0  0  0  0  0  0  0  0
  152.2603  138.8555  154.8530 C   0  0  0  0  0  0  0  0  0  0  0  0
  152.2637  139.9526  155.9374 C   0  0  0  0  0  0  0  0  0  0  0  0
  150.8813  140.5176  156.3322 C   0  0  0  0  0  0  0  0  0  0  0  0
  149.9029  140.7466  155.1629 C   0  0  0  0  0  0  0  0  0  0  0  0
  149.1170  139.4830  154.7537 C   0  0  0  0  0  0  0  0  0  0  0  0
  149.9721  138.3878  154.0901 C   0  0  0  0  0  0  0  0  0  0  0  0
  146.4287  131.5828  152.3706 N   0  0  0  0  0  0  0  0  0  0  0  0
  144.4851  128.9569  151.6431 H   0  0  0  0  0  0  0  0  0  0  0  0
  145.3327  129.2718  153.1596 H   0  0  0  0  0  0  0  0  0  0  0  0
  146.2501  128.8873  151.6971 H   0  0  0  0  0  0  0  0  0  0  0  0
  143.8080  130.8837  150.3252 H   0  0  0  0  0  0  0  0  0  0  0  0
  144.0528  133.3302  149.8351 H   0  0  0  0  0  0  0  0  0  0  0  0
  145.8429  134.6231  150.9940 H   0  0  0  0  0  0  0  0  0  0  0  0
  147.8952  134.4905  152.1481 H   0  0  0  0  0  0  0  0  0  0  0  0
  149.2394  135.1853  153.3842 H   0  0  0  0  0  0  0  0  0  0  0  0
  149.5211  133.9480  156.0617 H   0  0  0  0  0  0  0  0  0  0  0  0
  150.9274  134.4195  155.1513 H   0  0  0  0  0  0  0  0  0  0  0  0
  148.9508  136.6156  155.4490 H   0  0  0  0  0  0  0  0  0  0  0  0
  149.5093  135.9961  156.9886 H   0  0  0  0  0  0  0  0  0  0  0  0
  153.1848  138.2775  154.9024 H   0  0  0  0  0  0  0  0  0  0  0  0
  152.2904  139.3338  153.8737 H   0  0  0  0  0  0  0  0  0  0  0  0
  152.7415  139.5646  156.8378 H   0  0  0  0  0  0  0  0  0  0  0  0
  152.9027  140.7679  155.5968 H   0  0  0  0  0  0  0  0  0  0  0  0
  150.4138  139.8626  157.0685 H   0  0  0  0  0  0  0  0  0  0  0  0
  151.0418  141.4637  156.8501 H   0  0  0  0  0  0  0  0  0  0  0  0
  149.1774  141.4995  155.4726 H   0  0  0  0  0  0  0  0  0  0  0  0
  150.4242  141.1726  154.3050 H   0  0  0  0  0  0  0  0  0  0  0  0
  148.6033  139.0769  155.6256 H   0  0  0  0  0  0  0  0  0  0  0  0
  148.3296  139.7716  154.0567 H   0  0  0  0  0  0  0  0  0  0  0  0
  150.3508  138.7558  153.1359 H   0  0  0  0  0  0  0  0  0  0  0  0
  149.3394  137.5452  153.8149 H   0  0  0  0  0  0  0  0  0  0  0  0
  1  2  1  0  0  0  0
  1 23  1  0  0  0  0
  1 24  1  0  0  0  0
  1 25  1  0  0  0  0
  2 22  1  0  0  0  0
  2  3  2  0  0  0  0
  3  4  1  0  0  0  0
  3 26  1  0  0  0  0
  4  5  2  0  0  0  0
  4 27  1  0  0  0  0
  5  6  1  0  0  0  0
  5 28  1  0  0  0  0
  6  7  1  0  0  0  0
  6 22  2  0  0  0  0
  7  8  1  0  0  0  0
  7 29  1  0  0  0  0
  8  9  2  0  0  0  0
  8 10  1  0  0  0  0
 10 11  1  0  0  0  0
 10 30  1  0  0  0  0
 11 12  1  0  0  0  0
 11 31  1  0  0  0  0
 11 32  1  0  0  0  0
 12 13  1  0  0  0  0
 12 33  1  0  0  0  0
 12 34  1  0  0  0  0
 13 14  2  0  0  0  0
 13 15  1  0  0  0  0
 15 21  1  0  0  0  0
 15 16  1  0  0  0  0
 16 17  1  0  0  0  0
 16 35  1  0  0  0  0
 16 36  1  0  0  0  0
 17 18  1  0  0  0  0
 17 37  1  0  0  0  0
 17 38  1  0  0  0  0
 18 19  1  0  0  0  0
 18 39  1  0  0  0  0
 18 40  1  0  0  0  0
 19 20  1  0  0  0  0
 19 41  1  0  0  0  0
 19 42  1  0  0  0  0
 20 21  1  0  0  0  0
 20 43  1  0  0  0  0
 20 44  1  0  0  0  0
 21 45  1  0  0  0  0
 21 46  1  0  0  0  0
M  END
> <s_m_source_file>
AV-unprocessed.smi

> <i_m_source_file_index>
2255

> <i_lp_mmshare_version>
43012

> <i_f3d_flags>
0

> <s_epik_input>
W0NIM11jMVtjSF1bY0hdW2NIXWMobjEpW05IXUMoPU8pW05IXVtDSDJdW0NIMl1DKD1PKU4yW0NIMl1bQ0gyXVtDSDJdW0NIMl1bQ0gyXVtDSDJdMg==

> <s_epik_cmdline>
J2VwaWtfcHl0aG9uJywgJy1waCcsICc3LjAnLCAnLXRuJywgJzgnLCAnLW1hJywgJzIwMCcsICctbWV0YWxfYmluZGluZycsICctaW1hZScsICc8aW5maWxlLm1hZT4nLCAnLW9tYWUnLCAnPG91dGZpbGUubWFlPic=

> <r_lp_tautomer_probability>
1

> <r_epik_Ionization_Penalty>
7.16633e-05

> <r_epik_Ionization_Penalty_Charging>
0

> <r_epik_Ionization_Penalty_Neutral>
7.16633e-05

> <r_epik_State_Penalty>
-0

> <r_epik_Charging_Adjusted_Penalty>
0

> <i_epik_Tot_Q>
0

> <i_epik_Tot_abs_Q>
0

> <r_epik_Metal_State_Penalty>
-0

> <b_epik_Metal_Only>
0

> <s_lp_Force_Field>
OPLS_2005

> <r_lp_Energy>
24.0956

> <b_lp_Chiralities_Consistent>
1

> <s_lp_Variant>
AV-unprocessed.smi:2255-1

> <Gold.Version>
5.8.1

> <Gold.Id.Protein>
6NUR|6NUR_protein|mol2

> <Gold.PLP.Fitness>
48.5028

> <Gold.PLP.PLP>
-41.6479

> <Gold.PLP.part.hbond>
-3.0000

> <Gold.PLP.part.metal>
0.0000

> <Gold.PLP.part.buried>
-4.2630

> <Gold.PLP.part.nonpolar>
-35.2807

> <Gold.PLP.part.repulsive>
0.1815

> <Gold.PLP.ligand.clash>
0.0000

> <Gold.PLP.ligand.torsion>
0.7028

> <Gold.PLP.Chemscore.Hbond>
2.7500

> <Gold.PLP.Chemscore.CHOScore>
0.0000

> <Gold.PLP.Chemscore.Metal>
0.0000

> <Gold.Chemscore.Hbonds>
donor molecule, donor type, donor heavy atom, donor atom, acceptor molecule, acceptor atom, score
      L1  H     7    29       P1  7948  1.00
      L1  H    10    30       P1  7948  0.90
      P1  H 10752 10765       L1    14  0.38

> <Gold.PLP.Chemscore.Internal.Correction>
0.0105

> <Gold.Rescore>
     Score         DG    S(hbond)    S(metal)    S(lipo)     H(rot)  DE(clash)    DE(int)     intcor
     17.74     -19.47       2.54        0.00      79.71       1.49       0.10       1.63       ----

> <Gold.Chemscore.Fitness>
17.7396

> <Gold.Chemscore.DG>
-19.4700

> <Gold.Chemscore.ZeroCoef>
-5.4800

> <Gold.Chemscore.Hbond>
2.5420

> <Gold.Chemscore.Metal>
0.0000

> <Gold.Chemscore.Lipo>
79.7093

> <Gold.Chemscore.Internal_Hbond>
0.0000

> <Gold.Chemscore.DEClash>
0.0960

> <Gold.Chemscore.DEInternal>
1.6344

> <Gold.Chemscore.Rot>
1.4946

> <Gold.Chemscore.Internal.Correction>
   9.000000E+99

> <Gold.Chemscore.Hbonds>
donor molecule, donor type, donor heavy atom, donor atom, acceptor molecule, acceptor atom, score
      L1  H     7    29       P1  7948  0.28
      L1  H    10    30       P1  7948  0.18
      P1  H 10752 10765       L1    14  0.06

> <Gold.Chemscore.Hbond.Weighted>
-8.4901

> <Gold.Chemscore.Metal.Weighted>
-0.0000

> <Gold.Chemscore.Lipo.Weighted>
-9.3260

> <Gold.Chemscore.Internal_Hbond.Weighted>
0.0000

> <Gold.Chemscore.DEClash.Weighted>
0.0960

> <Gold.Chemscore.DEInternal.Weighted>
1.6344

> <Gold.Chemscore.Rot.Weighted>
3.8261

> <Gold.Chemscore.Internal.Correction.Weighted>
   9.000000E+99

> <Gold.Protein.RotatedTorsions>
[ 6907 6896 6895 6894 ] final   45.60 input  -60.11 | X-H torsion
[ 7974 7965 7964 7962 ] final  177.14 input  175.53 | X-H torsion
[ 8008 7997 7996 7995 ] final  -24.00 input   59.86 | X-H torsion
[ 10167 10162 10161 10158 ] final  -89.20 input  -65.29 | X-H torsion
[ 10718 10713 10712 10709 ] final -145.49 input   66.30 | X-H torsion
[ 10763 10752 10751 10750 ] final -150.53 input  -60.55 | X-H torsion
[ 11005 11000 10999 10996 ] final   84.63 input  -57.11 | X-H torsion

> <Gold.Protein.ActiveResidues>
 VAL166  LYS551  ARG553  GLY616  TRP617  ASP618  TYR619  PRO620  LYS621  CYS622 
 ASP623  PHE694  ASN695  SER759  ASP760  ASP761  ALA762  ILE779  LEU786  VAL792 
 PHE793  MET794  SER795  GLU796  ALA797  LYS798  CYS799  TRP800  GLU811  SER814 

> <Gold.Protein.RotatedAtoms>
  152.2465  134.8176  160.0452 H   0  0  0  0  0  0  0  0  0  0  0  0  # atno 6907 bound_to 6896
  151.8872  133.3503  159.3794 H   0  0  0  0  0  0  0  0  0  0  0  0  # atno 6908 bound_to 6896
  150.7070  134.4886  159.5549 H   0  0  0  0  0  0  0  0  0  0  0  0  # atno 6909 bound_to 6896
  144.7173  140.0202  143.6440 H   0  0  0  0  0  0  0  0  0  0  0  0  # atno 7974 bound_to 7965
  154.4553  140.1965  156.0397 H   0  0  0  0  0  0  0  0  0  0  0  0  # atno 8008 bound_to 7997
  156.0734  140.3281  155.7575 H   0  0  0  0  0  0  0  0  0  0  0  0  # atno 8009 bound_to 7997
  155.5227  140.0571  157.2894 H   0  0  0  0  0  0  0  0  0  0  0  0  # atno 8010 bound_to 7997
  140.3672  143.2812  151.9544 H   0  0  0  0  0  0  0  0  0  0  0  0  # atno 10167 bound_to 10162
  156.3831  130.7847  151.2042 H   0  0  0  0  0  0  0  0  0  0  0  0  # atno 10718 bound_to 10713
  154.8113  135.3282  154.7297 H   0  0  0  0  0  0  0  0  0  0  0  0  # atno 10763 bound_to 10752
  153.7946  135.6908  153.4870 H   0  0  0  0  0  0  0  0  0  0  0  0  # atno 10764 bound_to 10752
  153.1894  135.4556  155.0076 H   0  0  0  0  0  0  0  0  0  0  0  0  # atno 10765 bound_to 10752
  139.8995  134.8230  156.2471 H   0  0  0  0  0  0  0  0  0  0  0  0  # atno 11005 bound_to 11000
  146.0187  139.3232  143.0826 LP  0  0  0  0  0  0  0  0  0  0  0  0  # atno 17320 bound_to 7965
  145.8595  140.9483  143.0707 LP  0  0  0  0  0  0  0  0  0  0  0  0  # atno 17321 bound_to 7965
  139.4807  144.5940  151.7723 LP  0  0  0  0  0  0  0  0  0  0  0  0  # atno 17342 bound_to 10162
  140.5069  144.1084  150.5985 LP  0  0  0  0  0  0  0  0  0  0  0  0  # atno 17343 bound_to 10162
  157.7494  131.0338  150.4288 LP  0  0  0  0  0  0  0  0  0  0  0  0  # atno 17370 bound_to 10713
  156.4536  130.4017  149.6620 LP  0  0  0  0  0  0  0  0  0  0  0  0  # atno 17371 bound_to 10713
  141.0247  133.7021  156.1328 LP  0  0  0  0  0  0  0  0  0  0  0  0  # atno 17394 bound_to 11000
  140.7183  134.4387  157.5577 LP  0  0  0  0  0  0  0  0  0  0  0  0  # atno 17395 bound_to 11000

$$$$
