AV-unprocessed.smi:50|AV-procd|sdf|493|dock6
  -GOLD-   2262016363D 1   1.00000     0.00000
 Structure written by MMmdl.
 43 44  0  0  0  0  0  0  0  0  1 V2000
  150.9424  142.3505  157.5684 C   0  0  0  0  0  0  0  0  0  0  0  0
  150.3876  141.4905  156.4193 C   0  0  0  0  0  0  0  0  0  0  0  0
  149.0393  140.8619  156.8236 C   0  0  0  0  0  0  0  0  0  0  0  0
  151.4437  140.4795  155.8914 C   0  0  2  0  0  0  0  0  0  0  0  0
  150.9669  139.8136  154.6782 N   0  0  0  0  0  0  0  0  0  0  0  0
  151.9570  139.4886  156.9543 C   0  0  0  0  0  0  0  0  0  0  0  0
  152.9946  138.8377  156.8279 O   0  0  0  0  0  0  0  0  0  0  0  0
  151.1424  139.4447  158.0259 O   0  0  0  0  0  0  0  0  0  0  0  0
  151.2122  138.3453  158.9181 C   0  0  0  0  0  0  0  0  0  0  0  0
  149.8284  137.7011  159.0340 C   0  0  0  0  0  0  0  0  0  0  0  0
  149.9702  136.4207  159.6268 O   0  0  0  0  0  0  0  0  0  0  0  0
  148.7746  135.7178  159.7017 C   0  0  0  0  0  0  0  0  0  0  0  0
  148.7936  134.7107  158.6592 N   0  0  0  0  0  0  0  0  0  0  0  0
  148.7726  133.3442  158.7864 C   0  0  0  0  0  0  0  0  0  0  0  0
  148.8039  132.7064  157.6493 N   0  0  0  0  0  0  0  0  0  0  0  0
  148.8527  133.7167  156.6928 C   0  0  0  0  0  0  0  0  0  0  0  0
  148.9049  133.6335  155.2607 C   0  0  0  0  0  0  0  0  0  0  0  0
  148.9170  132.6265  154.5561 O   0  0  0  0  0  0  0  0  0  0  0  0
  148.9455  134.8981  154.6596 N   0  0  0  0  0  0  0  0  0  0  0  0
  148.9366  136.0999  155.3641 C   0  0  0  0  0  0  0  0  0  0  0  0
  148.9809  137.2241  154.6371 N   0  0  0  0  0  0  0  0  0  0  0  0
  148.8880  136.1754  156.6828 N   0  0  0  0  0  0  0  0  0  0  0  0
  148.8468  134.9556  157.3039 C   0  0  0  0  0  0  0  0  0  0  0  0
  152.3043  141.0728  155.5808 H   0  0  0  0  0  0  0  0  0  0  0  0
  148.9842  134.9227  153.6512 H   0  0  0  0  0  0  0  0  0  0  0  0
  151.1469  141.7528  158.4571 H   0  0  0  0  0  0  0  0  0  0  0  0
  150.2334  143.1287  157.8523 H   0  0  0  0  0  0  0  0  0  0  0  0
  151.8703  142.8440  157.2783 H   0  0  0  0  0  0  0  0  0  0  0  0
  150.1773  142.1804  155.6005 H   0  0  0  0  0  0  0  0  0  0  0  0
  149.1297  140.2418  157.7158 H   0  0  0  0  0  0  0  0  0  0  0  0
  148.6317  140.2428  156.0243 H   0  0  0  0  0  0  0  0  0  0  0  0
  148.3027  141.6352  157.0427 H   0  0  0  0  0  0  0  0  0  0  0  0
  151.3987  138.9086  154.5579 H   0  0  0  0  0  0  0  0  0  0  0  0
  149.9709  139.6503  154.7145 H   0  0  0  0  0  0  0  0  0  0  0  0
  151.9368  137.6155  158.5542 H   0  0  0  0  0  0  0  0  0  0  0  0
  151.5505  138.6879  159.8971 H   0  0  0  0  0  0  0  0  0  0  0  0
  149.1753  138.3264  159.6448 H   0  0  0  0  0  0  0  0  0  0  0  0
  149.3747  137.6118  158.0457 H   0  0  0  0  0  0  0  0  0  0  0  0
  148.6761  135.2157  160.6660 H   0  0  0  0  0  0  0  0  0  0  0  0
  147.9196  136.3794  159.5507 H   0  0  0  0  0  0  0  0  0  0  0  0
  148.7355  132.8383  159.7402 H   0  0  0  0  0  0  0  0  0  0  0  0
  149.0182  137.1680  153.6295 H   0  0  0  0  0  0  0  0  0  0  0  0
  148.9770  138.1255  155.0920 H   0  0  0  0  0  0  0  0  0  0  0  0
  1  2  1  0  0  0  0
  1 26  1  0  0  0  0
  1 27  1  0  0  0  0
  1 28  1  0  0  0  0
  2  3  1  0  0  0  0
  2  4  1  0  0  0  0
  2 29  1  0  0  0  0
  3 30  1  0  0  0  0
  3 31  1  0  0  0  0
  3 32  1  0  0  0  0
  4 24  1  0  0  0  0
  4  5  1  0  0  0  0
  4  6  1  0  0  0  0
  5 33  1  0  0  0  0
  5 34  1  0  0  0  0
  6  7  2  0  0  0  0
  6  8  1  0  0  0  0
  8  9  1  0  0  0  0
  9 10  1  0  0  0  0
  9 35  1  0  0  0  0
  9 36  1  0  0  0  0
 10 11  1  0  0  0  0
 10 37  1  0  0  0  0
 10 38  1  0  0  0  0
 11 12  1  0  0  0  0
 12 13  1  0  0  0  0
 12 39  1  0  0  0  0
 12 40  1  0  0  0  0
 13 23  1  0  0  0  0
 13 14  1  0  0  0  0
 14 15  2  0  0  0  0
 14 41  1  0  0  0  0
 15 16  1  0  0  0  0
 16 23  2  0  0  0  0
 16 17  1  0  0  0  0
 17 18  2  0  0  0  0
 17 19  1  0  0  0  0
 19 25  1  0  0  0  0
 19 20  1  0  0  0  0
 20 21  1  0  0  0  0
 20 22  2  0  0  0  0
 21 42  1  0  0  0  0
 21 43  1  0  0  0  0
 22 23  1  0  0  0  0
M  END
> <s_m_source_file>
AV-unprocessed.smi

> <i_m_source_file_index>
50

> <i_lp_mmshare_version>
43012

> <i_f3d_flags>
0

> <s_epik_input>
W0NIM11bQ0hdKFtDSDNdKVtDQEhdKFtOSDJdKUMoPU8pT1tDSDJdW0NIMl1PW0NIMl1uKFtjSF1uMSljKGMxMiluYyhbTkgyXSlbbkhdYzI9Tw==

> <s_epik_cmdline>
J2VwaWtfcHl0aG9uJywgJy1waCcsICc3LjAnLCAnLXRuJywgJzgnLCAnLW1hJywgJzIwMCcsICctbWV0YWxfYmluZGluZycsICctaW1hZScsICc8aW5maWxlLm1hZT4nLCAnLW9tYWUnLCAnPG91dGZpbGUubWFlPic=

> <r_lp_tautomer_probability>
0.99994

> <r_epik_Ionization_Penalty>
0.704142

> <r_epik_Ionization_Penalty_Charging>
0.00148332

> <r_epik_Ionization_Penalty_Neutral>
0.702658

> <r_epik_State_Penalty>
0.725442

> <r_epik_Charging_Adjusted_Penalty>
0.726926

> <i_epik_Tot_Q>
0

> <i_epik_Tot_abs_Q>
0

> <r_epik_Metal_State_Penalty>
1.04557

> <b_epik_Metal_Only>
0

> <s_epik_Chemistry_Notes>
This compound has an ester and may undergo hydrolysis at high or low pH. This compound contains an acetal/aminal-like group ( X-CH(R)-Y where X, Y are N, S, or O) that may be acid/base labile, releasing an aldehyde.

> <s_lp_Force_Field>
OPLS_2005

> <r_lp_Energy>
11.3413

> <b_lp_Chiralities_Consistent>
1

> <s_lp_Variant>
AV-unprocessed.smi:50-3

> <Gold.Version>
5.8.1

> <Gold.Id.Protein>
6NUR|6NUR_protein|mol2

> <Gold.PLP.Fitness>
38.3297

> <Gold.PLP.PLP>
-26.1628

> <Gold.PLP.part.hbond>
-5.0000

> <Gold.PLP.part.metal>
0.0000

> <Gold.PLP.part.buried>
-5.0926

> <Gold.PLP.part.nonpolar>
-16.4895

> <Gold.PLP.part.repulsive>
0.1121

> <Gold.PLP.ligand.clash>
0.0000

> <Gold.PLP.ligand.torsion>
1.3619

> <Gold.PLP.Chemscore.Hbond>
4.8400

> <Gold.PLP.Chemscore.CHOScore>
0.0000

> <Gold.PLP.Chemscore.Metal>
0.0000

> <Gold.Chemscore.Hbonds>
donor molecule, donor type, donor heavy atom, donor atom, acceptor molecule, acceptor atom, score
      L1  H    19    25       P1  7948  0.57
      L1  H    21    42       P1  7948  1.00
      P1  H  6896  6908       L1    11  0.65
      P1  H  7989  7998       L1     5  1.00
      P1  H  7997  8008       L1     7  1.00

> <Gold.PLP.Chemscore.Internal.Correction>
0.3707

> <Gold.Rescore>
     Score         DG    S(hbond)    S(metal)    S(lipo)     H(rot)  DE(clash)    DE(int)     intcor
      6.79     -10.11       3.81        0.00      34.86       4.75       0.01       3.31       ----

> <Gold.Chemscore.Fitness>
6.7890

> <Gold.Chemscore.DG>
-10.1127

> <Gold.Chemscore.ZeroCoef>
-5.4800

> <Gold.Chemscore.Hbond>
3.8068

> <Gold.Chemscore.Metal>
0.0000

> <Gold.Chemscore.Lipo>
34.8568

> <Gold.Chemscore.Internal_Hbond>
0.0000

> <Gold.Chemscore.DEClash>
0.0149

> <Gold.Chemscore.DEInternal>
3.3088

> <Gold.Chemscore.Rot>
4.7501

> <Gold.Chemscore.Internal.Correction>
   9.000000E+99

> <Gold.Chemscore.Hbonds>
donor molecule, donor type, donor heavy atom, donor atom, acceptor molecule, acceptor atom, score
      L1  H    19    25       P1  7948  0.22
      L1  H    21    42       P1  7948  0.95
      P1  H  6896  6908       L1    11  0.06
      P1  H  7989  7998       L1     5  0.15
      P1  H  7997  8008       L1     7  0.69

> <Gold.Chemscore.Hbond.Weighted>
-12.7148

> <Gold.Chemscore.Metal.Weighted>
-0.0000

> <Gold.Chemscore.Lipo.Weighted>
-4.0782

> <Gold.Chemscore.Internal_Hbond.Weighted>
0.0000

> <Gold.Chemscore.DEClash.Weighted>
0.0149

> <Gold.Chemscore.DEInternal.Weighted>
3.3088

> <Gold.Chemscore.Rot.Weighted>
12.1603

> <Gold.Chemscore.Internal.Correction.Weighted>
   9.000000E+99

> <Gold.Protein.RotatedTorsions>
[ 6907 6896 6895 6894 ] final -159.97 input  -60.11 | X-H torsion
[ 7974 7965 7964 7962 ] final   91.69 input  175.53 | X-H torsion
[ 8008 7997 7996 7995 ] final  -71.95 input   59.86 | X-H torsion
[ 10167 10162 10161 10158 ] final -131.52 input  -65.29 | X-H torsion
[ 10718 10713 10712 10709 ] final -112.00 input   66.30 | X-H torsion
[ 10763 10752 10751 10750 ] final  126.06 input  -60.55 | X-H torsion
[ 11005 11000 10999 10996 ] final -108.98 input  -57.11 | X-H torsion

> <Gold.Protein.ActiveResidues>
 VAL166  LYS551  ARG553  GLY616  TRP617  ASP618  TYR619  PRO620  LYS621  CYS622 
 ASP623  PHE694  ASN695  SER759  ASP760  ASP761  ALA762  ILE779  LEU786  VAL792 
 PHE793  MET794  SER795  GLU796  ALA797  LYS798  CYS799  TRP800  GLU811  SER814 

> <Gold.Protein.RotatedAtoms>
  151.3418  133.3959  159.2671 H   0  0  0  0  0  0  0  0  0  0  0  0  # atno 6907 bound_to 6896
  150.9872  134.9215  159.7889 H   0  0  0  0  0  0  0  0  0  0  0  0  # atno 6908 bound_to 6896
  152.5236  134.3383  159.9260 H   0  0  0  0  0  0  0  0  0  0  0  0  # atno 6909 bound_to 6896
  145.5023  139.2276  143.2770 H   0  0  0  0  0  0  0  0  0  0  0  0  # atno 7974 bound_to 7965
  154.5128  140.0806  156.8022 H   0  0  0  0  0  0  0  0  0  0  0  0  # atno 8008 bound_to 7997
  155.3748  140.3425  155.4226 H   0  0  0  0  0  0  0  0  0  0  0  0  # atno 8009 bound_to 7997
  156.1592  140.1583  156.8627 H   0  0  0  0  0  0  0  0  0  0  0  0  # atno 8010 bound_to 7997
  139.9181  143.6415  152.2560 H   0  0  0  0  0  0  0  0  0  0  0  0  # atno 10167 bound_to 10162
  156.0680  130.5897  150.8449 H   0  0  0  0  0  0  0  0  0  0  0  0  # atno 10718 bound_to 10713
  153.6873  135.3304  155.3193 H   0  0  0  0  0  0  0  0  0  0  0  0  # atno 10763 bound_to 10752
  154.8449  135.4423  154.1544 H   0  0  0  0  0  0  0  0  0  0  0  0  # atno 10764 bound_to 10752
  153.2577  135.6988  153.7689 H   0  0  0  0  0  0  0  0  0  0  0  0  # atno 10765 bound_to 10752
  141.0872  133.9118  157.2158 H   0  0  0  0  0  0  0  0  0  0  0  0  # atno 11005 bound_to 11000
  146.2218  140.5825  142.9014 LP  0  0  0  0  0  0  0  0  0  0  0  0  # atno 17320 bound_to 7965
  144.7773  140.5766  143.6629 LP  0  0  0  0  0  0  0  0  0  0  0  0  # atno 17321 bound_to 7965
  139.6885  144.7649  151.1481 LP  0  0  0  0  0  0  0  0  0  0  0  0  # atno 17342 bound_to 10162
  140.7669  143.5623  150.9086 LP  0  0  0  0  0  0  0  0  0  0  0  0  # atno 17343 bound_to 10162
  157.5733  131.0946  150.9384 LP  0  0  0  0  0  0  0  0  0  0  0  0  # atno 17370 bound_to 10713
  156.9595  130.5450  149.5285 LP  0  0  0  0  0  0  0  0  0  0  0  0  # atno 17371 bound_to 10713
  139.9692  135.0133  156.9468 LP  0  0  0  0  0  0  0  0  0  0  0  0  # atno 17394 bound_to 11000
  140.5335  134.0790  155.7322 LP  0  0  0  0  0  0  0  0  0  0  0  0  # atno 17395 bound_to 11000

$$$$
