AV-unprocessed.smi:685|AV-procd|sdf|3334|dock10
  -GOLD-   22720 0303D 1   1.00000     0.00000
 Structure written by MMmdl.
 50 51  0  0  0  0  0  0  0  0  1 V2000
  153.2242  137.8114  156.3374 C   0  0  0  0  0  0  0  0  0  0  0  0
  152.2457  138.9328  156.1324 C   0  0  0  0  0  0  0  0  0  0  0  0
  152.4208  140.0735  156.7786 N   0  0  0  0  0  0  0  0  0  0  0  0
  151.3918  140.8515  156.3876 N   0  0  0  0  0  0  0  0  0  0  0  0
  151.2766  142.1969  156.9157 C   0  0  0  0  0  0  0  0  0  0  0  0
  150.5628  140.2003  155.4951 C   0  0  0  0  0  0  0  0  0  0  0  0
  149.3461  140.8521  154.9210 C   0  0  0  0  0  0  0  0  0  0  0  0
  151.0860  138.9493  155.3035 C   0  0  0  0  0  0  0  0  0  0  0  0
  150.5781  137.8302  154.4309 C   0  0  0  0  0  0  0  0  0  0  0  0
  150.2660  136.5498  155.2350 C   0  0  1  0  0  0  0  0  0  0  0  0
  149.1984  136.7725  156.3182 C   0  0  0  0  0  0  0  0  0  0  0  0
  149.8185  135.4871  154.3389 N   0  0  0  0  0  0  0  0  0  0  0  0
  149.7910  134.1790  154.6392 C   0  0  0  0  0  0  0  0  0  0  0  0
  150.1461  133.7295  155.7293 O   0  0  0  0  0  0  0  0  0  0  0  0
  149.2820  133.2406  153.5411 C   0  0  0  0  0  0  0  0  0  0  0  0
  148.1464  132.3182  154.0237 C   0  0  0  0  0  0  0  0  0  0  0  0
  147.4132  131.6052  152.8734 C   0  0  0  0  0  0  0  0  0  0  0  0
  146.6382  132.5601  151.9626 C   0  0  0  0  0  0  0  0  0  0  0  0
  145.6363  131.6715  151.2190 C   0  0  0  0  0  0  0  0  0  0  0  0
  145.4173  130.4373  152.1069 C   0  0  0  0  0  0  0  0  0  0  0  0
  146.3383  130.6094  153.3208 C   0  0  0  0  0  0  0  0  0  0  0  0
  153.4556  137.3151  155.3947 H   0  0  0  0  0  0  0  0  0  0  0  0
  152.8181  137.0610  157.0159 H   0  0  0  0  0  0  0  0  0  0  0  0
  154.1642  138.1681  156.7601 H   0  0  0  0  0  0  0  0  0  0  0  0
  150.3534  142.2873  157.4886 H   0  0  0  0  0  0  0  0  0  0  0  0
  151.2582  142.9130  156.0937 H   0  0  0  0  0  0  0  0  0  0  0  0
  152.1204  142.4299  157.5670 H   0  0  0  0  0  0  0  0  0  0  0  0
  148.7586  140.1491  154.3312 H   0  0  0  0  0  0  0  0  0  0  0  0
  149.6231  141.6841  154.2734 H   0  0  0  0  0  0  0  0  0  0  0  0
  148.7026  141.2374  155.7123 H   0  0  0  0  0  0  0  0  0  0  0  0
  149.6890  138.1365  153.8792 H   0  0  0  0  0  0  0  0  0  0  0  0
  151.3198  137.6030  153.6645 H   0  0  0  0  0  0  0  0  0  0  0  0
  151.1779  136.2157  155.7335 H   0  0  0  0  0  0  0  0  0  0  0  0
  149.5237  137.5076  157.0545 H   0  0  0  0  0  0  0  0  0  0  0  0
  148.9882  135.8480  156.8570 H   0  0  0  0  0  0  0  0  0  0  0  0
  148.2620  137.1270  155.8860 H   0  0  0  0  0  0  0  0  0  0  0  0
  149.5055  135.7681  153.4210 H   0  0  0  0  0  0  0  0  0  0  0  0
  148.9369  133.8497  152.7052 H   0  0  0  0  0  0  0  0  0  0  0  0
  150.1129  132.6402  153.1682 H   0  0  0  0  0  0  0  0  0  0  0  0
  148.5421  131.5793  154.7223 H   0  0  0  0  0  0  0  0  0  0  0  0
  147.4174  132.9056  154.5840 H   0  0  0  0  0  0  0  0  0  0  0  0
  148.1430  131.0736  152.2603 H   0  0  0  0  0  0  0  0  0  0  0  0
  146.0961  133.2903  152.5658 H   0  0  0  0  0  0  0  0  0  0  0  0
  147.2894  133.1113  151.2836 H   0  0  0  0  0  0  0  0  0  0  0  0
  144.7052  132.2016  151.0158 H   0  0  0  0  0  0  0  0  0  0  0  0
  146.0527  131.3636  150.2590 H   0  0  0  0  0  0  0  0  0  0  0  0
  144.3757  130.3374  152.4138 H   0  0  0  0  0  0  0  0  0  0  0  0
  145.6821  129.5342  151.5554 H   0  0  0  0  0  0  0  0  0  0  0  0
  146.7593  129.6610  153.6557 H   0  0  0  0  0  0  0  0  0  0  0  0
  145.7673  131.0273  154.1512 H   0  0  0  0  0  0  0  0  0  0  0  0
  1  2  1  0  0  0  0
  1 22  1  0  0  0  0
  1 23  1  0  0  0  0
  1 24  1  0  0  0  0
  2  8  1  0  0  0  0
  2  3  2  0  0  0  0
  3  4  1  0  0  0  0
  4  5  1  0  0  0  0
  4  6  1  0  0  0  0
  5 25  1  0  0  0  0
  5 26  1  0  0  0  0
  5 27  1  0  0  0  0
  6  7  1  0  0  0  0
  6  8  2  0  0  0  0
  7 28  1  0  0  0  0
  7 29  1  0  0  0  0
  7 30  1  0  0  0  0
  8  9  1  0  0  0  0
  9 10  1  0  0  0  0
  9 31  1  0  0  0  0
  9 32  1  0  0  0  0
 10 11  1  0  0  0  0
 10 12  1  0  0  0  0
 10 33  1  0  0  0  0
 11 34  1  0  0  0  0
 11 35  1  0  0  0  0
 11 36  1  0  0  0  0
 12 13  1  0  0  0  0
 12 37  1  0  0  0  0
 13 14  2  0  0  0  0
 13 15  1  0  0  0  0
 15 16  1  0  0  0  0
 15 38  1  0  0  0  0
 15 39  1  0  0  0  0
 16 17  1  0  0  0  0
 16 40  1  0  0  0  0
 16 41  1  0  0  0  0
 17 21  1  0  0  0  0
 17 18  1  0  0  0  0
 17 42  1  0  0  0  0
 18 19  1  0  0  0  0
 18 43  1  0  0  0  0
 18 44  1  0  0  0  0
 19 20  1  0  0  0  0
 19 45  1  0  0  0  0
 19 46  1  0  0  0  0
 20 21  1  0  0  0  0
 20 47  1  0  0  0  0
 20 48  1  0  0  0  0
 21 49  1  0  0  0  0
 21 50  1  0  0  0  0
M  END
> <s_m_source_file>
AV-unprocessed.smi

> <i_m_source_file_index>
685

> <i_lp_mmshare_version>
43012

> <i_f3d_flags>
0

> <s_epik_input>
W0NIM11jMW5uKFtDSDNdKWMoW0NIM10pYzFbQ0gyXVtDQEhdKFtDSDNdKVtOSF1DKD1PKVtDSDJdW0NIMl1bQ0hdMltDSDJdW0NIMl1bQ0gyXVtDSDJdMg==

> <s_epik_cmdline>
J2VwaWtfcHl0aG9uJywgJy1waCcsICc3LjAnLCAnLXRuJywgJzgnLCAnLW1hJywgJzIwMCcsICctbWV0YWxfYmluZGluZycsICctaW1hZScsICc8aW5maWxlLm1hZT4nLCAnLW9tYWUnLCAnPG91dGZpbGUubWFlPic=

> <r_lp_tautomer_probability>
1

> <r_epik_Ionization_Penalty>
0.0131144

> <r_epik_Ionization_Penalty_Charging>
0

> <r_epik_Ionization_Penalty_Neutral>
0.0131144

> <r_epik_State_Penalty>
0.0101889

> <r_epik_Charging_Adjusted_Penalty>
0.0101889

> <i_epik_Tot_Q>
0

> <i_epik_Tot_abs_Q>
0

> <r_epik_Metal_State_Penalty>
0.00996794

> <b_epik_Metal_Only>
0

> <s_lp_Force_Field>
OPLS_2005

> <r_lp_Energy>
16.0397

> <b_lp_Chiralities_Consistent>
1

> <s_lp_Variant>
AV-unprocessed.smi:685-2

> <Gold.Version>
5.8.1

> <Gold.Id.Protein>
6NUR|6NUR_protein|mol2

> <Gold.PLP.Fitness>
43.2418

> <Gold.PLP.PLP>
-38.2449

> <Gold.PLP.part.hbond>
-2.5730

> <Gold.PLP.part.metal>
0.0000

> <Gold.PLP.part.buried>
-2.7323

> <Gold.PLP.part.nonpolar>
-33.8667

> <Gold.PLP.part.repulsive>
0.0660

> <Gold.PLP.ligand.clash>
0.0000

> <Gold.PLP.ligand.torsion>
0.3075

> <Gold.PLP.Chemscore.Hbond>
1.8500

> <Gold.PLP.Chemscore.CHOScore>
0.0000

> <Gold.PLP.Chemscore.Metal>
0.0000

> <Gold.Chemscore.Hbonds>
donor molecule, donor type, donor heavy atom, donor atom, acceptor molecule, acceptor atom, score
      L1  H    12    37       P1  7948  0.95
      P1  H  7997  8008       L1     3  0.84

> <Gold.PLP.Chemscore.Internal.Correction>
0.0620

> <Gold.Rescore>
     Score         DG    S(hbond)    S(metal)    S(lipo)     H(rot)  DE(clash)    DE(int)     intcor
     17.16     -17.63       1.45        0.00      95.93       1.53       0.18       0.30       ----

> <Gold.Chemscore.Fitness>
17.1566

> <Gold.Chemscore.DG>
-17.6341

> <Gold.Chemscore.ZeroCoef>
-5.4800

> <Gold.Chemscore.Hbond>
1.4487

> <Gold.Chemscore.Metal>
0.0000

> <Gold.Chemscore.Lipo>
95.9328

> <Gold.Chemscore.Internal_Hbond>
0.0000

> <Gold.Chemscore.DEClash>
0.1754

> <Gold.Chemscore.DEInternal>
0.3021

> <Gold.Chemscore.Rot>
1.5268

> <Gold.Chemscore.Internal.Correction>
   9.000000E+99

> <Gold.Chemscore.Hbonds>
donor molecule, donor type, donor heavy atom, donor atom, acceptor molecule, acceptor atom, score
      L1  H    12    37       P1  7948  0.22
      P1  H  7997  8008       L1     3  0.13

> <Gold.Chemscore.Hbond.Weighted>
-4.8386

> <Gold.Chemscore.Metal.Weighted>
-0.0000

> <Gold.Chemscore.Lipo.Weighted>
-11.2241

> <Gold.Chemscore.Internal_Hbond.Weighted>
0.0000

> <Gold.Chemscore.DEClash.Weighted>
0.1754

> <Gold.Chemscore.DEInternal.Weighted>
0.3021

> <Gold.Chemscore.Rot.Weighted>
3.9086

> <Gold.Chemscore.Internal.Correction.Weighted>
   9.000000E+99

> <Gold.Protein.RotatedTorsions>
[ 6907 6896 6895 6894 ] final -158.16 input  -60.11 | X-H torsion
[ 7974 7965 7964 7962 ] final -168.89 input  175.53 | X-H torsion
[ 8008 7997 7996 7995 ] final  -66.24 input   59.86 | X-H torsion
[ 10167 10162 10161 10158 ] final  150.99 input  -65.29 | X-H torsion
[ 10718 10713 10712 10709 ] final    4.21 input   66.30 | X-H torsion
[ 10763 10752 10751 10750 ] final -133.61 input  -60.55 | X-H torsion
[ 11005 11000 10999 10996 ] final  -88.09 input  -57.11 | X-H torsion

> <Gold.Protein.ActiveResidues>
 VAL166  LYS551  ARG553  GLY616  TRP617  ASP618  TYR619  PRO620  LYS621  CYS622 
 ASP623  PHE694  ASN695  SER759  ASP760  ASP761  ALA762  ILE779  LEU786  VAL792 
 PHE793  MET794  SER795  GLU796  ALA797  LYS798  CYS799  TRP800  GLU811  SER814 

> <Gold.Protein.RotatedAtoms>
  151.3139  133.4068  159.2648 H   0  0  0  0  0  0  0  0  0  0  0  0  # atno 6907 bound_to 6896
  151.0091  134.9383  159.8007 H   0  0  0  0  0  0  0  0  0  0  0  0  # atno 6908 bound_to 6896
  152.5296  134.3104  159.9164 H   0  0  0  0  0  0  0  0  0  0  0  0  # atno 6909 bound_to 6896
  144.7195  140.2303  143.6305 H   0  0  0  0  0  0  0  0  0  0  0  0  # atno 7974 bound_to 7965
  154.4722  140.0917  156.7173 H   0  0  0  0  0  0  0  0  0  0  0  0  # atno 8008 bound_to 7997
  155.4693  140.3464  155.4305 H   0  0  0  0  0  0  0  0  0  0  0  0  # atno 8009 bound_to 7997
  156.1057  140.1434  156.9395 H   0  0  0  0  0  0  0  0  0  0  0  0  # atno 8010 bound_to 7997
  139.4844  144.5477  151.7455 H   0  0  0  0  0  0  0  0  0  0  0  0  # atno 10167 bound_to 10162
  156.8892  130.5681  149.5650 H   0  0  0  0  0  0  0  0  0  0  0  0  # atno 10718 bound_to 10713
  154.8730  135.3760  154.4601 H   0  0  0  0  0  0  0  0  0  0  0  0  # atno 10763 bound_to 10752
  153.5269  135.7028  153.5708 H   0  0  0  0  0  0  0  0  0  0  0  0  # atno 10764 bound_to 10752
  153.3929  135.3967  155.1901 H   0  0  0  0  0  0  0  0  0  0  0  0  # atno 10765 bound_to 10752
  141.1607  133.7549  156.9401 H   0  0  0  0  0  0  0  0  0  0  0  0  # atno 11005 bound_to 11000
  145.8417  139.2133  143.1824 LP  0  0  0  0  0  0  0  0  0  0  0  0  # atno 17320 bound_to 7965
  146.0340  140.8230  142.9861 LP  0  0  0  0  0  0  0  0  0  0  0  0  # atno 17321 bound_to 7965
  140.5026  144.1146  150.5975 LP  0  0  0  0  0  0  0  0  0  0  0  0  # atno 17342 bound_to 10162
  140.4044  143.2687  151.9908 LP  0  0  0  0  0  0  0  0  0  0  0  0  # atno 17343 bound_to 10162
  156.0638  130.5685  150.9246 LP  0  0  0  0  0  0  0  0  0  0  0  0  # atno 17370 bound_to 10713
  157.6094  131.0937  150.8822 LP  0  0  0  0  0  0  0  0  0  0  0  0  # atno 17371 bound_to 10713
  140.1327  134.9345  157.2360 LP  0  0  0  0  0  0  0  0  0  0  0  0  # atno 17394 bound_to 11000
  140.2933  134.3216  155.7309 LP  0  0  0  0  0  0  0  0  0  0  0  0  # atno 17395 bound_to 11000

$$$$
