AV-unprocessed.smi:2068|AV-procd|sdf|8427|dock3
  -GOLD-   2272011123D 1   1.00000     0.00000
 Structure written by MMmdl.
 33 34  0  0  0  0  0  0  0  0  1 V2000
  146.3584  139.1240  151.1485 N   0  0  0  0  0  0  0  0  0  0  0  0
  146.3096  138.4080  152.2754 C   0  0  0  0  0  0  0  0  0  0  0  0
  145.3698  137.6605  152.5392 O   0  0  0  0  0  0  0  0  0  0  0  0
  147.4863  138.5458  153.2435 C   0  0  0  0  0  0  0  0  0  0  0  0
  147.5914  139.9584  153.7407 C   0  0  0  0  0  0  0  0  0  0  0  0
  146.6646  140.9605  153.5820 C   0  0  0  0  0  0  0  0  0  0  0  0
  147.1823  142.4544  154.3164 S   0  0  0  0  0  0  0  0  0  0  0  0
  148.6588  141.6485  154.8222 C   0  0  0  0  0  0  0  0  0  0  0  0
  149.6689  142.3225  155.5571 N   0  0  0  0  0  0  0  0  0  0  0  0
  150.8649  141.8513  155.9570 C   0  0  0  0  0  0  0  0  0  0  0  0
  151.2886  140.7213  155.7121 O   0  0  0  0  0  0  0  0  0  0  0  0
  151.7307  142.8286  156.7613 C   0  0  0  0  0  0  0  0  0  0  0  0
  151.2445  143.0448  158.2116 C   0  0  2  0  0  0  0  0  0  0  0  0
  151.7258  144.3368  158.8277 C   0  0  0  0  0  0  0  0  0  0  0  0
  152.3416  144.1530  159.9932 C   0  0  0  0  0  0  0  0  0  0  0  0
  152.3984  142.7047  160.3923 C   0  0  0  0  0  0  0  0  0  0  0  0
  151.7623  141.9636  159.1950 C   0  0  0  0  0  0  0  0  0  0  0  0
  148.7238  140.3638  154.4553 N   0  0  0  0  0  0  0  0  0  0  0  0
  145.5980  139.0696  150.4864 H   0  0  0  0  0  0  0  0  0  0  0  0
  147.1504  139.7238  150.9671 H   0  0  0  0  0  0  0  0  0  0  0  0
  147.3477  137.8570  154.0779 H   0  0  0  0  0  0  0  0  0  0  0  0
  148.4047  138.2379  152.7417 H   0  0  0  0  0  0  0  0  0  0  0  0
  145.7121  140.9096  153.0751 H   0  0  0  0  0  0  0  0  0  0  0  0
  149.4551  143.2747  155.8152 H   0  0  0  0  0  0  0  0  0  0  0  0
  152.7501  142.4416  156.7725 H   0  0  0  0  0  0  0  0  0  0  0  0
  151.7726  143.7887  156.2438 H   0  0  0  0  0  0  0  0  0  0  0  0
  150.1538  143.0583  158.2367 H   0  0  0  0  0  0  0  0  0  0  0  0
  151.5596  145.2970  158.3616 H   0  0  0  0  0  0  0  0  0  0  0  0
  152.7522  144.9376  160.6114 H   0  0  0  0  0  0  0  0  0  0  0  0
  153.4294  142.3930  160.5617 H   0  0  0  0  0  0  0  0  0  0  0  0
  151.8308  142.5501  161.3103 H   0  0  0  0  0  0  0  0  0  0  0  0
  150.9533  141.3092  159.5213 H   0  0  0  0  0  0  0  0  0  0  0  0
  152.5104  141.3285  158.7189 H   0  0  0  0  0  0  0  0  0  0  0  0
  1  2  1  0  0  0  0
  1 19  1  0  0  0  0
  1 20  1  0  0  0  0
  2  3  2  0  0  0  0
  2  4  1  0  0  0  0
  4  5  1  0  0  0  0
  4 21  1  0  0  0  0
  4 22  1  0  0  0  0
  5 18  1  0  0  0  0
  5  6  2  0  0  0  0
  6  7  1  0  0  0  0
  6 23  1  0  0  0  0
  7  8  1  0  0  0  0
  8  9  1  0  0  0  0
  8 18  2  0  0  0  0
  9 10  1  0  0  0  0
  9 24  1  0  0  0  0
 10 11  2  0  0  0  0
 10 12  1  0  0  0  0
 12 13  1  0  0  0  0
 12 25  1  0  0  0  0
 12 26  1  0  0  0  0
 13 17  1  0  0  0  0
 13 14  1  0  0  0  0
 13 27  1  0  0  0  0
 14 15  2  0  0  0  0
 14 28  1  0  0  0  0
 15 16  1  0  0  0  0
 15 29  1  0  0  0  0
 16 17  1  0  0  0  0
 16 30  1  0  0  0  0
 16 31  1  0  0  0  0
 17 32  1  0  0  0  0
 17 33  1  0  0  0  0
M  END
> <s_m_source_file>
AV-unprocessed.smi

> <i_m_source_file_index>
2068

> <i_lp_mmshare_version>
43012

> <i_f3d_flags>
0

> <s_epik_input>
W05IMl1DKD1PKVtDSDJdYzFbY0hdc2MobjEpW05IXUMoPU8pW0NIMl1bQ0BASF0yW0NIXT1bQ0hdW0NIMl1bQ0gyXTI=

> <s_epik_cmdline>
J2VwaWtfcHl0aG9uJywgJy1waCcsICc3LjAnLCAnLXRuJywgJzgnLCAnLW1hJywgJzIwMCcsICctbWV0YWxfYmluZGluZycsICctaW1hZScsICc8aW5maWxlLm1hZT4nLCAnLW9tYWUnLCAnPG91dGZpbGUubWFlPic=

> <r_lp_tautomer_probability>
1

> <r_epik_Ionization_Penalty>
0.000253249

> <r_epik_Ionization_Penalty_Charging>
0

> <r_epik_Ionization_Penalty_Neutral>
0.000253249

> <r_epik_State_Penalty>
-0

> <r_epik_Charging_Adjusted_Penalty>
0

> <i_epik_Tot_Q>
0

> <i_epik_Tot_abs_Q>
0

> <r_epik_Metal_State_Penalty>
0.148671

> <b_epik_Metal_Only>
0

> <s_lp_Force_Field>
OPLS_2005

> <r_lp_Energy>
16.3977

> <b_lp_Chiralities_Consistent>
1

> <s_lp_Variant>
AV-unprocessed.smi:2068-1

> <Gold.Version>
5.8.1

> <Gold.Id.Protein>
6NUR|6NUR_protein|mol2

> <Gold.PLP.Fitness>
44.5573

> <Gold.PLP.PLP>
-34.1898

> <Gold.PLP.part.hbond>
-3.3707

> <Gold.PLP.part.metal>
0.0000

> <Gold.PLP.part.buried>
-0.9903

> <Gold.PLP.part.nonpolar>
-29.5830

> <Gold.PLP.part.repulsive>
0.7205

> <Gold.PLP.ligand.clash>
0.0000

> <Gold.PLP.ligand.torsion>
0.5265

> <Gold.PLP.Chemscore.Hbond>
2.7897

> <Gold.PLP.Chemscore.CHOScore>
1.0000

> <Gold.PLP.Chemscore.Metal>
0.0000

> <Gold.Chemscore.Hbonds>
donor molecule, donor type, donor heavy atom, donor atom, acceptor molecule, acceptor atom, score
      L1  H     1    19       P1 10171  1.00
      L1  H     1    20       P1  7957  0.02
      L1  H     9    24       P1  8028  1.00
      P1  H  7989  7998       L1    11  0.37
      L1  C     6    23       P1 10175  1.00

> <Gold.PLP.Chemscore.Internal.Correction>
0.0514

> <Gold.Rescore>
     Score         DG    S(hbond)    S(metal)    S(lipo)     H(rot)  DE(clash)    DE(int)     intcor
     14.43     -18.47       2.29        0.00      93.83       2.21       2.16       1.88       ----

> <Gold.Chemscore.Fitness>
14.4280

> <Gold.Chemscore.DG>
-18.4716

> <Gold.Chemscore.ZeroCoef>
-5.4800

> <Gold.Chemscore.Hbond>
2.2930

> <Gold.Chemscore.Metal>
0.0000

> <Gold.Chemscore.Lipo>
93.8343

> <Gold.Chemscore.Internal_Hbond>
0.0000

> <Gold.Chemscore.DEClash>
2.1593

> <Gold.Chemscore.DEInternal>
1.8842

> <Gold.Chemscore.Rot>
2.2053

> <Gold.Chemscore.Internal.Correction>
   9.000000E+99

> <Gold.Chemscore.Hbonds>
donor molecule, donor type, donor heavy atom, donor atom, acceptor molecule, acceptor atom, score
      L1  H     1    19       P1 10171  0.99
      L1  H     1    20       P1  7957  0.06
      L1  H     9    24       P1  8028  0.95
      P1  H  7989  7998       L1    11  0.10

> <Gold.Chemscore.Hbond.Weighted>
-7.6586

> <Gold.Chemscore.Metal.Weighted>
-0.0000

> <Gold.Chemscore.Lipo.Weighted>
-10.9786

> <Gold.Chemscore.Internal_Hbond.Weighted>
0.0000

> <Gold.Chemscore.DEClash.Weighted>
2.1593

> <Gold.Chemscore.DEInternal.Weighted>
1.8842

> <Gold.Chemscore.Rot.Weighted>
5.6456

> <Gold.Chemscore.Internal.Correction.Weighted>
   9.000000E+99

> <Gold.Protein.RotatedTorsions>
[ 6907 6896 6895 6894 ] final    7.49 input  -60.11 | X-H torsion
[ 7974 7965 7964 7962 ] final  -75.15 input  175.53 | X-H torsion
[ 8008 7997 7996 7995 ] final  179.62 input   59.86 | X-H torsion
[ 10167 10162 10161 10158 ] final  -42.92 input  -65.29 | X-H torsion
[ 10718 10713 10712 10709 ] final  157.09 input   66.30 | X-H torsion
[ 10763 10752 10751 10750 ] final   31.67 input  -60.55 | X-H torsion
[ 11005 11000 10999 10996 ] final -145.34 input  -57.11 | X-H torsion

> <Gold.Protein.ActiveResidues>
 VAL166  LYS551  ARG553  GLY616  TRP617  ASP618  TYR619  PRO620  LYS621  CYS622 
 ASP623  PHE694  ASN695  SER759  ASP760  ASP761  ALA762  ILE779  LEU786  VAL792 
 PHE793  MET794  SER795  GLU796  ALA797  LYS798  CYS799  TRP800  GLU811  SER814 

> <Gold.Protein.RotatedAtoms>
  151.6908  135.0947  160.0232 H   0  0  0  0  0  0  0  0  0  0  0  0  # atno 6907 bound_to 6896
  152.3780  133.6503  159.6147 H   0  0  0  0  0  0  0  0  0  0  0  0  # atno 6908 bound_to 6896
  150.7724  133.9078  159.3402 H   0  0  0  0  0  0  0  0  0  0  0  0  # atno 6909 bound_to 6896
  145.6297  140.9341  143.1093 H   0  0  0  0  0  0  0  0  0  0  0  0  # atno 7974 bound_to 7965
  156.0414  140.1304  157.0152 H   0  0  0  0  0  0  0  0  0  0  0  0  # atno 8008 bound_to 7997
  154.4392  140.1029  156.6312 H   0  0  0  0  0  0  0  0  0  0  0  0  # atno 8009 bound_to 7997
  155.5661  140.3465  155.4505 H   0  0  0  0  0  0  0  0  0  0  0  0  # atno 8010 bound_to 7997
  140.6952  143.3011  151.3277 H   0  0  0  0  0  0  0  0  0  0  0  0  # atno 10167 bound_to 10162
  157.1962  131.0666  151.2051 H   0  0  0  0  0  0  0  0  0  0  0  0  # atno 10718 bound_to 10713
  153.0303  135.6433  154.1235 H   0  0  0  0  0  0  0  0  0  0  0  0  # atno 10763 bound_to 10752
  154.0958  135.2863  155.3263 H   0  0  0  0  0  0  0  0  0  0  0  0  # atno 10764 bound_to 10752
  154.6433  135.5452  153.7878 H   0  0  0  0  0  0  0  0  0  0  0  0  # atno 10765 bound_to 10752
  140.7933  134.2943  157.5005 H   0  0  0  0  0  0  0  0  0  0  0  0  # atno 11005 bound_to 11000
  144.7198  139.8069  143.7386 LP  0  0  0  0  0  0  0  0  0  0  0  0  # atno 17320 bound_to 7965
  146.1366  139.4413  143.0135 LP  0  0  0  0  0  0  0  0  0  0  0  0  # atno 17321 bound_to 7965
  139.6400  144.0558  152.2546 LP  0  0  0  0  0  0  0  0  0  0  0  0  # atno 17342 bound_to 10162
  140.0060  144.6258  150.7688 LP  0  0  0  0  0  0  0  0  0  0  0  0  # atno 17343 bound_to 10162
  157.3812  130.7232  149.6632 LP  0  0  0  0  0  0  0  0  0  0  0  0  # atno 17370 bound_to 10713
  155.9706  130.4172  150.4267 LP  0  0  0  0  0  0  0  0  0  0  0  0  # atno 17371 bound_to 10713
  139.8729  134.9387  156.3722 LP  0  0  0  0  0  0  0  0  0  0  0  0  # atno 17394 bound_to 11000
  140.9368  133.7542  156.0095 LP  0  0  0  0  0  0  0  0  0  0  0  0  # atno 17395 bound_to 11000

$$$$
