AV-unprocessed.smi:2024|AV-procd|sdf|8191|dock9
  -GOLD-   2272010443D 1   1.00000     0.00000
 Structure written by MMmdl.
 44 45  0  0  0  0  0  0  0  0  2 V2000
  145.0515  137.6651  157.2902 C   0  0  0  0  0  0  0  0  0  0  0  0
  145.7498  138.8946  157.7312 N   0  3  0  0  0  0  0  0  0  0  0  0
  145.1562  140.1449  157.2053 C   0  0  0  0  0  0  0  0  0  0  0  0
  145.5266  140.3670  155.7252 C   0  0  0  0  0  0  0  0  0  0  0  0
  146.9889  140.4286  155.5628 N   0  0  0  0  0  0  0  0  0  0  0  0
  147.4444  140.8812  154.2197 C   0  0  0  0  0  0  0  0  0  0  0  0
  147.0534  139.8276  153.1521 C   0  0  0  0  0  0  0  0  0  0  0  0
  146.8092  142.2361  153.8242 C   0  0  0  0  0  0  0  0  0  0  0  0
  148.9954  141.0332  154.1933 C   0  0  0  0  0  0  0  0  0  0  0  0
  149.5007  141.9816  155.1871 N   0  0  0  0  0  0  0  0  0  0  0  0
  150.3238  141.6863  156.2038 C   0  0  0  0  0  0  0  0  0  0  0  0
  150.7666  140.5572  156.4154 O   0  0  0  0  0  0  0  0  0  0  0  0
  150.5828  142.7746  156.9496 N   0  0  0  0  0  0  0  0  0  0  0  0
  151.3989  142.8715  158.1072 C   0  0  0  0  0  0  0  0  0  0  0  0
  151.9349  141.8235  158.7435 N   0  0  0  0  0  0  0  0  0  0  0  0
  152.6934  142.2136  159.8499 C   0  0  0  0  0  0  0  0  0  0  0  0
  152.7235  143.5723  160.0434 C   0  0  0  0  0  0  0  0  0  0  0  0
  151.7970  144.4212  158.8348 S   0  0  0  0  0  0  0  0  0  0  0  0
  147.5342  139.1312  155.9969 C   0  0  0  0  0  0  0  0  0  0  0  0
  147.2093  138.8788  157.4832 C   0  0  0  0  0  0  0  0  0  0  0  0
  145.1081  137.5266  156.2105 H   0  0  0  0  0  0  0  0  0  0  0  0
  143.9989  137.7035  157.5722 H   0  0  0  0  0  0  0  0  0  0  0  0
  145.4884  136.7873  157.7673 H   0  0  0  0  0  0  0  0  0  0  0  0
  144.0728  140.1242  157.3292 H   0  0  0  0  0  0  0  0  0  0  0  0
  145.5182  140.9832  157.8024 H   0  0  0  0  0  0  0  0  0  0  0  0
  145.1009  139.5779  155.1054 H   0  0  0  0  0  0  0  0  0  0  0  0
  145.0565  141.2972  155.4148 H   0  0  0  0  0  0  0  0  0  0  0  0
  147.5624  140.0197  152.2068 H   0  0  0  0  0  0  0  0  0  0  0  0
  145.9879  139.8384  152.9236 H   0  0  0  0  0  0  0  0  0  0  0  0
  147.3183  138.8158  153.4614 H   0  0  0  0  0  0  0  0  0  0  0  0
  147.1399  142.5387  152.8300 H   0  0  0  0  0  0  0  0  0  0  0  0
  147.0903  143.0405  154.5035 H   0  0  0  0  0  0  0  0  0  0  0  0
  145.7210  142.1907  153.7905 H   0  0  0  0  0  0  0  0  0  0  0  0
  149.4634  140.0569  154.3324 H   0  0  0  0  0  0  0  0  0  0  0  0
  149.3477  141.3538  153.2137 H   0  0  0  0  0  0  0  0  0  0  0  0
  149.1860  142.9361  155.0976 H   0  0  0  0  0  0  0  0  0  0  0  0
  150.1420  143.6343  156.6585 H   0  0  0  0  0  0  0  0  0  0  0  0
  153.1793  141.4559  160.4465 H   0  0  0  0  0  0  0  0  0  0  0  0
  153.2328  144.1231  160.8203 H   0  0  0  0  0  0  0  0  0  0  0  0
  147.1461  138.3214  155.3792 H   0  0  0  0  0  0  0  0  0  0  0  0
  148.6176  139.1075  155.9027 H   0  0  0  0  0  0  0  0  0  0  0  0
  147.6768  139.6507  158.0961 H   0  0  0  0  0  0  0  0  0  0  0  0
  147.6321  137.9285  157.8112 H   0  0  0  0  0  0  0  0  0  0  0  0
  145.6314  138.9225  158.7338 H   0  0  0  0  0  0  0  0  0  0  0  0
  1  2  1  0  0  0  0
  1 21  1  0  0  0  0
  1 22  1  0  0  0  0
  1 23  1  0  0  0  0
  2 20  1  0  0  0  0
  2  3  1  0  0  0  0
  2 44  1  0  0  0  0
  3  4  1  0  0  0  0
  3 24  1  0  0  0  0
  3 25  1  0  0  0  0
  4  5  1  0  0  0  0
  4 26  1  0  0  0  0
  4 27  1  0  0  0  0
  5  6  1  0  0  0  0
  5 19  1  0  0  0  0
  6  7  1  0  0  0  0
  6  8  1  0  0  0  0
  6  9  1  0  0  0  0
  7 28  1  0  0  0  0
  7 29  1  0  0  0  0
  7 30  1  0  0  0  0
  8 31  1  0  0  0  0
  8 32  1  0  0  0  0
  8 33  1  0  0  0  0
  9 10  1  0  0  0  0
  9 34  1  0  0  0  0
  9 35  1  0  0  0  0
 10 11  1  0  0  0  0
 10 36  1  0  0  0  0
 11 12  2  0  0  0  0
 11 13  1  0  0  0  0
 13 14  1  0  0  0  0
 13 37  1  0  0  0  0
 14 18  1  0  0  0  0
 14 15  2  0  0  0  0
 15 16  1  0  0  0  0
 16 17  2  0  0  0  0
 16 38  1  0  0  0  0
 17 18  1  0  0  0  0
 17 39  1  0  0  0  0
 19 20  1  0  0  0  0
 19 40  1  0  0  0  0
 19 41  1  0  0  0  0
 20 42  1  0  0  0  0
 20 43  1  0  0  0  0
M  CHG  1   2   1
M  END
> <s_m_source_file>
AV-unprocessed.smi

> <i_m_source_file_index>
2024

> <i_lp_mmshare_version>
43012

> <i_f3d_flags>
0

> <s_epik_input>
W0NIM11OMVtDSDJdW0NIMl1OKFtDSDJdW0NIMl0xKUMoW0NIM10pKFtDSDNdKVtDSDJdW05IXUMoPU8pW05IXWMybltjSF1bY0hdczI=

> <s_epik_cmdline>
J2VwaWtfcHl0aG9uJywgJy1waCcsICc3LjAnLCAnLXRuJywgJzgnLCAnLW1hJywgJzIwMCcsICctbWV0YWxfYmluZGluZycsICctaW1hZScsICc8aW5maWxlLm1hZT4nLCAnLW9tYWUnLCAnPG91dGZpbGUubWFlPic=

> <r_lp_tautomer_probability>
0.999

> <r_epik_Ionization_Penalty>
0.025257

> <r_epik_Ionization_Penalty_Charging>
0.0242302

> <r_epik_Ionization_Penalty_Neutral>
0.00102675

> <r_epik_State_Penalty>
0.128805

> <r_epik_Charging_Adjusted_Penalty>
0.153036

> <i_epik_Tot_Q>
1

> <i_epik_Tot_abs_Q>
1

> <r_epik_Metal_State_Penalty>
0.161314

> <b_epik_Metal_Only>
0

> <s_lp_Force_Field>
OPLS_2005

> <r_lp_Energy>
25.0383

> <b_lp_Chiralities_Consistent>
1

> <s_lp_Variant>
AV-unprocessed.smi:2024-1

> <Gold.Version>
5.8.1

> <Gold.Id.Protein>
6NUR|6NUR_protein|mol2

> <Gold.PLP.Fitness>
38.9401

> <Gold.PLP.PLP>
-33.0154

> <Gold.PLP.part.hbond>
-2.0000

> <Gold.PLP.part.metal>
0.0000

> <Gold.PLP.part.buried>
-4.3161

> <Gold.PLP.part.nonpolar>
-26.5217

> <Gold.PLP.part.repulsive>
0.3755

> <Gold.PLP.ligand.clash>
0.0000

> <Gold.PLP.ligand.torsion>
0.0513

> <Gold.PLP.Chemscore.Hbond>
2.0000

> <Gold.PLP.Chemscore.CHOScore>
0.0000

> <Gold.PLP.Chemscore.Metal>
0.0000

> <Gold.Chemscore.Hbonds>
donor molecule, donor type, donor heavy atom, donor atom, acceptor molecule, acceptor atom, score
      L1  H    10    36       P1  8028  1.00
      L1  H    13    37       P1  8028  1.00

> <Gold.PLP.Chemscore.Internal.Correction>
0.0273

> <Gold.Rescore>
     Score         DG    S(hbond)    S(metal)    S(lipo)     H(rot)  DE(clash)    DE(int)     intcor
     14.65     -16.01       1.96        0.00      69.12       1.60       0.05       1.31       ----

> <Gold.Chemscore.Fitness>
14.6468

> <Gold.Chemscore.DG>
-16.0065

> <Gold.Chemscore.ZeroCoef>
-5.4800

> <Gold.Chemscore.Hbond>
1.9562

> <Gold.Chemscore.Metal>
0.0000

> <Gold.Chemscore.Lipo>
69.1153

> <Gold.Chemscore.Internal_Hbond>
0.0000

> <Gold.Chemscore.DEClash>
0.0460

> <Gold.Chemscore.DEInternal>
1.3137

> <Gold.Chemscore.Rot>
1.5991

> <Gold.Chemscore.Internal.Correction>
   9.000000E+99

> <Gold.Chemscore.Hbonds>
donor molecule, donor type, donor heavy atom, donor atom, acceptor molecule, acceptor atom, score
      L1  H    10    36       P1  8028  0.99
      L1  H    13    37       P1  8028  0.98

> <Gold.Chemscore.Hbond.Weighted>
-6.5336

> <Gold.Chemscore.Metal.Weighted>
-0.0000

> <Gold.Chemscore.Lipo.Weighted>
-8.0865

> <Gold.Chemscore.Internal_Hbond.Weighted>
0.0000

> <Gold.Chemscore.DEClash.Weighted>
0.0460

> <Gold.Chemscore.DEInternal.Weighted>
1.3137

> <Gold.Chemscore.Rot.Weighted>
4.0936

> <Gold.Chemscore.Internal.Correction.Weighted>
   9.000000E+99

> <Gold.Protein.RotatedTorsions>
[ 6907 6896 6895 6894 ] final -171.33 input  -60.11 | X-H torsion
[ 7974 7965 7964 7962 ] final   -8.51 input  175.53 | X-H torsion
[ 8008 7997 7996 7995 ] final  141.64 input   59.86 | X-H torsion
[ 10167 10162 10161 10158 ] final -124.09 input  -65.29 | X-H torsion
[ 10718 10713 10712 10709 ] final   27.98 input   66.30 | X-H torsion
[ 10763 10752 10751 10750 ] final  117.18 input  -60.55 | X-H torsion
[ 11005 11000 10999 10996 ] final  148.98 input  -57.11 | X-H torsion

> <Gold.Protein.ActiveResidues>
 VAL166  LYS551  ARG553  GLY616  TRP617  ASP618  TYR619  PRO620  LYS621  CYS622 
 ASP623  PHE694  ASN695  SER759  ASP760  ASP761  ALA762  ILE779  LEU786  VAL792 
 PHE793  MET794  SER795  GLU796  ALA797  LYS798  CYS799  TRP800  GLU811  SER814 

> <Gold.Protein.RotatedAtoms>
  151.5222  133.3464  159.2903 H   0  0  0  0  0  0  0  0  0  0  0  0  # atno 6907 bound_to 6896
  150.8646  134.8008  159.7119 H   0  0  0  0  0  0  0  0  0  0  0  0  # atno 6908 bound_to 6896
  152.4654  134.5096  159.9801 H   0  0  0  0  0  0  0  0  0  0  0  0  # atno 6909 bound_to 6896
  146.2278  140.2479  142.8346 H   0  0  0  0  0  0  0  0  0  0  0  0  # atno 7974 bound_to 7965
  156.2962  140.2310  156.4598 H   0  0  0  0  0  0  0  0  0  0  0  0  # atno 8008 bound_to 7997
  154.8028  140.0447  157.1306 H   0  0  0  0  0  0  0  0  0  0  0  0  # atno 8009 bound_to 7997
  154.9513  140.3042  155.5077 H   0  0  0  0  0  0  0  0  0  0  0  0  # atno 8010 bound_to 7997
  139.9965  143.5585  152.2321 H   0  0  0  0  0  0  0  0  0  0  0  0  # atno 10167 bound_to 10162
  157.2274  130.7007  149.6298 H   0  0  0  0  0  0  0  0  0  0  0  0  # atno 10718 bound_to 10713
  153.5485  135.3544  155.2749 H   0  0  0  0  0  0  0  0  0  0  0  0  # atno 10763 bound_to 10752
  154.8709  135.4108  154.2964 H   0  0  0  0  0  0  0  0  0  0  0  0  # atno 10764 bound_to 10752
  153.3685  135.7063  153.6725 H   0  0  0  0  0  0  0  0  0  0  0  0  # atno 10765 bound_to 10752
  140.1006  134.8985  157.1790 H   0  0  0  0  0  0  0  0  0  0  0  0  # atno 11005 bound_to 11000
  144.9434  140.8102  143.5616 LP  0  0  0  0  0  0  0  0  0  0  0  0  # atno 17320 bound_to 7965
  145.2433  139.2063  143.4981 LP  0  0  0  0  0  0  0  0  0  0  0  0  # atno 17321 bound_to 7965
  139.6302  144.7643  151.2552 LP  0  0  0  0  0  0  0  0  0  0  0  0  # atno 17342 bound_to 10162
  140.7435  143.6493  150.8263 LP  0  0  0  0  0  0  0  0  0  0  0  0  # atno 17343 bound_to 10162
  155.9678  130.4500  150.5679 LP  0  0  0  0  0  0  0  0  0  0  0  0  # atno 17370 bound_to 10713
  157.3513  131.0734  151.1711 LP  0  0  0  0  0  0  0  0  0  0  0  0  # atno 17371 bound_to 10713
  140.3225  134.2900  155.7243 LP  0  0  0  0  0  0  0  0  0  0  0  0  # atno 17394 bound_to 11000
  141.2104  133.7719  156.9931 LP  0  0  0  0  0  0  0  0  0  0  0  0  # atno 17395 bound_to 11000

$$$$
