AV-unprocessed.smi:2064|AV-procd|sdf|8416|dock6
  -GOLD-   2272011103D 1   1.00000     0.00000
 Structure written by MMmdl.
 46 48  0  0  0  0  0  0  0  0  1 V2000
  146.4635  142.1967  154.5570 N   0  0  0  0  0  0  0  0  0  0  0  0
  147.4970  141.7448  154.8160 C   0  0  0  0  0  0  0  0  0  0  0  0
  148.7812  141.1991  155.1080 C   0  0  0  0  0  0  0  0  0  0  0  0
  149.6264  141.7947  155.9745 C   0  0  0  0  0  0  0  0  0  0  0  0
  150.8733  141.2847  156.2632 N   0  0  0  0  0  0  0  0  0  0  0  0
  151.6890  141.8470  157.3024 C   0  0  0  0  0  0  0  0  0  0  0  0
  152.0941  140.9741  158.4700 C   0  0  0  0  0  0  0  0  0  0  0  0
  151.1099  142.0985  158.6813 C   0  0  0  0  0  0  0  0  0  0  0  0
  151.2821  140.0529  155.7069 C   0  0  0  0  0  0  0  0  0  0  0  0
  152.3512  139.5290  156.0304 O   0  0  0  0  0  0  0  0  0  0  0  0
  150.4200  139.4293  154.7725 N   0  0  0  0  0  0  0  0  0  0  0  0
  150.8480  138.1529  154.1590 C   0  0  0  0  0  0  0  0  0  0  0  0
  150.6653  136.9356  155.0784 C   0  0  0  0  0  0  0  0  0  0  0  0
  151.1773  136.9016  156.1985 O   0  0  0  0  0  0  0  0  0  0  0  0
  149.9216  135.9364  154.5793 N   0  0  0  0  0  0  0  0  0  0  0  0
  149.6084  134.6836  155.2629 C   0  0  0  0  0  0  0  0  0  0  0  0
  150.8729  134.1683  155.9814 C   0  0  0  0  0  0  0  0  0  0  0  0
  150.7115  132.8233  156.7107 C   0  0  0  0  0  0  0  0  0  0  0  0
  150.6617  131.6261  155.7480 C   0  0  0  0  0  0  0  0  0  0  0  0
  149.2690  131.2854  155.1904 C   0  0  0  0  0  0  0  0  0  0  0  0
  148.3421  132.4749  154.8844 C   0  0  0  0  0  0  0  0  0  0  0  0
  149.0188  133.6943  154.2356 C   0  0  0  0  0  0  0  0  0  0  0  0
  149.1480  139.9568  154.4322 C   0  0  0  0  0  0  0  0  0  0  0  0
  148.4155  139.3796  153.6267 O   0  0  0  0  0  0  0  0  0  0  0  0
  149.3181  142.7099  156.4591 H   0  0  0  0  0  0  0  0  0  0  0  0
  152.4368  142.5635  156.9667 H   0  0  0  0  0  0  0  0  0  0  0  0
  151.7046  139.9586  158.5117 H   0  0  0  0  0  0  0  0  0  0  0  0
  153.0987  141.1036  158.8674 H   0  0  0  0  0  0  0  0  0  0  0  0
  151.4585  142.9783  159.2182 H   0  0  0  0  0  0  0  0  0  0  0  0
  150.0729  141.8228  158.8633 H   0  0  0  0  0  0  0  0  0  0  0  0
  150.3112  137.9630  153.2284 H   0  0  0  0  0  0  0  0  0  0  0  0
  151.8944  138.2053  153.8527 H   0  0  0  0  0  0  0  0  0  0  0  0
  149.5422  136.0509  153.6506 H   0  0  0  0  0  0  0  0  0  0  0  0
  148.8402  134.8859  156.0117 H   0  0  0  0  0  0  0  0  0  0  0  0
  151.7007  134.1011  155.2739 H   0  0  0  0  0  0  0  0  0  0  0  0
  151.1792  134.9135  156.7169 H   0  0  0  0  0  0  0  0  0  0  0  0
  151.5802  132.6953  157.3572 H   0  0  0  0  0  0  0  0  0  0  0  0
  149.8463  132.8341  157.3743 H   0  0  0  0  0  0  0  0  0  0  0  0
  151.3535  131.7967  154.9222 H   0  0  0  0  0  0  0  0  0  0  0  0
  151.0420  130.7420  156.2609 H   0  0  0  0  0  0  0  0  0  0  0  0
  149.4012  130.6915  154.2852 H   0  0  0  0  0  0  0  0  0  0  0  0
  148.7546  130.6306  155.8947 H   0  0  0  0  0  0  0  0  0  0  0  0
  147.5516  132.1174  154.2237 H   0  0  0  0  0  0  0  0  0  0  0  0
  147.8305  132.7853  155.7963 H   0  0  0  0  0  0  0  0  0  0  0  0
  148.2556  134.2200  153.6596 H   0  0  0  0  0  0  0  0  0  0  0  0
  149.7728  133.3809  153.5123 H   0  0  0  0  0  0  0  0  0  0  0  0
  1  2  3  0  0  0  0
  2  3  1  0  0  0  0
  3 23  1  0  0  0  0
  3  4  2  0  0  0  0
  4  5  1  0  0  0  0
  4 25  1  0  0  0  0
  5  6  1  0  0  0  0
  5  9  1  0  0  0  0
  6  8  1  0  0  0  0
  6  7  1  0  0  0  0
  6 26  1  0  0  0  0
  7  8  1  0  0  0  0
  7 27  1  0  0  0  0
  7 28  1  0  0  0  0
  8 29  1  0  0  0  0
  8 30  1  0  0  0  0
  9 10  2  0  0  0  0
  9 11  1  0  0  0  0
 11 12  1  0  0  0  0
 11 23  1  0  0  0  0
 12 13  1  0  0  0  0
 12 31  1  0  0  0  0
 12 32  1  0  0  0  0
 13 14  2  0  0  0  0
 13 15  1  0  0  0  0
 15 16  1  0  0  0  0
 15 33  1  0  0  0  0
 16 22  1  0  0  0  0
 16 17  1  0  0  0  0
 16 34  1  0  0  0  0
 17 18  1  0  0  0  0
 17 35  1  0  0  0  0
 17 36  1  0  0  0  0
 18 19  1  0  0  0  0
 18 37  1  0  0  0  0
 18 38  1  0  0  0  0
 19 20  1  0  0  0  0
 19 39  1  0  0  0  0
 19 40  1  0  0  0  0
 20 21  1  0  0  0  0
 20 41  1  0  0  0  0
 20 42  1  0  0  0  0
 21 22  1  0  0  0  0
 21 43  1  0  0  0  0
 21 44  1  0  0  0  0
 22 45  1  0  0  0  0
 22 46  1  0  0  0  0
 23 24  2  0  0  0  0
M  END
> <s_m_source_file>
AV-unprocessed.smi

> <i_m_source_file_index>
2064

> <i_lp_mmshare_version>
43012

> <i_f3d_flags>
0

> <s_epik_input>
TiNDYzFbY0hdbihbQ0hdMltDSDJdW0NIMl0yKWMoPU8pbihjMT1PKVtDSDJdQyg9TylbTkhdW0NIXTNbQ0gyXVtDSDJdW0NIMl1bQ0gyXVtDSDJdW0NIMl0z

> <s_epik_cmdline>
J2VwaWtfcHl0aG9uJywgJy1waCcsICc3LjAnLCAnLXRuJywgJzgnLCAnLW1hJywgJzIwMCcsICctbWV0YWxfYmluZGluZycsICctaW1hZScsICc8aW5maWxlLm1hZT4nLCAnLW9tYWUnLCAnPG91dGZpbGUubWFlPic=

> <r_lp_tautomer_probability>
1

> <r_epik_Ionization_Penalty>
2.03018e-08

> <r_epik_Ionization_Penalty_Charging>
8.701e-11

> <r_epik_Ionization_Penalty_Neutral>
2.02148e-08

> <r_epik_State_Penalty>
-0

> <r_epik_Charging_Adjusted_Penalty>
8.701e-11

> <i_epik_Tot_Q>
0

> <i_epik_Tot_abs_Q>
0

> <r_epik_Metal_State_Penalty>
-0

> <b_epik_Metal_Only>
0

> <s_lp_Force_Field>
OPLS_2005

> <r_lp_Energy>
40.6124

> <b_lp_Chiralities_Consistent>
1

> <s_lp_Variant>
AV-unprocessed.smi:2064-1

> <Gold.Version>
5.8.1

> <Gold.Id.Protein>
6NUR|6NUR_protein|mol2

> <Gold.PLP.Fitness>
49.2266

> <Gold.PLP.PLP>
-41.3132

> <Gold.PLP.part.hbond>
-2.4577

> <Gold.PLP.part.metal>
0.0000

> <Gold.PLP.part.buried>
-5.6288

> <Gold.PLP.part.nonpolar>
-35.9426

> <Gold.PLP.part.repulsive>
3.0546

> <Gold.PLP.ligand.clash>
0.0000

> <Gold.PLP.ligand.torsion>
0.5792

> <Gold.PLP.Chemscore.Hbond>
1.9500

> <Gold.PLP.Chemscore.CHOScore>
1.0000

> <Gold.PLP.Chemscore.Metal>
0.0000

> <Gold.Chemscore.Hbonds>
donor molecule, donor type, donor heavy atom, donor atom, acceptor molecule, acceptor atom, score
      L1  H    15    33       P1  7948  1.00
      P1  H  7997  8008       L1    10  0.84
      L1  C     4    25       P1  8028  1.00

> <Gold.PLP.Chemscore.Internal.Correction>
0.2217

> <Gold.Rescore>
     Score         DG    S(hbond)    S(metal)    S(lipo)     H(rot)  DE(clash)    DE(int)     intcor
     11.65     -15.35       1.60        0.00      76.05       1.70       0.57       3.13       ----

> <Gold.Chemscore.Fitness>
11.6479

> <Gold.Chemscore.DG>
-15.3541

> <Gold.Chemscore.ZeroCoef>
-5.4800

> <Gold.Chemscore.Hbond>
1.5983

> <Gold.Chemscore.Metal>
0.0000

> <Gold.Chemscore.Lipo>
76.0472

> <Gold.Chemscore.Internal_Hbond>
0.0000

> <Gold.Chemscore.DEClash>
0.5715

> <Gold.Chemscore.DEInternal>
3.1347

> <Gold.Chemscore.Rot>
1.7038

> <Gold.Chemscore.Internal.Correction>
   9.000000E+99

> <Gold.Chemscore.Hbonds>
donor molecule, donor type, donor heavy atom, donor atom, acceptor molecule, acceptor atom, score
      L1  H    15    33       P1  7948  0.45
      P1  H  7997  8008       L1    10  0.82

> <Gold.Chemscore.Hbond.Weighted>
-5.3383

> <Gold.Chemscore.Metal.Weighted>
-0.0000

> <Gold.Chemscore.Lipo.Weighted>
-8.8975

> <Gold.Chemscore.Internal_Hbond.Weighted>
0.0000

> <Gold.Chemscore.DEClash.Weighted>
0.5715

> <Gold.Chemscore.DEInternal.Weighted>
3.1347

> <Gold.Chemscore.Rot.Weighted>
4.3618

> <Gold.Chemscore.Internal.Correction.Weighted>
   9.000000E+99

> <Gold.Protein.RotatedTorsions>
[ 6907 6896 6895 6894 ] final  171.32 input  -60.11 | X-H torsion
[ 7974 7965 7964 7962 ] final -166.25 input  175.53 | X-H torsion
[ 8008 7997 7996 7995 ] final  -42.45 input   59.86 | X-H torsion
[ 10167 10162 10161 10158 ] final   40.18 input  -65.29 | X-H torsion
[ 10718 10713 10712 10709 ] final   -2.53 input   66.30 | X-H torsion
[ 10763 10752 10751 10750 ] final   10.63 input  -60.55 | X-H torsion
[ 11005 11000 10999 10996 ] final   86.57 input  -57.11 | X-H torsion

> <Gold.Protein.ActiveResidues>
 VAL166  LYS551  ARG553  GLY616  TRP617  ASP618  TYR619  PRO620  LYS621  CYS622 
 ASP623  PHE694  ASN695  SER759  ASP760  ASP761  ALA762  ILE779  LEU786  VAL792 
 PHE793  MET794  SER795  GLU796  ALA797  LYS798  CYS799  TRP800  GLU811  SER814 

> <Gold.Protein.RotatedAtoms>
  151.8020  133.3371  159.3529 H   0  0  0  0  0  0  0  0  0  0  0  0  # atno 6907 bound_to 6896
  150.7355  134.5744  159.5916 H   0  0  0  0  0  0  0  0  0  0  0  0  # atno 6908 bound_to 6896
  152.3136  134.7468  160.0382 H   0  0  0  0  0  0  0  0  0  0  0  0  # atno 6909 bound_to 6896
  144.7250  140.2694  143.6253 H   0  0  0  0  0  0  0  0  0  0  0  0  # atno 7974 bound_to 7965
  154.3999  140.1473  156.3357 H   0  0  0  0  0  0  0  0  0  0  0  0  # atno 8008 bound_to 7997
  155.8403  140.3462  155.5606 H   0  0  0  0  0  0  0  0  0  0  0  0  # atno 8009 bound_to 7997
  155.8094  140.0882  157.1903 H   0  0  0  0  0  0  0  0  0  0  0  0  # atno 8010 bound_to 7997
  140.3767  144.2034  150.6131 H   0  0  0  0  0  0  0  0  0  0  0  0  # atno 10167 bound_to 10162
  156.7895  130.5357  149.5738 H   0  0  0  0  0  0  0  0  0  0  0  0  # atno 10718 bound_to 10713
  153.2012  135.6856  153.8229 H   0  0  0  0  0  0  0  0  0  0  0  0  # atno 10763 bound_to 10752
  153.7495  135.3226  155.3319 H   0  0  0  0  0  0  0  0  0  0  0  0  # atno 10764 bound_to 10752
  154.8172  135.4677  154.0778 H   0  0  0  0  0  0  0  0  0  0  0  0  # atno 10765 bound_to 10752
  139.8941  134.8364  156.2739 H   0  0  0  0  0  0  0  0  0  0  0  0  # atno 11005 bound_to 11000
  145.8058  139.1982  143.2022 LP  0  0  0  0  0  0  0  0  0  0  0  0  # atno 17320 bound_to 7965
  146.0638  140.7942  142.9721 LP  0  0  0  0  0  0  0  0  0  0  0  0  # atno 17321 bound_to 7965
  140.4979  143.2327  151.8723 LP  0  0  0  0  0  0  0  0  0  0  0  0  # atno 17342 bound_to 10162
  139.4799  144.5093  151.8955 LP  0  0  0  0  0  0  0  0  0  0  0  0  # atno 17343 bound_to 10162
  156.1168  130.6080  151.0132 LP  0  0  0  0  0  0  0  0  0  0  0  0  # atno 17370 bound_to 10713
  157.6607  131.0881  150.7844 LP  0  0  0  0  0  0  0  0  0  0  0  0  # atno 17371 bound_to 10713
  141.0083  133.7111  156.1070 LP  0  0  0  0  0  0  0  0  0  0  0  0  # atno 17394 bound_to 11000
  140.7403  134.4157  157.5555 LP  0  0  0  0  0  0  0  0  0  0  0  0  # atno 17395 bound_to 11000

$$$$
