AV-unprocessed.smi:3117|AV-procd|sdf|11884|dock3
  -GOLD-   2272017273D 1   1.00000     0.00000
 Structure written by MMmdl.
 36 36  0  0  0  0  0  0  0  0  1 V2000
  145.3679  136.2839  150.9308 C   0  0  0  0  0  0  0  0  0  0  0  0
  145.7354  135.7612  152.3322 C   0  0  2  0  0  0  0  0  0  0  0  0
  146.6594  136.7184  152.9472 N   0  0  0  0  0  0  0  0  0  0  0  0
  146.2687  138.1243  152.8206 C   0  0  0  0  0  0  0  0  0  0  0  0
  147.3122  139.0743  153.4442 C   0  0  0  0  0  0  0  0  0  0  0  0
  147.0308  140.5485  153.1033 C   0  0  0  0  0  0  0  0  0  0  0  0
  147.4718  138.8572  154.9595 C   0  0  0  0  0  0  0  0  0  0  0  0
  148.5538  138.7484  152.8534 O   0  0  0  0  0  0  0  0  0  0  0  0
  146.3399  134.3258  152.2899 C   0  0  1  0  0  0  0  0  0  0  0  0
  146.6729  133.7339  153.6721 C   0  0  0  0  0  0  0  0  0  0  0  0
  145.4876  133.3973  151.5568 N   0  0  0  0  0  0  0  0  0  0  0  0
  145.8046  132.1402  151.0846 C   0  0  0  0  0  0  0  0  0  0  0  0
  144.6927  131.6421  150.4683 C   0  0  0  0  0  0  0  0  0  0  0  0
  143.7309  132.6796  150.6164 C   0  0  0  0  0  0  0  0  0  0  0  0
  144.2079  133.7279  151.2676 N   0  0  0  0  0  0  0  0  0  0  0  0
  144.5852  135.6853  150.4646 H   0  0  0  0  0  0  0  0  0  0  0  0
  146.2322  136.2799  150.2660 H   0  0  0  0  0  0  0  0  0  0  0  0
  144.9931  137.3069  150.9814 H   0  0  0  0  0  0  0  0  0  0  0  0
  144.8083  135.7330  152.9072 H   0  0  0  0  0  0  0  0  0  0  0  0
  147.5839  136.5992  152.5455 H   0  0  0  0  0  0  0  0  0  0  0  0
  146.1449  138.3697  151.7646 H   0  0  0  0  0  0  0  0  0  0  0  0
  145.2992  138.3005  153.2825 H   0  0  0  0  0  0  0  0  0  0  0  0
  146.1000  140.8908  153.5567 H   0  0  0  0  0  0  0  0  0  0  0  0
  146.9460  140.6985  152.0263 H   0  0  0  0  0  0  0  0  0  0  0  0
  147.8273  141.1994  153.4659 H   0  0  0  0  0  0  0  0  0  0  0  0
  146.5605  139.1194  155.4977 H   0  0  0  0  0  0  0  0  0  0  0  0
  148.2765  139.4716  155.3653 H   0  0  0  0  0  0  0  0  0  0  0  0
  147.7031  137.8165  155.1898 H   0  0  0  0  0  0  0  0  0  0  0  0
  148.5405  137.8348  152.6122 H   0  0  0  0  0  0  0  0  0  0  0  0
  147.2775  134.3820  151.7341 H   0  0  0  0  0  0  0  0  0  0  0  0
  147.4973  134.2665  154.1447 H   0  0  0  0  0  0  0  0  0  0  0  0
  146.9833  132.6919  153.5861 H   0  0  0  0  0  0  0  0  0  0  0  0
  145.8133  133.7696  154.3419 H   0  0  0  0  0  0  0  0  0  0  0  0
  146.7848  131.7091  151.2249 H   0  0  0  0  0  0  0  0  0  0  0  0
  144.5828  130.6822  149.9861 H   0  0  0  0  0  0  0  0  0  0  0  0
  142.7072  132.7015  150.2732 H   0  0  0  0  0  0  0  0  0  0  0  0
  1  2  1  0  0  0  0
  1 16  1  0  0  0  0
  1 17  1  0  0  0  0
  1 18  1  0  0  0  0
  2  3  1  0  0  0  0
  2  9  1  0  0  0  0
  2 19  1  0  0  0  0
  3  4  1  0  0  0  0
  3 20  1  0  0  0  0
  4  5  1  0  0  0  0
  4 21  1  0  0  0  0
  4 22  1  0  0  0  0
  5  6  1  0  0  0  0
  5  7  1  0  0  0  0
  5  8  1  0  0  0  0
  6 23  1  0  0  0  0
  6 24  1  0  0  0  0
  6 25  1  0  0  0  0
  7 26  1  0  0  0  0
  7 27  1  0  0  0  0
  7 28  1  0  0  0  0
  8 29  1  0  0  0  0
  9 10  1  0  0  0  0
  9 11  1  0  0  0  0
  9 30  1  0  0  0  0
 10 31  1  0  0  0  0
 10 32  1  0  0  0  0
 10 33  1  0  0  0  0
 11 15  1  0  0  0  0
 11 12  1  0  0  0  0
 12 13  2  0  0  0  0
 12 34  1  0  0  0  0
 13 14  1  0  0  0  0
 13 35  1  0  0  0  0
 14 15  2  0  0  0  0
 14 36  1  0  0  0  0
M  END
> <s_m_source_file>
AV-unprocessed.smi

> <i_m_source_file_index>
3117

> <i_lp_mmshare_version>
43012

> <i_f3d_flags>
0

> <s_epik_input>
W0NIM11DKFtDSDNdKShbT0hdKVtDSDJdW05IXVtDQEBIXShbQ0gzXSlbQ0BIXShbQ0gzXSluMVtjSF1bY0hdW2NIXW4x

> <s_epik_cmdline>
J2VwaWtfcHl0aG9uJywgJy1waCcsICc3LjAnLCAnLXRuJywgJzgnLCAnLW1hJywgJzIwMCcsICctbWV0YWxfYmluZGluZycsICctaW1hZScsICc8aW5maWxlLm1hZT4nLCAnLW9tYWUnLCAnPG91dGZpbGUubWFlPic=

> <r_lp_tautomer_probability>
1

> <r_epik_Ionization_Penalty>
2.13419

> <r_epik_Ionization_Penalty_Charging>
0

> <r_epik_Ionization_Penalty_Neutral>
2.13419

> <r_epik_State_Penalty>
2.27148

> <r_epik_Charging_Adjusted_Penalty>
2.27148

> <i_epik_Tot_Q>
0

> <i_epik_Tot_abs_Q>
0

> <r_epik_Metal_State_Penalty>
2.27029

> <b_epik_Metal_Only>
0

> <s_lp_Force_Field>
OPLS_2005

> <r_lp_Energy>
15.8141

> <b_lp_Chiralities_Consistent>
1

> <s_lp_Variant>
AV-unprocessed.smi:3117-7

> <Gold.Version>
5.8.1

> <Gold.Id.Protein>
6NUR|6NUR_protein|mol2

> <Gold.PLP.Fitness>
38.2841

> <Gold.PLP.PLP>
-26.8418

> <Gold.PLP.part.hbond>
-2.6150

> <Gold.PLP.part.metal>
0.0000

> <Gold.PLP.part.buried>
-1.9646

> <Gold.PLP.part.nonpolar>
-22.4484

> <Gold.PLP.part.repulsive>
0.1435

> <Gold.PLP.ligand.clash>
0.0000

> <Gold.PLP.ligand.torsion>
0.3553

> <Gold.PLP.Chemscore.Hbond>
2.0000

> <Gold.PLP.Chemscore.CHOScore>
2.0000

> <Gold.PLP.Chemscore.Metal>
0.0000

> <Gold.Chemscore.Hbonds>
donor molecule, donor type, donor heavy atom, donor atom, acceptor molecule, acceptor atom, score
      L1  H     3    20       P1  7948  1.00
      L1  H     8    29       P1  7948  1.00
      L1  C    12    34       P1 10747  0.99
      L1  C    14    36       P1 10186  1.00

> <Gold.PLP.Chemscore.Internal.Correction>
0.1530

> <Gold.Rescore>
     Score         DG    S(hbond)    S(metal)    S(lipo)     H(rot)  DE(clash)    DE(int)     intcor
     13.23     -15.00       1.97        0.00      72.99       2.19       0.25       1.52       ----

> <Gold.Chemscore.Fitness>
13.2347

> <Gold.Chemscore.DG>
-15.0029

> <Gold.Chemscore.ZeroCoef>
-5.4800

> <Gold.Chemscore.Hbond>
1.9717

> <Gold.Chemscore.Metal>
0.0000

> <Gold.Chemscore.Lipo>
72.9852

> <Gold.Chemscore.Internal_Hbond>
0.0000

> <Gold.Chemscore.DEClash>
0.2486

> <Gold.Chemscore.DEInternal>
1.5195

> <Gold.Chemscore.Rot>
2.1882

> <Gold.Chemscore.Internal.Correction>
   9.000000E+99

> <Gold.Chemscore.Hbonds>
donor molecule, donor type, donor heavy atom, donor atom, acceptor molecule, acceptor atom, score
      L1  H     3    20       P1  7948  0.97
      L1  H     8    29       P1  7948  1.00

> <Gold.Chemscore.Hbond.Weighted>
-6.5854

> <Gold.Chemscore.Metal.Weighted>
-0.0000

> <Gold.Chemscore.Lipo.Weighted>
-8.5393

> <Gold.Chemscore.Internal_Hbond.Weighted>
0.0000

> <Gold.Chemscore.DEClash.Weighted>
0.2486

> <Gold.Chemscore.DEInternal.Weighted>
1.5195

> <Gold.Chemscore.Rot.Weighted>
5.6018

> <Gold.Chemscore.Internal.Correction.Weighted>
   9.000000E+99

> <Gold.Protein.RotatedTorsions>
[ 6907 6896 6895 6894 ] final -170.61 input  -60.11 | X-H torsion
[ 7974 7965 7964 7962 ] final  -72.83 input  175.53 | X-H torsion
[ 8008 7997 7996 7995 ] final  140.14 input   59.86 | X-H torsion
[ 10167 10162 10161 10158 ] final  100.60 input  -65.29 | X-H torsion
[ 10718 10713 10712 10709 ] final  -53.29 input   66.30 | X-H torsion
[ 10763 10752 10751 10750 ] final  127.22 input  -60.55 | X-H torsion
[ 11005 11000 10999 10996 ] final -129.73 input  -57.11 | X-H torsion

> <Gold.Protein.ActiveResidues>
 VAL166  LYS551  ARG553  GLY616  TRP617  ASP618  TYR619  PRO620  LYS621  CYS622 
 ASP623  PHE694  ASN695  SER759  ASP760  ASP761  ALA762  ILE779  LEU786  VAL792 
 PHE793  MET794  SER795  GLU796  ALA797  LYS798  CYS799  TRP800  GLU811  SER814 

> <Gold.Protein.RotatedAtoms>
  151.5105  133.3486  159.2883 H   0  0  0  0  0  0  0  0  0  0  0  0  # atno 6907 bound_to 6896
  150.8715  134.8092  159.7169 H   0  0  0  0  0  0  0  0  0  0  0  0  # atno 6908 bound_to 6896
  152.4702  134.4989  159.9770 H   0  0  0  0  0  0  0  0  0  0  0  0  # atno 6909 bound_to 6896
  145.6601  140.9255  143.0938 H   0  0  0  0  0  0  0  0  0  0  0  0  # atno 7974 bound_to 7965
  156.2982  140.2349  156.4353 H   0  0  0  0  0  0  0  0  0  0  0  0  # atno 8008 bound_to 7997
  154.8234  140.0436  157.1447 H   0  0  0  0  0  0  0  0  0  0  0  0  # atno 8009 bound_to 7997
  154.9289  140.3014  155.5181 H   0  0  0  0  0  0  0  0  0  0  0  0  # atno 8010 bound_to 7997
  139.7512  144.6983  151.0429 H   0  0  0  0  0  0  0  0  0  0  0  0  # atno 10167 bound_to 10162
  156.1548  130.4150  149.9887 H   0  0  0  0  0  0  0  0  0  0  0  0  # atno 10718 bound_to 10713
  153.7059  135.3276  155.3235 H   0  0  0  0  0  0  0  0  0  0  0  0  # atno 10763 bound_to 10752
  154.8399  135.4465  154.1363 H   0  0  0  0  0  0  0  0  0  0  0  0  # atno 10764 bound_to 10752
  153.2443  135.6974  153.7827 H   0  0  0  0  0  0  0  0  0  0  0  0  # atno 10765 bound_to 10752
  140.9407  134.1197  157.4153 H   0  0  0  0  0  0  0  0  0  0  0  0  # atno 11005 bound_to 11000
  144.7092  139.8438  143.7420 LP  0  0  0  0  0  0  0  0  0  0  0  0  # atno 17320 bound_to 7965
  146.1132  139.4140  143.0274 LP  0  0  0  0  0  0  0  0  0  0  0  0  # atno 17321 bound_to 7965
  140.7798  143.4806  151.0023 LP  0  0  0  0  0  0  0  0  0  0  0  0  # atno 17342 bound_to 10162
  139.8494  143.7458  152.3178 LP  0  0  0  0  0  0  0  0  0  0  0  0  # atno 17343 bound_to 10162
  156.7734  130.9194  151.3645 LP  0  0  0  0  0  0  0  0  0  0  0  0  # atno 17370 bound_to 10713
  157.6686  130.9030  149.9988 LP  0  0  0  0  0  0  0  0  0  0  0  0  # atno 17371 bound_to 10713
  139.8819  135.0035  156.6193 LP  0  0  0  0  0  0  0  0  0  0  0  0  # atno 17394 bound_to 11000
  140.7738  133.8716  155.8513 LP  0  0  0  0  0  0  0  0  0  0  0  0  # atno 17395 bound_to 11000

$$$$
