AV-unprocessed.smi:1005|AV-procd|sdf|4387|dock2
  -GOLD-   22720 2313D 1   1.00000     0.00000
 Structure written by MMmdl.
 55 57  0  0  0  0  0  0  0  0  1 V2000
  152.2083  144.0286  160.9535 C   0  0  0  0  0  0  0  0  0  0  0  0
  152.8405  142.6511  160.8611 C   0  0  0  0  0  0  0  0  0  0  0  0
  152.7598  141.9387  159.6432 C   0  0  0  0  0  0  0  0  0  0  0  0
  153.3346  140.6552  159.5153 C   0  0  0  0  0  0  0  0  0  0  0  0
  153.3743  139.7909  158.4344 N   0  0  0  0  0  0  0  0  0  0  0  0
  154.0477  138.7610  158.9392 C   0  0  0  0  0  0  0  0  0  0  0  0
  154.4491  138.8560  160.2214 N   0  0  0  0  0  0  0  0  0  0  0  0
  155.1919  137.8701  160.9856 C   0  0  0  0  0  0  0  0  0  0  0  0
  154.3278  136.6555  161.3728 C   0  0  1  0  0  0  0  0  0  0  0  0
  153.8634  136.0219  160.1962 O   0  0  0  0  0  0  0  0  0  0  0  0
  155.1289  135.6340  162.2060 C   0  0  0  0  0  0  0  0  0  0  0  0
  154.5297  134.3037  162.3253 N   0  0  0  0  0  0  0  0  0  0  0  0
  155.0415  133.4083  161.2941 C   0  0  0  0  0  0  0  0  0  0  0  0
  154.4325  132.0009  161.4010 C   0  0  0  0  0  0  0  0  0  0  0  0
  154.6742  131.4804  162.7039 O   0  0  0  0  0  0  0  0  0  0  0  0
  154.1226  132.2899  163.7403 C   0  0  1  0  0  0  0  0  0  0  0  0
  154.4166  131.5971  165.0874 C   0  0  0  0  0  0  0  0  0  0  0  0
  155.8269  131.3154  165.3627 N   0  0  0  0  0  0  0  0  0  0  0  0
  156.0118  130.1619  166.2342 C   0  0  0  0  0  0  0  0  0  0  0  0
  156.4846  132.4854  165.9277 C   0  0  0  0  0  0  0  0  0  0  0  0
  154.7604  133.6929  163.6334 C   0  0  0  0  0  0  0  0  0  0  0  0
  153.9985  140.1001  160.6480 C   0  0  0  0  0  0  0  0  0  0  0  0
  154.0858  140.7989  161.8650 C   0  0  0  0  0  0  0  0  0  0  0  0
  153.5059  142.0799  161.9759 C   0  0  0  0  0  0  0  0  0  0  0  0
  153.6041  142.8248  163.2955 C   0  0  0  0  0  0  0  0  0  0  0  0
  151.6863  144.2899  160.0324 H   0  0  0  0  0  0  0  0  0  0  0  0
  152.9717  144.7863  161.1326 H   0  0  0  0  0  0  0  0  0  0  0  0
  151.4850  144.0652  161.7684 H   0  0  0  0  0  0  0  0  0  0  0  0
  152.2538  142.3733  158.7936 H   0  0  0  0  0  0  0  0  0  0  0  0
  154.2598  137.8852  158.3435 H   0  0  0  0  0  0  0  0  0  0  0  0
  156.0605  137.5554  160.4052 H   0  0  0  0  0  0  0  0  0  0  0  0
  155.5759  138.3589  161.8818 H   0  0  0  0  0  0  0  0  0  0  0  0
  153.4645  137.0178  161.9285 H   0  0  0  0  0  0  0  0  0  0  0  0
  154.6100  135.7711  159.6743 H   0  0  0  0  0  0  0  0  0  0  0  0
  156.1224  135.5433  161.7637 H   0  0  0  0  0  0  0  0  0  0  0  0
  155.2900  136.0385  163.2066 H   0  0  0  0  0  0  0  0  0  0  0  0
  154.8271  133.8185  160.3066 H   0  0  0  0  0  0  0  0  0  0  0  0
  156.1275  133.3362  161.3730 H   0  0  0  0  0  0  0  0  0  0  0  0
  153.3599  132.0262  161.2026 H   0  0  0  0  0  0  0  0  0  0  0  0
  154.8800  131.3360  160.6624 H   0  0  0  0  0  0  0  0  0  0  0  0
  153.0433  132.3493  163.5856 H   0  0  0  0  0  0  0  0  0  0  0  0
  154.0554  132.2602  165.8750 H   0  0  0  0  0  0  0  0  0  0  0  0
  153.8214  130.6876  165.1822 H   0  0  0  0  0  0  0  0  0  0  0  0
  157.0683  130.0134  166.4600 H   0  0  0  0  0  0  0  0  0  0  0  0
  155.6582  129.2487  165.7564 H   0  0  0  0  0  0  0  0  0  0  0  0
  155.4787  130.2895  167.1773 H   0  0  0  0  0  0  0  0  0  0  0  0
  157.5476  132.2962  166.0804 H   0  0  0  0  0  0  0  0  0  0  0  0
  156.0464  132.7580  166.8888 H   0  0  0  0  0  0  0  0  0  0  0  0
  156.3965  133.3421  165.2585 H   0  0  0  0  0  0  0  0  0  0  0  0
  155.8330  133.6191  163.8199 H   0  0  0  0  0  0  0  0  0  0  0  0
  154.3560  134.3249  164.4198 H   0  0  0  0  0  0  0  0  0  0  0  0
  154.5945  140.3508  162.7057 H   0  0  0  0  0  0  0  0  0  0  0  0
  154.2055  142.2736  164.0191 H   0  0  0  0  0  0  0  0  0  0  0  0
  152.6127  142.9706  163.7251 H   0  0  0  0  0  0  0  0  0  0  0  0
  154.0675  143.8014  163.1526 H   0  0  0  0  0  0  0  0  0  0  0  0
  1  2  1  0  0  0  0
  1 26  1  0  0  0  0
  1 27  1  0  0  0  0
  1 28  1  0  0  0  0
  2 24  1  0  0  0  0
  2  3  2  0  0  0  0
  3  4  1  0  0  0  0
  3 29  1  0  0  0  0
  4 22  2  0  0  0  0
  4  5  1  0  0  0  0
  5  6  2  0  0  0  0
  6  7  1  0  0  0  0
  6 30  1  0  0  0  0
  7  8  1  0  0  0  0
  7 22  1  0  0  0  0
  8  9  1  0  0  0  0
  8 31  1  0  0  0  0
  8 32  1  0  0  0  0
  9 10  1  0  0  0  0
  9 11  1  0  0  0  0
  9 33  1  0  0  0  0
 10 34  1  0  0  0  0
 11 12  1  0  0  0  0
 11 35  1  0  0  0  0
 11 36  1  0  0  0  0
 12 21  1  0  0  0  0
 12 13  1  0  0  0  0
 13 14  1  0  0  0  0
 13 37  1  0  0  0  0
 13 38  1  0  0  0  0
 14 15  1  0  0  0  0
 14 39  1  0  0  0  0
 14 40  1  0  0  0  0
 15 16  1  0  0  0  0
 16 17  1  0  0  0  0
 16 21  1  0  0  0  0
 16 41  1  0  0  0  0
 17 18  1  0  0  0  0
 17 42  1  0  0  0  0
 17 43  1  0  0  0  0
 18 19  1  0  0  0  0
 18 20  1  0  0  0  0
 19 44  1  0  0  0  0
 19 45  1  0  0  0  0
 19 46  1  0  0  0  0
 20 47  1  0  0  0  0
 20 48  1  0  0  0  0
 20 49  1  0  0  0  0
 21 50  1  0  0  0  0
 21 51  1  0  0  0  0
 22 23  1  0  0  0  0
 23 24  2  0  0  0  0
 23 52  1  0  0  0  0
 24 25  1  0  0  0  0
 25 53  1  0  0  0  0
 25 54  1  0  0  0  0
 25 55  1  0  0  0  0
M  END
> <s_m_source_file>
AV-unprocessed.smi

> <i_m_source_file_index>
1005

> <i_lp_mmshare_version>
43012

> <i_f3d_flags>
0

> <s_epik_input>
W0NIM11jKFtjSF0xKWMoW0NIM10pW2NIXWMoYzEyKW4oW2NIXW4yKVtDSDJdW0NASF0oW09IXSlbQ0gyXU4zW0NIMl1bQ0gyXU9bQ0BIXShbQ0gyXTMpW0NIMl1OKFtDSDNdKVtDSDNd

> <s_epik_cmdline>
J2VwaWtfcHl0aG9uJywgJy1waCcsICc3LjAnLCAnLXRuJywgJzgnLCAnLW1hJywgJzIwMCcsICctbWV0YWxfYmluZGluZycsICctaW1hZScsICc8aW5maWxlLm1hZT4nLCAnLW9tYWUnLCAnPG91dGZpbGUubWFlPic=

> <r_epik_Ionization_Penalty>
2.78613

> <r_epik_Ionization_Penalty_Charging>
0

> <r_epik_Ionization_Penalty_Neutral>
2.78613

> <r_epik_State_Penalty>
2.57336

> <r_epik_Charging_Adjusted_Penalty>
2.57336

> <i_epik_Tot_Q>
0

> <i_epik_Tot_abs_Q>
0

> <r_epik_Metal_State_Penalty>
2.49087

> <b_epik_Metal_Only>
0

> <s_lp_Force_Field>
OPLS_2005

> <r_lp_Energy>
38.3146

> <b_lp_Chiralities_Consistent>
1

> <s_lp_Variant>
AV-unprocessed.smi:1005-26

> <Gold.Version>
5.8.1

> <Gold.Id.Protein>
6NUR|6NUR_protein|mol2

> <Gold.PLP.Fitness>
51.4856

> <Gold.PLP.PLP>
-47.5055

> <Gold.PLP.part.hbond>
-1.9593

> <Gold.PLP.part.metal>
0.0000

> <Gold.PLP.part.buried>
-5.0493

> <Gold.PLP.part.nonpolar>
-40.4021

> <Gold.PLP.part.repulsive>
0.0124

> <Gold.PLP.ligand.clash>
0.0000

> <Gold.PLP.ligand.torsion>
1.0372

> <Gold.PLP.Chemscore.Hbond>
1.9913

> <Gold.PLP.Chemscore.CHOScore>
0.0000

> <Gold.PLP.Chemscore.Metal>
0.0000

> <Gold.Chemscore.Hbonds>
donor molecule, donor type, donor heavy atom, donor atom, acceptor molecule, acceptor atom, score
      P1  H  6896  6907       L1    10  1.00
      P1  H  7997  8008       L1     5  0.60

> <Gold.PLP.Chemscore.Internal.Correction>
0.0808

> <Gold.Rescore>
     Score         DG    S(hbond)    S(metal)    S(lipo)     H(rot)  DE(clash)    DE(int)     intcor
     19.22     -20.53       1.57        0.00     134.02       2.29       0.07       1.23       ----

> <Gold.Chemscore.Fitness>
19.2223

> <Gold.Chemscore.DG>
-20.5287

> <Gold.Chemscore.ZeroCoef>
-5.4800

> <Gold.Chemscore.Hbond>
1.5655

> <Gold.Chemscore.Metal>
0.0000

> <Gold.Chemscore.Lipo>
134.0248

> <Gold.Chemscore.Internal_Hbond>
0.0000

> <Gold.Chemscore.DEClash>
0.0733

> <Gold.Chemscore.DEInternal>
1.2332

> <Gold.Chemscore.Rot>
2.2895

> <Gold.Chemscore.Internal.Correction>
   9.000000E+99

> <Gold.Chemscore.Hbonds>
donor molecule, donor type, donor heavy atom, donor atom, acceptor molecule, acceptor atom, score
      P1  H  6896  6907       L1    10  0.87
      P1  H  7997  8008       L1     5  0.04

> <Gold.Chemscore.Hbond.Weighted>
-5.2289

> <Gold.Chemscore.Metal.Weighted>
-0.0000

> <Gold.Chemscore.Lipo.Weighted>
-15.6809

> <Gold.Chemscore.Internal_Hbond.Weighted>
0.0000

> <Gold.Chemscore.DEClash.Weighted>
0.0733

> <Gold.Chemscore.DEInternal.Weighted>
1.2332

> <Gold.Chemscore.Rot.Weighted>
5.8612

> <Gold.Chemscore.Internal.Correction.Weighted>
   9.000000E+99

> <Gold.Protein.RotatedTorsions>
[ 6907 6896 6895 6894 ] final   50.33 input  -60.11 | X-H torsion
[ 7974 7965 7964 7962 ] final  -85.02 input  175.53 | X-H torsion
[ 8008 7997 7996 7995 ] final  -90.47 input   59.86 | X-H torsion
[ 10167 10162 10161 10158 ] final   35.38 input  -65.29 | X-H torsion
[ 10718 10713 10712 10709 ] final  163.25 input   66.30 | X-H torsion
[ 10763 10752 10751 10750 ] final   49.74 input  -60.55 | X-H torsion
[ 11005 11000 10999 10996 ] final  -67.91 input  -57.11 | X-H torsion

> <Gold.Protein.ActiveResidues>
 VAL166  LYS551  ARG553  GLY616  TRP617  ASP618  TYR619  PRO620  LYS621  CYS622 
 ASP623  PHE694  ASN695  SER759  ASP760  ASP761  ALA762  ILE779  LEU786  VAL792 
 PHE793  MET794  SER795  GLU796  ALA797  LYS798  CYS799  TRP800  GLU811  SER814 

> <Gold.Protein.RotatedAtoms>
  152.3006  134.7615  160.0358 H   0  0  0  0  0  0  0  0  0  0  0  0  # atno 6907 bound_to 6896
  151.8129  133.3379  159.3569 H   0  0  0  0  0  0  0  0  0  0  0  0  # atno 6908 bound_to 6896
  150.7272  134.5576  159.5870 H   0  0  0  0  0  0  0  0  0  0  0  0  # atno 6909 bound_to 6896
  145.4988  140.9548  143.1771 H   0  0  0  0  0  0  0  0  0  0  0  0  # atno 7974 bound_to 7965
  154.6990  140.0530  157.0439 H   0  0  0  0  0  0  0  0  0  0  0  0  # atno 8008 bound_to 7997
  155.0711  140.3199  155.4611 H   0  0  0  0  0  0  0  0  0  0  0  0  # atno 8009 bound_to 7997
  156.2753  140.2081  156.5839 H   0  0  0  0  0  0  0  0  0  0  0  0  # atno 8010 bound_to 7997
  140.4227  144.1436  150.6150 H   0  0  0  0  0  0  0  0  0  0  0  0  # atno 10167 bound_to 10162
  157.1112  131.0468  151.2456 H   0  0  0  0  0  0  0  0  0  0  0  0  # atno 10718 bound_to 10713
  152.9786  135.5901  154.4139 H   0  0  0  0  0  0  0  0  0  0  0  0  # atno 10763 bound_to 10752
  154.3771  135.2767  155.2235 H   0  0  0  0  0  0  0  0  0  0  0  0  # atno 10764 bound_to 10752
  154.4164  135.6069  153.6038 H   0  0  0  0  0  0  0  0  0  0  0  0  # atno 10765 bound_to 10752
  141.1519  133.6729  156.6365 H   0  0  0  0  0  0  0  0  0  0  0  0  # atno 11005 bound_to 11000
  144.7791  139.6564  143.7162 LP  0  0  0  0  0  0  0  0  0  0  0  0  # atno 17320 bound_to 7965
  146.2238  139.5685  142.9600 LP  0  0  0  0  0  0  0  0  0  0  0  0  # atno 17321 bound_to 7965
  140.4515  143.2485  151.9341 LP  0  0  0  0  0  0  0  0  0  0  0  0  # atno 17342 bound_to 10162
  139.4783  144.5557  151.8317 LP  0  0  0  0  0  0  0  0  0  0  0  0  # atno 17343 bound_to 10162
  157.4558  130.7624  149.7191 LP  0  0  0  0  0  0  0  0  0  0  0  0  # atno 17370 bound_to 10713
  155.9850  130.3987  150.3283 LP  0  0  0  0  0  0  0  0  0  0  0  0  # atno 17371 bound_to 10713
  140.3426  134.7836  157.4409 LP  0  0  0  0  0  0  0  0  0  0  0  0  # atno 17394 bound_to 11000
  140.0925  134.5581  155.8430 LP  0  0  0  0  0  0  0  0  0  0  0  0  # atno 17395 bound_to 11000

$$$$
