AV-unprocessed.smi:814|AV-procd|sdf|3823|dock6
  -GOLD-   22720 1263D 1   1.00000     0.00000
 Structure written by MMmdl.
 36 37  0  0  0  0  0  0  0  0  1 V2000
  147.2047  138.6161  153.4009 C   0  0  0  0  0  0  0  0  0  0  0  0
  147.6245  139.9386  153.8225 N   0  0  0  0  0  0  0  0  0  0  0  0
  147.0260  141.1379  153.4591 C   0  0  0  0  0  0  0  0  0  0  0  0
  147.7434  142.1375  154.0707 C   0  0  0  0  0  0  0  0  0  0  0  0
  148.7784  141.5758  154.8101 N   0  0  0  0  0  0  0  0  0  0  0  0
  148.6526  140.2644  154.6299 C   0  0  0  0  0  0  0  0  0  0  0  0
  149.5782  139.2521  155.2309 C   0  0  0  0  0  0  0  0  0  0  0  0
  150.9871  139.8182  155.4695 C   0  0  0  0  0  0  0  0  0  0  0  0
  150.9805  140.8707  156.4787 N   0  0  0  0  0  0  0  0  0  0  0  0
  151.8661  140.9830  157.4808 C   0  0  0  0  0  0  0  0  0  0  0  0
  152.7978  140.1954  157.6482 O   0  0  0  0  0  0  0  0  0  0  0  0
  151.6675  142.1623  158.4425 C   0  0  2  0  0  0  0  0  0  0  0  0
  151.6205  143.5072  157.6807 C   0  0  0  0  0  0  0  0  0  0  0  0
  151.6824  144.6994  158.6193 C   0  0  0  0  0  0  0  0  0  0  0  0
  152.0755  144.6112  159.9016 C   0  0  0  0  0  0  0  0  0  0  0  0
  152.5074  143.3108  160.5561 C   0  0  0  0  0  0  0  0  0  0  0  0
  152.7648  142.1951  159.5256 C   0  0  0  0  0  0  0  0  0  0  0  0
  146.4209  138.6932  152.6468 H   0  0  0  0  0  0  0  0  0  0  0  0
  146.8182  138.0621  154.2567 H   0  0  0  0  0  0  0  0  0  0  0  0
  148.0501  138.0762  152.9741 H   0  0  0  0  0  0  0  0  0  0  0  0
  146.1641  141.1808  152.8096 H   0  0  0  0  0  0  0  0  0  0  0  0
  147.5971  143.2070  154.0351 H   0  0  0  0  0  0  0  0  0  0  0  0
  149.1471  138.9142  156.1742 H   0  0  0  0  0  0  0  0  0  0  0  0
  149.6263  138.3725  154.5885 H   0  0  0  0  0  0  0  0  0  0  0  0
  151.6523  139.0257  155.8133 H   0  0  0  0  0  0  0  0  0  0  0  0
  151.4107  140.1949  154.5368 H   0  0  0  0  0  0  0  0  0  0  0  0
  150.2446  141.5594  156.4166 H   0  0  0  0  0  0  0  0  0  0  0  0
  150.7095  142.0303  158.9492 H   0  0  0  0  0  0  0  0  0  0  0  0
  152.4472  143.5941  156.9739 H   0  0  0  0  0  0  0  0  0  0  0  0
  150.6994  143.5696  157.1000 H   0  0  0  0  0  0  0  0  0  0  0  0
  151.4031  145.6585  158.2083 H   0  0  0  0  0  0  0  0  0  0  0  0
  152.0842  145.4952  160.5220 H   0  0  0  0  0  0  0  0  0  0  0  0
  153.4077  143.4861  161.1457 H   0  0  0  0  0  0  0  0  0  0  0  0
  151.7252  143.0079  161.2527 H   0  0  0  0  0  0  0  0  0  0  0  0
  152.8325  141.2339  160.0374 H   0  0  0  0  0  0  0  0  0  0  0  0
  153.7357  142.3612  159.0557 H   0  0  0  0  0  0  0  0  0  0  0  0
  1  2  1  0  0  0  0
  1 18  1  0  0  0  0
  1 19  1  0  0  0  0
  1 20  1  0  0  0  0
  2  6  1  0  0  0  0
  2  3  1  0  0  0  0
  3  4  2  0  0  0  0
  3 21  1  0  0  0  0
  4  5  1  0  0  0  0
  4 22  1  0  0  0  0
  5  6  2  0  0  0  0
  6  7  1  0  0  0  0
  7  8  1  0  0  0  0
  7 23  1  0  0  0  0
  7 24  1  0  0  0  0
  8  9  1  0  0  0  0
  8 25  1  0  0  0  0
  8 26  1  0  0  0  0
  9 10  1  0  0  0  0
  9 27  1  0  0  0  0
 10 11  2  0  0  0  0
 10 12  1  0  0  0  0
 12 17  1  0  0  0  0
 12 13  1  0  0  0  0
 12 28  1  0  0  0  0
 13 14  1  0  0  0  0
 13 29  1  0  0  0  0
 13 30  1  0  0  0  0
 14 15  2  0  0  0  0
 14 31  1  0  0  0  0
 15 16  1  0  0  0  0
 15 32  1  0  0  0  0
 16 17  1  0  0  0  0
 16 33  1  0  0  0  0
 16 34  1  0  0  0  0
 17 35  1  0  0  0  0
 17 36  1  0  0  0  0
M  END
> <s_m_source_file>
AV-unprocessed.smi

> <i_m_source_file_index>
814

> <i_lp_mmshare_version>
43012

> <i_f3d_flags>
0

> <s_epik_input>
W0NIM11uMVtjSF1bY0hdbmMxW0NIMl1bQ0gyXVtOSF1DKD1PKVtDQEBIXTJbQ0gyXVtDSF09W0NIXVtDSDJdW0NIMl0y

> <s_epik_cmdline>
J2VwaWtfcHl0aG9uJywgJy1waCcsICc3LjAnLCAnLXRuJywgJzgnLCAnLW1hJywgJzIwMCcsICctbWV0YWxfYmluZGluZycsICctaW1hZScsICc8aW5maWxlLm1hZT4nLCAnLW9tYWUnLCAnPG91dGZpbGUubWFlPic=

> <r_lp_tautomer_probability>
1

> <r_epik_Ionization_Penalty>
1.21249

> <r_epik_Ionization_Penalty_Charging>
1.21249

> <r_epik_Ionization_Penalty_Neutral>
1.60917e-08

> <r_epik_State_Penalty>
1.27906

> <r_epik_Charging_Adjusted_Penalty>
2.49154

> <i_epik_Tot_Q>
0

> <i_epik_Tot_abs_Q>
0

> <r_epik_Metal_State_Penalty>
0.409603

> <b_epik_Metal_Only>
0

> <s_lp_Force_Field>
OPLS_2005

> <r_lp_Energy>
6.39824

> <b_lp_Chiralities_Consistent>
1

> <s_lp_Variant>
AV-unprocessed.smi:814-3

> <Gold.Version>
5.8.1

> <Gold.Id.Protein>
6NUR|6NUR_protein|mol2

> <Gold.PLP.Fitness>
45.3454

> <Gold.PLP.PLP>
-38.3279

> <Gold.PLP.part.hbond>
-1.0000

> <Gold.PLP.part.metal>
0.0000

> <Gold.PLP.part.buried>
-4.4450

> <Gold.PLP.part.nonpolar>
-33.3294

> <Gold.PLP.part.repulsive>
0.2375

> <Gold.PLP.ligand.clash>
0.0000

> <Gold.PLP.ligand.torsion>
0.5036

> <Gold.PLP.Chemscore.Hbond>
1.0000

> <Gold.PLP.Chemscore.CHOScore>
1.6669

> <Gold.PLP.Chemscore.Metal>
0.0000

> <Gold.Chemscore.Hbonds>
donor molecule, donor type, donor heavy atom, donor atom, acceptor molecule, acceptor atom, score
      P1  H  7997  8009       L1    11  1.00
      L1  C     3    21       P1 10175  0.71
      L1  C     4    22       P1  8028  0.82

> <Gold.PLP.Chemscore.Internal.Correction>
0.0240

> <Gold.Rescore>
     Score         DG    S(hbond)    S(metal)    S(lipo)     H(rot)  DE(clash)    DE(int)     intcor
     15.99     -16.60       0.95        0.00     102.40       1.58       0.12       0.49       ----

> <Gold.Chemscore.Fitness>
15.9864

> <Gold.Chemscore.DG>
-16.5996

> <Gold.Chemscore.ZeroCoef>
-5.4800

> <Gold.Chemscore.Hbond>
0.9537

> <Gold.Chemscore.Metal>
0.0000

> <Gold.Chemscore.Lipo>
102.4047

> <Gold.Chemscore.Internal_Hbond>
0.0000

> <Gold.Chemscore.DEClash>
0.1237

> <Gold.Chemscore.DEInternal>
0.4894

> <Gold.Chemscore.Rot>
1.5809

> <Gold.Chemscore.Internal.Correction>
   9.000000E+99

> <Gold.Chemscore.Hbonds>
donor molecule, donor type, donor heavy atom, donor atom, acceptor molecule, acceptor atom, score
      P1  H  7997  8009       L1    11  0.94

> <Gold.Chemscore.Hbond.Weighted>
-3.1854

> <Gold.Chemscore.Metal.Weighted>
-0.0000

> <Gold.Chemscore.Lipo.Weighted>
-11.9813

> <Gold.Chemscore.Internal_Hbond.Weighted>
0.0000

> <Gold.Chemscore.DEClash.Weighted>
0.1237

> <Gold.Chemscore.DEInternal.Weighted>
0.4894

> <Gold.Chemscore.Rot.Weighted>
4.0472

> <Gold.Chemscore.Internal.Correction.Weighted>
   9.000000E+99

> <Gold.Protein.RotatedTorsions>
[ 6907 6896 6895 6894 ] final -138.55 input  -60.11 | X-H torsion
[ 7974 7965 7964 7962 ] final  -95.64 input  175.53 | X-H torsion
[ 8008 7997 7996 7995 ] final  169.06 input   59.86 | X-H torsion
[ 10167 10162 10161 10158 ] final   -6.61 input  -65.29 | X-H torsion
[ 10718 10713 10712 10709 ] final   94.03 input   66.30 | X-H torsion
[ 10763 10752 10751 10750 ] final   92.38 input  -60.55 | X-H torsion
[ 11005 11000 10999 10996 ] final  112.88 input  -57.11 | X-H torsion

> <Gold.Protein.ActiveResidues>
 VAL166  LYS551  ARG553  GLY616  TRP617  ASP618  TYR619  PRO620  LYS621  CYS622 
 ASP623  PHE694  ASN695  SER759  ASP760  ASP761  ALA762  ILE779  LEU786  VAL792 
 PHE793  MET794  SER795  GLU796  ALA797  LYS798  CYS799  TRP800  GLU811  SER814 

> <Gold.Protein.RotatedAtoms>
  151.0364  133.5744  159.2655 H   0  0  0  0  0  0  0  0  0  0  0  0  # atno 6907 bound_to 6896
  151.2807  135.0712  159.9178 H   0  0  0  0  0  0  0  0  0  0  0  0  # atno 6908 bound_to 6896
  152.5355  134.0079  159.7979 H   0  0  0  0  0  0  0  0  0  0  0  0  # atno 6909 bound_to 6896
  145.3574  140.9486  143.2520 H   0  0  0  0  0  0  0  0  0  0  0  0  # atno 7974 bound_to 7965
  156.1491  140.1574  156.8799 H   0  0  0  0  0  0  0  0  0  0  0  0  # atno 8008 bound_to 7997
  154.5055  140.0814  156.7922 H   0  0  0  0  0  0  0  0  0  0  0  0  # atno 8009 bound_to 7997
  155.3931  140.3411  155.4255 H   0  0  0  0  0  0  0  0  0  0  0  0  # atno 8010 bound_to 7997
  140.7002  143.6175  150.8645 H   0  0  0  0  0  0  0  0  0  0  0  0  # atno 10167 bound_to 10162
  157.6951  131.0498  150.4124 H   0  0  0  0  0  0  0  0  0  0  0  0  # atno 10718 bound_to 10713
  153.2185  135.4363  155.0462 H   0  0  0  0  0  0  0  0  0  0  0  0  # atno 10763 bound_to 10752
  154.8238  135.3350  154.6962 H   0  0  0  0  0  0  0  0  0  0  0  0  # atno 10764 bound_to 10752
  153.7396  135.7005  153.5026 H   0  0  0  0  0  0  0  0  0  0  0  0  # atno 10765 bound_to 10752
  139.8938  134.9539  156.6654 H   0  0  0  0  0  0  0  0  0  0  0  0  # atno 11005 bound_to 11000
  144.8671  139.5091  143.6785 LP  0  0  0  0  0  0  0  0  0  0  0  0  # atno 17320 bound_to 7965
  146.2942  139.7228  142.9139 LP  0  0  0  0  0  0  0  0  0  0  0  0  # atno 17321 bound_to 7965
  139.9896  143.5861  152.2915 LP  0  0  0  0  0  0  0  0  0  0  0  0  # atno 17342 bound_to 10162
  139.6512  144.7660  151.2145 LP  0  0  0  0  0  0  0  0  0  0  0  0  # atno 17343 bound_to 10162
  156.4506  130.4011  149.6638 LP  0  0  0  0  0  0  0  0  0  0  0  0  # atno 17370 bound_to 10713
  156.3789  130.7568  151.2559 LP  0  0  0  0  0  0  0  0  0  0  0  0  # atno 17371 bound_to 10713
  140.7415  133.8974  155.8281 LP  0  0  0  0  0  0  0  0  0  0  0  0  # atno 17394 bound_to 11000
  141.0074  134.1067  157.4256 LP  0  0  0  0  0  0  0  0  0  0  0  0  # atno 17395 bound_to 11000

$$$$
