AV-unprocessed.smi:901|AV-procd|sdf|4092|dock10
  -GOLD-   22720 1583D 1   1.00000     0.00000
 Structure written by MMmdl.
 43 44  0  0  0  0  0  0  0  0  1 V2000
  143.1998  136.5305  162.4632 C   0  0  0  0  0  0  0  0  0  0  0  0
  144.2838  135.4738  162.5390 C   0  0  0  0  0  0  0  0  0  0  0  0
  143.8152  134.1193  163.0407 C   0  0  0  0  0  0  0  0  0  0  0  0
  145.5570  135.7383  162.1883 C   0  0  0  0  0  0  0  0  0  0  0  0
  146.7014  134.7809  162.2137 C   0  0  2  0  0  0  0  0  0  0  0  0
  147.9989  134.9539  161.4277 C   0  0  2  0  0  0  0  0  0  0  0  0
  148.1930  136.1090  160.4962 C   0  0  0  0  0  0  0  0  0  0  0  0
  147.8269  137.2518  160.7676 O   0  0  0  0  0  0  0  0  0  0  0  0
  148.8704  135.7731  159.3841 N   0  0  0  0  0  0  0  0  0  0  0  0
  149.2159  136.5931  158.2798 C   0  0  0  0  0  0  0  0  0  0  0  0
  148.7734  137.9315  158.0579 C   0  0  0  0  0  0  0  0  0  0  0  0
  149.3629  138.2622  156.8712 C   0  0  0  0  0  0  0  0  0  0  0  0
  150.0880  137.1663  156.4468 N   0  0  0  0  0  0  0  0  0  0  0  0
  150.8850  137.0252  155.2399 C   0  0  0  0  0  0  0  0  0  0  0  0
  150.8503  138.2953  154.3837 C   0  0  0  0  0  0  0  0  0  0  0  0
  150.0968  138.2630  153.2817 N   0  0  0  0  0  0  0  0  0  0  0  0
  151.4898  139.2941  154.7092 O   0  0  0  0  0  0  0  0  0  0  0  0
  149.9955  136.1353  157.3154 N   0  0  0  0  0  0  0  0  0  0  0  0
  147.0092  133.8585  161.0475 C   0  0  0  0  0  0  0  0  0  0  0  0
  147.3976  132.4179  161.3292 C   0  0  0  0  0  0  0  0  0  0  0  0
  146.1841  133.9182  159.7637 C   0  0  0  0  0  0  0  0  0  0  0  0
  142.7754  136.7064  163.4518 H   0  0  0  0  0  0  0  0  0  0  0  0
  142.3993  136.2034  161.7997 H   0  0  0  0  0  0  0  0  0  0  0  0
  143.5869  137.4781  162.0873 H   0  0  0  0  0  0  0  0  0  0  0  0
  143.4002  134.2174  164.0441 H   0  0  0  0  0  0  0  0  0  0  0  0
  144.6214  133.3877  163.0845 H   0  0  0  0  0  0  0  0  0  0  0  0
  143.0375  133.7242  162.3870 H   0  0  0  0  0  0  0  0  0  0  0  0
  145.7910  136.7338  161.8413 H   0  0  0  0  0  0  0  0  0  0  0  0
  146.8119  134.3513  163.2079 H   0  0  0  0  0  0  0  0  0  0  0  0
  148.9001  134.6544  161.9598 H   0  0  0  0  0  0  0  0  0  0  0  0
  149.1787  134.8137  159.3227 H   0  0  0  0  0  0  0  0  0  0  0  0
  148.1283  138.5569  158.6564 H   0  0  0  0  0  0  0  0  0  0  0  0
  149.3228  139.1751  156.2955 H   0  0  0  0  0  0  0  0  0  0  0  0
  151.9089  136.7856  155.5302 H   0  0  0  0  0  0  0  0  0  0  0  0
  150.5126  136.1842  154.6524 H   0  0  0  0  0  0  0  0  0  0  0  0
  150.0417  139.0734  152.6821 H   0  0  0  0  0  0  0  0  0  0  0  0
  149.5850  137.4236  153.0509 H   0  0  0  0  0  0  0  0  0  0  0  0
  147.9912  132.0165  160.5074 H   0  0  0  0  0  0  0  0  0  0  0  0
  146.5069  131.8009  161.4514 H   0  0  0  0  0  0  0  0  0  0  0  0
  147.9888  132.3474  162.2428 H   0  0  0  0  0  0  0  0  0  0  0  0
  146.7652  133.5370  158.9236 H   0  0  0  0  0  0  0  0  0  0  0  0
  145.8747  134.9354  159.5238 H   0  0  0  0  0  0  0  0  0  0  0  0
  145.2849  133.3099  159.8650 H   0  0  0  0  0  0  0  0  0  0  0  0
  1  2  1  0  0  0  0
  1 22  1  0  0  0  0
  1 23  1  0  0  0  0
  1 24  1  0  0  0  0
  2  3  1  0  0  0  0
  2  4  2  0  0  0  0
  3 25  1  0  0  0  0
  3 26  1  0  0  0  0
  3 27  1  0  0  0  0
  4  5  1  0  0  0  0
  4 28  1  0  0  0  0
  5 19  1  0  0  0  0
  5  6  1  0  0  0  0
  5 29  1  0  0  0  0
  6  7  1  0  0  0  0
  6 19  1  0  0  0  0
  6 30  1  0  0  0  0
  7  8  2  0  0  0  0
  7  9  1  0  0  0  0
  9 10  1  0  0  0  0
  9 31  1  0  0  0  0
 10 18  2  0  0  0  0
 10 11  1  0  0  0  0
 11 12  2  0  0  0  0
 11 32  1  0  0  0  0
 12 13  1  0  0  0  0
 12 33  1  0  0  0  0
 13 14  1  0  0  0  0
 13 18  1  0  0  0  0
 14 15  1  0  0  0  0
 14 34  1  0  0  0  0
 14 35  1  0  0  0  0
 15 16  1  0  0  0  0
 15 17  2  0  0  0  0
 16 36  1  0  0  0  0
 16 37  1  0  0  0  0
 19 20  1  0  0  0  0
 19 21  1  0  0  0  0
 20 38  1  0  0  0  0
 20 39  1  0  0  0  0
 20 40  1  0  0  0  0
 21 41  1  0  0  0  0
 21 42  1  0  0  0  0
 21 43  1  0  0  0  0
M  END
> <s_m_source_file>
AV-unprocessed.smi

> <i_m_source_file_index>
901

> <i_lp_mmshare_version>
43012

> <i_f3d_flags>
0

> <s_epik_input>
W0NIM11DKFtDSDNdKT1bQ0hdW0NAQEhdKEMxKFtDSDNdKVtDSDNdKVtDQEhdMUMoPU8pW05IXWMyW2NIXVtjSF1uKG4yKVtDSDJdQyg9TylbTkgyXQ==

> <s_epik_cmdline>
J2VwaWtfcHl0aG9uJywgJy1waCcsICc3LjAnLCAnLXRuJywgJzgnLCAnLW1hJywgJzIwMCcsICctbWV0YWxfYmluZGluZycsICctaW1hZScsICc8aW5maWxlLm1hZT4nLCAnLW9tYWUnLCAnPG91dGZpbGUubWFlPic=

> <r_lp_tautomer_probability>
1

> <r_epik_Ionization_Penalty>
1.01454e-05

> <r_epik_Ionization_Penalty_Charging>
0

> <r_epik_Ionization_Penalty_Neutral>
1.01454e-05

> <r_epik_State_Penalty>
-0

> <r_epik_Charging_Adjusted_Penalty>
0

> <i_epik_Tot_Q>
0

> <i_epik_Tot_abs_Q>
0

> <r_epik_Metal_State_Penalty>
-0

> <b_epik_Metal_Only>
0

> <s_lp_Force_Field>
OPLS_2005

> <r_lp_Energy>
21.7989

> <b_lp_Chiralities_Consistent>
1

> <s_lp_Variant>
AV-unprocessed.smi:901-3

> <Gold.Version>
5.8.1

> <Gold.Id.Protein>
6NUR|6NUR_protein|mol2

> <Gold.PLP.Fitness>
45.4942

> <Gold.PLP.PLP>
-33.1397

> <Gold.PLP.part.hbond>
-5.4327

> <Gold.PLP.part.metal>
0.0000

> <Gold.PLP.part.buried>
-4.9056

> <Gold.PLP.part.nonpolar>
-22.1592

> <Gold.PLP.part.repulsive>
0.3074

> <Gold.PLP.ligand.clash>
0.0000

> <Gold.PLP.ligand.torsion>
0.9195

> <Gold.PLP.Chemscore.Hbond>
4.6560

> <Gold.PLP.Chemscore.CHOScore>
0.0000

> <Gold.PLP.Chemscore.Metal>
0.0000

> <Gold.Chemscore.Hbonds>
donor molecule, donor type, donor heavy atom, donor atom, acceptor molecule, acceptor atom, score
      L1  H    16    36       P1  7957  1.00
      L1  H    16    37       P1  7948  1.00
      P1  H  6931  6943       L1     8  0.82
      P1  H  6934  6947       L1     8  0.83
      P1  H  7989  7998       L1    17  1.00

> <Gold.PLP.Chemscore.Internal.Correction>
0.2254

> <Gold.Rescore>
     Score         DG    S(hbond)    S(metal)    S(lipo)     H(rot)  DE(clash)    DE(int)     intcor
     20.68     -22.80       4.50        0.00      66.28       2.13       0.16       1.95       ----

> <Gold.Chemscore.Fitness>
20.6828

> <Gold.Chemscore.DG>
-22.8018

> <Gold.Chemscore.ZeroCoef>
-5.4800

> <Gold.Chemscore.Hbond>
4.4977

> <Gold.Chemscore.Metal>
0.0000

> <Gold.Chemscore.Lipo>
66.2776

> <Gold.Chemscore.Internal_Hbond>
0.0000

> <Gold.Chemscore.DEClash>
0.1648

> <Gold.Chemscore.DEInternal>
1.9542

> <Gold.Chemscore.Rot>
2.1309

> <Gold.Chemscore.Internal.Correction>
   9.000000E+99

> <Gold.Chemscore.Hbonds>
donor molecule, donor type, donor heavy atom, donor atom, acceptor molecule, acceptor atom, score
      L1  H    16    36       P1  7957  0.73
      L1  H    16    37       P1  7948  0.70
      P1  H  6931  6943       L1     8  0.73
      P1  H  6934  6947       L1     8  0.83
      P1  H  7989  7998       L1    17  0.95

> <Gold.Chemscore.Hbond.Weighted>
-15.0225

> <Gold.Chemscore.Metal.Weighted>
-0.0000

> <Gold.Chemscore.Lipo.Weighted>
-7.7545

> <Gold.Chemscore.Internal_Hbond.Weighted>
0.0000

> <Gold.Chemscore.DEClash.Weighted>
0.1648

> <Gold.Chemscore.DEInternal.Weighted>
1.9542

> <Gold.Chemscore.Rot.Weighted>
5.4552

> <Gold.Chemscore.Internal.Correction.Weighted>
   9.000000E+99

> <Gold.Protein.RotatedTorsions>
[ 6907 6896 6895 6894 ] final -150.77 input  -60.11 | X-H torsion
[ 7974 7965 7964 7962 ] final  -23.46 input  175.53 | X-H torsion
[ 8008 7997 7996 7995 ] final    4.28 input   59.86 | X-H torsion
[ 10167 10162 10161 10158 ] final -172.93 input  -65.29 | X-H torsion
[ 10718 10713 10712 10709 ] final  -37.01 input   66.30 | X-H torsion
[ 10763 10752 10751 10750 ] final   -9.33 input  -60.55 | X-H torsion
[ 11005 11000 10999 10996 ] final  102.03 input  -57.11 | X-H torsion

> <Gold.Protein.ActiveResidues>
 VAL166  LYS551  ARG553  GLY616  TRP617  ASP618  TYR619  PRO620  LYS621  CYS622 
 ASP623  PHE694  ASN695  SER759  ASP760  ASP761  ALA762  ILE779  LEU786  VAL792 
 PHE793  MET794  SER795  GLU796  ALA797  LYS798  CYS799  TRP800  GLU811  SER814 

> <Gold.Protein.RotatedAtoms>
  151.2034  133.4598  159.2596 H   0  0  0  0  0  0  0  0  0  0  0  0  # atno 6907 bound_to 6896
  151.1047  134.9993  159.8476 H   0  0  0  0  0  0  0  0  0  0  0  0  # atno 6908 bound_to 6896
  152.5446  134.1957  159.8745 H   0  0  0  0  0  0  0  0  0  0  0  0  # atno 6909 bound_to 6896
  146.1615  140.4618  142.8569 H   0  0  0  0  0  0  0  0  0  0  0  0  # atno 7974 bound_to 7965
  154.7140  140.2698  155.6603 H   0  0  0  0  0  0  0  0  0  0  0  0  # atno 8008 bound_to 7997
  156.2804  140.2747  156.1715 H   0  0  0  0  0  0  0  0  0  0  0  0  # atno 8009 bound_to 7997
  155.0596  140.0371  157.2562 H   0  0  0  0  0  0  0  0  0  0  0  0  # atno 8010 bound_to 7997
  139.5717  144.1627  152.1393 H   0  0  0  0  0  0  0  0  0  0  0  0  # atno 10167 bound_to 10162
  156.3202  130.4264  149.7967 H   0  0  0  0  0  0  0  0  0  0  0  0  # atno 10718 bound_to 10713
  153.4532  135.7015  153.6095 H   0  0  0  0  0  0  0  0  0  0  0  0  # atno 10763 bound_to 10752
  153.4421  135.3777  155.2234 H   0  0  0  0  0  0  0  0  0  0  0  0  # atno 10764 bound_to 10752
  154.8728  135.3976  154.3948 H   0  0  0  0  0  0  0  0  0  0  0  0  # atno 10765 bound_to 10752
  139.8775  134.9207  156.4996 H   0  0  0  0  0  0  0  0  0  0  0  0  # atno 11005 bound_to 11000
  144.8033  140.6254  143.6463 LP  0  0  0  0  0  0  0  0  0  0  0  0  # atno 17320 bound_to 7965
  145.4576  139.1516  143.3884 LP  0  0  0  0  0  0  0  0  0  0  0  0  # atno 17321 bound_to 7965
  140.1161  144.5414  150.6893 LP  0  0  0  0  0  0  0  0  0  0  0  0  # atno 17342 bound_to 10162
  140.7001  143.2429  151.4889 LP  0  0  0  0  0  0  0  0  0  0  0  0  # atno 17343 bound_to 10162
  156.5278  130.8244  151.3226 LP  0  0  0  0  0  0  0  0  0  0  0  0  # atno 17370 bound_to 10713
  157.7410  130.9861  150.2416 LP  0  0  0  0  0  0  0  0  0  0  0  0  # atno 17371 bound_to 10713
  140.8599  133.8068  155.9254 LP  0  0  0  0  0  0  0  0  0  0  0  0  # atno 17394 bound_to 11000
  140.9060  134.2320  157.5014 LP  0  0  0  0  0  0  0  0  0  0  0  0  # atno 17395 bound_to 11000

$$$$
