AV-unprocessed.smi:1005|AV-procd|sdf|4364|dock6
  -GOLD-   22720 2263D 1   1.00000     0.00000
 Structure written by MMmdl.
 56 58  0  0  0  0  0  0  0  0  2 V2000
  152.9132  143.5239  161.2307 C   0  0  0  0  0  0  0  0  0  0  0  0
  152.3586  142.9814  159.9255 C   0  0  0  0  0  0  0  0  0  0  0  0
  152.8382  141.7457  159.4359 C   0  0  0  0  0  0  0  0  0  0  0  0
  152.3468  141.2054  158.2274 C   0  0  0  0  0  0  0  0  0  0  0  0
  152.6668  140.0276  157.5743 N   0  0  0  0  0  0  0  0  0  0  0  0
  151.8742  140.0888  156.5086 C   0  0  0  0  0  0  0  0  0  0  0  0
  151.0704  141.1637  156.3981 N   0  0  0  0  0  0  0  0  0  0  0  0
  150.1180  141.4323  155.3355 C   0  0  0  0  0  0  0  0  0  0  0  0
  149.4809  140.1421  154.7865 C   0  0  2  0  0  0  0  0  0  0  0  0
  150.3495  139.6144  153.8060 O   0  0  0  0  0  0  0  0  0  0  0  0
  148.0980  140.3719  154.1353 C   0  0  0  0  0  0  0  0  0  0  0  0
  147.3425  139.1571  153.8280 N   0  0  0  0  0  0  0  0  0  0  0  0
  146.9760  139.1189  152.4167 C   0  0  0  0  0  0  0  0  0  0  0  0
  146.1703  137.8573  152.0672 C   0  0  0  0  0  0  0  0  0  0  0  0
  145.0111  137.7929  152.8912 O   0  0  0  0  0  0  0  0  0  0  0  0
  145.3163  137.7755  154.2836 C   0  0  2  0  0  0  0  0  0  0  0  0
  143.9901  137.7188  155.0620 C   0  0  0  0  0  0  0  0  0  0  0  0
  142.8755  138.3815  154.3385 N   0  3  0  0  0  0  0  0  0  0  0  0
  142.1871  137.4895  153.3774 C   0  0  0  0  0  0  0  0  0  0  0  0
  141.9169  139.0270  155.2624 C   0  0  0  0  0  0  0  0  0  0  0  0
  146.1243  139.0428  154.6295 C   0  0  0  0  0  0  0  0  0  0  0  0
  151.3539  141.9409  157.5162 C   0  0  0  0  0  0  0  0  0  0  0  0
  150.8696  143.1719  157.9926 C   0  0  0  0  0  0  0  0  0  0  0  0
  151.3726  143.6981  159.2008 C   0  0  0  0  0  0  0  0  0  0  0  0
  150.8428  145.0281  159.7063 C   0  0  0  0  0  0  0  0  0  0  0  0
  153.6198  142.8279  161.6839 H   0  0  0  0  0  0  0  0  0  0  0  0
  152.1093  143.6958  161.9466 H   0  0  0  0  0  0  0  0  0  0  0  0
  153.4339  144.4666  161.0609 H   0  0  0  0  0  0  0  0  0  0  0  0
  153.5893  141.1992  159.9871 H   0  0  0  0  0  0  0  0  0  0  0  0
  151.8708  139.3024  155.7679 H   0  0  0  0  0  0  0  0  0  0  0  0
  149.3502  142.1101  155.7105 H   0  0  0  0  0  0  0  0  0  0  0  0
  150.6420  141.9642  154.5401 H   0  0  0  0  0  0  0  0  0  0  0  0
  149.4226  139.4211  155.6006 H   0  0  0  0  0  0  0  0  0  0  0  0
  149.8621  139.5041  153.0038 H   0  0  0  0  0  0  0  0  0  0  0  0
  147.4827  141.0007  154.7789 H   0  0  0  0  0  0  0  0  0  0  0  0
  148.2448  140.9555  153.2251 H   0  0  0  0  0  0  0  0  0  0  0  0
  146.3895  140.0032  152.1620 H   0  0  0  0  0  0  0  0  0  0  0  0
  147.8745  139.1530  151.7993 H   0  0  0  0  0  0  0  0  0  0  0  0
  145.8643  137.8798  151.0212 H   0  0  0  0  0  0  0  0  0  0  0  0
  146.7756  136.9601  152.2057 H   0  0  0  0  0  0  0  0  0  0  0  0
  145.9260  136.8999  154.5082 H   0  0  0  0  0  0  0  0  0  0  0  0
  143.7166  136.6855  155.2813 H   0  0  0  0  0  0  0  0  0  0  0  0
  144.1412  138.2059  156.0268 H   0  0  0  0  0  0  0  0  0  0  0  0
  141.7339  136.6391  153.8887 H   0  0  0  0  0  0  0  0  0  0  0  0
  142.8726  137.1080  152.6215 H   0  0  0  0  0  0  0  0  0  0  0  0
  141.3974  138.0288  152.8532 H   0  0  0  0  0  0  0  0  0  0  0  0
  141.4367  138.2891  155.9063 H   0  0  0  0  0  0  0  0  0  0  0  0
  141.1405  139.5544  154.7072 H   0  0  0  0  0  0  0  0  0  0  0  0
  142.4211  139.7586  155.8950 H   0  0  0  0  0  0  0  0  0  0  0  0
  146.3664  139.0183  155.6907 H   0  0  0  0  0  0  0  0  0  0  0  0
  145.4991  139.9240  154.4762 H   0  0  0  0  0  0  0  0  0  0  0  0
  150.1157  143.7060  157.4334 H   0  0  0  0  0  0  0  0  0  0  0  0
  150.1433  145.4727  158.9977 H   0  0  0  0  0  0  0  0  0  0  0  0
  151.6590  145.7351  159.8560 H   0  0  0  0  0  0  0  0  0  0  0  0
  150.3208  144.8942  160.6540 H   0  0  0  0  0  0  0  0  0  0  0  0
  143.2897  139.1304  153.8010 H   0  0  0  0  0  0  0  0  0  0  0  0
  1  2  1  0  0  0  0
  1 26  1  0  0  0  0
  1 27  1  0  0  0  0
  1 28  1  0  0  0  0
  2 24  1  0  0  0  0
  2  3  2  0  0  0  0
  3  4  1  0  0  0  0
  3 29  1  0  0  0  0
  4 22  2  0  0  0  0
  4  5  1  0  0  0  0
  5  6  2  0  0  0  0
  6  7  1  0  0  0  0
  6 30  1  0  0  0  0
  7  8  1  0  0  0  0
  7 22  1  0  0  0  0
  8  9  1  0  0  0  0
  8 31  1  0  0  0  0
  8 32  1  0  0  0  0
  9 10  1  0  0  0  0
  9 11  1  0  0  0  0
  9 33  1  0  0  0  0
 10 34  1  0  0  0  0
 11 12  1  0  0  0  0
 11 35  1  0  0  0  0
 11 36  1  0  0  0  0
 12 21  1  0  0  0  0
 12 13  1  0  0  0  0
 13 14  1  0  0  0  0
 13 37  1  0  0  0  0
 13 38  1  0  0  0  0
 14 15  1  0  0  0  0
 14 39  1  0  0  0  0
 14 40  1  0  0  0  0
 15 16  1  0  0  0  0
 16 17  1  0  0  0  0
 16 21  1  0  0  0  0
 16 41  1  0  0  0  0
 17 18  1  0  0  0  0
 17 42  1  0  0  0  0
 17 43  1  0  0  0  0
 18 19  1  0  0  0  0
 18 20  1  0  0  0  0
 18 56  1  0  0  0  0
 19 44  1  0  0  0  0
 19 45  1  0  0  0  0
 19 46  1  0  0  0  0
 20 47  1  0  0  0  0
 20 48  1  0  0  0  0
 20 49  1  0  0  0  0
 21 50  1  0  0  0  0
 21 51  1  0  0  0  0
 22 23  1  0  0  0  0
 23 24  2  0  0  0  0
 23 52  1  0  0  0  0
 24 25  1  0  0  0  0
 25 53  1  0  0  0  0
 25 54  1  0  0  0  0
 25 55  1  0  0  0  0
M  CHG  1  18   1
M  END
> <s_m_source_file>
AV-unprocessed.smi

> <i_m_source_file_index>
1005

> <i_lp_mmshare_version>
43012

> <i_f3d_flags>
0

> <s_epik_input>
W0NIM11jKFtjSF0xKWMoW0NIM10pW2NIXWMoYzEyKW4oW2NIXW4yKVtDSDJdW0NASF0oW09IXSlbQ0gyXU4zW0NIMl1bQ0gyXU9bQ0BIXShbQ0gyXTMpW0NIMl1OKFtDSDNdKVtDSDNd

> <s_epik_cmdline>
J2VwaWtfcHl0aG9uJywgJy1waCcsICc3LjAnLCAnLXRuJywgJzgnLCAnLW1hJywgJzIwMCcsICctbWV0YWxfYmluZGluZycsICctaW1hZScsICc8aW5maWxlLm1hZT4nLCAnLW9tYWUnLCAnPG91dGZpbGUubWFlPic=

> <r_epik_Ionization_Penalty>
0.226781

> <r_epik_Ionization_Penalty_Charging>
0.00915946

> <r_epik_Ionization_Penalty_Neutral>
0.217622

> <r_epik_State_Penalty>
0.173018

> <r_epik_Charging_Adjusted_Penalty>
0.182178

> <i_epik_Tot_Q>
1

> <i_epik_Tot_abs_Q>
1

> <r_epik_Metal_State_Penalty>
0.0905268

> <b_epik_Metal_Only>
0

> <s_lp_Force_Field>
OPLS_2005

> <r_lp_Energy>
37.9452

> <b_lp_Chiralities_Consistent>
1

> <s_lp_Variant>
AV-unprocessed.smi:1005-3

> <Gold.Version>
5.8.1

> <Gold.Id.Protein>
6NUR|6NUR_protein|mol2

> <Gold.PLP.Fitness>
56.5314

> <Gold.PLP.PLP>
-45.7740

> <Gold.PLP.part.hbond>
-4.0000

> <Gold.PLP.part.metal>
0.0000

> <Gold.PLP.part.buried>
-2.7829

> <Gold.PLP.part.nonpolar>
-38.9924

> <Gold.PLP.part.repulsive>
1.2727

> <Gold.PLP.ligand.clash>
0.0000

> <Gold.PLP.ligand.torsion>
2.1736

> <Gold.PLP.Chemscore.Hbond>
4.9515

> <Gold.PLP.Chemscore.CHOScore>
0.0000

> <Gold.PLP.Chemscore.Metal>
0.0000

> <Gold.Chemscore.Hbonds>
donor molecule, donor type, donor heavy atom, donor atom, acceptor molecule, acceptor atom, score
      L1  H    10    34       P1  7957  0.94
      L1  H    18    56       P1 10175  2.00
      P1  H  7989  7998       L1    10  0.99
      P1  H  7997  8010       L1     5  0.96

> <Gold.PLP.Chemscore.Internal.Correction>
0.2503

> <Gold.Rescore>
     Score         DG    S(hbond)    S(metal)    S(lipo)     H(rot)  DE(clash)    DE(int)     intcor
     19.49     -24.29       3.15        0.00     123.67       2.41       1.31       3.49       ----

> <Gold.Chemscore.Fitness>
19.4931

> <Gold.Chemscore.DG>
-24.2917

> <Gold.Chemscore.ZeroCoef>
-5.4800

> <Gold.Chemscore.Hbond>
3.1501

> <Gold.Chemscore.Metal>
0.0000

> <Gold.Chemscore.Lipo>
123.6671

> <Gold.Chemscore.Internal_Hbond>
0.0000

> <Gold.Chemscore.DEClash>
1.3116

> <Gold.Chemscore.DEInternal>
3.4870

> <Gold.Chemscore.Rot>
2.4136

> <Gold.Chemscore.Internal.Correction>
   9.000000E+99

> <Gold.Chemscore.Hbonds>
donor molecule, donor type, donor heavy atom, donor atom, acceptor molecule, acceptor atom, score
      L1  H    10    34       P1  7957  0.90
      L1  H    18    56       P1 10175  1.00
      P1  H  7989  7998       L1    10  0.34
      P1  H  7997  8010       L1     5  0.50

> <Gold.Chemscore.Hbond.Weighted>
-10.5214

> <Gold.Chemscore.Metal.Weighted>
-0.0000

> <Gold.Chemscore.Lipo.Weighted>
-14.4691

> <Gold.Chemscore.Internal_Hbond.Weighted>
0.0000

> <Gold.Chemscore.DEClash.Weighted>
1.3116

> <Gold.Chemscore.DEInternal.Weighted>
3.4870

> <Gold.Chemscore.Rot.Weighted>
6.1788

> <Gold.Chemscore.Internal.Correction.Weighted>
   9.000000E+99

> <Gold.Protein.RotatedTorsions>
[ 6907 6896 6895 6894 ] final  116.97 input  -60.11 | X-H torsion
[ 7974 7965 7964 7962 ] final  -24.34 input  175.53 | X-H torsion
[ 8008 7997 7996 7995 ] final   37.85 input   59.86 | X-H torsion
[ 10167 10162 10161 10158 ] final  -71.05 input  -65.29 | X-H torsion
[ 10718 10713 10712 10709 ] final  -41.31 input   66.30 | X-H torsion
[ 10763 10752 10751 10750 ] final   27.35 input  -60.55 | X-H torsion
[ 11005 11000 10999 10996 ] final -152.16 input  -57.11 | X-H torsion

> <Gold.Protein.ActiveResidues>
 VAL166  LYS551  ARG553  GLY616  TRP617  ASP618  TYR619  PRO620  LYS621  CYS622 
 ASP623  PHE694  ASN695  SER759  ASP760  ASP761  ALA762  ILE779  LEU786  VAL792 
 PHE793  MET794  SER795  GLU796  ALA797  LYS798  CYS799  TRP800  GLU811  SER814 

> <Gold.Protein.RotatedAtoms>
  152.4643  133.7889  159.6890 H   0  0  0  0  0  0  0  0  0  0  0  0  # atno 6907 bound_to 6896
  150.8600  133.7647  159.3002 H   0  0  0  0  0  0  0  0  0  0  0  0  # atno 6908 bound_to 6896
  151.5216  135.1070  159.9932 H   0  0  0  0  0  0  0  0  0  0  0  0  # atno 6909 bound_to 6896
  146.1560  140.4739  142.8591 H   0  0  0  0  0  0  0  0  0  0  0  0  # atno 7974 bound_to 7965
  155.2106  140.3323  155.4329 H   0  0  0  0  0  0  0  0  0  0  0  0  # atno 8008 bound_to 7997
  156.2372  140.1878  156.7136 H   0  0  0  0  0  0  0  0  0  0  0  0  # atno 8009 bound_to 7997
  154.6081  140.0613  156.9443 H   0  0  0  0  0  0  0  0  0  0  0  0  # atno 8010 bound_to 7997
  140.5303  143.2322  151.7273 H   0  0  0  0  0  0  0  0  0  0  0  0  # atno 10167 bound_to 10162
  156.2718  130.4207  149.8430 H   0  0  0  0  0  0  0  0  0  0  0  0  # atno 10718 bound_to 10713
  153.0561  135.6539  154.0573 H   0  0  0  0  0  0  0  0  0  0  0  0  # atno 10763 bound_to 10752
  154.0251  135.2916  155.3377 H   0  0  0  0  0  0  0  0  0  0  0  0  # atno 10764 bound_to 10752
  154.6877  135.5295  153.8416 H   0  0  0  0  0  0  0  0  0  0  0  0  # atno 10765 bound_to 10752
  140.7219  134.3718  157.5182 H   0  0  0  0  0  0  0  0  0  0  0  0  # atno 11005 bound_to 11000
  144.7964  140.6131  143.6507 LP  0  0  0  0  0  0  0  0  0  0  0  0  # atno 17320 bound_to 7965
  145.4706  139.1504  143.3816 LP  0  0  0  0  0  0  0  0  0  0  0  0  # atno 17321 bound_to 7965
  139.4952  144.4123  152.0067 LP  0  0  0  0  0  0  0  0  0  0  0  0  # atno 17342 bound_to 10162
  140.3225  144.3411  150.6006 LP  0  0  0  0  0  0  0  0  0  0  0  0  # atno 17343 bound_to 10162
  156.5909  130.8506  151.3407 LP  0  0  0  0  0  0  0  0  0  0  0  0  # atno 17370 bound_to 10713
  157.7286  130.9659  150.1751 LP  0  0  0  0  0  0  0  0  0  0  0  0  # atno 17371 bound_to 10713
  139.8846  134.8960  156.2692 LP  0  0  0  0  0  0  0  0  0  0  0  0  # atno 17394 bound_to 11000
  140.9996  133.7159  156.0940 LP  0  0  0  0  0  0  0  0  0  0  0  0  # atno 17395 bound_to 11000

$$$$
