AV-unprocessed.smi:153|AV-procd|sdf|1256|dock5
  -GOLD-   2262018493D 1   1.00000     0.00000
 Structure written by MMmdl.
 60 63  0  0  0  0  0  0  0  0  2 V2000
  147.1730  133.2653  152.7010 C   0  0  0  0  0  0  0  0  0  0  0  0
  145.7225  132.8889  152.3491 C   0  0  2  0  0  0  0  0  0  0  0  0
  145.5084  131.4957  152.5704 O   0  0  0  0  0  0  0  0  0  0  0  0
  145.1505  130.8614  151.3522 C   0  0  0  0  0  0  0  0  0  0  0  0
  144.4339  131.9525  150.5687 C   0  0  0  0  0  0  0  0  0  0  0  0
  145.2535  133.1904  150.9019 C   0  0  2  0  0  0  0  0  0  0  0  0
  146.3574  133.2363  150.0117 O   0  0  0  0  0  0  0  0  0  0  0  0
  144.4400  134.4989  150.7478 C   0  0  0  0  0  0  0  0  0  0  0  0
  145.1738  135.6870  151.1541 N   0  0  0  0  0  0  0  0  0  0  0  0
  146.0250  136.4336  150.3738 C   0  0  0  0  0  0  0  0  0  0  0  0
  146.5437  137.4752  150.9619 N   0  0  0  0  0  0  0  0  0  0  0  0
  146.0302  137.4408  152.2552 C   0  0  0  0  0  0  0  0  0  0  0  0
  146.1592  138.2701  153.4125 C   0  0  0  0  0  0  0  0  0  0  0  0
  146.9079  139.4067  153.4889 N   0  0  0  0  0  0  0  0  0  0  0  0
  147.6676  139.8518  152.3271 C   0  0  0  0  0  0  0  0  0  0  0  0
  146.5811  140.3980  154.5162 C   0  0  0  0  0  0  0  0  0  0  0  0
  147.8021  141.2438  154.9342 C   0  0  1  0  0  0  0  0  0  0  0  0
  147.8076  142.4309  154.1650 O   0  0  0  0  0  0  0  0  0  0  0  0
  147.7233  141.6579  156.4172 C   0  0  0  0  0  0  0  0  0  0  0  0
  148.9855  142.2689  156.9072 N   0  3  0  0  0  0  0  0  0  0  0  0
  148.9585  142.5399  158.3640 C   0  0  0  0  0  0  0  0  0  0  0  0
  150.2565  143.2381  158.8030 C   0  0  0  0  0  0  0  0  0  0  0  0
  151.3730  142.4299  158.4525 O   0  0  0  0  0  0  0  0  0  0  0  0
  151.4632  142.2271  157.0477 C   0  0  0  0  0  0  0  0  0  0  0  0
  150.2032  141.5007  156.5466 C   0  0  0  0  0  0  0  0  0  0  0  0
  145.4645  137.8925  154.5187 N   0  0  0  0  0  0  0  0  0  0  0  0
  144.7035  136.7956  154.5096 C   0  0  0  0  0  0  0  0  0  0  0  0
  144.4881  135.9411  153.5101 N   0  0  0  0  0  0  0  0  0  0  0  0
  145.1726  136.3093  152.3904 C   0  0  0  0  0  0  0  0  0  0  0  0
  147.3624  134.3243  152.5262 H   0  0  0  0  0  0  0  0  0  0  0  0
  147.8899  132.6931  152.1119 H   0  0  0  0  0  0  0  0  0  0  0  0
  147.3792  133.0624  153.7519 H   0  0  0  0  0  0  0  0  0  0  0  0
  145.0586  133.3955  153.0503 H   0  0  0  0  0  0  0  0  0  0  0  0
  146.0553  130.5421  150.8331 H   0  0  0  0  0  0  0  0  0  0  0  0
  144.5261  129.9844  151.5242 H   0  0  0  0  0  0  0  0  0  0  0  0
  144.3687  131.7417  149.5005 H   0  0  0  0  0  0  0  0  0  0  0  0
  143.4172  132.0556  150.9504 H   0  0  0  0  0  0  0  0  0  0  0  0
  146.0315  133.3684  149.1346 H   0  0  0  0  0  0  0  0  0  0  0  0
  144.1165  134.6275  149.7141 H   0  0  0  0  0  0  0  0  0  0  0  0
  143.5298  134.4472  151.3467 H   0  0  0  0  0  0  0  0  0  0  0  0
  146.2384  136.1898  149.3432 H   0  0  0  0  0  0  0  0  0  0  0  0
  148.2431  139.0299  151.9000 H   0  0  0  0  0  0  0  0  0  0  0  0
  148.3741  140.6344  152.6042 H   0  0  0  0  0  0  0  0  0  0  0  0
  147.0043  140.2552  151.5616 H   0  0  0  0  0  0  0  0  0  0  0  0
  145.7397  141.0296  154.2279 H   0  0  0  0  0  0  0  0  0  0  0  0
  146.2257  139.8409  155.3835 H   0  0  0  0  0  0  0  0  0  0  0  0
  148.7188  140.6857  154.7456 H   0  0  0  0  0  0  0  0  0  0  0  0
  147.9691  143.1626  154.7422 H   0  0  0  0  0  0  0  0  0  0  0  0
  146.9033  142.3684  156.5349 H   0  0  0  0  0  0  0  0  0  0  0  0
  147.4742  140.7999  157.0436 H   0  0  0  0  0  0  0  0  0  0  0  0
  148.1038  143.1718  158.6089 H   0  0  0  0  0  0  0  0  0  0  0  0
  148.8333  141.6032  158.9096 H   0  0  0  0  0  0  0  0  0  0  0  0
  150.3446  144.2230  158.3411 H   0  0  0  0  0  0  0  0  0  0  0  0
  150.2550  143.3918  159.8821 H   0  0  0  0  0  0  0  0  0  0  0  0
  151.5909  143.1830  156.5371 H   0  0  0  0  0  0  0  0  0  0  0  0
  152.3505  141.6311  156.8335 H   0  0  0  0  0  0  0  0  0  0  0  0
  150.1507  140.5032  156.9854 H   0  0  0  0  0  0  0  0  0  0  0  0
  150.2707  141.3710  155.4671 H   0  0  0  0  0  0  0  0  0  0  0  0
  144.1905  136.5743  155.4340 H   0  0  0  0  0  0  0  0  0  0  0  0
  149.0562  143.1696  156.4546 H   0  0  0  0  0  0  0  0  0  0  0  0
  1  2  1  0  0  0  0
  1 30  1  0  0  0  0
  1 31  1  0  0  0  0
  1 32  1  0  0  0  0
  2  6  1  0  0  0  0
  2  3  1  0  0  0  0
  2 33  1  0  0  0  0
  3  4  1  0  0  0  0
  4  5  1  0  0  0  0
  4 34  1  0  0  0  0
  4 35  1  0  0  0  0
  5  6  1  0  0  0  0
  5 36  1  0  0  0  0
  5 37  1  0  0  0  0
  6  7  1  0  0  0  0
  6  8  1  0  0  0  0
  7 38  1  0  0  0  0
  8  9  1  0  0  0  0
  8 39  1  0  0  0  0
  8 40  1  0  0  0  0
  9 29  1  0  0  0  0
  9 10  1  0  0  0  0
 10 11  2  0  0  0  0
 10 41  1  0  0  0  0
 11 12  1  0  0  0  0
 12 29  2  0  0  0  0
 12 13  1  0  0  0  0
 13 14  1  0  0  0  0
 13 26  2  0  0  0  0
 14 15  1  0  0  0  0
 14 16  1  0  0  0  0
 15 42  1  0  0  0  0
 15 43  1  0  0  0  0
 15 44  1  0  0  0  0
 16 17  1  0  0  0  0
 16 45  1  0  0  0  0
 16 46  1  0  0  0  0
 17 18  1  0  0  0  0
 17 19  1  0  0  0  0
 17 47  1  0  0  0  0
 18 48  1  0  0  0  0
 19 20  1  0  0  0  0
 19 49  1  0  0  0  0
 19 50  1  0  0  0  0
 20 25  1  0  0  0  0
 20 21  1  0  0  0  0
 20 60  1  0  0  0  0
 21 22  1  0  0  0  0
 21 51  1  0  0  0  0
 21 52  1  0  0  0  0
 22 23  1  0  0  0  0
 22 53  1  0  0  0  0
 22 54  1  0  0  0  0
 23 24  1  0  0  0  0
 24 25  1  0  0  0  0
 24 55  1  0  0  0  0
 24 56  1  0  0  0  0
 25 57  1  0  0  0  0
 25 58  1  0  0  0  0
 26 27  1  0  0  0  0
 27 28  2  0  0  0  0
 27 59  1  0  0  0  0
 28 29  1  0  0  0  0
M  CHG  1  20   1
M  END
> <s_m_source_file>
AV-unprocessed.smi

> <i_m_source_file_index>
153

> <i_lp_mmshare_version>
43012

> <i_f3d_flags>
0

> <s_epik_input>
W0NIMl0xW0NIMl1PW0NAQEhdKFtDSDNdKVtDQEBdMShbT0hdKVtDSDJdbihbY0hdbjIpYyhjMjMpbltjSF1uYzNOKFtDSDNdKVtDSDJdW0NASF0oW09IXSlbQ0gyXU40W0NIMl1bQ0gyXU9bQ0gyXVtDSDJdNA==

> <s_epik_cmdline>
J2VwaWtfcHl0aG9uJywgJy1waCcsICc3LjAnLCAnLXRuJywgJzgnLCAnLW1hJywgJzIwMCcsICctbWV0YWxfYmluZGluZycsICctaW1hZScsICc8aW5maWxlLm1hZT4nLCAnLW9tYWUnLCAnPG91dGZpbGUubWFlPic=

> <r_lp_tautomer_probability>
1

> <r_epik_Ionization_Penalty>
0.403509

> <r_epik_Ionization_Penalty_Charging>
0.40072

> <r_epik_Ionization_Penalty_Neutral>
0.00278876

> <r_epik_State_Penalty>
0.400058

> <r_epik_Charging_Adjusted_Penalty>
0.800778

> <i_epik_Tot_Q>
1

> <i_epik_Tot_abs_Q>
1

> <r_epik_Metal_State_Penalty>
0.400321

> <b_epik_Metal_Only>
0

> <s_lp_Force_Field>
OPLS_2005

> <r_lp_Energy>
47.9216

> <b_lp_Chiralities_Consistent>
1

> <s_lp_Variant>
AV-unprocessed.smi:153-7

> <Gold.Version>
5.8.1

> <Gold.Id.Protein>
6NUR|6NUR_protein|mol2

> <Gold.PLP.Fitness>
49.9218

> <Gold.PLP.PLP>
-35.9890

> <Gold.PLP.part.hbond>
-4.9276

> <Gold.PLP.part.metal>
0.0000

> <Gold.PLP.part.buried>
0.2201

> <Gold.PLP.part.nonpolar>
-34.2423

> <Gold.PLP.part.repulsive>
2.7647

> <Gold.PLP.ligand.clash>
0.0000

> <Gold.PLP.ligand.torsion>
1.2616

> <Gold.PLP.Chemscore.Hbond>
4.2618

> <Gold.PLP.Chemscore.CHOScore>
1.0000

> <Gold.PLP.Chemscore.Metal>
0.0000

> <Gold.Chemscore.Hbonds>
donor molecule, donor type, donor heavy atom, donor atom, acceptor molecule, acceptor atom, score
      L1  H     7    38       P1  7921  0.28
      L1  H    18    48       P1  8028  1.00
      L1  H    20    60       P1  8028  2.00
      P1  H  7954  7966       L1    11  1.00
      L1  C    10    41       P1  7921  1.00

> <Gold.PLP.Chemscore.Internal.Correction>
0.6708

> <Gold.Rescore>
     Score         DG    S(hbond)    S(metal)    S(lipo)     H(rot)  DE(clash)    DE(int)     intcor
      9.07     -15.81       2.51        0.00      95.73       3.62       4.34       2.40       ----

> <Gold.Chemscore.Fitness>
9.0745

> <Gold.Chemscore.DG>
-15.8136

> <Gold.Chemscore.ZeroCoef>
-5.4800

> <Gold.Chemscore.Hbond>
2.5136

> <Gold.Chemscore.Metal>
0.0000

> <Gold.Chemscore.Lipo>
95.7331

> <Gold.Chemscore.Internal_Hbond>
0.0000

> <Gold.Chemscore.DEClash>
4.3390

> <Gold.Chemscore.DEInternal>
2.4002

> <Gold.Chemscore.Rot>
3.6182

> <Gold.Chemscore.Internal.Correction>
   9.000000E+99

> <Gold.Chemscore.Hbonds>
donor molecule, donor type, donor heavy atom, donor atom, acceptor molecule, acceptor atom, score
      L1  H     7    38       P1  7921  0.01
      L1  H    18    48       P1  8028  0.85
      L1  H    20    60       P1  8028  1.00
      P1  H  7954  7966       L1    11  0.39

> <Gold.Chemscore.Hbond.Weighted>
-8.3953

> <Gold.Chemscore.Metal.Weighted>
-0.0000

> <Gold.Chemscore.Lipo.Weighted>
-11.2008

> <Gold.Chemscore.Internal_Hbond.Weighted>
0.0000

> <Gold.Chemscore.DEClash.Weighted>
4.3390

> <Gold.Chemscore.DEInternal.Weighted>
2.4002

> <Gold.Chemscore.Rot.Weighted>
9.2625

> <Gold.Chemscore.Internal.Correction.Weighted>
   9.000000E+99

> <Gold.Protein.RotatedTorsions>
[ 6907 6896 6895 6894 ] final -176.30 input  -60.11 | X-H torsion
[ 7974 7965 7964 7962 ] final   85.72 input  175.53 | X-H torsion
[ 8008 7997 7996 7995 ] final -155.10 input   59.86 | X-H torsion
[ 10167 10162 10161 10158 ] final  -76.27 input  -65.29 | X-H torsion
[ 10718 10713 10712 10709 ] final  -11.92 input   66.30 | X-H torsion
[ 10763 10752 10751 10750 ] final   49.69 input  -60.55 | X-H torsion
[ 11005 11000 10999 10996 ] final  120.80 input  -57.11 | X-H torsion

> <Gold.Protein.ActiveResidues>
 VAL166  LYS551  ARG553  GLY616  TRP617  ASP618  TYR619  PRO620  LYS621  CYS622 
 ASP623  PHE694  ASN695  SER759  ASP760  ASP761  ALA762  ILE779  LEU786  VAL792 
 PHE793  MET794  SER795  GLU796  ALA797  LYS798  CYS799  TRP800  GLU811  SER814 

> <Gold.Protein.RotatedAtoms>
  151.6026  133.3355  159.3050 H   0  0  0  0  0  0  0  0  0  0  0  0  # atno 6907 bound_to 6896
  150.8200  134.7405  159.6775 H   0  0  0  0  0  0  0  0  0  0  0  0  # atno 6908 bound_to 6896
  152.4294  134.5813  160.0000 H   0  0  0  0  0  0  0  0  0  0  0  0  # atno 6909 bound_to 6896
  145.5818  139.2326  143.2348 H   0  0  0  0  0  0  0  0  0  0  0  0  # atno 7974 bound_to 7965
  155.6966  140.0761  157.2427 H   0  0  0  0  0  0  0  0  0  0  0  0  # atno 8008 bound_to 7997
  154.4080  140.1655  156.2197 H   0  0  0  0  0  0  0  0  0  0  0  0  # atno 8009 bound_to 7997
  155.9405  140.3385  155.6326 H   0  0  0  0  0  0  0  0  0  0  0  0  # atno 8010 bound_to 7997
  140.4872  143.2388  151.7965 H   0  0  0  0  0  0  0  0  0  0  0  0  # atno 10167 bound_to 10162
  156.6520  130.4957  149.6059 H   0  0  0  0  0  0  0  0  0  0  0  0  # atno 10718 bound_to 10713
  152.9786  135.5903  154.4131 H   0  0  0  0  0  0  0  0  0  0  0  0  # atno 10763 bound_to 10752
  154.3764  135.2767  155.2239 H   0  0  0  0  0  0  0  0  0  0  0  0  # atno 10764 bound_to 10752
  154.4171  135.6067  153.6042 H   0  0  0  0  0  0  0  0  0  0  0  0  # atno 10765 bound_to 10752
  139.9200  134.9636  156.7861 H   0  0  0  0  0  0  0  0  0  0  0  0  # atno 11005 bound_to 11000
  146.1710  140.6645  142.9233 LP  0  0  0  0  0  0  0  0  0  0  0  0  # atno 17320 bound_to 7965
  144.7390  140.4890  143.6882 LP  0  0  0  0  0  0  0  0  0  0  0  0  # atno 17321 bound_to 7965
  139.4844  144.4697  151.9440 LP  0  0  0  0  0  0  0  0  0  0  0  0  # atno 17342 bound_to 10162
  140.3783  144.2768  150.5911 LP  0  0  0  0  0  0  0  0  0  0  0  0  # atno 17343 bound_to 10162
  156.2077  130.6659  151.1236 LP  0  0  0  0  0  0  0  0  0  0  0  0  # atno 17370 bound_to 10713
  157.7138  131.0721  150.6405 LP  0  0  0  0  0  0  0  0  0  0  0  0  # atno 17371 bound_to 10713
  140.6504  133.9736  155.7752 LP  0  0  0  0  0  0  0  0  0  0  0  0  # atno 17394 bound_to 11000
  141.0711  134.0203  157.3524 LP  0  0  0  0  0  0  0  0  0  0  0  0  # atno 17395 bound_to 11000

$$$$
