AV-unprocessed.smi:2902|AV-procd|sdf|11152|dock2
  -GOLD-   2272016 33D 1   1.00000     0.00000
 Structure written by MMmdl.
 47 48  0  0  0  0  0  0  0  0  1 V2000
  151.5774  144.7636  158.6928 C   0  0  0  0  0  0  0  0  0  0  0  0
  150.9117  143.6769  157.8389 C   0  0  0  0  0  0  0  0  0  0  0  0
  151.1975  142.2549  158.3569 C   0  0  1  0  0  0  0  0  0  0  0  0
  150.9834  142.2525  159.7682 O   0  0  0  0  0  0  0  0  0  0  0  0
  152.1387  142.4040  160.5895 C   0  0  0  0  0  0  0  0  0  0  0  0
  153.1161  141.2577  160.3409 C   0  0  0  0  0  0  0  0  0  0  0  0
  153.9965  141.2233  161.5938 C   0  0  0  0  0  0  0  0  0  0  0  0
  153.1523  141.8309  162.7253 C   0  0  0  0  0  0  0  0  0  0  0  0
  151.8342  142.2834  162.0854 C   0  0  0  0  0  0  0  0  0  0  0  0
  150.2834  141.2176  157.6858 C   0  0  0  0  0  0  0  0  0  0  0  0
  149.0920  141.1519  157.9891 O   0  0  0  0  0  0  0  0  0  0  0  0
  150.8680  140.4067  156.7895 N   0  0  0  0  0  0  0  0  0  0  0  0
  150.2195  139.3198  156.0580 C   0  0  2  0  0  0  0  0  0  0  0  0
  150.7889  137.9819  156.5631 C   0  0  0  0  0  0  0  0  0  0  0  0
  150.3873  139.5274  154.5298 C   0  0  2  0  0  0  0  0  0  0  0  0
  151.8632  139.6228  154.0956 C   0  0  0  0  0  0  0  0  0  0  0  0
  149.6432  140.6853  154.0526 N   0  0  0  0  0  0  0  0  0  0  0  0
  149.4582  141.1411  152.8120 C   0  0  0  0  0  0  0  0  0  0  0  0
  148.7086  142.2327  152.7469 N   0  0  0  0  0  0  0  0  0  0  0  0
  148.4477  142.4099  154.0761 C   0  0  0  0  0  0  0  0  0  0  0  0
  148.9839  141.5113  154.9016 N   0  0  0  0  0  0  0  0  0  0  0  0
  151.3631  145.7553  158.2946 H   0  0  0  0  0  0  0  0  0  0  0  0
  152.6605  144.6402  158.7133 H   0  0  0  0  0  0  0  0  0  0  0  0
  151.2171  144.7343  159.7214 H   0  0  0  0  0  0  0  0  0  0  0  0
  149.8357  143.8544  157.8066 H   0  0  0  0  0  0  0  0  0  0  0  0
  151.2694  143.7738  156.8127 H   0  0  0  0  0  0  0  0  0  0  0  0
  152.2383  142.0143  158.1344 H   0  0  0  0  0  0  0  0  0  0  0  0
  152.6575  143.3428  160.3909 H   0  0  0  0  0  0  0  0  0  0  0  0
  152.5684  140.3179  160.2571 H   0  0  0  0  0  0  0  0  0  0  0  0
  153.6919  141.3886  159.4244 H   0  0  0  0  0  0  0  0  0  0  0  0
  154.3268  140.2103  161.8250 H   0  0  0  0  0  0  0  0  0  0  0  0
  154.8888  141.8302  161.4367 H   0  0  0  0  0  0  0  0  0  0  0  0
  152.9734  141.1131  163.5266 H   0  0  0  0  0  0  0  0  0  0  0  0
  153.6752  142.6826  163.1617 H   0  0  0  0  0  0  0  0  0  0  0  0
  151.4607  143.2128  162.5160 H   0  0  0  0  0  0  0  0  0  0  0  0
  151.0739  141.5167  162.2426 H   0  0  0  0  0  0  0  0  0  0  0  0
  151.8531  140.5411  156.6140 H   0  0  0  0  0  0  0  0  0  0  0  0
  149.1504  139.3143  156.2780 H   0  0  0  0  0  0  0  0  0  0  0  0
  150.2727  137.1298  156.1205 H   0  0  0  0  0  0  0  0  0  0  0  0
  150.6799  137.8955  157.6448 H   0  0  0  0  0  0  0  0  0  0  0  0
  151.8496  137.8888  156.3277 H   0  0  0  0  0  0  0  0  0  0  0  0
  149.9593  138.6578  154.0282 H   0  0  0  0  0  0  0  0  0  0  0  0
  152.4060  138.7031  154.3133 H   0  0  0  0  0  0  0  0  0  0  0  0
  152.3769  140.4379  154.6062 H   0  0  0  0  0  0  0  0  0  0  0  0
  151.9446  139.7988  153.0227 H   0  0  0  0  0  0  0  0  0  0  0  0
  149.8773  140.6637  151.9385 H   0  0  0  0  0  0  0  0  0  0  0  0
  147.8442  143.2255  154.4466 H   0  0  0  0  0  0  0  0  0  0  0  0
  1  2  1  0  0  0  0
  1 22  1  0  0  0  0
  1 23  1  0  0  0  0
  1 24  1  0  0  0  0
  2  3  1  0  0  0  0
  2 25  1  0  0  0  0
  2 26  1  0  0  0  0
  3  4  1  0  0  0  0
  3 10  1  0  0  0  0
  3 27  1  0  0  0  0
  4  5  1  0  0  0  0
  5  9  1  0  0  0  0
  5  6  1  0  0  0  0
  5 28  1  0  0  0  0
  6  7  1  0  0  0  0
  6 29  1  0  0  0  0
  6 30  1  0  0  0  0
  7  8  1  0  0  0  0
  7 31  1  0  0  0  0
  7 32  1  0  0  0  0
  8  9  1  0  0  0  0
  8 33  1  0  0  0  0
  8 34  1  0  0  0  0
  9 35  1  0  0  0  0
  9 36  1  0  0  0  0
 10 11  2  0  0  0  0
 10 12  1  0  0  0  0
 12 13  1  0  0  0  0
 12 37  1  0  0  0  0
 13 14  1  0  0  0  0
 13 15  1  0  0  0  0
 13 38  1  0  0  0  0
 14 39  1  0  0  0  0
 14 40  1  0  0  0  0
 14 41  1  0  0  0  0
 15 16  1  0  0  0  0
 15 17  1  0  0  0  0
 15 42  1  0  0  0  0
 16 43  1  0  0  0  0
 16 44  1  0  0  0  0
 16 45  1  0  0  0  0
 17 21  1  0  0  0  0
 17 18  1  0  0  0  0
 18 19  2  0  0  0  0
 18 46  1  0  0  0  0
 19 20  1  0  0  0  0
 20 21  2  0  0  0  0
 20 47  1  0  0  0  0
M  END
> <s_m_source_file>
AV-unprocessed.smi

> <i_m_source_file_index>
2902

> <i_lp_mmshare_version>
43012

> <i_f3d_flags>
0

> <s_epik_input>
W0NIMl0xW0NIMl1bQ0gyXVtDSDJdW0NIXTFPW0NAQEhdKFtDSDJdW0NIM10pQyg9TylbTkhdW0NASF0oW0NIM10pW0NASF0oW0NIM10pbjJbY0hdbltjSF1uMg==

> <s_epik_cmdline>
J2VwaWtfcHl0aG9uJywgJy1waCcsICc3LjAnLCAnLXRuJywgJzgnLCAnLW1hJywgJzIwMCcsICctbWV0YWxfYmluZGluZycsICctaW1hZScsICc8aW5maWxlLm1hZT4nLCAnLW9tYWUnLCAnPG91dGZpbGUubWFlPic=

> <r_lp_tautomer_probability>
1

> <r_epik_Ionization_Penalty>
6.95617e-05

> <r_epik_Ionization_Penalty_Charging>
0

> <r_epik_Ionization_Penalty_Neutral>
6.95617e-05

> <r_epik_State_Penalty>
-0

> <r_epik_Charging_Adjusted_Penalty>
0

> <i_epik_Tot_Q>
0

> <i_epik_Tot_abs_Q>
0

> <r_epik_Metal_State_Penalty>
-0

> <b_epik_Metal_Only>
0

> <s_lp_Force_Field>
OPLS_2005

> <r_lp_Energy>
28.6706

> <b_lp_Chiralities_Consistent>
1

> <s_lp_Variant>
AV-unprocessed.smi:2902-2

> <Gold.Version>
5.8.1

> <Gold.Id.Protein>
6NUR|6NUR_protein|mol2

> <Gold.PLP.Fitness>
42.6418

> <Gold.PLP.PLP>
-37.8223

> <Gold.PLP.part.hbond>
-2.5998

> <Gold.PLP.part.metal>
0.0000

> <Gold.PLP.part.buried>
3.0183

> <Gold.PLP.part.nonpolar>
-38.3921

> <Gold.PLP.part.repulsive>
1.0780

> <Gold.PLP.ligand.clash>
0.0000

> <Gold.PLP.ligand.torsion>
1.0302

> <Gold.PLP.Chemscore.Hbond>
0.4368

> <Gold.PLP.Chemscore.CHOScore>
1.7360

> <Gold.PLP.Chemscore.Metal>
0.0000

> <Gold.Chemscore.Hbonds>
donor molecule, donor type, donor heavy atom, donor atom, acceptor molecule, acceptor atom, score
      L1  C    20    47       P1  8028  0.75

> <Gold.PLP.Chemscore.Internal.Correction>
0.3616

> <Gold.Rescore>
     Score         DG    S(hbond)    S(metal)    S(lipo)     H(rot)  DE(clash)    DE(int)     intcor
      7.60      -9.97       0.00        0.00      97.33       2.69       0.46       1.91       ----

> <Gold.Chemscore.Fitness>
7.6039

> <Gold.Chemscore.DG>
-9.9718

> <Gold.Chemscore.ZeroCoef>
-5.4800

> <Gold.Chemscore.Hbond>
0.0000

> <Gold.Chemscore.Metal>
0.0000

> <Gold.Chemscore.Lipo>
97.3261

> <Gold.Chemscore.Internal_Hbond>
0.0000

> <Gold.Chemscore.DEClash>
0.4599

> <Gold.Chemscore.DEInternal>
1.9080

> <Gold.Chemscore.Rot>
2.6935

> <Gold.Chemscore.Internal.Correction>
   9.000000E+99

> <Gold.Chemscore.Hbond.Weighted>
-0.0000

> <Gold.Chemscore.Metal.Weighted>
-0.0000

> <Gold.Chemscore.Lipo.Weighted>
-11.3872

> <Gold.Chemscore.Internal_Hbond.Weighted>
0.0000

> <Gold.Chemscore.DEClash.Weighted>
0.4599

> <Gold.Chemscore.DEInternal.Weighted>
1.9080

> <Gold.Chemscore.Rot.Weighted>
6.8954

> <Gold.Chemscore.Internal.Correction.Weighted>
   9.000000E+99

> <Gold.Protein.RotatedTorsions>
[ 6907 6896 6895 6894 ] final   84.57 input  -60.11 | X-H torsion
[ 7974 7965 7964 7962 ] final -130.66 input  175.53 | X-H torsion
[ 8008 7997 7996 7995 ] final -172.26 input   59.86 | X-H torsion
[ 10167 10162 10161 10158 ] final  -63.20 input  -65.29 | X-H torsion
[ 10718 10713 10712 10709 ] final -135.99 input   66.30 | X-H torsion
[ 10763 10752 10751 10750 ] final -170.09 input  -60.55 | X-H torsion
[ 11005 11000 10999 10996 ] final  -68.94 input  -57.11 | X-H torsion

> <Gold.Protein.ActiveResidues>
 VAL166  LYS551  ARG553  GLY616  TRP617  ASP618  TYR619  PRO620  LYS621  CYS622 
 ASP623  PHE694  ASN695  SER759  ASP760  ASP761  ALA762  ILE779  LEU786  VAL792 
 PHE793  MET794  SER795  GLU796  ALA797  LYS798  CYS799  TRP800  GLU811  SER814 

> <Gold.Protein.RotatedAtoms>
  152.5355  134.2721  159.8974 H   0  0  0  0  0  0  0  0  0  0  0  0  # atno 6907 bound_to 6896
  151.2677  133.4264  159.2627 H   0  0  0  0  0  0  0  0  0  0  0  0  # atno 6908 bound_to 6896
  151.0396  134.9612  159.8211 H   0  0  0  0  0  0  0  0  0  0  0  0  # atno 6909 bound_to 6896
  144.9453  140.7285  143.4821 H   0  0  0  0  0  0  0  0  0  0  0  0  # atno 7974 bound_to 7965
  155.9422  140.1111  157.1046 H   0  0  0  0  0  0  0  0  0  0  0  0  # atno 8008 bound_to 7997
  154.4092  140.1217  156.5008 H   0  0  0  0  0  0  0  0  0  0  0  0  # atno 8009 bound_to 7997
  155.6947  140.3472  155.4910 H   0  0  0  0  0  0  0  0  0  0  0  0  # atno 8010 bound_to 7997
  140.5887  143.2338  151.6187 H   0  0  0  0  0  0  0  0  0  0  0  0  # atno 10167 bound_to 10162
  156.2722  130.7272  151.1242 H   0  0  0  0  0  0  0  0  0  0  0  0  # atno 10718 bound_to 10713
  154.6452  135.2904  155.0054 H   0  0  0  0  0  0  0  0  0  0  0  0  # atno 10763 bound_to 10752
  154.1167  135.6554  153.4899 H   0  0  0  0  0  0  0  0  0  0  0  0  # atno 10764 bound_to 10752
  153.0347  135.5278  154.7336 H   0  0  0  0  0  0  0  0  0  0  0  0  # atno 10765 bound_to 10752
  141.1543  133.6752  156.6522 H   0  0  0  0  0  0  0  0  0  0  0  0  # atno 11005 bound_to 11000
  145.2927  139.1878  143.4732 LP  0  0  0  0  0  0  0  0  0  0  0  0  # atno 17320 bound_to 7965
  146.3301  140.2906  142.8615 LP  0  0  0  0  0  0  0  0  0  0  0  0  # atno 17321 bound_to 7965
  139.5213  144.3195  152.0923 LP  0  0  0  0  0  0  0  0  0  0  0  0  # atno 17342 bound_to 10162
  140.2356  144.4323  150.6281 LP  0  0  0  0  0  0  0  0  0  0  0  0  # atno 17343 bound_to 10162
  157.7287  131.0629  150.5806 LP  0  0  0  0  0  0  0  0  0  0  0  0  # atno 17370 bound_to 10713
  156.5904  130.4327  149.5939 LP  0  0  0  0  0  0  0  0  0  0  0  0  # atno 17371 bound_to 10713
  140.3311  134.7928  157.4327 LP  0  0  0  0  0  0  0  0  0  0  0  0  # atno 17394 bound_to 11000
  140.1016  134.5465  155.8348 LP  0  0  0  0  0  0  0  0  0  0  0  0  # atno 17395 bound_to 11000

$$$$
