AV-unprocessed.smi:2689|AV-procd|sdf|10387|dock10
  -GOLD-   2272014423D 1   1.00000     0.00000
 Structure written by MMmdl.
 32 32  0  0  0  0  0  0  0  0  2 V2000
  152.3111  138.1952  154.4033 C   0  0  0  0  0  0  0  0  0  0  0  0
  151.4179  138.1881  155.6492 C   0  0  0  0  0  0  0  0  0  0  0  0
  151.9277  139.1224  156.7125 C   0  0  0  0  0  0  0  0  0  0  0  0
  153.1232  138.9132  157.2389 N   0  0  0  0  0  0  0  0  0  0  0  0
  153.3212  139.9429  158.1628 O   0  0  0  0  0  0  0  0  0  0  0  0
  152.2245  140.7428  158.1573 C   0  0  0  0  0  0  0  0  0  0  0  0
  152.2542  141.9190  159.0775 C   0  0  0  0  0  0  0  0  0  0  0  0
  151.5936  143.1664  158.4823 C   0  0  0  0  0  0  0  0  0  0  0  0
  151.2971  140.2746  157.2661 C   0  0  0  0  0  0  0  0  0  0  0  0
  149.9415  140.8445  156.9315 C   0  0  0  0  0  0  0  0  0  0  0  0
  148.9280  139.7083  156.8029 C   0  0  0  0  0  0  0  0  0  0  0  0
  148.1574  139.6759  155.8439 O   0  0  0  0  0  0  0  0  0  0  0  0
  148.9394  138.7955  157.7854 N   0  0  0  0  0  0  0  0  0  0  0  0
  148.0052  137.6884  157.9427 C   0  0  0  0  0  0  0  0  0  0  0  0
  148.3647  136.8916  159.1954 C   0  0  0  0  0  0  0  0  0  0  0  0
  149.3240  136.0942  159.1125 O   0  0  0  0  0  0  0  0  0  0  0  0
  147.6669  137.0893  160.2148 O   0  5  0  0  0  0  0  0  0  0  0  0
  151.9214  137.5194  153.6419 H   0  0  0  0  0  0  0  0  0  0  0  0
  153.3260  137.8771  154.6431 H   0  0  0  0  0  0  0  0  0  0  0  0
  152.3680  139.1922  153.9658 H   0  0  0  0  0  0  0  0  0  0  0  0
  150.4019  138.4600  155.3640 H   0  0  0  0  0  0  0  0  0  0  0  0
  151.3553  137.1731  156.0431 H   0  0  0  0  0  0  0  0  0  0  0  0
  151.7568  141.6553  160.0114 H   0  0  0  0  0  0  0  0  0  0  0  0
  153.2852  142.1521  159.3433 H   0  0  0  0  0  0  0  0  0  0  0  0
  151.6398  144.0011  159.1821 H   0  0  0  0  0  0  0  0  0  0  0  0
  150.5439  142.9839  158.2504 H   0  0  0  0  0  0  0  0  0  0  0  0
  152.0925  143.4734  157.5628 H   0  0  0  0  0  0  0  0  0  0  0  0
  149.5994  141.5432  157.6951 H   0  0  0  0  0  0  0  0  0  0  0  0
  149.9660  141.4109  155.9997 H   0  0  0  0  0  0  0  0  0  0  0  0
  149.6080  138.9173  158.5318 H   0  0  0  0  0  0  0  0  0  0  0  0
  146.9697  138.0277  158.0028 H   0  0  0  0  0  0  0  0  0  0  0  0
  148.0767  137.0376  157.0710 H   0  0  0  0  0  0  0  0  0  0  0  0
  1  2  1  0  0  0  0
  1 18  1  0  0  0  0
  1 19  1  0  0  0  0
  1 20  1  0  0  0  0
  2  3  1  0  0  0  0
  2 21  1  0  0  0  0
  2 22  1  0  0  0  0
  3  9  1  0  0  0  0
  3  4  2  0  0  0  0
  4  5  1  0  0  0  0
  5  6  1  0  0  0  0
  6  7  1  0  0  0  0
  6  9  2  0  0  0  0
  7  8  1  0  0  0  0
  7 23  1  0  0  0  0
  7 24  1  0  0  0  0
  8 25  1  0  0  0  0
  8 26  1  0  0  0  0
  8 27  1  0  0  0  0
  9 10  1  0  0  0  0
 10 11  1  0  0  0  0
 10 28  1  0  0  0  0
 10 29  1  0  0  0  0
 11 12  2  0  0  0  0
 11 13  1  0  0  0  0
 13 14  1  0  0  0  0
 13 30  1  0  0  0  0
 14 15  1  0  0  0  0
 14 31  1  0  0  0  0
 14 32  1  0  0  0  0
 15 16  2  0  0  0  0
 15 17  1  0  0  0  0
M  CHG  1  17  -1
M  END
> <s_m_source_file>
AV-unprocessed.smi

> <i_m_source_file_index>
2689

> <i_lp_mmshare_version>
43012

> <i_f3d_flags>
0

> <s_epik_input>
W0NIM11bQ0gyXWMxbm9jKFtDSDJdW0NIM10pYzFbQ0gyXUMoPU8pW05IXVtDSDJdQyg9TylbT0hd

> <s_epik_cmdline>
J2VwaWtfcHl0aG9uJywgJy1waCcsICc3LjAnLCAnLXRuJywgJzgnLCAnLW1hJywgJzIwMCcsICctbWV0YWxfYmluZGluZycsICctaW1hZScsICc8aW5maWxlLm1hZT4nLCAnLW9tYWUnLCAnPG91dGZpbGUubWFlPic=

> <r_lp_tautomer_probability>
1

> <r_epik_Ionization_Penalty>
0.000217839

> <r_epik_Ionization_Penalty_Charging>
0.000217819

> <r_epik_Ionization_Penalty_Neutral>
1.99806e-08

> <r_epik_State_Penalty>
-0

> <r_epik_Charging_Adjusted_Penalty>
0.000217819

> <i_epik_Tot_Q>
-1

> <i_epik_Tot_abs_Q>
1

> <r_epik_Metal_State_Penalty>
-0

> <b_epik_Metal_Only>
0

> <s_lp_Force_Field>
OPLS_2005

> <r_lp_Energy>
-12.6879

> <b_lp_Chiralities_Consistent>
1

> <s_lp_Variant>
AV-unprocessed.smi:2689-1

> <Gold.Version>
5.8.1

> <Gold.Id.Protein>
6NUR|6NUR_protein|mol2

> <Gold.PLP.Fitness>
42.0261

> <Gold.PLP.PLP>
-26.3990

> <Gold.PLP.part.hbond>
-5.0000

> <Gold.PLP.part.metal>
0.0000

> <Gold.PLP.part.buried>
-1.5989

> <Gold.PLP.part.nonpolar>
-20.1139

> <Gold.PLP.part.repulsive>
0.2284

> <Gold.PLP.ligand.clash>
0.0000

> <Gold.PLP.ligand.torsion>
0.9697

> <Gold.PLP.Chemscore.Hbond>
5.8400

> <Gold.PLP.Chemscore.CHOScore>
0.0000

> <Gold.PLP.Chemscore.Metal>
0.0000

> <Gold.Chemscore.Hbonds>
donor molecule, donor type, donor heavy atom, donor atom, acceptor molecule, acceptor atom, score
      P1  H  6896  6908       L1    16  2.00
      P1  H  6934  6947       L1    17  1.48

> <Gold.PLP.Chemscore.Internal.Correction>
0.0464

> <Gold.Rescore>
     Score         DG    S(hbond)    S(metal)    S(lipo)     H(rot)  DE(clash)    DE(int)     intcor
     14.74     -15.90       3.19        0.00      57.25       2.71       0.11       1.06       ----

> <Gold.Chemscore.Fitness>
14.7363

> <Gold.Chemscore.DG>
-15.9023

> <Gold.Chemscore.ZeroCoef>
-5.4800

> <Gold.Chemscore.Hbond>
3.1883

> <Gold.Chemscore.Metal>
0.0000

> <Gold.Chemscore.Lipo>
57.2534

> <Gold.Chemscore.Internal_Hbond>
0.0000

> <Gold.Chemscore.DEClash>
0.1054

> <Gold.Chemscore.DEInternal>
1.0607

> <Gold.Chemscore.Rot>
2.7051

> <Gold.Chemscore.Internal.Correction>
   9.000000E+99

> <Gold.Chemscore.Hbonds>
donor molecule, donor type, donor heavy atom, donor atom, acceptor molecule, acceptor atom, score
      P1  H  6896  6908       L1    16  0.93
      P1  H  6931  6943       L1    17  0.02
      P1  H  6934  6947       L1    17  0.70

> <Gold.Chemscore.Hbond.Weighted>
-10.6488

> <Gold.Chemscore.Metal.Weighted>
-0.0000

> <Gold.Chemscore.Lipo.Weighted>
-6.6987

> <Gold.Chemscore.Internal_Hbond.Weighted>
0.0000

> <Gold.Chemscore.DEClash.Weighted>
0.1054

> <Gold.Chemscore.DEInternal.Weighted>
1.0607

> <Gold.Chemscore.Rot.Weighted>
6.9251

> <Gold.Chemscore.Internal.Correction.Weighted>
   9.000000E+99

> <Gold.Protein.RotatedTorsions>
[ 6907 6896 6895 6894 ] final -179.61 input  -60.11 | X-H torsion
[ 7974 7965 7964 7962 ] final   78.59 input  175.53 | X-H torsion
[ 8008 7997 7996 7995 ] final  -83.59 input   59.86 | X-H torsion
[ 10167 10162 10161 10158 ] final  121.45 input  -65.29 | X-H torsion
[ 10718 10713 10712 10709 ] final -110.88 input   66.30 | X-H torsion
[ 10763 10752 10751 10750 ] final  -95.54 input  -60.55 | X-H torsion
[ 11005 11000 10999 10996 ] final    1.78 input  -57.11 | X-H torsion

> <Gold.Protein.ActiveResidues>
 VAL166  LYS551  ARG553  GLY616  TRP617  ASP618  TYR619  PRO620  LYS621  CYS622 
 ASP623  PHE694  ASN695  SER759  ASP760  ASP761  ALA762  ILE779  LEU786  VAL792 
 PHE793  MET794  SER795  GLU796  ALA797  LYS798  CYS799  TRP800  GLU811  SER814 

> <Gold.Protein.RotatedAtoms>
  151.6562  133.3319  159.3162 H   0  0  0  0  0  0  0  0  0  0  0  0  # atno 6907 bound_to 6896
  150.7936  134.6982  159.6545 H   0  0  0  0  0  0  0  0  0  0  0  0  # atno 6908 bound_to 6896
  152.4020  134.6275  160.0118 H   0  0  0  0  0  0  0  0  0  0  0  0  # atno 6909 bound_to 6896
  145.6751  139.2508  143.1846 H   0  0  0  0  0  0  0  0  0  0  0  0  # atno 7974 bound_to 7965
  154.6207  140.0617  156.9611 H   0  0  0  0  0  0  0  0  0  0  0  0  # atno 8008 bound_to 7997
  155.1822  140.3300  155.4354 H   0  0  0  0  0  0  0  0  0  0  0  0  # atno 8009 bound_to 7997
  156.2430  140.1895  156.6918 H   0  0  0  0  0  0  0  0  0  0  0  0  # atno 8010 bound_to 7997
  139.5919  144.7028  151.3269 H   0  0  0  0  0  0  0  0  0  0  0  0  # atno 10167 bound_to 10162
  156.0615  130.5838  150.8297 H   0  0  0  0  0  0  0  0  0  0  0  0  # atno 10718 bound_to 10713
  154.7158  135.5117  153.8735 H   0  0  0  0  0  0  0  0  0  0  0  0  # atno 10763 bound_to 10752
  153.0819  135.6634  154.0037 H   0  0  0  0  0  0  0  0  0  0  0  0  # atno 10764 bound_to 10752
  153.9870  135.3023  155.3395 H   0  0  0  0  0  0  0  0  0  0  0  0  # atno 10765 bound_to 10752
  140.6116  133.9743  155.8180 H   0  0  0  0  0  0  0  0  0  0  0  0  # atno 11005 bound_to 11000
  146.1012  140.7541  142.9548 LP  0  0  0  0  0  0  0  0  0  0  0  0  # atno 17320 bound_to 7965
  144.7044  140.3790  143.7130 LP  0  0  0  0  0  0  0  0  0  0  0  0  # atno 17321 bound_to 7965
  140.7180  143.7214  150.7693 LP  0  0  0  0  0  0  0  0  0  0  0  0  # atno 17342 bound_to 10162
  140.0771  143.5004  152.2549 LP  0  0  0  0  0  0  0  0  0  0  0  0  # atno 17343 bound_to 10162
  157.5627  131.0946  150.9535 LP  0  0  0  0  0  0  0  0  0  0  0  0  # atno 17370 bound_to 10713
  156.9769  130.5512  149.5294 LP  0  0  0  0  0  0  0  0  0  0  0  0  # atno 17371 bound_to 10713
  141.0804  134.0071  157.3395 LP  0  0  0  0  0  0  0  0  0  0  0  0  # atno 17394 bound_to 11000
  139.9190  135.0199  156.7991 LP  0  0  0  0  0  0  0  0  0  0  0  0  # atno 17395 bound_to 11000

$$$$
