AV-unprocessed.smi:674|AV-procd|sdf|3299|dock8
  -GOLD-   22720 0263D 1   1.00000     0.00000
 Structure written by MMmdl.
 47 48  0  0  0  0  0  0  0  0  1 V2000
  145.4997  143.2708  152.9760 C   0  0  0  0  0  0  0  0  0  0  0  0
  146.8474  142.5524  153.1097 C   0  0  0  0  0  0  0  0  0  0  0  0
  146.6784  141.0694  153.2849 C   0  0  0  0  0  0  0  0  0  0  0  0
  147.2408  140.0252  152.4945 C   0  0  0  0  0  0  0  0  0  0  0  0
  146.7462  138.8962  153.0886 C   0  0  0  0  0  0  0  0  0  0  0  0
  146.9400  137.5960  152.7409 N   0  0  0  0  0  0  0  0  0  0  0  0
  146.0462  136.5922  152.7082 C   0  0  0  0  0  0  0  0  0  0  0  0
  144.8437  136.6969  152.9507 O   0  0  0  0  0  0  0  0  0  0  0  0
  146.6298  135.4361  152.3643 N   0  0  0  0  0  0  0  0  0  0  0  0
  145.9239  134.1651  152.2425 C   0  0  2  0  0  0  0  0  0  0  0  0
  146.6318  133.1802  151.3138 C   0  0  0  0  0  0  0  0  0  0  0  0
  145.2327  132.7452  150.8357 C   0  0  1  0  0  0  0  0  0  0  0  0
  145.0414  132.2833  149.3857 C   0  0  0  0  0  0  0  0  0  0  0  0
  144.6737  131.7876  151.7458 O   0  0  0  0  0  0  0  0  0  0  0  0
  145.3607  130.5513  151.8965 C   0  0  0  0  0  0  0  0  0  0  0  0
  144.7344  134.1692  151.2486 C   0  0  0  0  0  0  0  0  0  0  0  0
  143.3379  134.2529  151.8739 C   0  0  0  0  0  0  0  0  0  0  0  0
  144.7614  135.2413  150.1425 C   0  0  0  0  0  0  0  0  0  0  0  0
  145.9531  139.2655  154.1539 N   0  0  0  0  0  0  0  0  0  0  0  0
  145.2011  138.4495  155.0874 C   0  0  0  0  0  0  0  0  0  0  0  0
  145.9154  140.6100  154.2708 N   0  0  0  0  0  0  0  0  0  0  0  0
  145.6424  144.3436  152.8462 H   0  0  0  0  0  0  0  0  0  0  0  0
  144.8835  143.1223  153.8632 H   0  0  0  0  0  0  0  0  0  0  0  0
  144.9418  142.9019  152.1149 H   0  0  0  0  0  0  0  0  0  0  0  0
  147.4522  142.7539  152.2251 H   0  0  0  0  0  0  0  0  0  0  0  0
  147.3987  142.9689  153.9534 H   0  0  0  0  0  0  0  0  0  0  0  0
  147.8881  140.1136  151.6352 H   0  0  0  0  0  0  0  0  0  0  0  0
  147.8868  137.3556  152.4878 H   0  0  0  0  0  0  0  0  0  0  0  0
  147.6217  135.4317  152.1775 H   0  0  0  0  0  0  0  0  0  0  0  0
  145.6752  133.7036  153.2013 H   0  0  0  0  0  0  0  0  0  0  0  0
  147.2174  133.6615  150.5284 H   0  0  0  0  0  0  0  0  0  0  0  0
  147.2209  132.4238  151.8313 H   0  0  0  0  0  0  0  0  0  0  0  0
  145.3619  133.0420  148.6726 H   0  0  0  0  0  0  0  0  0  0  0  0
  143.9951  132.0595  149.1769 H   0  0  0  0  0  0  0  0  0  0  0  0
  145.6262  131.3918  149.1608 H   0  0  0  0  0  0  0  0  0  0  0  0
  144.9201  130.0001  152.7270 H   0  0  0  0  0  0  0  0  0  0  0  0
  146.4194  130.6860  152.1153 H   0  0  0  0  0  0  0  0  0  0  0  0
  145.2629  129.9269  151.0086 H   0  0  0  0  0  0  0  0  0  0  0  0
  142.5668  133.9422  151.1683 H   0  0  0  0  0  0  0  0  0  0  0  0
  143.1022  135.2679  152.1958 H   0  0  0  0  0  0  0  0  0  0  0  0
  143.2461  133.6179  152.7554 H   0  0  0  0  0  0  0  0  0  0  0  0
  143.9966  135.0553  149.3879 H   0  0  0  0  0  0  0  0  0  0  0  0
  145.7201  135.2772  149.6254 H   0  0  0  0  0  0  0  0  0  0  0  0
  144.5799  136.2388  150.5443 H   0  0  0  0  0  0  0  0  0  0  0  0
  145.5321  137.4119  155.0428 H   0  0  0  0  0  0  0  0  0  0  0  0
  144.1401  138.4954  154.8398 H   0  0  0  0  0  0  0  0  0  0  0  0
  145.3463  138.8184  156.1035 H   0  0  0  0  0  0  0  0  0  0  0  0
  1  2  1  0  0  0  0
  1 22  1  0  0  0  0
  1 23  1  0  0  0  0
  1 24  1  0  0  0  0
  2  3  1  0  0  0  0
  2 25  1  0  0  0  0
  2 26  1  0  0  0  0
  3 21  2  0  0  0  0
  3  4  1  0  0  0  0
  4  5  2  0  0  0  0
  4 27  1  0  0  0  0
  5  6  1  0  0  0  0
  5 19  1  0  0  0  0
  6  7  1  0  0  0  0
  6 28  1  0  0  0  0
  7  8  2  0  0  0  0
  7  9  1  0  0  0  0
  9 10  1  0  0  0  0
  9 29  1  0  0  0  0
 10 16  1  0  0  0  0
 10 11  1  0  0  0  0
 10 30  1  0  0  0  0
 11 12  1  0  0  0  0
 11 31  1  0  0  0  0
 11 32  1  0  0  0  0
 12 13  1  0  0  0  0
 12 14  1  0  0  0  0
 12 16  1  0  0  0  0
 13 33  1  0  0  0  0
 13 34  1  0  0  0  0
 13 35  1  0  0  0  0
 14 15  1  0  0  0  0
 15 36  1  0  0  0  0
 15 37  1  0  0  0  0
 15 38  1  0  0  0  0
 16 17  1  0  0  0  0
 16 18  1  0  0  0  0
 17 39  1  0  0  0  0
 17 40  1  0  0  0  0
 17 41  1  0  0  0  0
 18 42  1  0  0  0  0
 18 43  1  0  0  0  0
 18 44  1  0  0  0  0
 19 20  1  0  0  0  0
 19 21  1  0  0  0  0
 20 45  1  0  0  0  0
 20 46  1  0  0  0  0
 20 47  1  0  0  0  0
M  END
> <s_m_source_file>
AV-unprocessed.smi

> <i_m_source_file_index>
674

> <i_lp_mmshare_version>
43012

> <i_f3d_flags>
0

> <s_epik_input>
W0NIM11bQ0gyXWMxW2NIXWMobihuMSlbQ0gzXSlbTkhdQyg9TylbTkhdW0NAQEhdKEMyKFtDSDNdKVtDSDNdKVtDSDJdW0NAQF0yKFtDSDNdKU9bQ0gzXQ==

> <s_epik_cmdline>
J2VwaWtfcHl0aG9uJywgJy1waCcsICc3LjAnLCAnLXRuJywgJzgnLCAnLW1hJywgJzIwMCcsICctbWV0YWxfYmluZGluZycsICctaW1hZScsICc8aW5maWxlLm1hZT4nLCAnLW9tYWUnLCAnPG91dGZpbGUubWFlPic=

> <r_lp_tautomer_probability>
1

> <r_epik_Ionization_Penalty>
0.000101626

> <r_epik_Ionization_Penalty_Charging>
0

> <r_epik_Ionization_Penalty_Neutral>
0.000101626

> <r_epik_State_Penalty>
-0

> <r_epik_Charging_Adjusted_Penalty>
0

> <i_epik_Tot_Q>
0

> <i_epik_Tot_abs_Q>
0

> <r_epik_Metal_State_Penalty>
-0

> <b_epik_Metal_Only>
0

> <s_lp_Force_Field>
OPLS_2005

> <r_lp_Energy>
22.7412

> <b_lp_Chiralities_Consistent>
1

> <s_lp_Variant>
AV-unprocessed.smi:674-1

> <Gold.Version>
5.8.1

> <Gold.Id.Protein>
6NUR|6NUR_protein|mol2

> <Gold.PLP.Fitness>
39.9297

> <Gold.PLP.PLP>
-34.9230

> <Gold.PLP.part.hbond>
-2.0000

> <Gold.PLP.part.metal>
0.0000

> <Gold.PLP.part.buried>
-3.8167

> <Gold.PLP.part.nonpolar>
-29.3565

> <Gold.PLP.part.repulsive>
0.3830

> <Gold.PLP.ligand.clash>
0.0000

> <Gold.PLP.ligand.torsion>
0.6854

> <Gold.PLP.Chemscore.Hbond>
2.0000

> <Gold.PLP.Chemscore.CHOScore>
0.0000

> <Gold.PLP.Chemscore.Metal>
0.0000

> <Gold.Chemscore.Hbonds>
donor molecule, donor type, donor heavy atom, donor atom, acceptor molecule, acceptor atom, score
      L1  H     6    28       P1  7948  0.98
      L1  H     9    29       P1  7948  1.00

> <Gold.PLP.Chemscore.Internal.Correction>
0.3774

> <Gold.Rescore>
     Score         DG    S(hbond)    S(metal)    S(lipo)     H(rot)  DE(clash)    DE(int)     intcor
     17.51     -18.31       1.93        0.00      84.53       1.37       0.06       0.75       ----

> <Gold.Chemscore.Fitness>
17.5069

> <Gold.Chemscore.DG>
-18.3128

> <Gold.Chemscore.ZeroCoef>
-5.4800

> <Gold.Chemscore.Hbond>
1.9279

> <Gold.Chemscore.Metal>
0.0000

> <Gold.Chemscore.Lipo>
84.5295

> <Gold.Chemscore.Internal_Hbond>
0.0000

> <Gold.Chemscore.DEClash>
0.0570

> <Gold.Chemscore.DEInternal>
0.7488

> <Gold.Chemscore.Rot>
1.3658

> <Gold.Chemscore.Internal.Correction>
   9.000000E+99

> <Gold.Chemscore.Hbonds>
donor molecule, donor type, donor heavy atom, donor atom, acceptor molecule, acceptor atom, score
      L1  H     6    28       P1  7948  0.93
      L1  H     9    29       P1  7948  0.91

> <Gold.Chemscore.Hbond.Weighted>
-6.4392

> <Gold.Chemscore.Metal.Weighted>
-0.0000

> <Gold.Chemscore.Lipo.Weighted>
-9.8900

> <Gold.Chemscore.Internal_Hbond.Weighted>
0.0000

> <Gold.Chemscore.DEClash.Weighted>
0.0570

> <Gold.Chemscore.DEInternal.Weighted>
0.7488

> <Gold.Chemscore.Rot.Weighted>
3.4963

> <Gold.Chemscore.Internal.Correction.Weighted>
   9.000000E+99

> <Gold.Protein.RotatedTorsions>
[ 6907 6896 6895 6894 ] final  -99.51 input  -60.11 | X-H torsion
[ 7974 7965 7964 7962 ] final  -90.59 input  175.53 | X-H torsion
[ 8008 7997 7996 7995 ] final   31.84 input   59.86 | X-H torsion
[ 10167 10162 10161 10158 ] final  126.02 input  -65.29 | X-H torsion
[ 10718 10713 10712 10709 ] final -113.13 input   66.30 | X-H torsion
[ 10763 10752 10751 10750 ] final   93.18 input  -60.55 | X-H torsion
[ 11005 11000 10999 10996 ] final  -11.18 input  -57.11 | X-H torsion

> <Gold.Protein.ActiveResidues>
 VAL166  LYS551  ARG553  GLY616  TRP617  ASP618  TYR619  PRO620  LYS621  CYS622 
 ASP623  PHE694  ASN695  SER759  ASP760  ASP761  ALA762  ILE779  LEU786  VAL792 
 PHE793  MET794  SER795  GLU796  ALA797  LYS798  CYS799  TRP800  GLU811  SER814 

> <Gold.Protein.RotatedAtoms>
  150.7082  134.1030  159.3972 H   0  0  0  0  0  0  0  0  0  0  0  0  # atno 6907 bound_to 6896
  151.9017  135.0373  160.0516 H   0  0  0  0  0  0  0  0  0  0  0  0  # atno 6908 bound_to 6896
  152.2409  133.5099  159.5306 H   0  0  0  0  0  0  0  0  0  0  0  0  # atno 6909 bound_to 6896
  145.4245  140.9553  143.2162 H   0  0  0  0  0  0  0  0  0  0  0  0  # atno 7974 bound_to 7965
  155.1128  140.3240  155.4517 H   0  0  0  0  0  0  0  0  0  0  0  0  # atno 8008 bound_to 7997
  156.2685  140.2041  156.6200 H   0  0  0  0  0  0  0  0  0  0  0  0  # atno 8009 bound_to 7997
  154.6743  140.0533  157.0185 H   0  0  0  0  0  0  0  0  0  0  0  0  # atno 8010 bound_to 7997
  139.5653  144.6907  151.3927 H   0  0  0  0  0  0  0  0  0  0  0  0  # atno 10167 bound_to 10162
  156.0748  130.5957  150.8602 H   0  0  0  0  0  0  0  0  0  0  0  0  # atno 10718 bound_to 10713
  153.2274  135.4335  155.0557 H   0  0  0  0  0  0  0  0  0  0  0  0  # atno 10763 bound_to 10752
  154.8280  135.3371  154.6838 H   0  0  0  0  0  0  0  0  0  0  0  0  # atno 10764 bound_to 10752
  153.7266  135.7013  153.5055 H   0  0  0  0  0  0  0  0  0  0  0  0  # atno 10765 bound_to 10752
  140.7525  133.8580  155.9057 H   0  0  0  0  0  0  0  0  0  0  0  0  # atno 11005 bound_to 11000
  144.8223  139.5770  143.6981 LP  0  0  0  0  0  0  0  0  0  0  0  0  # atno 17320 bound_to 7965
  146.2639  139.6475  142.9343 LP  0  0  0  0  0  0  0  0  0  0  0  0  # atno 17321 bound_to 7965
  140.6936  143.7802  150.7293 LP  0  0  0  0  0  0  0  0  0  0  0  0  # atno 17342 bound_to 10162
  140.1291  143.4542  152.2265 LP  0  0  0  0  0  0  0  0  0  0  0  0  # atno 17343 bound_to 10162
  157.5838  131.0946  150.9229 LP  0  0  0  0  0  0  0  0  0  0  0  0  # atno 17370 bound_to 10713
  156.9420  130.5388  149.5280 LP  0  0  0  0  0  0  0  0  0  0  0  0  # atno 17371 bound_to 10713
  140.9738  134.1497  157.4554 LP  0  0  0  0  0  0  0  0  0  0  0  0  # atno 17394 bound_to 11000
  139.8785  134.9987  156.5916 LP  0  0  0  0  0  0  0  0  0  0  0  0  # atno 17395 bound_to 11000

$$$$
