AV-unprocessed.smi:3330|AV-procd|sdf|12805|dock3
  -GOLD-   2272019173D 1   1.00000     0.00000
 Structure written by MMmdl.
 38 39  0  0  0  0  0  0  0  0  1 V2000
  152.4930  139.8648  158.4041 C   0  0  0  0  0  0  0  0  0  0  0  0
  151.7736  141.2129  158.6068 C   0  0  2  0  0  0  0  0  0  0  0  0
  151.2976  141.6864  157.3095 N   0  0  0  0  0  0  0  0  0  0  0  0
  150.0279  141.0870  156.9303 C   0  0  0  0  0  0  0  0  0  0  0  0
  149.8845  141.1340  155.4019 C   0  0  0  0  0  0  0  0  0  0  0  0
  150.3176  139.8751  154.7916 N   0  0  0  0  0  0  0  0  0  0  0  0
  151.5467  139.3586  154.9187 C   0  0  0  0  0  0  0  0  0  0  0  0
  152.4989  139.8322  155.5380 O   0  0  0  0  0  0  0  0  0  0  0  0
  151.5957  138.0478  154.1642 C   0  0  0  0  0  0  0  0  0  0  0  0
  150.2339  138.0069  153.6763 N   0  0  0  0  0  0  0  0  0  0  0  0
  149.5218  139.0747  154.0589 C   0  0  0  0  0  0  0  0  0  0  0  0
  148.3397  139.2734  153.7824 O   0  0  0  0  0  0  0  0  0  0  0  0
  152.6899  142.3035  159.2260 C   0  0  2  0  0  0  0  0  0  0  0  0
  153.4672  141.8137  160.4634 C   0  0  0  0  0  0  0  0  0  0  0  0
  151.9309  143.5045  159.5615 N   0  0  0  0  0  0  0  0  0  0  0  0
  152.3909  144.6673  160.1446 C   0  0  0  0  0  0  0  0  0  0  0  0
  151.3313  145.5227  160.2442 C   0  0  0  0  0  0  0  0  0  0  0  0
  150.2499  144.7873  159.6848 C   0  0  0  0  0  0  0  0  0  0  0  0
  150.6105  143.5819  159.2763 N   0  0  0  0  0  0  0  0  0  0  0  0
  152.7976  139.4296  159.3552 H   0  0  0  0  0  0  0  0  0  0  0  0
  153.3861  139.9792  157.7887 H   0  0  0  0  0  0  0  0  0  0  0  0
  151.8506  139.1287  157.9214 H   0  0  0  0  0  0  0  0  0  0  0  0
  150.9208  141.0665  159.2716 H   0  0  0  0  0  0  0  0  0  0  0  0
  151.9964  141.5276  156.5980 H   0  0  0  0  0  0  0  0  0  0  0  0
  149.9753  140.0566  157.2818 H   0  0  0  0  0  0  0  0  0  0  0  0
  149.2098  141.6373  157.3972 H   0  0  0  0  0  0  0  0  0  0  0  0
  148.8466  141.3367  155.1302 H   0  0  0  0  0  0  0  0  0  0  0  0
  150.4647  141.9647  154.9957 H   0  0  0  0  0  0  0  0  0  0  0  0
  152.3159  138.0803  153.3460 H   0  0  0  0  0  0  0  0  0  0  0  0
  151.8122  137.2088  154.8261 H   0  0  0  0  0  0  0  0  0  0  0  0
  149.8718  137.2486  153.1164 H   0  0  0  0  0  0  0  0  0  0  0  0
  153.4288  142.5948  158.4773 H   0  0  0  0  0  0  0  0  0  0  0  0
  154.1838  141.0345  160.2062 H   0  0  0  0  0  0  0  0  0  0  0  0
  152.7970  141.4134  161.2248 H   0  0  0  0  0  0  0  0  0  0  0  0
  154.0337  142.6285  160.9153 H   0  0  0  0  0  0  0  0  0  0  0  0
  153.4245  144.7894  160.4332 H   0  0  0  0  0  0  0  0  0  0  0  0
  151.3297  146.5229  160.6511 H   0  0  0  0  0  0  0  0  0  0  0  0
  149.2210  145.0919  159.5628 H   0  0  0  0  0  0  0  0  0  0  0  0
  1  2  1  0  0  0  0
  1 20  1  0  0  0  0
  1 21  1  0  0  0  0
  1 22  1  0  0  0  0
  2  3  1  0  0  0  0
  2 13  1  0  0  0  0
  2 23  1  0  0  0  0
  3  4  1  0  0  0  0
  3 24  1  0  0  0  0
  4  5  1  0  0  0  0
  4 25  1  0  0  0  0
  4 26  1  0  0  0  0
  5  6  1  0  0  0  0
  5 27  1  0  0  0  0
  5 28  1  0  0  0  0
  6 11  1  0  0  0  0
  6  7  1  0  0  0  0
  7  8  2  0  0  0  0
  7  9  1  0  0  0  0
  9 10  1  0  0  0  0
  9 29  1  0  0  0  0
  9 30  1  0  0  0  0
 10 11  1  0  0  0  0
 10 31  1  0  0  0  0
 11 12  2  0  0  0  0
 13 14  1  0  0  0  0
 13 15  1  0  0  0  0
 13 32  1  0  0  0  0
 14 33  1  0  0  0  0
 14 34  1  0  0  0  0
 14 35  1  0  0  0  0
 15 19  1  0  0  0  0
 15 16  1  0  0  0  0
 16 17  2  0  0  0  0
 16 36  1  0  0  0  0
 17 18  1  0  0  0  0
 17 37  1  0  0  0  0
 18 19  2  0  0  0  0
 18 38  1  0  0  0  0
M  END
> <s_m_source_file>
AV-unprocessed.smi

> <i_m_source_file_index>
3330

> <i_lp_mmshare_version>
43012

> <i_f3d_flags>
0

> <s_epik_input>
bjFbY0hdW2NIXVtjSF1uMVtDQEBIXShbQ0gzXSlbQ0BIXShbQ0gzXSlbTkhdW0NIMl1bQ0gyXU4yQyg9TylbQ0gyXVtOSF1DMj1P

> <s_epik_cmdline>
J2VwaWtfcHl0aG9uJywgJy1waCcsICc3LjAnLCAnLXRuJywgJzgnLCAnLW1hJywgJzIwMCcsICctbWV0YWxfYmluZGluZycsICctaW1hZScsICc8aW5maWxlLm1hZT4nLCAnLW9tYWUnLCAnPG91dGZpbGUubWFlPic=

> <r_lp_tautomer_probability>
1

> <r_epik_Ionization_Penalty>
2.2997

> <r_epik_Ionization_Penalty_Charging>
0

> <r_epik_Ionization_Penalty_Neutral>
2.2997

> <r_epik_State_Penalty>
2.44917

> <r_epik_Charging_Adjusted_Penalty>
2.44917

> <i_epik_Tot_Q>
0

> <i_epik_Tot_abs_Q>
0

> <r_epik_Metal_State_Penalty>
2.52438

> <b_epik_Metal_Only>
0

> <s_lp_Force_Field>
OPLS_2005

> <r_lp_Energy>
24.6484

> <b_lp_Chiralities_Consistent>
1

> <s_lp_Variant>
AV-unprocessed.smi:3330-5

> <Gold.Version>
5.8.1

> <Gold.Id.Protein>
6NUR|6NUR_protein|mol2

> <Gold.PLP.Fitness>
51.5464

> <Gold.PLP.PLP>
-44.0354

> <Gold.PLP.part.hbond>
-2.8399

> <Gold.PLP.part.metal>
0.0000

> <Gold.PLP.part.buried>
-5.0441

> <Gold.PLP.part.nonpolar>
-37.0843

> <Gold.PLP.part.repulsive>
0.9713

> <Gold.PLP.ligand.clash>
0.0000

> <Gold.PLP.ligand.torsion>
0.7958

> <Gold.PLP.Chemscore.Hbond>
2.0000

> <Gold.PLP.Chemscore.CHOScore>
0.9994

> <Gold.PLP.Chemscore.Metal>
0.0000

> <Gold.Chemscore.Hbonds>
donor molecule, donor type, donor heavy atom, donor atom, acceptor molecule, acceptor atom, score
      L1  H    10    31       P1  7948  1.00
      P1  H  7997  8009       L1     8  1.00
      L1  C    18    38       P1  8029  0.38

> <Gold.PLP.Chemscore.Internal.Correction>
0.1044

> <Gold.Rescore>
     Score         DG    S(hbond)    S(metal)    S(lipo)     H(rot)  DE(clash)    DE(int)     intcor
     10.50     -14.38       1.59        0.00      87.54       2.60       0.25       3.63       ----

> <Gold.Chemscore.Fitness>
10.5011

> <Gold.Chemscore.DG>
-14.3788

> <Gold.Chemscore.ZeroCoef>
-5.4800

> <Gold.Chemscore.Hbond>
1.5868

> <Gold.Chemscore.Metal>
0.0000

> <Gold.Chemscore.Lipo>
87.5432

> <Gold.Chemscore.Internal_Hbond>
0.0000

> <Gold.Chemscore.DEClash>
0.2503

> <Gold.Chemscore.DEInternal>
3.6273

> <Gold.Chemscore.Rot>
2.5952

> <Gold.Chemscore.Internal.Correction>
   9.000000E+99

> <Gold.Chemscore.Hbonds>
donor molecule, donor type, donor heavy atom, donor atom, acceptor molecule, acceptor atom, score
      L1  H    10    31       P1  7948  0.35
      P1  H  7997  8009       L1     8  0.95

> <Gold.Chemscore.Hbond.Weighted>
-5.2999

> <Gold.Chemscore.Metal.Weighted>
-0.0000

> <Gold.Chemscore.Lipo.Weighted>
-10.2426

> <Gold.Chemscore.Internal_Hbond.Weighted>
0.0000

> <Gold.Chemscore.DEClash.Weighted>
0.2503

> <Gold.Chemscore.DEInternal.Weighted>
3.6273

> <Gold.Chemscore.Rot.Weighted>
6.6437

> <Gold.Chemscore.Internal.Correction.Weighted>
   9.000000E+99

> <Gold.Protein.RotatedTorsions>
[ 6907 6896 6895 6894 ] final   34.42 input  -60.11 | X-H torsion
[ 7974 7965 7964 7962 ] final  -36.86 input  175.53 | X-H torsion
[ 8008 7997 7996 7995 ] final -161.74 input   59.86 | X-H torsion
[ 10167 10162 10161 10158 ] final -105.40 input  -65.29 | X-H torsion
[ 10718 10713 10712 10709 ] final  -48.82 input   66.30 | X-H torsion
[ 10763 10752 10751 10750 ] final   89.61 input  -60.55 | X-H torsion
[ 11005 11000 10999 10996 ] final -128.36 input  -57.11 | X-H torsion

> <Gold.Protein.ActiveResidues>
 VAL166  LYS551  ARG553  GLY616  TRP617  ASP618  TYR619  PRO620  LYS621  CYS622 
 ASP623  PHE694  ASN695  SER759  ASP760  ASP761  ALA762  ILE779  LEU786  VAL792 
 PHE793  MET794  SER795  GLU796  ALA797  LYS798  CYS799  TRP800  GLU811  SER814 

> <Gold.Protein.RotatedAtoms>
  152.1021  134.9334  160.0569 H   0  0  0  0  0  0  0  0  0  0  0  0  # atno 6907 bound_to 6896
  152.0544  133.4029  159.4399 H   0  0  0  0  0  0  0  0  0  0  0  0  # atno 6908 bound_to 6896
  150.6840  134.3191  159.4822 H   0  0  0  0  0  0  0  0  0  0  0  0  # atno 6909 bound_to 6896
  146.0625  140.6328  142.8990 H   0  0  0  0  0  0  0  0  0  0  0  0  # atno 7974 bound_to 7965
  155.7966  140.0886  157.1980 H   0  0  0  0  0  0  0  0  0  0  0  0  # atno 8008 bound_to 7997
  154.3983  140.1480  156.3284 H   0  0  0  0  0  0  0  0  0  0  0  0  # atno 8009 bound_to 7997
  155.8505  140.3435  155.5692 H   0  0  0  0  0  0  0  0  0  0  0  0  # atno 8010 bound_to 7997
  140.1989  143.3834  152.1146 H   0  0  0  0  0  0  0  0  0  0  0  0  # atno 10167 bound_to 10162
  156.1951  130.4154  149.9317 H   0  0  0  0  0  0  0  0  0  0  0  0  # atno 10718 bound_to 10713
  153.1889  135.4464  155.0124 H   0  0  0  0  0  0  0  0  0  0  0  0  # atno 10763 bound_to 10752
  154.8078  135.3281  154.7389 H   0  0  0  0  0  0  0  0  0  0  0  0  # atno 10764 bound_to 10752
  153.7845  135.6975  153.4937 H   0  0  0  0  0  0  0  0  0  0  0  0  # atno 10765 bound_to 10752
  140.9522  134.1050  157.4051 H   0  0  0  0  0  0  0  0  0  0  0  0  # atno 11005 bound_to 11000
  144.7183  140.4286  143.7027 LP  0  0  0  0  0  0  0  0  0  0  0  0  # atno 17320 bound_to 7965
  145.6535  139.1569  143.2848 LP  0  0  0  0  0  0  0  0  0  0  0  0  # atno 17321 bound_to 7965
  139.5225  144.7060  151.5353 LP  0  0  0  0  0  0  0  0  0  0  0  0  # atno 17342 bound_to 10162
  140.6404  143.8900  150.6686 LP  0  0  0  0  0  0  0  0  0  0  0  0  # atno 17343 bound_to 10162
  156.7045  130.8946  151.3603 LP  0  0  0  0  0  0  0  0  0  0  0  0  # atno 17370 bound_to 10713
  157.6953  130.9275  150.0626 LP  0  0  0  0  0  0  0  0  0  0  0  0  # atno 17371 bound_to 10713
  139.8851  135.0069  156.6413 LP  0  0  0  0  0  0  0  0  0  0  0  0  # atno 17394 bound_to 11000
  140.7586  133.8836  155.8401 LP  0  0  0  0  0  0  0  0  0  0  0  0  # atno 17395 bound_to 11000

$$$$
