AV-unprocessed.smi:254|AV-procd|sdf|1948|dock6
  -GOLD-   2262021 83D 1   1.00000     0.00000
 Structure written by MMmdl.
 50 53  0  0  0  0  0  0  0  0  1 V2000
  148.1799  133.1771  154.3927 O   0  0  0  0  0  0  0  0  0  0  0  0
  149.0838  133.7392  155.0092 C   0  0  0  0  0  0  0  0  0  0  0  0
  149.4538  135.1950  154.7923 C   0  0  0  0  0  0  0  0  0  0  0  0
  150.5376  135.3622  155.7527 N   0  0  0  0  0  0  0  0  0  0  0  0
  151.1975  136.5355  155.9316 C   0  0  0  0  0  0  0  0  0  0  0  0
  151.8308  137.0834  154.8609 N   0  0  0  0  0  0  0  0  0  0  0  0
  152.4966  138.2352  154.9800 C   0  0  0  0  0  0  0  0  0  0  0  0
  152.6553  138.9976  156.0622 N   0  0  0  0  0  0  0  0  0  0  0  0
  152.0220  138.4584  157.1421 C   0  0  0  0  0  0  0  0  0  0  0  0
  151.2784  137.2428  157.1685 C   0  0  0  0  0  0  0  0  0  0  0  0
  150.7895  137.0274  158.4534 N   0  0  0  0  0  0  0  0  0  0  0  0
  151.2192  138.0489  159.1418 C   0  0  0  0  0  0  0  0  0  0  0  0
  151.9599  138.9628  158.4288 N   0  0  0  0  0  0  0  0  0  0  0  0
  152.5616  140.1849  158.9352 C   0  0  0  0  0  0  0  0  0  0  0  0
  152.0043  141.4725  158.2746 C   0  0  1  0  0  0  0  0  0  0  0  0
  150.4563  141.4334  158.1920 C   0  0  0  0  0  0  0  0  0  0  0  0
  149.9651  142.2004  157.1132 O   0  0  0  0  0  0  0  0  0  0  0  0
  152.5228  142.7319  159.0230 C   0  0  1  0  0  0  0  0  0  0  0  0
  152.0262  144.0567  158.4661 C   0  0  0  0  0  0  0  0  0  0  0  0
  152.2988  145.0219  159.6144 C   0  0  0  0  0  0  0  0  0  0  0  0
  152.1589  144.2546  160.8034 O   0  0  0  0  0  0  0  0  0  0  0  0
  152.0668  142.8710  160.4805 C   0  0  0  0  0  0  0  0  0  0  0  0
  150.8157  134.1436  156.4999 C   0  0  0  0  0  0  0  0  0  0  0  0
  149.8653  133.1926  155.9473 N   0  0  0  0  0  0  0  0  0  0  0  0
  149.8041  131.8201  156.4448 C   0  0  0  0  0  0  0  0  0  0  0  0
  150.4624  130.8158  155.4819 C   0  0  0  0  0  0  0  0  0  0  0  0
  150.1292  129.5801  155.8521 F   0  0  0  0  0  0  0  0  0  0  0  0
  150.0506  131.0068  154.2288 F   0  0  0  0  0  0  0  0  0  0  0  0
  151.7898  130.9299  155.5295 F   0  0  0  0  0  0  0  0  0  0  0  0
  149.7920  135.3627  153.7691 H   0  0  0  0  0  0  0  0  0  0  0  0
  148.6103  135.8486  155.0178 H   0  0  0  0  0  0  0  0  0  0  0  0
  152.9687  138.5980  154.0789 H   0  0  0  0  0  0  0  0  0  0  0  0
  151.0003  138.1670  160.1932 H   0  0  0  0  0  0  0  0  0  0  0  0
  152.4137  140.2235  160.0152 H   0  0  0  0  0  0  0  0  0  0  0  0
  153.6358  140.0988  158.7731 H   0  0  0  0  0  0  0  0  0  0  0  0
  152.3909  141.5026  157.2547 H   0  0  0  0  0  0  0  0  0  0  0  0
  150.0891  140.4210  158.0301 H   0  0  0  0  0  0  0  0  0  0  0  0
  150.0100  141.7839  159.1231 H   0  0  0  0  0  0  0  0  0  0  0  0
  150.5935  142.8778  156.9147 H   0  0  0  0  0  0  0  0  0  0  0  0
  153.6138  142.7399  159.0008 H   0  0  0  0  0  0  0  0  0  0  0  0
  152.5325  144.3589  157.5490 H   0  0  0  0  0  0  0  0  0  0  0  0
  150.9548  144.0070  158.2653 H   0  0  0  0  0  0  0  0  0  0  0  0
  153.3217  145.3962  159.5622 H   0  0  0  0  0  0  0  0  0  0  0  0
  151.6236  145.8777  159.6088 H   0  0  0  0  0  0  0  0  0  0  0  0
  151.0253  142.5654  160.5905 H   0  0  0  0  0  0  0  0  0  0  0  0
  152.6696  142.2753  161.1664 H   0  0  0  0  0  0  0  0  0  0  0  0
  151.8387  133.8026  156.3355 H   0  0  0  0  0  0  0  0  0  0  0  0
  150.6422  134.2860  157.5675 H   0  0  0  0  0  0  0  0  0  0  0  0
  150.2987  131.7736  157.4160 H   0  0  0  0  0  0  0  0  0  0  0  0
  148.7636  131.5421  156.6205 H   0  0  0  0  0  0  0  0  0  0  0  0
  1  2  2  0  0  0  0
  2 24  1  0  0  0  0
  2  3  1  0  0  0  0
  3  4  1  0  0  0  0
  3 30  1  0  0  0  0
  3 31  1  0  0  0  0
  4  5  1  0  0  0  0
  4 23  1  0  0  0  0
  5 10  1  0  0  0  0
  5  6  2  0  0  0  0
  6  7  1  0  0  0  0
  7  8  2  0  0  0  0
  7 32  1  0  0  0  0
  8  9  1  0  0  0  0
  9 13  1  0  0  0  0
  9 10  2  0  0  0  0
 10 11  1  0  0  0  0
 11 12  2  0  0  0  0
 12 13  1  0  0  0  0
 12 33  1  0  0  0  0
 13 14  1  0  0  0  0
 14 15  1  0  0  0  0
 14 34  1  0  0  0  0
 14 35  1  0  0  0  0
 15 16  1  0  0  0  0
 15 18  1  0  0  0  0
 15 36  1  0  0  0  0
 16 17  1  0  0  0  0
 16 37  1  0  0  0  0
 16 38  1  0  0  0  0
 17 39  1  0  0  0  0
 18 22  1  0  0  0  0
 18 19  1  0  0  0  0
 18 40  1  0  0  0  0
 19 20  1  0  0  0  0
 19 41  1  0  0  0  0
 19 42  1  0  0  0  0
 20 21  1  0  0  0  0
 20 43  1  0  0  0  0
 20 44  1  0  0  0  0
 21 22  1  0  0  0  0
 22 45  1  0  0  0  0
 22 46  1  0  0  0  0
 23 24  1  0  0  0  0
 23 47  1  0  0  0  0
 23 48  1  0  0  0  0
 24 25  1  0  0  0  0
 25 26  1  0  0  0  0
 25 49  1  0  0  0  0
 25 50  1  0  0  0  0
 26 27  1  0  0  0  0
 26 28  1  0  0  0  0
 26 29  1  0  0  0  0
M  END
> <s_m_source_file>
AV-unprocessed.smi

> <i_m_source_file_index>
254

> <i_lp_mmshare_version>
43012

> <i_f3d_flags>
0

> <s_epik_input>
RkMoRikoRilbQ0gyXU4xW0NIMl1OKFtDSDJdQzE9TyljKG5bY0hdbjIpYyhjMjMpbltjSF1uM1tDSDJdW0NASF0oW0NIMl1bT0hdKVtDQEBIXTRbQ0gyXVtDSDJdT1tDSDJdNA==

> <s_epik_cmdline>
J2VwaWtfcHl0aG9uJywgJy1waCcsICc3LjAnLCAnLXRuJywgJzgnLCAnLW1hJywgJzIwMCcsICctbWV0YWxfYmluZGluZycsICctaW1hZScsICc8aW5maWxlLm1hZT4nLCAnLW9tYWUnLCAnPG91dGZpbGUubWFlPic=

> <r_lp_tautomer_probability>
1

> <r_epik_Ionization_Penalty>
0.000292924

> <r_epik_Ionization_Penalty_Charging>
0

> <r_epik_Ionization_Penalty_Neutral>
0.000292924

> <r_epik_State_Penalty>
-0

> <r_epik_Charging_Adjusted_Penalty>
0

> <i_epik_Tot_Q>
0

> <i_epik_Tot_abs_Q>
0

> <r_epik_Metal_State_Penalty>
-0

> <b_epik_Metal_Only>
0

> <s_epik_Chemistry_Notes>
This compound contains an acetal/aminal-like group ( X-CH(R)-Y where X, Y are N, S, or O) that may be acid/base labile, releasing an aldehyde.

> <s_lp_Force_Field>
OPLS_2005

> <r_lp_Energy>
39.6801

> <b_lp_Chiralities_Consistent>
1

> <s_lp_Variant>
AV-unprocessed.smi:254-4

> <Gold.Version>
5.8.1

> <Gold.Id.Protein>
6NUR|6NUR_protein|mol2

> <Gold.PLP.Fitness>
50.8070

> <Gold.PLP.PLP>
-47.8504

> <Gold.PLP.part.hbond>
-2.8539

> <Gold.PLP.part.metal>
0.0000

> <Gold.PLP.part.buried>
-7.7788

> <Gold.PLP.part.nonpolar>
-37.6823

> <Gold.PLP.part.repulsive>
0.2516

> <Gold.PLP.ligand.clash>
0.0000

> <Gold.PLP.ligand.torsion>
1.8161

> <Gold.PLP.Chemscore.Hbond>
2.1170

> <Gold.PLP.Chemscore.CHOScore>
0.0000

> <Gold.PLP.Chemscore.Metal>
0.0000

> <Gold.Chemscore.Hbonds>
donor molecule, donor type, donor heavy atom, donor atom, acceptor molecule, acceptor atom, score
      P1  H  7997  8009       L1     8  0.84
      P1  H 10752 10763       L1     6  0.86

> <Gold.PLP.Chemscore.Internal.Correction>
0.2377

> <Gold.Rescore>
     Score         DG    S(hbond)    S(metal)    S(lipo)     H(rot)  DE(clash)    DE(int)     intcor
      9.57     -14.05       2.16        0.00      83.70       3.30       0.11       4.37       ----

> <Gold.Chemscore.Fitness>
9.5676

> <Gold.Chemscore.DG>
-14.0499

> <Gold.Chemscore.ZeroCoef>
-5.4800

> <Gold.Chemscore.Hbond>
2.1611

> <Gold.Chemscore.Metal>
0.0000

> <Gold.Chemscore.Lipo>
83.7045

> <Gold.Chemscore.Internal_Hbond>
0.0000

> <Gold.Chemscore.DEClash>
0.1137

> <Gold.Chemscore.DEInternal>
4.3686

> <Gold.Chemscore.Rot>
3.2974

> <Gold.Chemscore.Internal.Correction>
   9.000000E+99

> <Gold.Chemscore.Hbonds>
donor molecule, donor type, donor heavy atom, donor atom, acceptor molecule, acceptor atom, score
      P1  H  6896  6907       L1    11  0.03
      P1  H  7997  8009       L1     8  0.68
      P1  H 10752 10763       L1     6  0.33

> <Gold.Chemscore.Hbond.Weighted>
-7.2179

> <Gold.Chemscore.Metal.Weighted>
-0.0000

> <Gold.Chemscore.Lipo.Weighted>
-9.7934

> <Gold.Chemscore.Internal_Hbond.Weighted>
0.0000

> <Gold.Chemscore.DEClash.Weighted>
0.1137

> <Gold.Chemscore.DEInternal.Weighted>
4.3686

> <Gold.Chemscore.Rot.Weighted>
8.4414

> <Gold.Chemscore.Internal.Correction.Weighted>
   9.000000E+99

> <Gold.Protein.RotatedTorsions>
[ 6907 6896 6895 6894 ] final  -16.26 input  -60.11 | X-H torsion
[ 7974 7965 7964 7962 ] final  -30.27 input  175.53 | X-H torsion
[ 8008 7997 7996 7995 ] final -178.27 input   59.86 | X-H torsion
[ 10167 10162 10161 10158 ] final -128.74 input  -65.29 | X-H torsion
[ 10718 10713 10712 10709 ] final -176.55 input   66.30 | X-H torsion
[ 10763 10752 10751 10750 ] final   34.90 input  -60.55 | X-H torsion
[ 11005 11000 10999 10996 ] final  -88.01 input  -57.11 | X-H torsion

> <Gold.Protein.ActiveResidues>
 VAL166  LYS551  ARG553  GLY616  TRP617  ASP618  TYR619  PRO620  LYS621  CYS622 
 ASP623  PHE694  ASN695  SER759  ASP760  ASP761  ALA762  ILE779  LEU786  VAL792 
 PHE793  MET794  SER795  GLU796  ALA797  LYS798  CYS799  TRP800  GLU811  SER814 

> <Gold.Protein.RotatedAtoms>
  151.3114  135.0795  159.9273 H   0  0  0  0  0  0  0  0  0  0  0  0  # atno 6907 bound_to 6896
  152.5277  133.9732  159.7782 H   0  0  0  0  0  0  0  0  0  0  0  0  # atno 6908 bound_to 6896
  151.0036  133.5980  159.2722 H   0  0  0  0  0  0  0  0  0  0  0  0  # atno 6909 bound_to 6896
  146.1155  140.5519  142.8759 H   0  0  0  0  0  0  0  0  0  0  0  0  # atno 7974 bound_to 7965
  156.0168  140.1252  157.0398 H   0  0  0  0  0  0  0  0  0  0  0  0  # atno 8008 bound_to 7997
  154.4296  140.1076  156.5977 H   0  0  0  0  0  0  0  0  0  0  0  0  # atno 8009 bound_to 7997
  155.6001  140.3470  155.4593 H   0  0  0  0  0  0  0  0  0  0  0  0  # atno 8010 bound_to 7997
  139.9471  143.6098  152.2486 H   0  0  0  0  0  0  0  0  0  0  0  0  # atno 10167 bound_to 10162
  156.8163  130.9604  151.3114 H   0  0  0  0  0  0  0  0  0  0  0  0  # atno 10718 bound_to 10713
  153.0143  135.6348  154.1741 H   0  0  0  0  0  0  0  0  0  0  0  0  # atno 10763 bound_to 10752
  154.1482  135.2830  155.3144 H   0  0  0  0  0  0  0  0  0  0  0  0  # atno 10764 bound_to 10752
  154.6074  135.5568  153.7498 H   0  0  0  0  0  0  0  0  0  0  0  0  # atno 10765 bound_to 10752
  141.1608  133.7545  156.9389 H   0  0  0  0  0  0  0  0  0  0  0  0  # atno 11005 bound_to 11000
  144.7549  140.5283  143.6776 LP  0  0  0  0  0  0  0  0  0  0  0  0  # atno 17320 bound_to 7965
  145.5575  139.1478  143.3360 LP  0  0  0  0  0  0  0  0  0  0  0  0  # atno 17321 bound_to 7965
  139.6658  144.7662  151.1876 LP  0  0  0  0  0  0  0  0  0  0  0  0  # atno 17342 bound_to 10162
  140.7594  143.5940  150.8767 LP  0  0  0  0  0  0  0  0  0  0  0  0  # atno 17343 bound_to 10162
  157.6480  130.8860  149.9576 LP  0  0  0  0  0  0  0  0  0  0  0  0  # atno 17370 bound_to 10713
  156.1015  130.3655  150.0210 LP  0  0  0  0  0  0  0  0  0  0  0  0  # atno 17371 bound_to 10713
  140.1335  134.9340  157.2369 LP  0  0  0  0  0  0  0  0  0  0  0  0  # atno 17394 bound_to 11000
  140.2924  134.3225  155.7311 LP  0  0  0  0  0  0  0  0  0  0  0  0  # atno 17395 bound_to 11000

$$$$
