AV-unprocessed.smi:2046|AV-procd|sdf|8314|dock7
  -GOLD-   2272010583D 1   1.00000     0.00000
 Structure written by MMmdl.
 29 30  0  0  0  0  0  0  0  0  2 V2000
  150.5481  140.5320  157.6543 O   0  0  0  0  0  0  0  0  0  0  0  0
  151.7800  140.5914  157.6541 C   0  0  0  0  0  0  0  0  0  0  0  0
  152.6242  139.7166  157.0613 N   0  5  0  0  0  0  0  0  0  0  0  0
  152.2244  139.0268  155.9803 C   0  0  0  0  0  0  0  0  0  0  0  0
  152.9003  137.9640  155.5147 N   0  0  0  0  0  0  0  0  0  0  0  0
  152.3196  137.3991  154.3871 N   0  0  0  0  0  0  0  0  0  0  0  0
  151.2197  138.0588  154.0248 C   0  0  0  0  0  0  0  0  0  0  0  0
  150.7959  139.4324  155.0246 S   0  0  0  0  0  0  0  0  0  0  0  0
  152.4016  141.6016  158.2820 N   0  0  0  0  0  0  0  0  0  0  0  0
  151.7558  142.7068  158.9963 C   0  0  1  0  0  0  0  0  0  0  0  0
  152.8628  143.6983  159.4231 C   0  0  0  0  0  0  0  0  0  0  0  0
  152.4694  144.5982  160.6080 C   0  0  0  0  0  0  0  0  0  0  0  0
  151.3129  145.5710  160.3303 C   0  0  0  0  0  0  0  0  0  0  0  0
  149.9841  144.8727  159.9944 C   0  0  0  0  0  0  0  0  0  0  0  0
  149.9546  144.3849  158.6221 N   0  0  0  0  0  0  0  0  0  0  0  0
  150.7402  143.4381  158.0866 C   0  0  0  0  0  0  0  0  0  0  0  0
  150.6538  143.1658  156.8894 O   0  0  0  0  0  0  0  0  0  0  0  0
  150.6568  137.7375  153.1614 H   0  0  0  0  0  0  0  0  0  0  0  0
  153.4105  141.6114  158.2505 H   0  0  0  0  0  0  0  0  0  0  0  0
  151.2507  142.3079  159.8779 H   0  0  0  0  0  0  0  0  0  0  0  0
  153.7449  143.1345  159.7308 H   0  0  0  0  0  0  0  0  0  0  0  0
  153.1882  144.3077  158.5778 H   0  0  0  0  0  0  0  0  0  0  0  0
  152.2194  143.9748  161.4673 H   0  0  0  0  0  0  0  0  0  0  0  0
  153.3437  145.1773  160.9070 H   0  0  0  0  0  0  0  0  0  0  0  0
  151.1650  146.1831  161.2206 H   0  0  0  0  0  0  0  0  0  0  0  0
  151.5859  146.2640  159.5335 H   0  0  0  0  0  0  0  0  0  0  0  0
  149.7732  144.0631  160.6945 H   0  0  0  0  0  0  0  0  0  0  0  0
  149.1675  145.5875  160.0973 H   0  0  0  0  0  0  0  0  0  0  0  0
  149.2936  144.8322  158.0038 H   0  0  0  0  0  0  0  0  0  0  0  0
  1  2  2  0  0  0  0
  2  3  1  0  0  0  0
  2  9  1  0  0  0  0
  3  4  1  0  0  0  0
  4  8  1  0  0  0  0
  4  5  2  0  0  0  0
  5  6  1  0  0  0  0
  6  7  2  0  0  0  0
  7  8  1  0  0  0  0
  7 18  1  0  0  0  0
  9 10  1  0  0  0  0
  9 19  1  0  0  0  0
 10 16  1  0  0  0  0
 10 11  1  0  0  0  0
 10 20  1  0  0  0  0
 11 12  1  0  0  0  0
 11 21  1  0  0  0  0
 11 22  1  0  0  0  0
 12 13  1  0  0  0  0
 12 23  1  0  0  0  0
 12 24  1  0  0  0  0
 13 14  1  0  0  0  0
 13 25  1  0  0  0  0
 13 26  1  0  0  0  0
 14 15  1  0  0  0  0
 14 27  1  0  0  0  0
 14 28  1  0  0  0  0
 15 16  1  0  0  0  0
 15 29  1  0  0  0  0
 16 17  2  0  0  0  0
M  CHG  1   3  -1
M  END
> <s_m_source_file>
AV-unprocessed.smi

> <i_m_source_file_index>
2046

> <i_lp_mmshare_version>
43012

> <i_f3d_flags>
0

> <s_epik_input>
czFbY0hdbm5jMVtOSF1DKD1PKVtOSF1bQ0BASF0yW0NIMl1bQ0gyXVtDSDJdW0NIMl1bTkhdQzI9Tw==

> <s_epik_cmdline>
J2VwaWtfcHl0aG9uJywgJy1waCcsICc3LjAnLCAnLXRuJywgJzgnLCAnLW1hJywgJzIwMCcsICctbWV0YWxfYmluZGluZycsICctaW1hZScsICc8aW5maWxlLm1hZT4nLCAnLW9tYWUnLCAnPG91dGZpbGUubWFlPic=

> <r_lp_tautomer_probability>
1

> <r_epik_Ionization_Penalty>
4.05949

> <r_epik_Ionization_Penalty_Charging>
4.01916

> <r_epik_Ionization_Penalty_Neutral>
0.0403285

> <r_epik_State_Penalty>
4.01849

> <r_epik_Charging_Adjusted_Penalty>
8.03765

> <i_epik_Tot_Q>
-1

> <i_epik_Tot_abs_Q>
1

> <r_epik_Metal_State_Penalty>
0.626741

> <b_epik_Metal_Only>
1

> <s_lp_Force_Field>
OPLS_2005

> <r_lp_Energy>
8.7811

> <b_lp_Chiralities_Consistent>
1

> <s_lp_Variant>
AV-unprocessed.smi:2046-4

> <Gold.Version>
5.8.1

> <Gold.Id.Protein>
6NUR|6NUR_protein|mol2

> <Gold.PLP.Fitness>
42.1051

> <Gold.PLP.PLP>
-28.5445

> <Gold.PLP.part.hbond>
-4.3533

> <Gold.PLP.part.metal>
0.0000

> <Gold.PLP.part.buried>
-4.9971

> <Gold.PLP.part.nonpolar>
-22.1686

> <Gold.PLP.part.repulsive>
3.2635

> <Gold.PLP.ligand.clash>
0.0000

> <Gold.PLP.ligand.torsion>
0.2411

> <Gold.PLP.Chemscore.Hbond>
3.5700

> <Gold.PLP.Chemscore.CHOScore>
1.1103

> <Gold.PLP.Chemscore.Metal>
0.0000

> <Gold.Chemscore.Hbonds>
donor molecule, donor type, donor heavy atom, donor atom, acceptor molecule, acceptor atom, score
      L1  H    15    29       P1  8029  0.85
      P1  H  7997  8009       L1     3  2.00
      P1  H 10752 10765       L1     6  0.75
      L1  C     7    18       P1  7948  0.44
      L1  C     7    18       P1  7949  0.68

> <Gold.PLP.Chemscore.Internal.Correction>
0.0017

> <Gold.Rescore>
     Score         DG    S(hbond)    S(metal)    S(lipo)     H(rot)  DE(clash)    DE(int)     intcor
     12.92     -16.73       1.65        0.00      71.05       1.00       2.77       1.04       ----

> <Gold.Chemscore.Fitness>
12.9195

> <Gold.Chemscore.DG>
-16.7280

> <Gold.Chemscore.ZeroCoef>
-5.4800

> <Gold.Chemscore.Hbond>
1.6451

> <Gold.Chemscore.Metal>
0.0000

> <Gold.Chemscore.Lipo>
71.0529

> <Gold.Chemscore.Internal_Hbond>
0.0000

> <Gold.Chemscore.DEClash>
2.7685

> <Gold.Chemscore.DEInternal>
1.0400

> <Gold.Chemscore.Rot>
1.0000

> <Gold.Chemscore.Internal.Correction>
   9.000000E+99

> <Gold.Chemscore.Hbonds>
donor molecule, donor type, donor heavy atom, donor atom, acceptor molecule, acceptor atom, score
      L1  H    15    29       P1  8029  0.15
      P1  H  7997  8009       L1     3  0.58
      P1  H 10752 10765       L1     6  0.46

> <Gold.Chemscore.Hbond.Weighted>
-5.4948

> <Gold.Chemscore.Metal.Weighted>
-0.0000

> <Gold.Chemscore.Lipo.Weighted>
-8.3132

> <Gold.Chemscore.Internal_Hbond.Weighted>
0.0000

> <Gold.Chemscore.DEClash.Weighted>
2.7685

> <Gold.Chemscore.DEInternal.Weighted>
1.0400

> <Gold.Chemscore.Rot.Weighted>
2.5600

> <Gold.Chemscore.Internal.Correction.Weighted>
   9.000000E+99

> <Gold.Protein.RotatedTorsions>
[ 6907 6896 6895 6894 ] final    0.03 input  -60.11 | X-H torsion
[ 7974 7965 7964 7962 ] final  150.39 input  175.53 | X-H torsion
[ 8008 7997 7996 7995 ] final  164.69 input   59.86 | X-H torsion
[ 10167 10162 10161 10158 ] final -173.79 input  -65.29 | X-H torsion
[ 10718 10713 10712 10709 ] final  -91.86 input   66.30 | X-H torsion
[ 10763 10752 10751 10750 ] final  158.53 input  -60.55 | X-H torsion
[ 11005 11000 10999 10996 ] final   40.93 input  -57.11 | X-H torsion

> <Gold.Protein.ActiveResidues>
 VAL166  LYS551  ARG553  GLY616  TRP617  ASP618  TYR619  PRO620  LYS621  CYS622 
 ASP623  PHE694  ASN695  SER759  ASP760  ASP761  ALA762  ILE779  LEU786  VAL792 
 PHE793  MET794  SER795  GLU796  ALA797  LYS798  CYS799  TRP800  GLU811  SER814 

> <Gold.Protein.RotatedAtoms>
  151.5698  135.1063  159.9992 H   0  0  0  0  0  0  0  0  0  0  0  0  # atno 6907 bound_to 6896
  152.4406  133.7437  159.6666 H   0  0  0  0  0  0  0  0  0  0  0  0  # atno 6908 bound_to 6896
  150.8311  133.8020  159.3121 H   0  0  0  0  0  0  0  0  0  0  0  0  # atno 6909 bound_to 6896
  144.8368  139.6402  143.6034 H   0  0  0  0  0  0  0  0  0  0  0  0  # atno 7974 bound_to 7965
  156.1860  140.1690  156.8184 H   0  0  0  0  0  0  0  0  0  0  0  0  # atno 8008 bound_to 7997
  154.5415  140.0736  156.8550 H   0  0  0  0  0  0  0  0  0  0  0  0  # atno 8009 bound_to 7997
  155.3206  140.3373  155.4243 H   0  0  0  0  0  0  0  0  0  0  0  0  # atno 8010 bound_to 7997
  139.5669  144.1735  152.1325 H   0  0  0  0  0  0  0  0  0  0  0  0  # atno 10167 bound_to 10162
  155.9997  130.4964  150.5539 H   0  0  0  0  0  0  0  0  0  0  0  0  # atno 10718 bound_to 10713
  154.2175  135.2783  155.2937 H   0  0  0  0  0  0  0  0  0  0  0  0  # atno 10763 bound_to 10752
  154.5729  135.5613  153.7115 H   0  0  0  0  0  0  0  0  0  0  0  0  # atno 10764 bound_to 10752
  153.0049  135.6326  154.2314 H   0  0  0  0  0  0  0  0  0  0  0  0  # atno 10765 bound_to 10752
  140.1883  134.4018  155.8161 H   0  0  0  0  0  0  0  0  0  0  0  0  # atno 11005 bound_to 11000
  146.2665  139.6533  142.9325 LP  0  0  0  0  0  0  0  0  0  0  0  0  # atno 17320 bound_to 7965
  145.4778  141.0437  143.2662 LP  0  0  0  0  0  0  0  0  0  0  0  0  # atno 17321 bound_to 7965
  140.1259  144.5331  150.6833 LP  0  0  0  0  0  0  0  0  0  0  0  0  # atno 17342 bound_to 10162
  140.6952  143.2400  151.5020 LP  0  0  0  0  0  0  0  0  0  0  0  0  # atno 17343 bound_to 10162
  157.3458  131.0725  151.1752 LP  0  0  0  0  0  0  0  0  0  0  0  0  # atno 17370 bound_to 10713
  157.2586  130.6648  149.5964 LP  0  0  0  0  0  0  0  0  0  0  0  0  # atno 17371 bound_to 10713
  141.2225  133.7034  156.8051 LP  0  0  0  0  0  0  0  0  0  0  0  0  # atno 17394 bound_to 11000
  140.2188  134.8772  157.3355 LP  0  0  0  0  0  0  0  0  0  0  0  0  # atno 17395 bound_to 11000

$$$$
