#       Name:                AV-unprocessed.smi:1802
#       Creating user name   scv26
#       Creation time:       Fri Mar 27 08:53:47 2020


#       File generated by GOLD software.
#

@<TRIPOS>MOLECULE
AV-unprocessed.smi:1802
    45    46     1
SMALL
NO_CHARGES


@<TRIPOS>ATOM
      1 ****        -1.1904   4.0155   0.0625 C.3            1 S1                 0.0000
      2 ****        -2.2501   3.2104  -0.7101 C.3            1 S1                 0.0000
      3 ****        -3.6412   3.2655  -0.0515 C.3            1 S1                 0.0000
      4 ****        -3.6959   2.3935   1.2108 C.3            1 S1                 0.0000
      5 ****        -3.2286   0.9597   0.9135 C.3            1 S1                 0.0000
      6 ****        -1.8679   0.9521   0.3176 N.4            1 S1                 1.0000
      7 ****        -1.3306  -0.4226   0.1597 C.3            1 S1                 0.0000
      8 ****         0.2067  -0.4501   0.1379 C.3            1 S1                 0.0000
      9 ****         0.7585  -1.8777   0.0405 C.3            1 S1                 0.0000
     10 ****         2.2146  -1.8626   0.0296 N.am           1 S1                 0.0000
     11 ****         2.9948  -2.9291  -0.1889 C.2            1 S1                 0.0000
     12 ****         2.4832  -4.0320  -0.3951 O.2            1 S1                 0.0000
     13 ****         4.3174  -2.6507  -0.1546 N.pl3          1 S1                -1.0000
     14 ****         5.2150  -3.6246  -0.3788 C.2            1 S1                 0.0000
     15 ****         5.8081  -3.7921  -1.5716 N.2            1 S1                 0.0000
     16 ****         6.7053  -4.8513  -1.5914 N.2            1 S1                 0.0000
     17 ****         6.7725  -5.4531  -0.4041 C.2            1 S1                 0.0000
     18 ****         5.7495  -4.7787   0.8465 S.3            1 S1                 0.0000
     19 ****        -1.8174   1.7474  -0.9395 C.3            1 S1                 0.0000
     20 ****        -1.0122   3.6073   1.0574 H              1 S1                 0.0000
     21 ****        -1.4972   5.0549   0.1805 H              1 S1                 0.0000
     22 ****        -0.2377   4.0151  -0.4676 H              1 S1                 0.0000
     23 ****        -2.3377   3.6820  -1.6900 H              1 S1                 0.0000
     24 ****        -3.9134   4.2945   0.1859 H              1 S1                 0.0000
     25 ****        -4.3883   2.9090  -0.7618 H              1 S1                 0.0000
     26 ****        -3.0735   2.8294   1.9929 H              1 S1                 0.0000
     27 ****        -4.7127   2.3769   1.6045 H              1 S1                 0.0000
     28 ****        -3.2298   0.3874   1.8420 H              1 S1                 0.0000
     29 ****        -3.9268   0.4663   0.2355 H              1 S1                 0.0000
     30 ****        -1.6620  -1.0372   0.9980 H              1 S1                 0.0000
     31 ****        -1.7422  -0.8829  -0.7398 H              1 S1                 0.0000
     32 ****         0.5872   0.1303  -0.7025 H              1 S1                 0.0000
     33 ****         0.5905   0.0258   1.0414 H              1 S1                 0.0000
     34 ****         0.4140  -2.4766   0.8847 H              1 S1                 0.0000
     35 ****         0.3915  -2.3568  -0.8688 H              1 S1                 0.0000
     36 ****         2.6706  -0.9775   0.1959 H              1 S1                 0.0000
     37 ****         7.4312  -6.2969  -0.2631 H              1 S1                 0.0000
     38 ****        -2.4713   1.2823  -1.6792 H              1 S1                 0.0000
     39 ****        -0.8146   1.7326  -1.3651 H              1 S1                 0.0000
     40 ****        -1.2681   1.4163   0.9846 H              1 S1                 0.0000
     41 ****         1.4879  -4.1287  -0.3989 LP             1 S1                 0.0000
     42 ****         3.0636  -4.8298  -0.5585 LP             1 S1                 0.0000
     43 ****         4.6275  -1.7197   0.0377 LP             1 S1                 0.0000
     44 ****         5.6224  -3.2127  -2.3652 LP             1 S1                 0.0000
     45 ****         7.2338  -5.1276  -2.3941 LP             1 S1                 0.0000
@<TRIPOS>BOND
    1    1    2 1     
    2    1   20 1     
    3    1   21 1     
    4    1   22 1     
    5    2   19 1     
    6    2    3 1     
    7    2   23 1     
    8    3    4 1     
    9    3   24 1     
   10    3   25 1     
   11    4    5 1     
   12    4   26 1     
   13    4   27 1     
   14    5    6 1     
   15    5   28 1     
   16    5   29 1     
   17    6    7 1     
   18    6   19 1     
   19    6   40 1     
   20    7    8 1     
   21    7   30 1     
   22    7   31 1     
   23    8    9 1     
   24    8   32 1     
   25    8   33 1     
   26    9   10 1     
   27    9   34 1     
   28    9   35 1     
   29   10   11 am    
   30   10   36 1     
   31   11   12 2     
   32   11   13 1     
   33   13   14 1     
   34   14   18 1     
   35   14   15 2     
   36   15   16 1     
   37   16   17 2     
   38   17   18 1     
   39   17   37 1     
   40   19   38 1     
   41   19   39 1     
   42   12   41 1     
   43   12   42 1     
   44   13   43 1     
   45   15   44 1     
   46   16   45 1     
@<TRIPOS>SUBSTRUCTURE
      1 S1             1
@<TRIPOS>SET
LONE_PAIRS      STATIC     ATOMS    <user>   **** ""
5 41 42 43 44 45
DONOR_HYDROGENS      STATIC     ATOMS    <user>   **** ""
2 40 36
ATOM$BLUE        STATIC     ATOMS    COLORGROUP SYSTEM
5 41 42 43 44 45
ATOM$RED        STATIC     ATOMS    COLORGROUP SYSTEM
2 40 36
