AV-unprocessed.smi:169|AV-procd|sdf|1405|dock3
  -GOLD-   2262019153D 1   1.00000     0.00000
 Structure written by MMmdl.
 56 60  0  0  0  0  0  0  0  0  2 V2000
  143.5540  141.3103  157.4143 C   0  0  0  0  0  0  0  0  0  0  0  0
  143.8513  140.7572  156.0090 C   0  0  0  0  0  0  0  0  0  0  0  0
  145.2831  140.8425  155.6182 N   0  3  1  0  0  0  0  0  0  0  0  0
  145.7762  142.2375  155.4929 C   0  0  0  0  0  0  0  0  0  0  0  0
  146.7701  142.4171  154.3281 C   0  0  0  0  0  0  0  0  0  0  0  0
  147.9054  141.3734  154.2264 C   0  0  2  0  0  0  0  0  0  0  0  0
  147.5078  140.1103  153.4339 C   0  0  0  0  0  0  0  0  0  0  0  0
  147.4546  138.9781  154.4649 C   0  0  0  0  0  0  0  0  0  0  0  0
  147.5487  139.6871  155.8196 C   0  0  2  0  0  0  0  0  0  0  0  0
  146.1663  139.9763  156.4481 C   0  0  0  0  0  0  0  0  0  0  0  0
  148.3176  140.8982  155.5471 N   0  0  0  0  0  0  0  0  0  0  0  0
  149.6324  140.8323  155.8822 C   0  0  0  0  0  0  0  0  0  0  0  0
  150.4721  139.9757  155.2423 N   0  0  0  0  0  0  0  0  0  0  0  0
  151.7616  139.9116  155.5868 C   0  0  0  0  0  0  0  0  0  0  0  0
  152.4081  140.6002  156.5290 N   0  0  0  0  0  0  0  0  0  0  0  0
  151.5714  141.4590  157.1778 C   0  0  0  0  0  0  0  0  0  0  0  0
  150.1839  141.6382  156.9166 C   0  0  0  0  0  0  0  0  0  0  0  0
  149.6613  142.6073  157.7643 N   0  0  0  0  0  0  0  0  0  0  0  0
  150.6821  142.9778  158.4883 C   0  0  0  0  0  0  0  0  0  0  0  0
  151.8661  142.3302  158.2122 N   0  0  0  0  0  0  0  0  0  0  0  0
  153.1462  142.5461  158.8698 C   0  0  0  0  0  0  0  0  0  0  0  0
  153.2251  141.9753  160.3014 C   0  0  0  0  0  0  0  0  0  0  0  0
  152.7454  143.0109  161.3340 C   0  0  0  0  0  0  0  0  0  0  0  0
  151.6446  142.5305  162.0791 O   0  0  0  0  0  0  0  0  0  0  0  0
  152.6363  140.5707  160.4986 C   0  0  0  0  0  0  0  0  0  0  0  0
  153.8328  140.1018  161.1545 O   0  0  0  0  0  0  0  0  0  0  0  0
  154.5355  141.2640  160.6658 C   0  0  0  0  0  0  0  0  0  0  0  0
  142.4877  141.2446  157.6308 H   0  0  0  0  0  0  0  0  0  0  0  0
  143.8401  142.3580  157.5067 H   0  0  0  0  0  0  0  0  0  0  0  0
  144.0753  140.7491  158.1897 H   0  0  0  0  0  0  0  0  0  0  0  0
  143.5289  139.7169  155.9503 H   0  0  0  0  0  0  0  0  0  0  0  0
  143.2533  141.2940  155.2715 H   0  0  0  0  0  0  0  0  0  0  0  0
  144.9412  142.9177  155.3181 H   0  0  0  0  0  0  0  0  0  0  0  0
  146.2249  142.5582  156.4348 H   0  0  0  0  0  0  0  0  0  0  0  0
  146.2296  142.4630  153.3818 H   0  0  0  0  0  0  0  0  0  0  0  0
  147.2229  143.4029  154.4418 H   0  0  0  0  0  0  0  0  0  0  0  0
  148.7223  141.8611  153.6939 H   0  0  0  0  0  0  0  0  0  0  0  0
  146.5482  140.2279  152.9298 H   0  0  0  0  0  0  0  0  0  0  0  0
  148.2486  139.8845  152.6658 H   0  0  0  0  0  0  0  0  0  0  0  0
  146.5648  138.3553  154.3667 H   0  0  0  0  0  0  0  0  0  0  0  0
  148.3225  138.3304  154.3329 H   0  0  0  0  0  0  0  0  0  0  0  0
  148.0853  139.0314  156.5070 H   0  0  0  0  0  0  0  0  0  0  0  0
  146.3032  140.4254  157.4326 H   0  0  0  0  0  0  0  0  0  0  0  0
  145.6675  139.0215  156.6194 H   0  0  0  0  0  0  0  0  0  0  0  0
  152.3613  139.2076  155.0285 H   0  0  0  0  0  0  0  0  0  0  0  0
  150.5981  143.7333  159.2562 H   0  0  0  0  0  0  0  0  0  0  0  0
  153.9215  142.1080  158.2399 H   0  0  0  0  0  0  0  0  0  0  0  0
  153.3489  143.6177  158.8754 H   0  0  0  0  0  0  0  0  0  0  0  0
  153.5441  143.2989  162.0177 H   0  0  0  0  0  0  0  0  0  0  0  0
  152.4329  143.9293  160.8358 H   0  0  0  0  0  0  0  0  0  0  0  0
  151.7951  142.7208  162.9928 H   0  0  0  0  0  0  0  0  0  0  0  0
  151.7592  140.5419  161.1461 H   0  0  0  0  0  0  0  0  0  0  0  0
  152.4532  140.0259  159.5717 H   0  0  0  0  0  0  0  0  0  0  0  0
  155.1643  141.0253  159.8063 H   0  0  0  0  0  0  0  0  0  0  0  0
  155.1138  141.7636  161.4438 H   0  0  0  0  0  0  0  0  0  0  0  0
  145.3150  140.4562  154.6853 H   0  0  0  0  0  0  0  0  0  0  0  0
  1  2  1  0  0  0  0
  1 28  1  0  0  0  0
  1 29  1  0  0  0  0
  1 30  1  0  0  0  0
  2  3  1  0  0  0  0
  2 31  1  0  0  0  0
  2 32  1  0  0  0  0
  3 10  1  0  0  0  0
  3  4  1  0  0  0  0
  3 56  1  0  0  0  0
  4  5  1  0  0  0  0
  4 33  1  0  0  0  0
  4 34  1  0  0  0  0
  5  6  1  0  0  0  0
  5 35  1  0  0  0  0
  5 36  1  0  0  0  0
  6 11  1  0  0  0  0
  6  7  1  0  0  0  0
  6 37  1  0  0  0  0
  7  8  1  0  0  0  0
  7 38  1  0  0  0  0
  7 39  1  0  0  0  0
  8  9  1  0  0  0  0
  8 40  1  0  0  0  0
  8 41  1  0  0  0  0
  9 10  1  0  0  0  0
  9 11  1  0  0  0  0
  9 42  1  0  0  0  0
 10 43  1  0  0  0  0
 10 44  1  0  0  0  0
 11 12  1  0  0  0  0
 12 17  1  0  0  0  0
 12 13  2  0  0  0  0
 13 14  1  0  0  0  0
 14 15  2  0  0  0  0
 14 45  1  0  0  0  0
 15 16  1  0  0  0  0
 16 20  1  0  0  0  0
 16 17  2  0  0  0  0
 17 18  1  0  0  0  0
 18 19  2  0  0  0  0
 19 20  1  0  0  0  0
 19 46  1  0  0  0  0
 20 21  1  0  0  0  0
 21 22  1  0  0  0  0
 21 47  1  0  0  0  0
 21 48  1  0  0  0  0
 22 27  1  0  0  0  0
 22 23  1  0  0  0  0
 22 25  1  0  0  0  0
 23 24  1  0  0  0  0
 23 49  1  0  0  0  0
 23 50  1  0  0  0  0
 24 51  1  0  0  0  0
 25 26  1  0  0  0  0
 25 52  1  0  0  0  0
 25 53  1  0  0  0  0
 26 27  1  0  0  0  0
 27 54  1  0  0  0  0
 27 55  1  0  0  0  0
M  CHG  1   3   1
M  END
> <s_m_source_file>
AV-unprocessed.smi

> <i_m_source_file_index>
169

> <i_lp_mmshare_version>
43012

> <i_f3d_flags>
0

> <s_epik_input>
W0NASF0xMltDSDJdW0NIMl1OKFtDSDJdW0NIM10pW0NIMl1bQ0BIXShbQ0gyXVtDSDJdMSlOMmMobltjSF1uMyljKGMzNCluW2NIXW40W0NIMl1DNShbQ0gyXVtPSF0pW0NIMl1PW0NIMl01

> <s_epik_cmdline>
J2VwaWtfcHl0aG9uJywgJy1waCcsICc3LjAnLCAnLXRuJywgJzgnLCAnLW1hJywgJzIwMCcsICctbWV0YWxfYmluZGluZycsICctaW1hZScsICc8aW5maWxlLm1hZT4nLCAnLW9tYWUnLCAnPG91dGZpbGUubWFlPic=

> <r_lp_tautomer_probability>
1

> <r_epik_Ionization_Penalty>
0.00274162

> <r_epik_Ionization_Penalty_Charging>
0.00243722

> <r_epik_Ionization_Penalty_Neutral>
0.000304399

> <r_epik_State_Penalty>
-0

> <r_epik_Charging_Adjusted_Penalty>
0.00243722

> <i_epik_Tot_Q>
1

> <i_epik_Tot_abs_Q>
1

> <r_epik_Metal_State_Penalty>
-0

> <b_epik_Metal_Only>
0

> <s_lp_Force_Field>
OPLS_2005

> <r_lp_Energy>
77.4951

> <b_lp_Chiralities_Consistent>
1

> <s_lp_Variant>
AV-unprocessed.smi:169-8

> <Gold.Version>
5.8.1

> <Gold.Id.Protein>
6NUR|6NUR_protein|mol2

> <Gold.PLP.Fitness>
36.0217

> <Gold.PLP.PLP>
-35.1714

> <Gold.PLP.part.hbond>
-3.0519

> <Gold.PLP.part.metal>
0.0000

> <Gold.PLP.part.buried>
-2.2884

> <Gold.PLP.part.nonpolar>
-29.7933

> <Gold.PLP.part.repulsive>
0.8306

> <Gold.PLP.ligand.clash>
1.5884

> <Gold.PLP.ligand.torsion>
1.7886

> <Gold.PLP.Chemscore.Hbond>
1.8240

> <Gold.PLP.Chemscore.CHOScore>
0.0000

> <Gold.PLP.Chemscore.Metal>
0.0000

> <Gold.Chemscore.Hbonds>
donor molecule, donor type, donor heavy atom, donor atom, acceptor molecule, acceptor atom, score
      P1  H  6933  6945       L1    24  0.82
      P1  H  7997  8010       L1    15  0.88

> <Gold.PLP.Chemscore.Internal.Correction>
0.5438

> <Gold.Rescore>
     Score         DG    S(hbond)    S(metal)    S(lipo)     H(rot)  DE(clash)    DE(int)     intcor
      8.98     -12.83       1.23        0.00      85.16       2.62       1.92       1.93       ----

> <Gold.Chemscore.Fitness>
8.9802

> <Gold.Chemscore.DG>
-12.8272

> <Gold.Chemscore.ZeroCoef>
-5.4800

> <Gold.Chemscore.Hbond>
1.2255

> <Gold.Chemscore.Metal>
0.0000

> <Gold.Chemscore.Lipo>
85.1631

> <Gold.Chemscore.Internal_Hbond>
0.0000

> <Gold.Chemscore.DEClash>
1.9204

> <Gold.Chemscore.DEInternal>
1.9266

> <Gold.Chemscore.Rot>
2.6212

> <Gold.Chemscore.Internal.Correction>
   9.000000E+99

> <Gold.Chemscore.Hbonds>
donor molecule, donor type, donor heavy atom, donor atom, acceptor molecule, acceptor atom, score
      P1  H  6933  6945       L1    24  0.16
      P1  H  7997  8010       L1    15  0.55

> <Gold.Chemscore.Hbond.Weighted>
-4.0933

> <Gold.Chemscore.Metal.Weighted>
-0.0000

> <Gold.Chemscore.Lipo.Weighted>
-9.9641

> <Gold.Chemscore.Internal_Hbond.Weighted>
0.0000

> <Gold.Chemscore.DEClash.Weighted>
1.9204

> <Gold.Chemscore.DEInternal.Weighted>
1.9266

> <Gold.Chemscore.Rot.Weighted>
6.7102

> <Gold.Chemscore.Internal.Correction.Weighted>
   9.000000E+99

> <Gold.Protein.RotatedTorsions>
[ 6907 6896 6895 6894 ] final  -36.68 input  -60.11 | X-H torsion
[ 7974 7965 7964 7962 ] final   39.91 input  175.53 | X-H torsion
[ 8008 7997 7996 7995 ] final   73.64 input   59.86 | X-H torsion
[ 10167 10162 10161 10158 ] final   24.11 input  -65.29 | X-H torsion
[ 10718 10713 10712 10709 ] final  106.21 input   66.30 | X-H torsion
[ 10763 10752 10751 10750 ] final -168.19 input  -60.55 | X-H torsion
[ 11005 11000 10999 10996 ] final  -13.41 input  -57.11 | X-H torsion

> <Gold.Protein.ActiveResidues>
 VAL166  LYS551  ARG553  GLY616  TRP617  ASP618  TYR619  PRO620  LYS621  CYS622 
 ASP623  PHE694  ASN695  SER759  ASP760  ASP761  ALA762  ILE779  LEU786  VAL792 
 PHE793  MET794  SER795  GLU796  ALA797  LYS798  CYS799  TRP800  GLU811  SER814 

> <Gold.Protein.RotatedAtoms>
  151.0242  134.9491  159.8075 H   0  0  0  0  0  0  0  0  0  0  0  0  # atno 6907 bound_to 6896
  152.5332  134.2864  159.9037 H   0  0  0  0  0  0  0  0  0  0  0  0  # atno 6908 bound_to 6896
  151.2872  133.4140  159.2665 H   0  0  0  0  0  0  0  0  0  0  0  0  # atno 6909 bound_to 6896
  146.0947  139.5596  142.9453 H   0  0  0  0  0  0  0  0  0  0  0  0  # atno 7974 bound_to 7965
  155.7866  140.3480  155.5326 H   0  0  0  0  0  0  0  0  0  0  0  0  # atno 8008 bound_to 7997
  155.8675  140.0981  157.1593 H   0  0  0  0  0  0  0  0  0  0  0  0  # atno 8009 bound_to 7997
  154.4015  140.1347  156.4025 H   0  0  0  0  0  0  0  0  0  0  0  0  # atno 8010 bound_to 7997
  140.5214  143.9995  150.6419 H   0  0  0  0  0  0  0  0  0  0  0  0  # atno 10167 bound_to 10162
  157.6676  131.0845  150.5973 H   0  0  0  0  0  0  0  0  0  0  0  0  # atno 10718 bound_to 10713
  154.6655  135.2931  154.9811 H   0  0  0  0  0  0  0  0  0  0  0  0  # atno 10763 bound_to 10752
  154.0856  135.6598  153.4848 H   0  0  0  0  0  0  0  0  0  0  0  0  # atno 10764 bound_to 10752
  153.0455  135.5208  154.7626 H   0  0  0  0  0  0  0  0  0  0  0  0  # atno 10765 bound_to 10752
  140.7758  133.8402  155.9247 H   0  0  0  0  0  0  0  0  0  0  0  0  # atno 11005 bound_to 11000
  145.5971  141.0361  143.2038 LP  0  0  0  0  0  0  0  0  0  0  0  0  # atno 17320 bound_to 7965
  144.7386  139.7513  143.7319 LP  0  0  0  0  0  0  0  0  0  0  0  0  # atno 17321 bound_to 7965
  140.3345  143.3057  152.0652 LP  0  0  0  0  0  0  0  0  0  0  0  0  # atno 17342 bound_to 10162
  139.4925  144.6486  151.6725 LP  0  0  0  0  0  0  0  0  0  0  0  0  # atno 17343 bound_to 10162
  156.6274  130.4422  149.5799 LP  0  0  0  0  0  0  0  0  0  0  0  0  # atno 17370 bound_to 10713
  156.2309  130.6794  151.1462 LP  0  0  0  0  0  0  0  0  0  0  0  0  # atno 17371 bound_to 10713
  140.9530  134.1754  157.4713 LP  0  0  0  0  0  0  0  0  0  0  0  0  # atno 17394 bound_to 11000
  139.8749  134.9916  156.5558 LP  0  0  0  0  0  0  0  0  0  0  0  0  # atno 17395 bound_to 11000

$$$$
