#       Name:                AV-unprocessed.smi:1439
#       Creating user name   scv26
#       Creation time:       Fri Mar 27 05:54:37 2020


#       File generated by GOLD software.
#

@<TRIPOS>MOLECULE
AV-unprocessed.smi:1439
    43    44     1
SMALL
NO_CHARGES


@<TRIPOS>ATOM
      1 ****        -4.9618   3.9826  -1.5954 N.am           1 S1                 0.0000
      2 ****        -5.8033   3.1701  -0.9505 C.2            1 S1                 0.0000
      3 ****        -6.9016   2.8630  -1.4090 O.2            1 S1                 0.0000
      4 ****        -5.3496   2.6262   0.4052 C.3            1 S1                 0.0000
      5 ****        -4.4819   1.4156   0.2174 C.2            1 S1                 0.0000
      6 ****        -4.9045   0.1275  -0.0103 C.2            1 S1                 0.0000
      7 ****        -3.5705  -0.9823  -0.1670 S.3            1 S1                 0.0000
      8 ****        -2.4693   0.3713   0.0945 C.2            1 S1                 0.0000
      9 ****        -1.0533   0.3359   0.1291 N.am           1 S1                 0.0000
     10 ****        -0.2481  -0.7305  -0.0187 C.2            1 S1                 0.0000
     11 ****        -0.6426  -1.8789  -0.2217 O.2            1 S1                 0.0000
     12 ****         1.2525  -0.4338   0.0749 C.3            1 S1                 0.0000
     13 ****         2.1058  -1.6703   0.4152 C.3            1 S1                 0.0000
     14 ****         3.5947  -1.3310   0.5797 C.3            1 S1                 0.0000
     15 ****         4.4586  -2.5220   0.9890 C.3            1 S1                 0.0000
     16 ****         5.8226  -2.0854   0.5056 C.3            1 S1                 0.0000
     17 ****         5.4797  -1.3850  -0.8066 C.3            1 S1                 0.0000
     18 ****         4.1539  -0.8835  -0.6529 O.3            1 S1                 0.0000
     19 ****        -3.0887   1.5387   0.2771 N.2            1 S1                 0.0000
     20 ****        -5.2203   4.3585  -2.4961 H              1 S1                 0.0000
     21 ****        -4.0688   4.2132  -1.1842 H              1 S1                 0.0000
     22 ****        -4.8203   3.4071   0.9534 H              1 S1                 0.0000
     23 ****        -6.2280   2.3761   1.0015 H              1 S1                 0.0000
     24 ****        -5.9190  -0.2325  -0.0979 H              1 S1                 0.0000
     25 ****        -0.5995   1.2235   0.2887 H              1 S1                 0.0000
     26 ****         1.5761  -0.0098  -0.8762 H              1 S1                 0.0000
     27 ****         1.4121   0.3357   0.8316 H              1 S1                 0.0000
     28 ****         1.7409  -2.1187   1.3404 H              1 S1                 0.0000
     29 ****         1.9928  -2.4281  -0.3618 H              1 S1                 0.0000
     30 ****         3.7205  -0.5337   1.3142 H              1 S1                 0.0000
     31 ****         4.4271  -2.7228   2.0602 H              1 S1                 0.0000
     32 ****         4.1481  -3.4250   0.4611 H              1 S1                 0.0000
     33 ****         6.2587  -1.3750   1.2092 H              1 S1                 0.0000
     34 ****         6.5201  -2.9137   0.3782 H              1 S1                 0.0000
     35 ****         6.1821  -0.5859  -1.0449 H              1 S1                 0.0000
     36 ****         5.4845  -2.0974  -1.6323 H              1 S1                 0.0000
     37 ****        -7.1925   3.2246  -2.2948 LP             1 S1                 0.0000
     38 ****        -7.5043   2.2516  -0.8962 LP             1 S1                 0.0000
     39 ****        -1.6226  -2.0667  -0.2867 LP             1 S1                 0.0000
     40 ****         0.0170  -2.6238  -0.3216 LP             1 S1                 0.0000
     41 ****         4.1765   0.1162  -0.6611 LP             1 S1                 0.0000
     42 ****         3.5879  -1.2103  -1.4098 LP             1 S1                 0.0000
     43 ****        -2.6122   2.4030   0.4382 LP             1 S1                 0.0000
@<TRIPOS>BOND
    1    1    2 am    
    2    1   20 1     
    3    1   21 1     
    4    2    3 2     
    5    2    4 1     
    6    4    5 1     
    7    4   22 1     
    8    4   23 1     
    9    5   19 1     
   10    5    6 2     
   11    6    7 1     
   12    6   24 1     
   13    7    8 1     
   14    8    9 1     
   15    8   19 2     
   16    9   10 am    
   17    9   25 1     
   18   10   11 2     
   19   10   12 1     
   20   12   13 1     
   21   12   26 1     
   22   12   27 1     
   23   13   14 1     
   24   13   28 1     
   25   13   29 1     
   26   14   18 1     
   27   14   15 1     
   28   14   30 1     
   29   15   16 1     
   30   15   31 1     
   31   15   32 1     
   32   16   17 1     
   33   16   33 1     
   34   16   34 1     
   35   17   18 1     
   36   17   35 1     
   37   17   36 1     
   38    3   37 1     
   39    3   38 1     
   40   11   39 1     
   41   11   40 1     
   42   18   41 1     
   43   18   42 1     
   44   19   43 1     
@<TRIPOS>SUBSTRUCTURE
      1 S1             1
@<TRIPOS>SET
LONE_PAIRS      STATIC     ATOMS    <user>   **** ""
7 37 38 39 40 41 42 43
DONOR_HYDROGENS      STATIC     ATOMS    <user>   **** ""
3 20 21 25
ATOM$BLUE        STATIC     ATOMS    COLORGROUP SYSTEM
7 37 38 39 40 41 42 43
ATOM$RED        STATIC     ATOMS    COLORGROUP SYSTEM
3 20 21 25
