AV-unprocessed.smi:3249|AV-procd|sdf|12420|dock7
  -GOLD-   2272018303D 1   1.00000     0.00000
 Structure written by MMmdl.
 44 45  0  0  0  0  0  0  0  0  2 V2000
  145.4457  137.1205  152.5333 C   0  0  0  0  0  0  0  0  0  0  0  0
  146.1141  137.8610  153.6555 C   0  0  0  0  0  0  0  0  0  0  0  0
  145.7425  137.8878  155.0296 C   0  0  0  0  0  0  0  0  0  0  0  0
  146.5430  138.6428  155.7633 N   0  0  0  0  0  0  0  0  0  0  0  0
  147.4543  139.1235  154.8883 N   0  0  0  0  0  0  0  0  0  0  0  0
  148.5121  140.0153  155.3466 C   0  0  1  0  0  0  0  0  0  0  0  0
  149.5363  140.2376  154.2174 C   0  0  0  0  0  0  0  0  0  0  0  0
  147.9493  141.3436  155.9215 C   0  0  1  0  0  0  0  0  0  0  0  0
  146.9938  141.1308  157.1097 C   0  0  0  0  0  0  0  0  0  0  0  0
  149.0547  142.2292  156.3513 N   0  3  0  0  0  0  0  0  0  0  0  0
  149.8175  141.7474  157.5219 C   0  0  0  0  0  0  0  0  0  0  0  0
  150.8672  142.7739  157.9737 C   0  0  2  0  0  0  0  0  0  0  0  0
  151.9236  142.1705  158.9229 C   0  0  0  0  0  0  0  0  0  0  0  0
  152.8845  143.2564  159.4208 C   0  0  0  0  0  0  0  0  0  0  0  0
  152.0862  144.4163  160.0250 C   0  0  0  0  0  0  0  0  0  0  0  0
  151.0195  144.9046  159.0322 C   0  0  0  0  0  0  0  0  0  0  0  0
  150.1771  143.8202  158.6525 O   0  0  0  0  0  0  0  0  0  0  0  0
  147.2147  138.6688  153.6082 C   0  0  0  0  0  0  0  0  0  0  0  0
  144.6810  136.4345  152.8985 H   0  0  0  0  0  0  0  0  0  0  0  0
  146.1593  136.5290  151.9595 H   0  0  0  0  0  0  0  0  0  0  0  0
  144.9585  137.8025  151.8364 H   0  0  0  0  0  0  0  0  0  0  0  0
  144.9181  137.3836  155.5124 H   0  0  0  0  0  0  0  0  0  0  0  0
  149.0267  139.4938  156.1555 H   0  0  0  0  0  0  0  0  0  0  0  0
  150.4124  140.7803  154.5718 H   0  0  0  0  0  0  0  0  0  0  0  0
  149.1056  140.8050  153.3919 H   0  0  0  0  0  0  0  0  0  0  0  0
  149.8886  139.2863  153.8171 H   0  0  0  0  0  0  0  0  0  0  0  0
  147.3768  141.8441  155.1381 H   0  0  0  0  0  0  0  0  0  0  0  0
  146.1053  140.5687  156.8214 H   0  0  0  0  0  0  0  0  0  0  0  0
  146.6498  142.0852  157.5095 H   0  0  0  0  0  0  0  0  0  0  0  0
  147.4827  140.5879  157.9192 H   0  0  0  0  0  0  0  0  0  0  0  0
  149.6970  142.3301  155.5783 H   0  0  0  0  0  0  0  0  0  0  0  0
  149.1189  141.5623  158.3388 H   0  0  0  0  0  0  0  0  0  0  0  0
  150.2926  140.7939  157.2872 H   0  0  0  0  0  0  0  0  0  0  0  0
  151.3540  143.1937  157.0913 H   0  0  0  0  0  0  0  0  0  0  0  0
  151.4294  141.7041  159.7761 H   0  0  0  0  0  0  0  0  0  0  0  0
  152.4865  141.3842  158.4195 H   0  0  0  0  0  0  0  0  0  0  0  0
  153.5756  142.8459  160.1575 H   0  0  0  0  0  0  0  0  0  0  0  0
  153.4901  143.6209  158.5903 H   0  0  0  0  0  0  0  0  0  0  0  0
  151.6032  144.0887  160.9465 H   0  0  0  0  0  0  0  0  0  0  0  0
  152.7545  145.2343  160.2953 H   0  0  0  0  0  0  0  0  0  0  0  0
  150.4079  145.6811  159.4917 H   0  0  0  0  0  0  0  0  0  0  0  0
  151.4827  145.3463  158.1486 H   0  0  0  0  0  0  0  0  0  0  0  0
  147.8415  138.9537  152.7758 H   0  0  0  0  0  0  0  0  0  0  0  0
  148.6686  143.1373  156.5673 H   0  0  0  0  0  0  0  0  0  0  0  0
  1  2  1  0  0  0  0
  1 19  1  0  0  0  0
  1 20  1  0  0  0  0
  1 21  1  0  0  0  0
  2 18  2  0  0  0  0
  2  3  1  0  0  0  0
  3  4  2  0  0  0  0
  3 22  1  0  0  0  0
  4  5  1  0  0  0  0
  5  6  1  0  0  0  0
  5 18  1  0  0  0  0
  6  7  1  0  0  0  0
  6  8  1  0  0  0  0
  6 23  1  0  0  0  0
  7 24  1  0  0  0  0
  7 25  1  0  0  0  0
  7 26  1  0  0  0  0
  8  9  1  0  0  0  0
  8 10  1  0  0  0  0
  8 27  1  0  0  0  0
  9 28  1  0  0  0  0
  9 29  1  0  0  0  0
  9 30  1  0  0  0  0
 10 11  1  0  0  0  0
 10 31  1  0  0  0  0
 10 44  1  0  0  0  0
 11 12  1  0  0  0  0
 11 32  1  0  0  0  0
 11 33  1  0  0  0  0
 12 17  1  0  0  0  0
 12 13  1  0  0  0  0
 12 34  1  0  0  0  0
 13 14  1  0  0  0  0
 13 35  1  0  0  0  0
 13 36  1  0  0  0  0
 14 15  1  0  0  0  0
 14 37  1  0  0  0  0
 14 38  1  0  0  0  0
 15 16  1  0  0  0  0
 15 39  1  0  0  0  0
 15 40  1  0  0  0  0
 16 17  1  0  0  0  0
 16 41  1  0  0  0  0
 16 42  1  0  0  0  0
 18 43  1  0  0  0  0
M  CHG  1  10   1
M  END
> <s_m_source_file>
AV-unprocessed.smi

> <i_m_source_file_index>
3249

> <i_lp_mmshare_version>
43012

> <i_f3d_flags>
0

> <s_epik_input>
W0NIM11jMVtjSF1ubihbY0hdMSlbQ0BIXShbQ0gzXSlbQ0BIXShbQ0gzXSlbTkhdW0NIMl1bQ0BASF0yW0NIMl1bQ0gyXVtDSDJdW0NIMl1PMg==

> <s_epik_cmdline>
J2VwaWtfcHl0aG9uJywgJy1waCcsICc3LjAnLCAnLXRuJywgJzgnLCAnLW1hJywgJzIwMCcsICctbWV0YWxfYmluZGluZycsICctaW1hZScsICc8aW5maWxlLm1hZT4nLCAnLW9tYWUnLCAnPG91dGZpbGUubWFlPic=

> <r_lp_tautomer_probability>
1

> <r_epik_Ionization_Penalty>
0.00659207

> <r_epik_Ionization_Penalty_Charging>
0.00656881

> <r_epik_Ionization_Penalty_Neutral>
2.32662e-05

> <r_epik_State_Penalty>
0.0048654

> <r_epik_Charging_Adjusted_Penalty>
0.0114342

> <i_epik_Tot_Q>
1

> <i_epik_Tot_abs_Q>
1

> <r_epik_Metal_State_Penalty>
-0

> <b_epik_Metal_Only>
0

> <s_lp_Force_Field>
OPLS_2005

> <r_lp_Energy>
19.2424

> <b_lp_Chiralities_Consistent>
1

> <s_lp_Variant>
AV-unprocessed.smi:3249-4

> <Gold.Version>
5.8.1

> <Gold.Id.Protein>
6NUR|6NUR_protein|mol2

> <Gold.PLP.Fitness>
41.5754

> <Gold.PLP.PLP>
-30.4790

> <Gold.PLP.part.hbond>
-1.0000

> <Gold.PLP.part.metal>
0.0000

> <Gold.PLP.part.buried>
-2.1537

> <Gold.PLP.part.nonpolar>
-28.1970

> <Gold.PLP.part.repulsive>
0.3427

> <Gold.PLP.ligand.clash>
0.0000

> <Gold.PLP.ligand.torsion>
0.2415

> <Gold.PLP.Chemscore.Hbond>
2.0000

> <Gold.PLP.Chemscore.CHOScore>
1.8251

> <Gold.PLP.Chemscore.Metal>
0.0000

> <Gold.Chemscore.Hbonds>
donor molecule, donor type, donor heavy atom, donor atom, acceptor molecule, acceptor atom, score
      L1  H    10    44       P1  8028  1.18
      L1  C    18    43       P1  7957  0.80

> <Gold.PLP.Chemscore.Internal.Correction>
0.1040

> <Gold.Rescore>
     Score         DG    S(hbond)    S(metal)    S(lipo)     H(rot)  DE(clash)    DE(int)     intcor
     13.65     -15.99       0.93        0.00      96.69       1.53       0.33       2.01       ----

> <Gold.Chemscore.Fitness>
13.6470

> <Gold.Chemscore.DG>
-15.9862

> <Gold.Chemscore.ZeroCoef>
-5.4800

> <Gold.Chemscore.Hbond>
0.9337

> <Gold.Chemscore.Metal>
0.0000

> <Gold.Chemscore.Lipo>
96.6902

> <Gold.Chemscore.Internal_Hbond>
0.0000

> <Gold.Chemscore.DEClash>
0.3325

> <Gold.Chemscore.DEInternal>
2.0067

> <Gold.Chemscore.Rot>
1.5333

> <Gold.Chemscore.Internal.Correction>
   9.000000E+99

> <Gold.Chemscore.Hbonds>
donor molecule, donor type, donor heavy atom, donor atom, acceptor molecule, acceptor atom, score
      L1  H    10    44       P1  8028  0.51

> <Gold.Chemscore.Hbond.Weighted>
-3.1186

> <Gold.Chemscore.Metal.Weighted>
-0.0000

> <Gold.Chemscore.Lipo.Weighted>
-11.3127

> <Gold.Chemscore.Internal_Hbond.Weighted>
0.0000

> <Gold.Chemscore.DEClash.Weighted>
0.3325

> <Gold.Chemscore.DEInternal.Weighted>
2.0067

> <Gold.Chemscore.Rot.Weighted>
3.9252

> <Gold.Chemscore.Internal.Correction.Weighted>
   9.000000E+99

> <Gold.Protein.RotatedTorsions>
[ 6907 6896 6895 6894 ] final -152.87 input  -60.11 | X-H torsion
[ 7974 7965 7964 7962 ] final -122.32 input  175.53 | X-H torsion
[ 8008 7997 7996 7995 ] final  178.57 input   59.86 | X-H torsion
[ 10167 10162 10161 10158 ] final  145.61 input  -65.29 | X-H torsion
[ 10718 10713 10712 10709 ] final  177.84 input   66.30 | X-H torsion
[ 10763 10752 10751 10750 ] final -166.10 input  -60.55 | X-H torsion
[ 11005 11000 10999 10996 ] final -146.66 input  -57.11 | X-H torsion

> <Gold.Protein.ActiveResidues>
 VAL166  LYS551  ARG553  GLY616  TRP617  ASP618  TYR619  PRO620  LYS621  CYS622 
 ASP623  PHE694  ASN695  SER759  ASP760  ASP761  ALA762  ILE779  LEU786  VAL792 
 PHE793  MET794  SER795  GLU796  ALA797  LYS798  CYS799  TRP800  GLU811  SER814 

> <Gold.Protein.RotatedAtoms>
  151.2342  133.4434  159.2604 H   0  0  0  0  0  0  0  0  0  0  0  0  # atno 6907 bound_to 6896
  151.0766  134.9832  159.8345 H   0  0  0  0  0  0  0  0  0  0  0  0  # atno 6908 bound_to 6896
  152.5419  134.2284  159.8868 H   0  0  0  0  0  0  0  0  0  0  0  0  # atno 6909 bound_to 6896
  145.0307  140.8065  143.4325 H   0  0  0  0  0  0  0  0  0  0  0  0  # atno 7974 bound_to 7965
  156.0531  140.1330  157.0027 H   0  0  0  0  0  0  0  0  0  0  0  0  # atno 8008 bound_to 7997
  154.4445  140.1006  156.6477 H   0  0  0  0  0  0  0  0  0  0  0  0  # atno 8009 bound_to 7997
  155.5492  140.3462  155.4467 H   0  0  0  0  0  0  0  0  0  0  0  0  # atno 8010 bound_to 7997
  139.4923  144.5889  151.6721 H   0  0  0  0  0  0  0  0  0  0  0  0  # atno 10167 bound_to 10162
  156.8993  130.9873  151.3038 H   0  0  0  0  0  0  0  0  0  0  0  0  # atno 10718 bound_to 10713
  154.6867  135.2963  154.9538 H   0  0  0  0  0  0  0  0  0  0  0  0  # atno 10763 bound_to 10752
  154.0515  135.6644  153.4805 H   0  0  0  0  0  0  0  0  0  0  0  0  # atno 10764 bound_to 10752
  153.0583  135.5131  154.7937 H   0  0  0  0  0  0  0  0  0  0  0  0  # atno 10765 bound_to 10752
  140.7797  134.3093  157.5049 H   0  0  0  0  0  0  0  0  0  0  0  0  # atno 11005 bound_to 11000
  145.1774  139.2370  143.5310 LP  0  0  0  0  0  0  0  0  0  0  0  0  # atno 17320 bound_to 7965
  146.3498  140.1540  142.8592 LP  0  0  0  0  0  0  0  0  0  0  0  0  # atno 17321 bound_to 7965
  140.5512  144.0422  150.6128 LP  0  0  0  0  0  0  0  0  0  0  0  0  # atno 17342 bound_to 10162
  140.3477  143.2981  152.0520 LP  0  0  0  0  0  0  0  0  0  0  0  0  # atno 17343 bound_to 10162
  157.6036  130.8530  149.8840 LP  0  0  0  0  0  0  0  0  0  0  0  0  # atno 17370 bound_to 10713
  156.0590  130.3703  150.1026 LP  0  0  0  0  0  0  0  0  0  0  0  0  # atno 17371 bound_to 10713
  139.8744  134.9311  156.3519 LP  0  0  0  0  0  0  0  0  0  0  0  0  # atno 17394 bound_to 11000
  140.9494  133.7461  156.0252 LP  0  0  0  0  0  0  0  0  0  0  0  0  # atno 17395 bound_to 11000

$$$$
