AV-unprocessed.smi:537|AV-procd|sdf|2864|dock4
  -GOLD-   2262023353D 1   1.00000     0.00000
 Structure written by MMmdl.
 33 34  0  0  0  0  0  0  0  0  1 V2000
  151.5739  143.7176  157.3932 C   0  0  0  0  0  0  0  0  0  0  0  0
  150.5394  142.9759  156.7005 N   0  0  0  0  0  0  0  0  0  0  0  0
  150.5505  141.7273  156.0920 C   0  0  0  0  0  0  0  0  0  0  0  0
  151.6143  140.9220  156.0386 N   0  0  0  0  0  0  0  0  0  0  0  0
  151.1264  139.8211  155.3485 C   0  0  0  0  0  0  0  0  0  0  0  0
  149.8215  139.9922  155.0157 C   0  0  0  0  0  0  0  0  0  0  0  0
  149.0552  138.9743  154.2860 C   0  0  0  0  0  0  0  0  0  0  0  0
  147.8722  139.1043  153.9795 O   0  0  0  0  0  0  0  0  0  0  0  0
  149.7881  137.8744  153.9855 N   0  0  0  0  0  0  0  0  0  0  0  0
  151.1016  137.6392  154.2893 C   0  0  0  0  0  0  0  0  0  0  0  0
  151.6261  136.5803  153.9453 O   0  0  0  0  0  0  0  0  0  0  0  0
  151.7811  138.6144  154.9769 N   0  0  0  0  0  0  0  0  0  0  0  0
  153.1865  138.4587  155.3585 C   0  0  0  0  0  0  0  0  0  0  0  0
  149.4319  141.2420  155.4981 N   0  0  0  0  0  0  0  0  0  0  0  0
  148.1256  141.8860  155.4025 C   0  0  0  0  0  0  0  0  0  0  0  0
  147.6704  142.0573  153.9458 C   0  0  0  0  0  0  0  0  0  0  0  0
  146.7497  143.1317  153.8482 O   0  0  0  0  0  0  0  0  0  0  0  0
  145.5471  142.8851  154.5545 C   0  0  0  0  0  0  0  0  0  0  0  0
  149.3089  137.1431  153.4807 H   0  0  0  0  0  0  0  0  0  0  0  0
  151.1899  144.6821  157.7248 H   0  0  0  0  0  0  0  0  0  0  0  0
  152.4235  143.8903  156.7321 H   0  0  0  0  0  0  0  0  0  0  0  0
  151.9190  143.1616  158.2650 H   0  0  0  0  0  0  0  0  0  0  0  0
  149.6561  143.4622  156.6490 H   0  0  0  0  0  0  0  0  0  0  0  0
  153.6335  137.5173  155.0370 H   0  0  0  0  0  0  0  0  0  0  0  0
  153.2843  138.5124  156.4432 H   0  0  0  0  0  0  0  0  0  0  0  0
  153.7807  139.2654  154.9282 H   0  0  0  0  0  0  0  0  0  0  0  0
  147.3952  141.2926  155.9533 H   0  0  0  0  0  0  0  0  0  0  0  0
  148.1572  142.8497  155.9083 H   0  0  0  0  0  0  0  0  0  0  0  0
  148.5335  142.2497  153.3065 H   0  0  0  0  0  0  0  0  0  0  0  0
  147.2057  141.1345  153.5956 H   0  0  0  0  0  0  0  0  0  0  0  0
  144.8801  143.7407  154.4498 H   0  0  0  0  0  0  0  0  0  0  0  0
  145.7383  142.7357  155.6178 H   0  0  0  0  0  0  0  0  0  0  0  0
  145.0322  142.0065  154.1635 H   0  0  0  0  0  0  0  0  0  0  0  0
  1  2  1  0  0  0  0
  1 20  1  0  0  0  0
  1 21  1  0  0  0  0
  1 22  1  0  0  0  0
  2  3  1  0  0  0  0
  2 23  1  0  0  0  0
  3 14  1  0  0  0  0
  3  4  2  0  0  0  0
  4  5  1  0  0  0  0
  5 12  1  0  0  0  0
  5  6  2  0  0  0  0
  6  7  1  0  0  0  0
  6 14  1  0  0  0  0
  7  8  2  0  0  0  0
  7  9  1  0  0  0  0
  9 19  1  0  0  0  0
  9 10  1  0  0  0  0
 10 11  2  0  0  0  0
 10 12  1  0  0  0  0
 12 13  1  0  0  0  0
 13 24  1  0  0  0  0
 13 25  1  0  0  0  0
 13 26  1  0  0  0  0
 14 15  1  0  0  0  0
 15 16  1  0  0  0  0
 15 27  1  0  0  0  0
 15 28  1  0  0  0  0
 16 17  1  0  0  0  0
 16 29  1  0  0  0  0
 16 30  1  0  0  0  0
 17 18  1  0  0  0  0
 18 31  1  0  0  0  0
 18 32  1  0  0  0  0
 18 33  1  0  0  0  0
M  END
> <s_m_source_file>
AV-unprocessed.smi

> <i_m_source_file_index>
537

> <i_lp_mmshare_version>
43012

> <i_f3d_flags>
0

> <s_epik_input>
W0NIM11PW0NIMl1bQ0gyXW4oYyhuMSlbTkhdW0NIM10pYyhjMTIpYyg9TylbbkhdYyg9TyluMltDSDNd

> <s_epik_cmdline>
J2VwaWtfcHl0aG9uJywgJy1waCcsICc3LjAnLCAnLXRuJywgJzgnLCAnLW1hJywgJzIwMCcsICctbWV0YWxfYmluZGluZycsICctaW1hZScsICc8aW5maWxlLm1hZT4nLCAnLW9tYWUnLCAnPG91dGZpbGUubWFlPic=

> <r_lp_tautomer_probability>
1

> <r_epik_Ionization_Penalty>
3.91196e-05

> <r_epik_Ionization_Penalty_Charging>
1.40857e-05

> <r_epik_Ionization_Penalty_Neutral>
2.50339e-05

> <r_epik_State_Penalty>
-0

> <r_epik_Charging_Adjusted_Penalty>
1.40857e-05

> <i_epik_Tot_Q>
0

> <i_epik_Tot_abs_Q>
0

> <r_epik_Metal_State_Penalty>
0.0136003

> <b_epik_Metal_Only>
0

> <s_lp_Force_Field>
OPLS_2005

> <r_lp_Energy>
19.747

> <b_lp_Chiralities_Consistent>
1

> <s_lp_Variant>
AV-unprocessed.smi:537-1

> <Gold.Version>
5.8.1

> <Gold.Id.Protein>
6NUR|6NUR_protein|mol2

> <Gold.PLP.Fitness>
38.9961

> <Gold.PLP.PLP>
-30.8652

> <Gold.PLP.part.hbond>
-4.0000

> <Gold.PLP.part.metal>
0.0000

> <Gold.PLP.part.buried>
0.6847

> <Gold.PLP.part.nonpolar>
-29.8385

> <Gold.PLP.part.repulsive>
3.4151

> <Gold.PLP.ligand.clash>
0.0000

> <Gold.PLP.ligand.torsion>
0.1439

> <Gold.PLP.Chemscore.Hbond>
2.8059

> <Gold.PLP.Chemscore.CHOScore>
0.0000

> <Gold.PLP.Chemscore.Metal>
0.0000

> <Gold.Chemscore.Hbonds>
donor molecule, donor type, donor heavy atom, donor atom, acceptor molecule, acceptor atom, score
      L1  H     2    23       P1  8028  0.77
      L1  H     9    19       P1  7948  0.98
      P1  H 10752 10764       L1    11  1.00

> <Gold.PLP.Chemscore.Internal.Correction>
0.0011

> <Gold.Rescore>
     Score         DG    S(hbond)    S(metal)    S(lipo)     H(rot)  DE(clash)    DE(int)     intcor
     12.02     -14.76       2.57        0.00      42.43       1.66       1.26       1.49       ----

> <Gold.Chemscore.Fitness>
12.0188

> <Gold.Chemscore.DG>
-14.7642

> <Gold.Chemscore.ZeroCoef>
-5.4800

> <Gold.Chemscore.Hbond>
2.5685

> <Gold.Chemscore.Metal>
0.0000

> <Gold.Chemscore.Lipo>
42.4326

> <Gold.Chemscore.Internal_Hbond>
0.0000

> <Gold.Chemscore.DEClash>
1.2591

> <Gold.Chemscore.DEInternal>
1.4863

> <Gold.Chemscore.Rot>
1.6637

> <Gold.Chemscore.Internal.Correction>
   9.000000E+99

> <Gold.Chemscore.Hbonds>
donor molecule, donor type, donor heavy atom, donor atom, acceptor molecule, acceptor atom, score
      L1  H     2    23       P1  8028  0.78
      L1  H     9    19       P1  7948  0.91
      P1  H 10752 10764       L1    11  0.99

> <Gold.Chemscore.Hbond.Weighted>
-8.5787

> <Gold.Chemscore.Metal.Weighted>
-0.0000

> <Gold.Chemscore.Lipo.Weighted>
-4.9646

> <Gold.Chemscore.Internal_Hbond.Weighted>
0.0000

> <Gold.Chemscore.DEClash.Weighted>
1.2591

> <Gold.Chemscore.DEInternal.Weighted>
1.4863

> <Gold.Chemscore.Rot.Weighted>
4.2591

> <Gold.Chemscore.Internal.Correction.Weighted>
   9.000000E+99

> <Gold.Protein.RotatedTorsions>
[ 6907 6896 6895 6894 ] final   52.74 input  -60.11 | X-H torsion
[ 7974 7965 7964 7962 ] final   73.54 input  175.53 | X-H torsion
[ 8008 7997 7996 7995 ] final   33.05 input   59.86 | X-H torsion
[ 10167 10162 10161 10158 ] final   42.79 input  -65.29 | X-H torsion
[ 10718 10713 10712 10709 ] final   29.08 input   66.30 | X-H torsion
[ 10763 10752 10751 10750 ] final  -85.45 input  -60.55 | X-H torsion
[ 11005 11000 10999 10996 ] final   58.10 input  -57.11 | X-H torsion

> <Gold.Protein.ActiveResidues>
 VAL166  LYS551  ARG553  GLY616  TRP617  ASP618  TYR619  PRO620  LYS621  CYS622 
 ASP623  PHE694  ASN695  SER759  ASP760  ASP761  ALA762  ILE779  LEU786  VAL792 
 PHE793  MET794  SER795  GLU796  ALA797  LYS798  CYS799  TRP800  GLU811  SER814 

> <Gold.Protein.RotatedAtoms>
  152.3265  134.7314  160.0300 H   0  0  0  0  0  0  0  0  0  0  0  0  # atno 6907 bound_to 6896
  151.7745  133.3339  159.3462 H   0  0  0  0  0  0  0  0  0  0  0  0  # atno 6908 bound_to 6896
  150.7398  134.5919  159.6036 H   0  0  0  0  0  0  0  0  0  0  0  0  # atno 6909 bound_to 6896
  145.7396  139.2716  143.1494 H   0  0  0  0  0  0  0  0  0  0  0  0  # atno 7974 bound_to 7965
  155.1323  140.3258  155.4471 H   0  0  0  0  0  0  0  0  0  0  0  0  # atno 8008 bound_to 7997
  156.2630  140.2008  156.6391 H   0  0  0  0  0  0  0  0  0  0  0  0  # atno 8009 bound_to 7997
  154.6603  140.0548  157.0041 H   0  0  0  0  0  0  0  0  0  0  0  0  # atno 8010 bound_to 7997
  140.3509  144.2351  150.6146 H   0  0  0  0  0  0  0  0  0  0  0  0  # atno 10167 bound_to 10162
  157.2419  130.7073  149.6362 H   0  0  0  0  0  0  0  0  0  0  0  0  # atno 10718 bound_to 10713
  154.6112  135.5484  153.7475 H   0  0  0  0  0  0  0  0  0  0  0  0  # atno 10763 bound_to 10752
  153.0196  135.6390  154.1575 H   0  0  0  0  0  0  0  0  0  0  0  0  # atno 10764 bound_to 10752
  154.1513  135.2902  155.3114 H   0  0  0  0  0  0  0  0  0  0  0  0  # atno 10765 bound_to 10752
  140.0403  134.5883  155.9391 H   0  0  0  0  0  0  0  0  0  0  0  0  # atno 11005 bound_to 11000
  146.0460  140.8117  142.9805 LP  0  0  0  0  0  0  0  0  0  0  0  0  # atno 17320 bound_to 7965
  144.6873  140.2982  143.7267 LP  0  0  0  0  0  0  0  0  0  0  0  0  # atno 17321 bound_to 7965
  140.5220  143.2263  151.8374 LP  0  0  0  0  0  0  0  0  0  0  0  0  # atno 17342 bound_to 10162
  139.4826  144.4825  151.9288 LP  0  0  0  0  0  0  0  0  0  0  0  0  # atno 17343 bound_to 10162
  155.9669  130.4455  150.5505 LP  0  0  0  0  0  0  0  0  0  0  0  0  # atno 17370 bound_to 10713
  157.3370  131.0710  151.1817 LP  0  0  0  0  0  0  0  0  0  0  0  0  # atno 17371 bound_to 10713
  141.1879  133.6561  156.5302 LP  0  0  0  0  0  0  0  0  0  0  0  0  # atno 17394 bound_to 11000
  140.4080  134.7297  157.4819 LP  0  0  0  0  0  0  0  0  0  0  0  0  # atno 17395 bound_to 11000

$$$$
