#       Name:                AV-unprocessed.smi:1620
#       Creating user name   scv26
#       Creation time:       Fri Mar 27 07:15:25 2020


#       File generated by GOLD software.
#

@<TRIPOS>MOLECULE
AV-unprocessed.smi:1620
    45    45     1
SMALL
NO_CHARGES


@<TRIPOS>ATOM
      1 ****        -3.6402  -2.6074  -0.6131 C.3            1 S1                 0.0000
      2 ****        -2.1150  -2.7314  -0.4455 C.3            1 S1                 0.0000
      3 ****        -1.7518  -2.6010   1.0459 C.3            1 S1                 0.0000
      4 ****        -1.3401  -1.7248  -1.3448 C.3            1 S1                 0.0000
      5 ****        -1.6520  -1.8466  -2.8520 C.3            1 S1                 0.0000
      6 ****         0.1264  -1.7771  -1.1104 N.am           1 S1                 0.0000
      7 ****         0.8208  -2.9436  -1.6725 C.3            1 S1                 0.0000
      8 ****         0.8733  -0.7953  -0.5380 C.2            1 S1                 0.0000
      9 ****         2.1040  -0.7798  -0.5998 O.2            1 S1                 0.0000
     10 ****         0.1660   0.1028   0.1748 N.am           1 S1                 0.0000
     11 ****         0.6526   1.2291   0.8851 C.2            1 S1                 0.0000
     12 ****        -0.1530   2.1085   1.6540 C.2            1 S1                 0.0000
     13 ****         0.5746   3.0702   2.2014 N.2            1 S1                 0.0000
     14 ****         1.8453   2.8260   1.7925 N.pl3          1 S1                 0.0000
     15 ****         2.9192   3.7077   2.2132 C.3            1 S1                 0.0000
     16 ****         3.2332   4.7478   1.1366 C.2            1 S1                 0.0000
     17 ****         2.4643   5.8394   1.1013 N.am           1 S1                 0.0000
     18 ****         4.1585   4.5679   0.3478 O.2            1 S1                 0.0000
     19 ****         1.9279   1.7086   0.9848 C.2            1 S1                 0.0000
     20 ****        -3.9857  -1.6016  -0.3720 H              1 S1                 0.0000
     21 ****        -4.1643  -3.3026   0.0435 H              1 S1                 0.0000
     22 ****        -3.9563  -2.8372  -1.6302 H              1 S1                 0.0000
     23 ****        -1.8463  -3.7429  -0.7507 H              1 S1                 0.0000
     24 ****        -1.9695  -1.6004   1.4205 H              1 S1                 0.0000
     25 ****        -0.6964  -2.8043   1.2265 H              1 S1                 0.0000
     26 ****        -2.3179  -3.3102   1.6503 H              1 S1                 0.0000
     27 ****        -1.7234  -0.7378  -1.0865 H              1 S1                 0.0000
     28 ****        -2.6824  -1.5669  -3.0695 H              1 S1                 0.0000
     29 ****        -1.5052  -2.8609  -3.2228 H              1 S1                 0.0000
     30 ****        -1.0158  -1.1821  -3.4375 H              1 S1                 0.0000
     31 ****         1.5748  -3.3261  -0.9825 H              1 S1                 0.0000
     32 ****         1.3189  -2.6753  -2.6051 H              1 S1                 0.0000
     33 ****         0.1461  -3.7726  -1.8823 H              1 S1                 0.0000
     34 ****        -0.8338  -0.0353   0.2028 H              1 S1                 0.0000
     35 ****        -1.2181   2.0816   1.8307 H              1 S1                 0.0000
     36 ****         2.6459   4.1993   3.1485 H              1 S1                 0.0000
     37 ****         3.8061   3.1058   2.4160 H              1 S1                 0.0000
     38 ****         2.6404   6.5569   0.4130 H              1 S1                 0.0000
     39 ****         1.7147   5.9471   1.7692 H              1 S1                 0.0000
     40 ****         2.8659   1.3727   0.5679 H              1 S1                 0.0000
     41 ****         2.5895  -1.5074  -1.0844 LP             1 S1                 0.0000
     42 ****         2.6171  -0.0396  -0.1653 LP             1 S1                 0.0000
     43 ****         0.2566   3.8146   2.7886 LP             1 S1                 0.0000
     44 ****         4.7119   3.7371   0.4073 LP             1 S1                 0.0000
     45 ****         4.3579   5.2523  -0.3534 LP             1 S1                 0.0000
@<TRIPOS>BOND
    1    1    2 1     
    2    1   20 1     
    3    1   21 1     
    4    1   22 1     
    5    2    3 1     
    6    2    4 1     
    7    2   23 1     
    8    3   24 1     
    9    3   25 1     
   10    3   26 1     
   11    4    5 1     
   12    4    6 1     
   13    4   27 1     
   14    5   28 1     
   15    5   29 1     
   16    5   30 1     
   17    6    7 1     
   18    6    8 am    
   19    7   31 1     
   20    7   32 1     
   21    7   33 1     
   22    8    9 2     
   23    8   10 am    
   24   10   11 1     
   25   10   34 1     
   26   11   19 2     
   27   11   12 1     
   28   12   13 2     
   29   12   35 1     
   30   13   14 1     
   31   14   15 1     
   32   14   19 1     
   33   15   16 1     
   34   15   36 1     
   35   15   37 1     
   36   16   17 am    
   37   16   18 2     
   38   17   38 1     
   39   17   39 1     
   40   19   40 1     
   41    9   41 1     
   42    9   42 1     
   43   13   43 1     
   44   18   44 1     
   45   18   45 1     
@<TRIPOS>SUBSTRUCTURE
      1 S1             1
@<TRIPOS>SET
LONE_PAIRS      STATIC     ATOMS    <user>   **** ""
5 41 42 43 44 45
DONOR_HYDROGENS      STATIC     ATOMS    <user>   **** ""
3 34 38 39
ATOM$BLUE        STATIC     ATOMS    COLORGROUP SYSTEM
5 41 42 43 44 45
ATOM$RED        STATIC     ATOMS    COLORGROUP SYSTEM
3 34 38 39
