AV-unprocessed.smi:652|AV-procd|sdf|3198|dock9
  -GOLD-   22720 0133D 1   1.00000     0.00000
 Structure written by MMmdl.
 49 50  0  0  0  0  0  0  0  0  3 V2000
  147.3491  136.7216  162.8901 C   0  0  0  0  0  0  0  0  0  0  0  0
  146.7962  135.8678  161.7376 C   0  0  0  0  0  0  0  0  0  0  0  0
  146.6835  134.3895  162.1329 C   0  0  0  0  0  0  0  0  0  0  0  0
  147.6450  135.9901  160.5554 N   0  0  0  0  0  0  0  0  0  0  0  0
  147.4166  136.8056  159.5138 C   0  0  0  0  0  0  0  0  0  0  0  0
  146.4444  137.5581  159.4475 O   0  0  0  0  0  0  0  0  0  0  0  0
  148.4493  136.7547  158.3821 C   0  0  0  0  0  0  0  0  0  0  0  0
  148.0419  137.5805  157.1430 C   0  0  0  0  0  0  0  0  0  0  0  0
  149.2124  138.0942  156.3875 N   0  3  1  0  0  0  0  0  0  0  0  0
  148.8451  138.5361  155.0212 C   0  0  0  0  0  0  0  0  0  0  0  0
  150.0880  139.0171  154.2568 C   0  0  0  0  0  0  0  0  0  0  0  0
  150.7182  140.0615  154.9877 O   0  0  0  0  0  0  0  0  0  0  0  0
  151.1716  139.6332  156.2664 C   0  0  1  0  0  0  0  0  0  0  0  0
  151.9117  140.8209  156.9100 C   0  0  0  0  0  0  0  0  0  0  0  0
  151.1058  142.0339  156.9606 N   0  0  0  0  0  0  0  0  0  0  0  0
  151.3631  143.0577  157.8843 C   0  0  0  0  0  0  0  0  0  0  0  0
  152.4052  143.0311  158.8412 C   0  0  0  0  0  0  0  0  0  0  0  0
  152.5472  144.1315  159.7038 C   0  0  0  0  0  0  0  0  0  0  0  0
  151.6390  145.1948  159.5587 C   0  0  0  0  0  0  0  0  0  0  0  0
  150.6487  145.2010  158.6389 N   0  0  0  0  0  0  0  0  0  0  0  0
  150.5396  144.1344  157.8276 N   0  3  0  0  0  0  0  0  0  0  0  0
  149.9545  139.1681  157.0953 C   0  0  0  0  0  0  0  0  0  0  0  0
  146.7182  136.6378  163.7756 H   0  0  0  0  0  0  0  0  0  0  0  0
  147.3908  137.7770  162.6190 H   0  0  0  0  0  0  0  0  0  0  0  0
  148.3557  136.4091  163.1691 H   0  0  0  0  0  0  0  0  0  0  0  0
  145.7935  136.2226  161.4922 H   0  0  0  0  0  0  0  0  0  0  0  0
  146.0292  134.2639  162.9959 H   0  0  0  0  0  0  0  0  0  0  0  0
  147.6572  133.9709  162.3903 H   0  0  0  0  0  0  0  0  0  0  0  0
  146.2693  133.7946  161.3183 H   0  0  0  0  0  0  0  0  0  0  0  0
  148.4677  135.4052  160.5287 H   0  0  0  0  0  0  0  0  0  0  0  0
  149.4026  137.1059  158.7773 H   0  0  0  0  0  0  0  0  0  0  0  0
  148.5890  135.7101  158.1009 H   0  0  0  0  0  0  0  0  0  0  0  0
  147.4610  136.9428  156.4742 H   0  0  0  0  0  0  0  0  0  0  0  0
  147.3897  138.4090  157.4251 H   0  0  0  0  0  0  0  0  0  0  0  0
  148.3779  137.7144  154.4768 H   0  0  0  0  0  0  0  0  0  0  0  0
  148.1098  139.3401  155.0815 H   0  0  0  0  0  0  0  0  0  0  0  0
  150.7873  138.1960  154.0903 H   0  0  0  0  0  0  0  0  0  0  0  0
  149.8021  139.3957  153.2753 H   0  0  0  0  0  0  0  0  0  0  0  0
  151.8666  138.8029  156.1293 H   0  0  0  0  0  0  0  0  0  0  0  0
  152.2431  140.5631  157.9159 H   0  0  0  0  0  0  0  0  0  0  0  0
  152.8201  141.0369  156.3467 H   0  0  0  0  0  0  0  0  0  0  0  0
  150.3309  142.1249  156.3187 H   0  0  0  0  0  0  0  0  0  0  0  0
  153.0872  142.1986  158.9259 H   0  0  0  0  0  0  0  0  0  0  0  0
  153.3266  144.1622  160.4508 H   0  0  0  0  0  0  0  0  0  0  0  0
  151.7064  146.0640  160.1967 H   0  0  0  0  0  0  0  0  0  0  0  0
  149.2844  140.0090  157.2825 H   0  0  0  0  0  0  0  0  0  0  0  0
  150.2953  138.8099  158.0659 H   0  0  0  0  0  0  0  0  0  0  0  0
  149.8466  137.3164  156.2727 H   0  0  0  0  0  0  0  0  0  0  0  0
  149.7965  144.1360  157.1286 H   0  0  0  0  0  0  0  0  0  0  0  0
  1  2  1  0  0  0  0
  1 23  1  0  0  0  0
  1 24  1  0  0  0  0
  1 25  1  0  0  0  0
  2  3  1  0  0  0  0
  2  4  1  0  0  0  0
  2 26  1  0  0  0  0
  3 27  1  0  0  0  0
  3 28  1  0  0  0  0
  3 29  1  0  0  0  0
  4  5  1  0  0  0  0
  4 30  1  0  0  0  0
  5  6  2  0  0  0  0
  5  7  1  0  0  0  0
  7  8  1  0  0  0  0
  7 31  1  0  0  0  0
  7 32  1  0  0  0  0
  8  9  1  0  0  0  0
  8 33  1  0  0  0  0
  8 34  1  0  0  0  0
  9 22  1  0  0  0  0
  9 10  1  0  0  0  0
  9 48  1  0  0  0  0
 10 11  1  0  0  0  0
 10 35  1  0  0  0  0
 10 36  1  0  0  0  0
 11 12  1  0  0  0  0
 11 37  1  0  0  0  0
 11 38  1  0  0  0  0
 12 13  1  0  0  0  0
 13 14  1  0  0  0  0
 13 22  1  0  0  0  0
 13 39  1  0  0  0  0
 14 15  1  0  0  0  0
 14 40  1  0  0  0  0
 14 41  1  0  0  0  0
 15 16  1  0  0  0  0
 15 42  1  0  0  0  0
 16 21  1  0  0  0  0
 16 17  2  0  0  0  0
 17 18  1  0  0  0  0
 17 43  1  0  0  0  0
 18 19  2  0  0  0  0
 18 44  1  0  0  0  0
 19 20  1  0  0  0  0
 19 45  1  0  0  0  0
 20 21  2  0  0  0  0
 21 49  1  0  0  0  0
 22 46  1  0  0  0  0
 22 47  1  0  0  0  0
M  CHG  1   9   1
M  CHG  1  21   1
M  END
> <s_m_source_file>
AV-unprocessed.smi

> <i_m_source_file_index>
652

> <i_lp_mmshare_version>
43012

> <i_f3d_flags>
0

> <s_epik_input>
W0NIM11bQ0hdKFtDSDNdKVtOSF1DKD1PKVtDSDJdW0NIMl1OMVtDSDJdW0NIMl1PW0NASF0oW0NIMl0xKVtDSDJdW05IXWMyW2NIXVtjSF1bY0hdbm4y

> <s_epik_cmdline>
J2VwaWtfcHl0aG9uJywgJy1waCcsICc3LjAnLCAnLXRuJywgJzgnLCAnLW1hJywgJzIwMCcsICctbWV0YWxfYmluZGluZycsICctaW1hZScsICc8aW5maWxlLm1hZT4nLCAnLW9tYWUnLCAnPG91dGZpbGUubWFlPic=

> <r_lp_tautomer_probability>
0.966961

> <r_epik_Ionization_Penalty>
2.79885

> <r_epik_Ionization_Penalty_Charging>
2.79884

> <r_epik_Ionization_Penalty_Neutral>
3.2567e-06

> <r_epik_State_Penalty>
2.43203

> <r_epik_Charging_Adjusted_Penalty>
5.23087

> <i_epik_Tot_Q>
2

> <i_epik_Tot_abs_Q>
2

> <r_epik_Metal_State_Penalty>
2.43963

> <b_epik_Metal_Only>
0

> <s_lp_Force_Field>
OPLS_2005

> <r_lp_Energy>
31.8116

> <b_lp_Chiralities_Consistent>
1

> <s_lp_Variant>
AV-unprocessed.smi:652-7

> <Gold.Version>
5.8.1

> <Gold.Id.Protein>
6NUR|6NUR_protein|mol2

> <Gold.PLP.Fitness>
50.8534

> <Gold.PLP.PLP>
-40.3545

> <Gold.PLP.part.hbond>
-3.2325

> <Gold.PLP.part.metal>
0.0000

> <Gold.PLP.part.buried>
-7.1078

> <Gold.PLP.part.nonpolar>
-30.7296

> <Gold.PLP.part.repulsive>
0.4919

> <Gold.PLP.ligand.clash>
0.0000

> <Gold.PLP.ligand.torsion>
0.7877

> <Gold.PLP.Chemscore.Hbond>
4.0000

> <Gold.PLP.Chemscore.CHOScore>
0.0000

> <Gold.PLP.Chemscore.Metal>
0.0000

> <Gold.Chemscore.Hbonds>
donor molecule, donor type, donor heavy atom, donor atom, acceptor molecule, acceptor atom, score
      L1  H    21    49       P1  8028  2.00
      P1  H  6934  6947       L1     6  0.47
      P1  H  7989  7998       L1    12  0.85

> <Gold.PLP.Chemscore.Internal.Correction>
0.0744

> <Gold.Rescore>
     Score         DG    S(hbond)    S(metal)    S(lipo)     H(rot)  DE(clash)    DE(int)     intcor
     17.74     -18.88       2.58        0.00      92.06       2.33       0.48       0.66       ----

> <Gold.Chemscore.Fitness>
17.7412

> <Gold.Chemscore.DG>
-18.8825

> <Gold.Chemscore.ZeroCoef>
-5.4800

> <Gold.Chemscore.Hbond>
2.5756

> <Gold.Chemscore.Metal>
0.0000

> <Gold.Chemscore.Lipo>
92.0624

> <Gold.Chemscore.Internal_Hbond>
0.0000

> <Gold.Chemscore.DEClash>
0.4850

> <Gold.Chemscore.DEInternal>
0.6563

> <Gold.Chemscore.Rot>
2.3326

> <Gold.Chemscore.Internal.Correction>
   9.000000E+99

> <Gold.Chemscore.Hbonds>
donor molecule, donor type, donor heavy atom, donor atom, acceptor molecule, acceptor atom, score
      L1  H    21    49       P1  8028  0.64
      P1  H  6934  6947       L1     6  0.08
      P1  H  7989  7998       L1    12  0.15

> <Gold.Chemscore.Hbond.Weighted>
-8.6025

> <Gold.Chemscore.Metal.Weighted>
-0.0000

> <Gold.Chemscore.Lipo.Weighted>
-10.7713

> <Gold.Chemscore.Internal_Hbond.Weighted>
0.0000

> <Gold.Chemscore.DEClash.Weighted>
0.4850

> <Gold.Chemscore.DEInternal.Weighted>
0.6563

> <Gold.Chemscore.Rot.Weighted>
5.9714

> <Gold.Chemscore.Internal.Correction.Weighted>
   9.000000E+99

> <Gold.Protein.RotatedTorsions>
[ 6907 6896 6895 6894 ] final  -17.09 input  -60.11 | X-H torsion
[ 7974 7965 7964 7962 ] final -156.23 input  175.53 | X-H torsion
[ 8008 7997 7996 7995 ] final  -53.03 input   59.86 | X-H torsion
[ 10167 10162 10161 10158 ] final  103.95 input  -65.29 | X-H torsion
[ 10718 10713 10712 10709 ] final  173.52 input   66.30 | X-H torsion
[ 10763 10752 10751 10750 ] final -130.28 input  -60.55 | X-H torsion
[ 11005 11000 10999 10996 ] final   59.81 input  -57.11 | X-H torsion

> <Gold.Protein.ActiveResidues>
 VAL166  LYS551  ARG553  GLY616  TRP617  ASP618  TYR619  PRO620  LYS621  CYS622 
 ASP623  PHE694  ASN695  SER759  ASP760  ASP761  ALA762  ILE779  LEU786  VAL792 
 PHE793  MET794  SER795  GLU796  ALA797  LYS798  CYS799  TRP800  GLU811  SER814 

> <Gold.Protein.RotatedAtoms>
  151.2987  135.0762  159.9230 H   0  0  0  0  0  0  0  0  0  0  0  0  # atno 6907 bound_to 6896
  152.5302  133.9856  159.7837 H   0  0  0  0  0  0  0  0  0  0  0  0  # atno 6908 bound_to 6896
  151.0139  133.5888  159.2710 H   0  0  0  0  0  0  0  0  0  0  0  0  # atno 6909 bound_to 6896
  144.7602  140.4138  143.5982 H   0  0  0  0  0  0  0  0  0  0  0  0  # atno 7974 bound_to 7965
  154.4122  140.1210  156.5087 H   0  0  0  0  0  0  0  0  0  0  0  0  # atno 8008 bound_to 7997
  155.6821  140.3496  155.4840 H   0  0  0  0  0  0  0  0  0  0  0  0  # atno 8009 bound_to 7997
  155.9542  140.1110  157.0941 H   0  0  0  0  0  0  0  0  0  0  0  0  # atno 8010 bound_to 7997
  139.7219  144.7056  151.0859 H   0  0  0  0  0  0  0  0  0  0  0  0  # atno 10167 bound_to 10162
  156.9631  131.0067  151.2923 H   0  0  0  0  0  0  0  0  0  0  0  0  # atno 10718 bound_to 10713
  154.8756  135.3867  154.4058 H   0  0  0  0  0  0  0  0  0  0  0  0  # atno 10763 bound_to 10752
  153.4777  135.7030  153.5961 H   0  0  0  0  0  0  0  0  0  0  0  0  # atno 10764 bound_to 10752
  153.4390  135.3860  155.2184 H   0  0  0  0  0  0  0  0  0  0  0  0  # atno 10765 bound_to 10752
  140.0277  134.6058  155.9550 H   0  0  0  0  0  0  0  0  0  0  0  0  # atno 11005 bound_to 11000
  145.6643  139.1587  143.2790 LP  0  0  0  0  0  0  0  0  0  0  0  0  # atno 17320 bound_to 7965
  146.1658  140.6720  142.9256 LP  0  0  0  0  0  0  0  0  0  0  0  0  # atno 17321 bound_to 7965
  140.7755  143.5155  150.9599 LP  0  0  0  0  0  0  0  0  0  0  0  0  # atno 17342 bound_to 10162
  139.8842  143.7033  152.3153 LP  0  0  0  0  0  0  0  0  0  0  0  0  # atno 17343 bound_to 10162
  157.5644  130.8268  149.8308 LP  0  0  0  0  0  0  0  0  0  0  0  0  # atno 17370 bound_to 10713
  156.0314  130.3763  150.1678 LP  0  0  0  0  0  0  0  0  0  0  0  0  # atno 17371 bound_to 10713
  141.1812  133.6547  156.5029 LP  0  0  0  0  0  0  0  0  0  0  0  0  # atno 17394 bound_to 11000
  140.4279  134.7129  157.4926 LP  0  0  0  0  0  0  0  0  0  0  0  0  # atno 17395 bound_to 11000

$$$$
