AV-unprocessed.smi:905|AV-procd|sdf|4099|dock9
  -GOLD-   22720 1593D 1   1.00000     0.00000
 Structure written by MMmdl.
 37 38  0  0  0  0  0  0  0  0  1 V2000
  144.3078  144.7550  154.7504 N   0  0  0  0  0  0  0  0  0  0  0  0
  144.9330  143.5198  154.9861 C   0  0  0  0  0  0  0  0  0  0  0  0
  144.8060  142.8586  156.1286 N   0  0  0  0  0  0  0  0  0  0  0  0
  145.5768  141.7057  155.9209 O   0  0  0  0  0  0  0  0  0  0  0  0
  146.0920  141.8257  154.6736 C   0  0  0  0  0  0  0  0  0  0  0  0
  146.9341  140.7194  154.1330 C   0  0  0  0  0  0  0  0  0  0  0  0
  148.3618  141.1804  153.7964 C   0  0  0  0  0  0  0  0  0  0  0  0
  148.9309  141.9979  154.8619 N   0  0  0  0  0  0  0  0  0  0  0  0
  150.0536  141.7043  155.5327 C   0  0  0  0  0  0  0  0  0  0  0  0
  150.7359  140.7006  155.3259 O   0  0  0  0  0  0  0  0  0  0  0  0
  150.3408  142.6311  156.4577 N   0  0  0  0  0  0  0  0  0  0  0  0
  151.4928  142.5924  157.3540 C   0  0  0  0  0  0  0  0  0  0  0  0
  151.2933  141.5260  158.4515 C   0  0  0  0  0  0  0  0  0  0  0  0
  152.4642  141.5192  159.4476 C   0  0  0  0  0  0  0  0  0  0  0  0
  152.6836  142.9105  160.0623 C   0  0  0  0  0  0  0  0  0  0  0  0
  152.8862  143.9737  158.9711 C   0  0  0  0  0  0  0  0  0  0  0  0
  151.7126  143.9835  157.9782 C   0  0  0  0  0  0  0  0  0  0  0  0
  145.7085  142.9299  154.0371 N   0  0  0  0  0  0  0  0  0  0  0  0
  144.4268  145.2259  153.8651 H   0  0  0  0  0  0  0  0  0  0  0  0
  143.7244  145.1755  155.4590 H   0  0  0  0  0  0  0  0  0  0  0  0
  146.9626  139.9125  154.8666 H   0  0  0  0  0  0  0  0  0  0  0  0
  146.4426  140.3176  153.2462 H   0  0  0  0  0  0  0  0  0  0  0  0
  149.0060  140.3203  153.6048 H   0  0  0  0  0  0  0  0  0  0  0  0
  148.3541  141.7728  152.8807 H   0  0  0  0  0  0  0  0  0  0  0  0
  148.4382  142.8459  155.1011 H   0  0  0  0  0  0  0  0  0  0  0  0
  149.7183  143.4202  156.5514 H   0  0  0  0  0  0  0  0  0  0  0  0
  152.3831  142.3387  156.7753 H   0  0  0  0  0  0  0  0  0  0  0  0
  150.3633  141.7175  158.9885 H   0  0  0  0  0  0  0  0  0  0  0  0
  151.1923  140.5369  158.0031 H   0  0  0  0  0  0  0  0  0  0  0  0
  152.2765  140.7897  160.2362 H   0  0  0  0  0  0  0  0  0  0  0  0
  153.3735  141.1970  158.9386 H   0  0  0  0  0  0  0  0  0  0  0  0
  151.8239  143.1778  160.6780 H   0  0  0  0  0  0  0  0  0  0  0  0
  153.5468  142.8911  160.7282 H   0  0  0  0  0  0  0  0  0  0  0  0
  152.9959  144.9582  159.4268 H   0  0  0  0  0  0  0  0  0  0  0  0
  153.8156  143.7756  158.4354 H   0  0  0  0  0  0  0  0  0  0  0  0
  151.9018  144.7194  157.1955 H   0  0  0  0  0  0  0  0  0  0  0  0
  150.8071  144.3068  158.4940 H   0  0  0  0  0  0  0  0  0  0  0  0
  1  2  1  0  0  0  0
  1 19  1  0  0  0  0
  1 20  1  0  0  0  0
  2 18  1  0  0  0  0
  2  3  2  0  0  0  0
  3  4  1  0  0  0  0
  4  5  1  0  0  0  0
  5  6  1  0  0  0  0
  5 18  2  0  0  0  0
  6  7  1  0  0  0  0
  6 21  1  0  0  0  0
  6 22  1  0  0  0  0
  7  8  1  0  0  0  0
  7 23  1  0  0  0  0
  7 24  1  0  0  0  0
  8  9  1  0  0  0  0
  8 25  1  0  0  0  0
  9 10  2  0  0  0  0
  9 11  1  0  0  0  0
 11 12  1  0  0  0  0
 11 26  1  0  0  0  0
 12 17  1  0  0  0  0
 12 13  1  0  0  0  0
 12 27  1  0  0  0  0
 13 14  1  0  0  0  0
 13 28  1  0  0  0  0
 13 29  1  0  0  0  0
 14 15  1  0  0  0  0
 14 30  1  0  0  0  0
 14 31  1  0  0  0  0
 15 16  1  0  0  0  0
 15 32  1  0  0  0  0
 15 33  1  0  0  0  0
 16 17  1  0  0  0  0
 16 34  1  0  0  0  0
 16 35  1  0  0  0  0
 17 36  1  0  0  0  0
 17 37  1  0  0  0  0
M  END
> <s_m_source_file>
AV-unprocessed.smi

> <i_m_source_file_index>
905

> <i_lp_mmshare_version>
43012

> <i_f3d_flags>
0

> <s_epik_input>
W05IMl1jMW5vYyhuMSlbQ0gyXVtDSDJdW05IXUMoPU8pW05IXVtDSF0yW0NIMl1bQ0gyXVtDSDJdW0NIMl1bQ0gyXTI=

> <s_epik_cmdline>
J2VwaWtfcHl0aG9uJywgJy1waCcsICc3LjAnLCAnLXRuJywgJzgnLCAnLW1hJywgJzIwMCcsICctbWV0YWxfYmluZGluZycsICctaW1hZScsICc8aW5maWxlLm1hZT4nLCAnLW9tYWUnLCAnPG91dGZpbGUubWFlPic=

> <r_lp_tautomer_probability>
1

> <r_epik_Ionization_Penalty>
0.000203748

> <r_epik_Ionization_Penalty_Charging>
0

> <r_epik_Ionization_Penalty_Neutral>
0.000203748

> <r_epik_State_Penalty>
-0

> <r_epik_Charging_Adjusted_Penalty>
0

> <i_epik_Tot_Q>
0

> <i_epik_Tot_abs_Q>
0

> <r_epik_Metal_State_Penalty>
-0

> <b_epik_Metal_Only>
0

> <s_lp_Force_Field>
OPLS_2005

> <r_lp_Energy>
0.830847

> <b_lp_Chiralities_Consistent>
1

> <s_lp_Variant>
AV-unprocessed.smi:905-1

> <Gold.Version>
5.8.1

> <Gold.Id.Protein>
6NUR|6NUR_protein|mol2

> <Gold.PLP.Fitness>
41.9422

> <Gold.PLP.PLP>
-34.7615

> <Gold.PLP.part.hbond>
-3.0000

> <Gold.PLP.part.metal>
0.0000

> <Gold.PLP.part.buried>
-4.9492

> <Gold.PLP.part.nonpolar>
-26.9080

> <Gold.PLP.part.repulsive>
0.7891

> <Gold.PLP.ligand.clash>
0.0000

> <Gold.PLP.ligand.torsion>
0.2462

> <Gold.PLP.Chemscore.Hbond>
2.5523

> <Gold.PLP.Chemscore.CHOScore>
0.0000

> <Gold.PLP.Chemscore.Metal>
0.0000

> <Gold.Chemscore.Hbonds>
donor molecule, donor type, donor heavy atom, donor atom, acceptor molecule, acceptor atom, score
      L1  H     8    25       P1  8028  0.78
      L1  H    11    26       P1  8028  0.90
      P1  H  7989  7998       L1    10  0.87

> <Gold.PLP.Chemscore.Internal.Correction>
0.0163

> <Gold.Rescore>
     Score         DG    S(hbond)    S(metal)    S(lipo)     H(rot)  DE(clash)    DE(int)     intcor
     15.13     -15.94       2.31        0.00      75.55       2.39       0.60       0.21       ----

> <Gold.Chemscore.Fitness>
15.1311

> <Gold.Chemscore.DG>
-15.9372

> <Gold.Chemscore.ZeroCoef>
-5.4800

> <Gold.Chemscore.Hbond>
2.3137

> <Gold.Chemscore.Metal>
0.0000

> <Gold.Chemscore.Lipo>
75.5450

> <Gold.Chemscore.Internal_Hbond>
0.0000

> <Gold.Chemscore.DEClash>
0.5966

> <Gold.Chemscore.DEInternal>
0.2095

> <Gold.Chemscore.Rot>
2.3865

> <Gold.Chemscore.Internal.Correction>
   9.000000E+99

> <Gold.Chemscore.Hbonds>
donor molecule, donor type, donor heavy atom, donor atom, acceptor molecule, acceptor atom, score
      L1  H     8    25       P1  8028  0.76
      L1  H    11    26       P1  8028  0.88
      P1  H  7989  7998       L1    10  0.52

> <Gold.Chemscore.Hbond.Weighted>
-7.7278

> <Gold.Chemscore.Metal.Weighted>
-0.0000

> <Gold.Chemscore.Lipo.Weighted>
-8.8388

> <Gold.Chemscore.Internal_Hbond.Weighted>
0.0000

> <Gold.Chemscore.DEClash.Weighted>
0.5966

> <Gold.Chemscore.DEInternal.Weighted>
0.2095

> <Gold.Chemscore.Rot.Weighted>
6.1093

> <Gold.Chemscore.Internal.Correction.Weighted>
   9.000000E+99

> <Gold.Protein.RotatedTorsions>
[ 6907 6896 6895 6894 ] final  119.28 input  -60.11 | X-H torsion
[ 7974 7965 7964 7962 ] final -119.22 input  175.53 | X-H torsion
[ 8008 7997 7996 7995 ] final  -50.00 input   59.86 | X-H torsion
[ 10167 10162 10161 10158 ] final   85.34 input  -65.29 | X-H torsion
[ 10718 10713 10712 10709 ] final   -7.20 input   66.30 | X-H torsion
[ 10763 10752 10751 10750 ] final  111.35 input  -60.55 | X-H torsion
[ 11005 11000 10999 10996 ] final  -94.79 input  -57.11 | X-H torsion

> <Gold.Protein.ActiveResidues>
 VAL166  LYS551  ARG553  GLY616  TRP617  ASP618  TYR619  PRO620  LYS621  CYS622 
 ASP623  PHE694  ASN695  SER759  ASP760  ASP761  ALA762  ILE779  LEU786  VAL792 
 PHE793  MET794  SER795  GLU796  ALA797  LYS798  CYS799  TRP800  GLU811  SER814 

> <Gold.Protein.RotatedAtoms>
  152.4483  133.7579  159.6729 H   0  0  0  0  0  0  0  0  0  0  0  0  # atno 6907 bound_to 6896
  150.8388  133.7959  159.3075 H   0  0  0  0  0  0  0  0  0  0  0  0  # atno 6908 bound_to 6896
  151.5591  135.1068  160.0020 H   0  0  0  0  0  0  0  0  0  0  0  0  # atno 6909 bound_to 6896
  145.0650  140.8318  143.4130 H   0  0  0  0  0  0  0  0  0  0  0  0  # atno 7974 bound_to 7965
  154.4054  140.1283  156.4595 H   0  0  0  0  0  0  0  0  0  0  0  0  # atno 8008 bound_to 7997
  155.7287  140.3491  155.5029 H   0  0  0  0  0  0  0  0  0  0  0  0  # atno 8009 bound_to 7997
  155.9147  140.1042  157.1243 H   0  0  0  0  0  0  0  0  0  0  0  0  # atno 8010 bound_to 7997
  139.8987  144.6342  150.8660 H   0  0  0  0  0  0  0  0  0  0  0  0  # atno 10167 bound_to 10162
  156.7208  130.5150  149.5869 H   0  0  0  0  0  0  0  0  0  0  0  0  # atno 10718 bound_to 10713
  153.4621  135.3720  155.2344 H   0  0  0  0  0  0  0  0  0  0  0  0  # atno 10763 bound_to 10752
  154.8757  135.3911  154.3913 H   0  0  0  0  0  0  0  0  0  0  0  0  # atno 10764 bound_to 10752
  153.4488  135.7085  153.6186 H   0  0  0  0  0  0  0  0  0  0  0  0  # atno 10765 bound_to 10752
  141.1460  133.7980  157.0346 H   0  0  0  0  0  0  0  0  0  0  0  0  # atno 11005 bound_to 11000
  145.1362  139.2600  143.5514 LP  0  0  0  0  0  0  0  0  0  0  0  0  # atno 17320 bound_to 7965
  146.3526  140.1027  142.8607 LP  0  0  0  0  0  0  0  0  0  0  0  0  # atno 17321 bound_to 7965
  140.7711  143.3453  151.2124 LP  0  0  0  0  0  0  0  0  0  0  0  0  # atno 17342 bound_to 10162
  139.7044  143.9479  152.2920 LP  0  0  0  0  0  0  0  0  0  0  0  0  # atno 17343 bound_to 10162
  156.1596  130.6365  151.0701 LP  0  0  0  0  0  0  0  0  0  0  0  0  # atno 17370 bound_to 10713
  157.6899  131.0813  150.7138 LP  0  0  0  0  0  0  0  0  0  0  0  0  # atno 17371 bound_to 10713
  140.0732  134.9690  157.1502 LP  0  0  0  0  0  0  0  0  0  0  0  0  # atno 17394 bound_to 11000
  140.3681  134.2420  155.7180 LP  0  0  0  0  0  0  0  0  0  0  0  0  # atno 17395 bound_to 11000

$$$$
