#       Name:                AV-unprocessed.smi:3306
#       Creating user name   scv26
#       Creation time:       Fri Mar 27 19:04:04 2020


#       File generated by GOLD software.
#

@<TRIPOS>MOLECULE
AV-unprocessed.smi:3306
    46    47     1
SMALL
NO_CHARGES


@<TRIPOS>ATOM
      1 ****        -2.1170  -3.2796  -0.9405 C.3            1 S1                 0.0000
      2 ****        -1.3081  -2.7710   0.2718 C.3            1 S1                 0.0000
      3 ****        -1.5402  -3.7417   1.4496 C.3            1 S1                 0.0000
      4 ****        -1.6351  -1.3468   0.6127 N.4            1 S1                 1.0000
      5 ****        -1.3466  -0.4012  -0.5044 C.3            1 S1                 0.0000
      6 ****        -1.7989   1.0344  -0.1860 C.3            1 S1                 0.0000
      7 ****        -1.1793   1.5672   1.1182 C.3            1 S1                 0.0000
      8 ****         0.2534   1.8104   0.9982 N.3            1 S1                 0.0000
      9 ****         0.5723   3.0198   0.2515 C.3            1 S1                 0.0000
     10 ****         2.0900   3.1240   0.0225 C.3            1 S1                 0.0000
     11 ****         2.6358   2.0234  -0.8742 C.ar           1 S1                 0.0000
     12 ****         2.7135   2.2105  -2.2709 C.ar           1 S1                 0.0000
     13 ****         3.2056   1.1558  -3.0639 C.ar           1 S1                 0.0000
     14 ****         3.5969  -0.0412  -2.4337 C.ar           1 S1                 0.0000
     15 ****         3.4799  -0.1298  -1.0324 C.ar           1 S1                 0.0000
     16 ****         3.0093   0.8751  -0.2632 N.ar           1 S1                 0.0000
     17 ****        -1.4292   0.5609   2.2499 C.3            1 S1                 0.0000
     18 ****        -1.0012  -0.8714   1.8771 C.3            1 S1                 0.0000
     19 ****        -1.9636  -4.3482  -1.0942 H              1 S1                 0.0000
     20 ****        -1.8199  -2.8007  -1.8724 H              1 S1                 0.0000
     21 ****        -3.1866  -3.1200  -0.8001 H              1 S1                 0.0000
     22 ****        -0.2491  -2.8190   0.0126 H              1 S1                 0.0000
     23 ****        -1.4121  -4.7779   1.1347 H              1 S1                 0.0000
     24 ****        -2.5484  -3.6452   1.8542 H              1 S1                 0.0000
     25 ****        -0.8278  -3.5879   2.2596 H              1 S1                 0.0000
     26 ****        -0.2790  -0.4179  -0.7306 H              1 S1                 0.0000
     27 ****        -1.8645  -0.7008  -1.4128 H              1 S1                 0.0000
     28 ****        -1.5844   1.6878  -1.0304 H              1 S1                 0.0000
     29 ****        -2.8847   1.0420  -0.0831 H              1 S1                 0.0000
     30 ****        -1.6560   2.5103   1.3898 H              1 S1                 0.0000
     31 ****         0.6686   1.8783   1.9168 H              1 S1                 0.0000
     32 ****         0.0645   3.0354  -0.7118 H              1 S1                 0.0000
     33 ****         0.2207   3.8852   0.8144 H              1 S1                 0.0000
     34 ****         2.3204   4.0882  -0.4319 H              1 S1                 0.0000
     35 ****         2.6175   3.1100   0.9777 H              1 S1                 0.0000
     36 ****         2.4008   3.1389  -2.7262 H              1 S1                 0.0000
     37 ****         3.2801   1.2624  -4.1361 H              1 S1                 0.0000
     38 ****         3.9793  -0.8707  -3.0100 H              1 S1                 0.0000
     39 ****         3.7704  -1.0324  -0.5156 H              1 S1                 0.0000
     40 ****        -0.9216   0.8784   3.1619 H              1 S1                 0.0000
     41 ****        -2.4939   0.5570   2.4873 H              1 S1                 0.0000
     42 ****        -1.2816  -1.5062   2.7155 H              1 S1                 0.0000
     43 ****         0.0844  -0.9301   1.7824 H              1 S1                 0.0000
     44 ****        -2.6326  -1.3143   0.7674 H              1 S1                 0.0000
     45 ****         0.6277   1.0348   0.4899 LP             1 S1                 0.0000
     46 ****         2.9387   0.7738   0.7291 LP             1 S1                 0.0000
@<TRIPOS>BOND
    1    1    2 1     
    2    1   19 1     
    3    1   20 1     
    4    1   21 1     
    5    2    3 1     
    6    2    4 1     
    7    2   22 1     
    8    3   23 1     
    9    3   24 1     
   10    3   25 1     
   11    4   18 1     
   12    4    5 1     
   13    4   44 1     
   14    5    6 1     
   15    5   26 1     
   16    5   27 1     
   17    6    7 1     
   18    6   28 1     
   19    6   29 1     
   20    7    8 1     
   21    7   17 1     
   22    7   30 1     
   23    8    9 1     
   24    8   31 1     
   25    9   10 1     
   26    9   32 1     
   27    9   33 1     
   28   10   11 1     
   29   10   34 1     
   30   10   35 1     
   31   11   16 ar    
   32   11   12 ar    
   33   12   13 ar    
   34   12   36 1     
   35   13   14 ar    
   36   13   37 1     
   37   14   15 ar    
   38   14   38 1     
   39   15   16 ar    
   40   15   39 1     
   41   17   18 1     
   42   17   40 1     
   43   17   41 1     
   44   18   42 1     
   45   18   43 1     
   46    8   45 1     
   47   16   46 1     
@<TRIPOS>SUBSTRUCTURE
      1 S1             1
@<TRIPOS>SET
LONE_PAIRS      STATIC     ATOMS    <user>   **** ""
2 45 46
DONOR_HYDROGENS      STATIC     ATOMS    <user>   **** ""
2 44 31
ATOM$BLUE        STATIC     ATOMS    COLORGROUP SYSTEM
2 45 46
ATOM$RED        STATIC     ATOMS    COLORGROUP SYSTEM
2 44 31
