#       Name:                AV-unprocessed.smi:2032
#       Creating user name   scv26
#       Creation time:       Fri Mar 27 10:51:42 2020


#       File generated by GOLD software.
#

@<TRIPOS>MOLECULE
AV-unprocessed.smi:2032
    48    49     1
SMALL
NO_CHARGES


@<TRIPOS>ATOM
      1 ****        -3.7891   3.1884  -0.9339 C.3            1 S1                 0.0000
      2 ****        -3.3503   1.7211  -0.9859 C.3            1 S1                 0.0000
      3 ****        -1.8172   1.5714  -0.9580 C.3            1 S1                 0.0000
      4 ****        -1.3786   0.1719  -0.9274 N.3            1 S1                 0.0000
      5 ****         0.0974   0.0424  -0.8833 C.3            1 S1                 0.0000
      6 ****         0.7937   0.7423  -2.0786 C.3            1 S1                 0.0000
      7 ****         0.5846  -1.4350  -0.8080 C.3            1 S1                 0.0000
      8 ****         2.0386  -1.5736  -0.7697 N.am           1 S1                 0.0000
      9 ****         2.8287  -1.3148   0.2823 C.2            1 S1                 0.0000
     10 ****         2.3338  -0.9292   1.3440 O.2            1 S1                 0.0000
     11 ****         4.1433  -1.5153   0.0353 N.pl3          1 S1                -1.0000
     12 ****         5.0533  -1.2836   0.9954 C.2            1 S1                 0.0000
     13 ****         5.6032  -2.2576   1.7298 N.2            1 S1                 0.0000
     14 ****         6.5354  -1.7932   2.6594 C.2            1 S1                 0.0000
     15 ****         6.7062  -0.4347   2.6260 C.2            1 S1                 0.0000
     16 ****         5.6931   0.3067   1.4201 S.3            1 S1                 0.0000
     17 ****        -2.0412  -0.4828   0.2055 C.3            1 S1                 0.0000
     18 ****        -3.5741  -0.3308   0.1721 C.3            1 S1                 0.0000
     19 ****        -4.2450  -0.9570   1.3993 C.3            1 S1                 0.0000
     20 ****        -3.9066   1.0512   0.1381 O.3            1 S1                 0.0000
     21 ****        -3.3928   3.7473  -1.7821 H              1 S1                 0.0000
     22 ****        -3.4401   3.6723  -0.0211 H              1 S1                 0.0000
     23 ****        -4.8758   3.2709  -0.9600 H              1 S1                 0.0000
     24 ****        -3.7445   1.2706  -1.8986 H              1 S1                 0.0000
     25 ****        -1.4326   2.0734  -1.8437 H              1 S1                 0.0000
     26 ****        -1.4144   2.1014  -0.0935 H              1 S1                 0.0000
     27 ****         0.4474   0.5410   0.0218 H              1 S1                 0.0000
     28 ****         1.8752   0.6124  -2.0644 H              1 S1                 0.0000
     29 ****         0.6418   1.8203  -2.0743 H              1 S1                 0.0000
     30 ****         0.4292   0.3530  -3.0295 H              1 S1                 0.0000
     31 ****         0.2006  -1.9463   0.0738 H              1 S1                 0.0000
     32 ****         0.2172  -1.9908  -1.6710 H              1 S1                 0.0000
     33 ****         2.4877  -1.8876  -1.6174 H              1 S1                 0.0000
     34 ****         7.0335  -2.5020   3.3039 H              1 S1                 0.0000
     35 ****         7.3625   0.1718   3.2314 H              1 S1                 0.0000
     36 ****        -1.8314  -1.5504   0.2066 H              1 S1                 0.0000
     37 ****        -1.6525  -0.0808   1.1425 H              1 S1                 0.0000
     38 ****        -3.9685  -0.8124  -0.7245 H              1 S1                 0.0000
     39 ****        -4.0289  -2.0237   1.4621 H              1 S1                 0.0000
     40 ****        -5.3279  -0.8394   1.3537 H              1 S1                 0.0000
     41 ****        -3.8968  -0.4896   2.3210 H              1 S1                 0.0000
     42 ****        -1.6447  -0.2847  -1.7763 LP             1 S1                 0.0000
     43 ****         1.3439  -0.8097   1.4200 LP             1 S1                 0.0000
     44 ****         2.9225  -0.7360   2.1290 LP             1 S1                 0.0000
     45 ****         4.4384  -1.8368  -0.8644 LP             1 S1                 0.0000
     46 ****         5.3693  -3.2240   1.6232 LP             1 S1                 0.0000
     47 ****        -4.9020   1.1402   0.1033 LP             1 S1                 0.0000
     48 ****        -3.5622   1.4839   0.9713 LP             1 S1                 0.0000
@<TRIPOS>BOND
    1    1    2 1     
    2    1   21 1     
    3    1   22 1     
    4    1   23 1     
    5    2   20 1     
    6    2    3 1     
    7    2   24 1     
    8    3    4 1     
    9    3   25 1     
   10    3   26 1     
   11    4    5 1     
   12    4   17 1     
   13    5    6 1     
   14    5    7 1     
   15    5   27 1     
   16    6   28 1     
   17    6   29 1     
   18    6   30 1     
   19    7    8 1     
   20    7   31 1     
   21    7   32 1     
   22    8    9 am    
   23    8   33 1     
   24    9   10 2     
   25    9   11 1     
   26   11   12 1     
   27   12   16 1     
   28   12   13 2     
   29   13   14 1     
   30   14   15 2     
   31   14   34 1     
   32   15   16 1     
   33   15   35 1     
   34   17   18 1     
   35   17   36 1     
   36   17   37 1     
   37   18   19 1     
   38   18   20 1     
   39   18   38 1     
   40   19   39 1     
   41   19   40 1     
   42   19   41 1     
   43    4   42 1     
   44   10   43 1     
   45   10   44 1     
   46   11   45 1     
   47   13   46 1     
   48   20   47 1     
   49   20   48 1     
@<TRIPOS>SUBSTRUCTURE
      1 S1             1
@<TRIPOS>SET
LONE_PAIRS      STATIC     ATOMS    <user>   **** ""
7 42 43 44 45 46 47 48
DONOR_HYDROGENS      STATIC     ATOMS    <user>   **** ""
1 33
ATOM$BLUE        STATIC     ATOMS    COLORGROUP SYSTEM
7 42 43 44 45 46 47 48
ATOM$RED        STATIC     ATOMS    COLORGROUP SYSTEM
1 33
