AV-unprocessed.smi:318|AV-procd|sdf|2330|dock3
  -GOLD-   2262022233D 1   1.00000     0.00000
 Structure written by MMmdl.
 38 39  0  0  0  0  0  0  0  0  1 V2000
  150.2814  140.9205  158.0095 O   0  0  0  0  0  0  0  0  0  0  0  0
  150.3400  141.9552  157.3434 C   0  0  0  0  0  0  0  0  0  0  0  0
  151.2861  143.0992  157.7374 C   0  0  0  0  0  0  0  0  0  0  0  0
  151.9769  142.8800  159.0201 N   0  0  0  0  0  0  0  0  0  0  0  0
  151.7781  143.8472  160.0216 C   0  0  0  0  0  0  0  0  0  0  0  0
  152.3581  143.7462  161.2250 C   0  0  0  0  0  0  0  0  0  0  0  0
  153.2052  142.6069  161.4803 C   0  0  0  0  0  0  0  0  0  0  0  0
  153.4202  141.6628  160.5350 C   0  0  0  0  0  0  0  0  0  0  0  0
  154.3120  140.4497  160.7899 C   0  0  0  0  0  0  0  0  0  0  0  0
  153.6808  139.3238  160.4542 F   0  0  0  0  0  0  0  0  0  0  0  0
  155.4306  140.5313  160.0683 F   0  0  0  0  0  0  0  0  0  0  0  0
  154.6611  140.3528  162.0736 F   0  0  0  0  0  0  0  0  0  0  0  0
  152.7781  141.7859  159.2101 C   0  0  0  0  0  0  0  0  0  0  0  0
  152.9471  140.9553  158.3157 O   0  0  0  0  0  0  0  0  0  0  0  0
  149.6109  142.1582  156.2357 N   0  0  0  0  0  0  0  0  0  0  0  0
  148.6507  141.2155  155.6693 C   0  0  0  0  0  0  0  0  0  0  0  0
  149.2813  140.4278  154.5013 C   0  0  0  0  0  0  0  0  0  0  0  0
  148.2599  139.4901  153.8375 C   0  0  0  0  0  0  0  0  0  0  0  0
  147.0146  140.2607  153.3727 C   0  0  0  0  0  0  0  0  0  0  0  0
  146.3791  141.0386  154.5354 C   0  0  0  0  0  0  0  0  0  0  0  0
  147.3977  141.9790  155.1997 C   0  0  0  0  0  0  0  0  0  0  0  0
  152.0110  143.2317  156.9328 H   0  0  0  0  0  0  0  0  0  0  0  0
  150.7231  144.0340  157.7674 H   0  0  0  0  0  0  0  0  0  0  0  0
  151.1358  144.6715  159.7475 H   0  0  0  0  0  0  0  0  0  0  0  0
  152.1988  144.4993  161.9826 H   0  0  0  0  0  0  0  0  0  0  0  0
  153.6701  142.5216  162.4510 H   0  0  0  0  0  0  0  0  0  0  0  0
  149.7264  143.0350  155.7485 H   0  0  0  0  0  0  0  0  0  0  0  0
  148.3465  140.5115  156.4466 H   0  0  0  0  0  0  0  0  0  0  0  0
  149.6712  141.1220  153.7553 H   0  0  0  0  0  0  0  0  0  0  0  0
  150.1327  139.8446  154.8543 H   0  0  0  0  0  0  0  0  0  0  0  0
  148.7191  138.9804  152.9901 H   0  0  0  0  0  0  0  0  0  0  0  0
  147.9664  138.7122  154.5433 H   0  0  0  0  0  0  0  0  0  0  0  0
  147.2889  140.9529  152.5757 H   0  0  0  0  0  0  0  0  0  0  0  0
  146.2871  139.5698  152.9457 H   0  0  0  0  0  0  0  0  0  0  0  0
  145.5242  141.6119  154.1758 H   0  0  0  0  0  0  0  0  0  0  0  0
  145.9923  140.3376  155.2762 H   0  0  0  0  0  0  0  0  0  0  0  0
  146.9307  142.4863  156.0449 H   0  0  0  0  0  0  0  0  0  0  0  0
  147.6831  142.7577  154.4909 H   0  0  0  0  0  0  0  0  0  0  0  0
  1  2  2  0  0  0  0
  2  3  1  0  0  0  0
  2 15  1  0  0  0  0
  3  4  1  0  0  0  0
  3 22  1  0  0  0  0
  3 23  1  0  0  0  0
  4 13  1  0  0  0  0
  4  5  1  0  0  0  0
  5  6  2  0  0  0  0
  5 24  1  0  0  0  0
  6  7  1  0  0  0  0
  6 25  1  0  0  0  0
  7  8  2  0  0  0  0
  7 26  1  0  0  0  0
  8  9  1  0  0  0  0
  8 13  1  0  0  0  0
  9 10  1  0  0  0  0
  9 11  1  0  0  0  0
  9 12  1  0  0  0  0
 13 14  2  0  0  0  0
 15 16  1  0  0  0  0
 15 27  1  0  0  0  0
 16 21  1  0  0  0  0
 16 17  1  0  0  0  0
 16 28  1  0  0  0  0
 17 18  1  0  0  0  0
 17 29  1  0  0  0  0
 17 30  1  0  0  0  0
 18 19  1  0  0  0  0
 18 31  1  0  0  0  0
 18 32  1  0  0  0  0
 19 20  1  0  0  0  0
 19 33  1  0  0  0  0
 19 34  1  0  0  0  0
 20 21  1  0  0  0  0
 20 35  1  0  0  0  0
 20 36  1  0  0  0  0
 21 37  1  0  0  0  0
 21 38  1  0  0  0  0
M  END
> <s_m_source_file>
AV-unprocessed.smi

> <i_m_source_file_index>
318

> <i_lp_mmshare_version>
43012

> <i_f3d_flags>
0

> <s_epik_input>
W0NIMl0xW0NIMl1bQ0gyXVtDSDJdW0NIMl1bQ0hdMVtOSF1DKD1PKVtDSDJdbjJbY0hdW2NIXVtjSF1jKEMoRikoRilGKWMyPU8=

> <s_epik_cmdline>
J2VwaWtfcHl0aG9uJywgJy1waCcsICc3LjAnLCAnLXRuJywgJzgnLCAnLW1hJywgJzIwMCcsICctbWV0YWxfYmluZGluZycsICctaW1hZScsICc8aW5maWxlLm1hZT4nLCAnLW9tYWUnLCAnPG91dGZpbGUubWFlPic=

> <r_lp_tautomer_probability>
1

> <r_epik_Ionization_Penalty>
2.11101e-08

> <r_epik_Ionization_Penalty_Charging>
2.0632e-09

> <r_epik_Ionization_Penalty_Neutral>
1.90469e-08

> <r_epik_State_Penalty>
-0

> <r_epik_Charging_Adjusted_Penalty>
2.0632e-09

> <i_epik_Tot_Q>
0

> <i_epik_Tot_abs_Q>
0

> <r_epik_Metal_State_Penalty>
-0

> <b_epik_Metal_Only>
0

> <s_lp_Force_Field>
OPLS_2005

> <r_lp_Energy>
18.6605

> <b_lp_Chiralities_Consistent>
1

> <s_lp_Variant>
AV-unprocessed.smi:318-1

> <Gold.Version>
5.8.1

> <Gold.Id.Protein>
6NUR|6NUR_protein|mol2

> <Gold.PLP.Fitness>
47.5364

> <Gold.PLP.PLP>
-45.2633

> <Gold.PLP.part.hbond>
-2.0000

> <Gold.PLP.part.metal>
0.0000

> <Gold.PLP.part.buried>
2.0677

> <Gold.PLP.part.nonpolar>
-44.3187

> <Gold.PLP.part.repulsive>
0.1075

> <Gold.PLP.ligand.clash>
0.0665

> <Gold.PLP.ligand.torsion>
0.5538

> <Gold.PLP.Chemscore.Hbond>
1.0422

> <Gold.PLP.Chemscore.CHOScore>
0.0000

> <Gold.PLP.Chemscore.Metal>
0.0000

> <Gold.Chemscore.Hbonds>
donor molecule, donor type, donor heavy atom, donor atom, acceptor molecule, acceptor atom, score
      L1  H    15    27       P1  8028  0.78
      P1  H  7997  8010       L1    14  0.25

> <Gold.PLP.Chemscore.Internal.Correction>
0.3207

> <Gold.Rescore>
     Score         DG    S(hbond)    S(metal)    S(lipo)     H(rot)  DE(clash)    DE(int)     intcor
     10.38     -16.39       1.09        0.00      95.89       1.54       0.06       5.95       ----

> <Gold.Chemscore.Fitness>
10.3839

> <Gold.Chemscore.DG>
-16.3914

> <Gold.Chemscore.ZeroCoef>
-5.4800

> <Gold.Chemscore.Hbond>
1.0868

> <Gold.Chemscore.Metal>
0.0000

> <Gold.Chemscore.Lipo>
95.8935

> <Gold.Chemscore.Internal_Hbond>
0.0000

> <Gold.Chemscore.DEClash>
0.0605

> <Gold.Chemscore.DEInternal>
5.9470

> <Gold.Chemscore.Rot>
1.5383

> <Gold.Chemscore.Internal.Correction>
   9.000000E+99

> <Gold.Chemscore.Hbonds>
donor molecule, donor type, donor heavy atom, donor atom, acceptor molecule, acceptor atom, score
      L1  H    15    27       P1  8028  0.78
      P1  H  7997  8010       L1    14  0.25

> <Gold.Chemscore.Hbond.Weighted>
-3.6299

> <Gold.Chemscore.Metal.Weighted>
-0.0000

> <Gold.Chemscore.Lipo.Weighted>
-11.2195

> <Gold.Chemscore.Internal_Hbond.Weighted>
0.0000

> <Gold.Chemscore.DEClash.Weighted>
0.0605

> <Gold.Chemscore.DEInternal.Weighted>
5.9470

> <Gold.Chemscore.Rot.Weighted>
3.9380

> <Gold.Chemscore.Internal.Correction.Weighted>
   9.000000E+99

> <Gold.Protein.RotatedTorsions>
[ 6907 6896 6895 6894 ] final   60.30 input  -60.11 | X-H torsion
[ 7974 7965 7964 7962 ] final  -39.91 input  175.53 | X-H torsion
[ 8008 7997 7996 7995 ] final   37.96 input   59.86 | X-H torsion
[ 10167 10162 10161 10158 ] final  -29.58 input  -65.29 | X-H torsion
[ 10718 10713 10712 10709 ] final  149.80 input   66.30 | X-H torsion
[ 10763 10752 10751 10750 ] final -126.27 input  -60.55 | X-H torsion
[ 11005 11000 10999 10996 ] final  136.42 input  -57.11 | X-H torsion

> <Gold.Protein.ActiveResidues>
 VAL166  LYS551  ARG553  GLY616  TRP617  ASP618  TYR619  PRO620  LYS621  CYS622 
 ASP623  PHE694  ASN695  SER759  ASP760  ASP761  ALA762  ILE779  LEU786  VAL792 
 PHE793  MET794  SER795  GLU796  ALA797  LYS798  CYS799  TRP800  GLU811  SER814 

> <Gold.Protein.RotatedAtoms>
  152.3991  134.6316  160.0076 H   0  0  0  0  0  0  0  0  0  0  0  0  # atno 6907 bound_to 6896
  151.6527  133.3314  159.3163 H   0  0  0  0  0  0  0  0  0  0  0  0  # atno 6908 bound_to 6896
  150.7894  134.6948  159.6562 H   0  0  0  0  0  0  0  0  0  0  0  0  # atno 6909 bound_to 6896
  146.0353  140.6679  142.9113 H   0  0  0  0  0  0  0  0  0  0  0  0  # atno 7974 bound_to 7965
  155.2124  140.3324  155.4327 H   0  0  0  0  0  0  0  0  0  0  0  0  # atno 8008 bound_to 7997
  156.2365  140.1875  156.7153 H   0  0  0  0  0  0  0  0  0  0  0  0  # atno 8009 bound_to 7997
  154.6069  140.0614  156.9429 H   0  0  0  0  0  0  0  0  0  0  0  0  # atno 8010 bound_to 7997
  140.7259  143.3917  151.1418 H   0  0  0  0  0  0  0  0  0  0  0  0  # atno 10167 bound_to 10162
  157.2915  131.0854  151.1458 H   0  0  0  0  0  0  0  0  0  0  0  0  # atno 10718 bound_to 10713
  154.8744  135.4001  154.3403 H   0  0  0  0  0  0  0  0  0  0  0  0  # atno 10763 bound_to 10752
  153.4204  135.7023  153.6304 H   0  0  0  0  0  0  0  0  0  0  0  0  # atno 10764 bound_to 10752
  153.4968  135.3736  155.2490 H   0  0  0  0  0  0  0  0  0  0  0  0  # atno 10765 bound_to 10752
  140.0045  134.9465  157.0144 H   0  0  0  0  0  0  0  0  0  0  0  0  # atno 11005 bound_to 11000
  144.7049  140.3809  143.7126 LP  0  0  0  0  0  0  0  0  0  0  0  0  # atno 17320 bound_to 7965
  145.6974  139.1653  143.2612 LP  0  0  0  0  0  0  0  0  0  0  0  0  # atno 17321 bound_to 7965
  139.7523  143.8759  152.3080 LP  0  0  0  0  0  0  0  0  0  0  0  0  # atno 17342 bound_to 10162
  139.8617  144.7113  150.9091 LP  0  0  0  0  0  0  0  0  0  0  0  0  # atno 17343 bound_to 10162
  157.2853  130.6770  149.6086 LP  0  0  0  0  0  0  0  0  0  0  0  0  # atno 17370 bound_to 10713
  155.9667  130.4437  150.5433 LP  0  0  0  0  0  0  0  0  0  0  0  0  # atno 17371 bound_to 10713
  140.4667  134.1428  155.7198 LP  0  0  0  0  0  0  0  0  0  0  0  0  # atno 17394 bound_to 11000
  141.1666  133.8690  157.1695 LP  0  0  0  0  0  0  0  0  0  0  0  0  # atno 17395 bound_to 11000

$$$$
