AV-unprocessed.smi:2906|AV-procd|sdf|11162|dock7
  -GOLD-   2272016 53D 1   1.00000     0.00000
 Structure written by MMmdl.
 40 41  0  0  0  0  0  0  0  0  1 V2000
  147.6255  135.4725  155.3232 C   0  0  0  0  0  0  0  0  0  0  0  0
  148.2404  136.8616  155.0878 C   0  0  0  0  0  0  0  0  0  0  0  0
  147.2206  137.9241  154.6437 C   0  0  0  0  0  0  0  0  0  0  0  0
  146.0340  137.6186  154.5156 O   0  0  0  0  0  0  0  0  0  0  0  0
  147.6658  139.1762  154.4077 N   0  0  0  0  0  0  0  0  0  0  0  0
  146.7936  140.2743  154.0049 C   0  0  0  0  0  0  0  0  0  0  0  0
  147.7073  141.4059  153.5375 C   0  0  0  0  0  0  0  0  0  0  0  0
  149.0925  141.0954  154.1052 C   0  0  1  0  0  0  0  0  0  0  0  0
  149.4387  141.9972  155.2007 N   0  0  0  0  0  0  0  0  0  0  0  0
  150.3485  141.7395  156.1513 C   0  0  0  0  0  0  0  0  0  0  0  0
  150.9934  140.6917  156.2060 O   0  0  0  0  0  0  0  0  0  0  0  0
  150.4534  142.7644  157.0153 N   0  0  0  0  0  0  0  0  0  0  0  0
  151.2899  142.8653  158.1574 C   0  0  0  0  0  0  0  0  0  0  0  0
  151.8947  141.8255  158.7422 N   0  0  0  0  0  0  0  0  0  0  0  0
  152.6578  142.2105  159.8488 C   0  0  0  0  0  0  0  0  0  0  0  0
  153.4136  141.1781  160.6288 C   0  0  0  0  0  0  0  0  0  0  0  0
  153.7913  141.6696  162.0306 C   0  0  0  0  0  0  0  0  0  0  0  0
  152.6169  143.5620  160.0918 C   0  0  0  0  0  0  0  0  0  0  0  0
  151.6175  144.4043  158.9381 S   0  0  0  0  0  0  0  0  0  0  0  0
  149.0475  139.6263  154.5580 C   0  0  0  0  0  0  0  0  0  0  0  0
  148.3908  134.7609  155.6330 H   0  0  0  0  0  0  0  0  0  0  0  0
  147.1622  135.0820  154.4165 H   0  0  0  0  0  0  0  0  0  0  0  0
  146.8669  135.5002  156.1064 H   0  0  0  0  0  0  0  0  0  0  0  0
  148.7224  137.1953  156.0071 H   0  0  0  0  0  0  0  0  0  0  0  0
  149.0199  136.7815  154.3295 H   0  0  0  0  0  0  0  0  0  0  0  0
  146.0995  139.9797  153.2163 H   0  0  0  0  0  0  0  0  0  0  0  0
  146.2067  140.5908  154.8682 H   0  0  0  0  0  0  0  0  0  0  0  0
  147.7580  141.3952  152.4479 H   0  0  0  0  0  0  0  0  0  0  0  0
  147.3298  142.3870  153.8290 H   0  0  0  0  0  0  0  0  0  0  0  0
  149.8340  141.2183  153.3133 H   0  0  0  0  0  0  0  0  0  0  0  0
  148.9523  142.8811  155.2327 H   0  0  0  0  0  0  0  0  0  0  0  0
  149.8663  143.5656  156.8360 H   0  0  0  0  0  0  0  0  0  0  0  0
  152.8205  140.2673  160.7166 H   0  0  0  0  0  0  0  0  0  0  0  0
  154.3189  140.8939  160.0913 H   0  0  0  0  0  0  0  0  0  0  0  0
  154.3356  140.9003  162.5782 H   0  0  0  0  0  0  0  0  0  0  0  0
  152.9039  141.9265  162.6096 H   0  0  0  0  0  0  0  0  0  0  0  0
  154.4270  142.5541  161.9799 H   0  0  0  0  0  0  0  0  0  0  0  0
  153.1138  144.1113  160.8774 H   0  0  0  0  0  0  0  0  0  0  0  0
  149.3764  139.5036  155.5914 H   0  0  0  0  0  0  0  0  0  0  0  0
  149.7054  139.0255  153.9286 H   0  0  0  0  0  0  0  0  0  0  0  0
  1  2  1  0  0  0  0
  1 21  1  0  0  0  0
  1 22  1  0  0  0  0
  1 23  1  0  0  0  0
  2  3  1  0  0  0  0
  2 24  1  0  0  0  0
  2 25  1  0  0  0  0
  3  4  2  0  0  0  0
  3  5  1  0  0  0  0
  5 20  1  0  0  0  0
  5  6  1  0  0  0  0
  6  7  1  0  0  0  0
  6 26  1  0  0  0  0
  6 27  1  0  0  0  0
  7  8  1  0  0  0  0
  7 28  1  0  0  0  0
  7 29  1  0  0  0  0
  8  9  1  0  0  0  0
  8 20  1  0  0  0  0
  8 30  1  0  0  0  0
  9 10  1  0  0  0  0
  9 31  1  0  0  0  0
 10 11  2  0  0  0  0
 10 12  1  0  0  0  0
 12 13  1  0  0  0  0
 12 32  1  0  0  0  0
 13 19  1  0  0  0  0
 13 14  2  0  0  0  0
 14 15  1  0  0  0  0
 15 16  1  0  0  0  0
 15 18  2  0  0  0  0
 16 17  1  0  0  0  0
 16 33  1  0  0  0  0
 16 34  1  0  0  0  0
 17 35  1  0  0  0  0
 17 36  1  0  0  0  0
 17 37  1  0  0  0  0
 18 19  1  0  0  0  0
 18 38  1  0  0  0  0
 20 39  1  0  0  0  0
 20 40  1  0  0  0  0
M  END
> <s_m_source_file>
AV-unprocessed.smi

> <i_m_source_file_index>
2906

> <i_lp_mmshare_version>
43012

> <i_f3d_flags>
0

> <s_epik_input>
W0NIM11bQ0gyXUMoPU8pTjFbQ0gyXVtDSDJdW0NASF0oW0NIMl0xKVtOSF1DKD1PKVtOSF1jMm5jKFtjSF1zMilbQ0gyXVtDSDNd

> <s_epik_cmdline>
J2VwaWtfcHl0aG9uJywgJy1waCcsICc3LjAnLCAnLXRuJywgJzgnLCAnLW1hJywgJzIwMCcsICctbWV0YWxfYmluZGluZycsICctaW1hZScsICc8aW5maWxlLm1hZT4nLCAnLW9tYWUnLCAnPG91dGZpbGUubWFlPic=

> <r_lp_tautomer_probability>
1

> <r_epik_Ionization_Penalty>
0.000174744

> <r_epik_Ionization_Penalty_Charging>
0

> <r_epik_Ionization_Penalty_Neutral>
0.000174744

> <r_epik_State_Penalty>
-0

> <r_epik_Charging_Adjusted_Penalty>
0

> <i_epik_Tot_Q>
0

> <i_epik_Tot_abs_Q>
0

> <r_epik_Metal_State_Penalty>
0.0273865

> <b_epik_Metal_Only>
0

> <s_lp_Force_Field>
OPLS_2005

> <r_lp_Energy>
22.1367

> <b_lp_Chiralities_Consistent>
1

> <s_lp_Variant>
AV-unprocessed.smi:2906-1

> <Gold.Version>
5.8.1

> <Gold.Id.Protein>
6NUR|6NUR_protein|mol2

> <Gold.PLP.Fitness>
42.4979

> <Gold.PLP.PLP>
-37.7557

> <Gold.PLP.part.hbond>
-2.0000

> <Gold.PLP.part.metal>
0.0000

> <Gold.PLP.part.buried>
-3.7636

> <Gold.PLP.part.nonpolar>
-32.2602

> <Gold.PLP.part.repulsive>
0.3187

> <Gold.PLP.ligand.clash>
0.0000

> <Gold.PLP.ligand.torsion>
0.6319

> <Gold.PLP.Chemscore.Hbond>
2.0000

> <Gold.PLP.Chemscore.CHOScore>
0.0000

> <Gold.PLP.Chemscore.Metal>
0.0000

> <Gold.Chemscore.Hbonds>
donor molecule, donor type, donor heavy atom, donor atom, acceptor molecule, acceptor atom, score
      L1  H     9    31       P1  8028  1.00
      L1  H    12    32       P1  8028  1.00

> <Gold.PLP.Chemscore.Internal.Correction>
0.0060

> <Gold.Rescore>
     Score         DG    S(hbond)    S(metal)    S(lipo)     H(rot)  DE(clash)    DE(int)     intcor
     15.28     -18.66       1.96        0.00      87.58       1.41       0.07       3.32       ----

> <Gold.Chemscore.Fitness>
15.2752

> <Gold.Chemscore.DG>
-18.6629

> <Gold.Chemscore.ZeroCoef>
-5.4800

> <Gold.Chemscore.Hbond>
1.9598

> <Gold.Chemscore.Metal>
0.0000

> <Gold.Chemscore.Lipo>
87.5842

> <Gold.Chemscore.Internal_Hbond>
0.0000

> <Gold.Chemscore.DEClash>
0.0711

> <Gold.Chemscore.DEInternal>
3.3166

> <Gold.Chemscore.Rot>
1.4102

> <Gold.Chemscore.Internal.Correction>
   9.000000E+99

> <Gold.Chemscore.Hbonds>
donor molecule, donor type, donor heavy atom, donor atom, acceptor molecule, acceptor atom, score
      L1  H     9    31       P1  8028  0.96
      L1  H    12    32       P1  8028  0.96

> <Gold.Chemscore.Hbond.Weighted>
-6.5456

> <Gold.Chemscore.Metal.Weighted>
-0.0000

> <Gold.Chemscore.Lipo.Weighted>
-10.2473

> <Gold.Chemscore.Internal_Hbond.Weighted>
0.0000

> <Gold.Chemscore.DEClash.Weighted>
0.0711

> <Gold.Chemscore.DEInternal.Weighted>
3.3166

> <Gold.Chemscore.Rot.Weighted>
3.6101

> <Gold.Chemscore.Internal.Correction.Weighted>
   9.000000E+99

> <Gold.Protein.RotatedTorsions>
[ 6907 6896 6895 6894 ] final   21.03 input  -60.11 | X-H torsion
[ 7974 7965 7964 7962 ] final  -87.60 input  175.53 | X-H torsion
[ 8008 7997 7996 7995 ] final   58.78 input   59.86 | X-H torsion
[ 10167 10162 10161 10158 ] final   34.14 input  -65.29 | X-H torsion
[ 10718 10713 10712 10709 ] final -109.00 input   66.30 | X-H torsion
[ 10763 10752 10751 10750 ] final   74.34 input  -60.55 | X-H torsion
[ 11005 11000 10999 10996 ] final   69.72 input  -57.11 | X-H torsion

> <Gold.Protein.ActiveResidues>
 VAL166  LYS551  ARG553  GLY616  TRP617  ASP618  TYR619  PRO620  LYS621  CYS622 
 ASP623  PHE694  ASN695  SER759  ASP760  ASP761  ALA762  ILE779  LEU786  VAL792 
 PHE793  MET794  SER795  GLU796  ALA797  LYS798  CYS799  TRP800  GLU811  SER814 

> <Gold.Protein.RotatedAtoms>
  151.9055  135.0361  160.0509 H   0  0  0  0  0  0  0  0  0  0  0  0  # atno 6907 bound_to 6896
  152.2323  133.5064  159.5231 H   0  0  0  0  0  0  0  0  0  0  0  0  # atno 6908 bound_to 6896
  150.7029  134.1116  159.4045 H   0  0  0  0  0  0  0  0  0  0  0  0  # atno 6909 bound_to 6896
  145.4644  140.9560  143.1952 H   0  0  0  0  0  0  0  0  0  0  0  0  # atno 7974 bound_to 7965
  155.5555  140.3487  155.4478 H   0  0  0  0  0  0  0  0  0  0  0  0  # atno 8008 bound_to 7997
  156.0552  140.1327  157.0030 H   0  0  0  0  0  0  0  0  0  0  0  0  # atno 8009 bound_to 7997
  154.4453  140.0996  156.6420 H   0  0  0  0  0  0  0  0  0  0  0  0  # atno 8010 bound_to 7997
  140.4343  144.1280  150.6164 H   0  0  0  0  0  0  0  0  0  0  0  0  # atno 10167 bound_to 10162
  156.0514  130.5742  150.8040 H   0  0  0  0  0  0  0  0  0  0  0  0  # atno 10718 bound_to 10713
  153.0580  135.5029  154.8027 H   0  0  0  0  0  0  0  0  0  0  0  0  # atno 10763 bound_to 10752
  154.6838  135.2973  154.9578 H   0  0  0  0  0  0  0  0  0  0  0  0  # atno 10764 bound_to 10752
  154.0356  135.6724  153.4837 H   0  0  0  0  0  0  0  0  0  0  0  0  # atno 10765 bound_to 10752
  139.9638  134.7016  156.0590 H   0  0  0  0  0  0  0  0  0  0  0  0  # atno 11005 bound_to 11000
  144.7983  139.6190  143.7083 LP  0  0  0  0  0  0  0  0  0  0  0  0  # atno 17320 bound_to 7965
  146.2433  139.6045  142.9477 LP  0  0  0  0  0  0  0  0  0  0  0  0  # atno 17321 bound_to 7965
  140.4392  143.2534  151.9496 LP  0  0  0  0  0  0  0  0  0  0  0  0  # atno 17342 bound_to 10162
  139.4786  144.5671  151.8148 LP  0  0  0  0  0  0  0  0  0  0  0  0  # atno 17343 bound_to 10162
  157.5444  131.0942  150.9782 LP  0  0  0  0  0  0  0  0  0  0  0  0  # atno 17370 bound_to 10713
  157.0057  130.5617  149.5316 LP  0  0  0  0  0  0  0  0  0  0  0  0  # atno 17371 bound_to 10713
  141.1316  133.6585  156.3481 LP  0  0  0  0  0  0  0  0  0  0  0  0  # atno 17394 bound_to 11000
  140.5442  134.6090  157.5389 LP  0  0  0  0  0  0  0  0  0  0  0  0  # atno 17395 bound_to 11000

$$$$
