AV-unprocessed.smi:234|AV-procd|sdf|1794|dock10
  -GOLD-   2262020363D 1   1.00000     0.00000
 Structure written by MMmdl.
 59 62  0  0  0  0  0  0  0  0  1 V2000
  152.0702  143.3638  162.3040 C   0  0  0  0  0  0  0  0  0  0  0  0
  152.5783  142.3667  161.2607 C   0  0  0  0  0  0  0  0  0  0  0  0
  151.5386  142.1075  160.3326 O   0  0  0  0  0  0  0  0  0  0  0  0
  151.9895  142.0607  158.9876 C   0  0  1  0  0  0  0  0  0  0  0  0
  151.9617  140.6411  158.4251 C   0  0  0  0  0  0  0  0  0  0  0  0
  151.5505  141.2933  157.0990 C   0  0  1  0  0  0  0  0  0  0  0  0
  150.5845  140.5172  156.3173 N   0  0  0  0  0  0  0  0  0  0  0  0
  149.8608  141.2229  155.2683 C   0  0  0  0  0  0  0  0  0  0  0  0
  150.9941  139.2996  155.8924 C   0  0  0  0  0  0  0  0  0  0  0  0
  151.4062  139.2024  154.6036 N   0  0  0  0  0  0  0  0  0  0  0  0
  151.8117  138.0258  154.1170 C   0  0  0  0  0  0  0  0  0  0  0  0
  151.8853  136.8463  154.7371 N   0  0  0  0  0  0  0  0  0  0  0  0
  151.4847  136.9434  156.0373 C   0  0  0  0  0  0  0  0  0  0  0  0
  151.0342  138.1228  156.6947 C   0  0  0  0  0  0  0  0  0  0  0  0
  150.7306  137.8367  158.0207 N   0  0  0  0  0  0  0  0  0  0  0  0
  150.9703  136.5593  158.1354 C   0  0  0  0  0  0  0  0  0  0  0  0
  151.4167  135.9415  156.9894 N   0  0  0  0  0  0  0  0  0  0  0  0
  151.7437  134.5333  156.8325 C   0  0  0  0  0  0  0  0  0  0  0  0
  150.7622  133.7808  155.9032 C   0  0  1  0  0  0  0  0  0  0  0  0
  149.4511  133.9167  156.4291 O   0  0  0  0  0  0  0  0  0  0  0  0
  150.7618  134.2795  154.4657 C   0  0  0  0  0  0  0  0  0  0  0  0
  150.2324  133.0749  153.6982 C   0  0  0  0  0  0  0  0  0  0  0  0
  150.7689  131.9459  154.3762 O   0  0  0  0  0  0  0  0  0  0  0  0
  151.1232  132.2913  155.7151 C   0  0  2  0  0  0  0  0  0  0  0  0
  150.5081  131.3022  156.7181 C   0  0  0  0  0  0  0  0  0  0  0  0
  150.9409  142.4664  157.9169 C   0  0  0  0  0  0  0  0  0  0  0  0
  149.4681  142.3374  158.3462 C   0  0  0  0  0  0  0  0  0  0  0  0
  151.1203  143.8613  157.3155 C   0  0  0  0  0  0  0  0  0  0  0  0
  152.8431  143.5851  163.0401 H   0  0  0  0  0  0  0  0  0  0  0  0
  151.2045  142.9674  162.8352 H   0  0  0  0  0  0  0  0  0  0  0  0
  151.7753  144.3027  161.8348 H   0  0  0  0  0  0  0  0  0  0  0  0
  153.4511  142.7775  160.7531 H   0  0  0  0  0  0  0  0  0  0  0  0
  152.8854  141.4401  161.7480 H   0  0  0  0  0  0  0  0  0  0  0  0
  152.9674  142.5256  158.8400 H   0  0  0  0  0  0  0  0  0  0  0  0
  152.9297  140.1395  158.4069 H   0  0  0  0  0  0  0  0  0  0  0  0
  151.1884  140.0131  158.8713 H   0  0  0  0  0  0  0  0  0  0  0  0
  152.4186  141.6195  156.5231 H   0  0  0  0  0  0  0  0  0  0  0  0
  149.0576  140.6067  154.8618 H   0  0  0  0  0  0  0  0  0  0  0  0
  150.5341  141.4918  154.4533 H   0  0  0  0  0  0  0  0  0  0  0  0
  149.4107  142.1375  155.6511 H   0  0  0  0  0  0  0  0  0  0  0  0
  152.1177  138.0291  153.0812 H   0  0  0  0  0  0  0  0  0  0  0  0
  150.8194  136.0265  159.0631 H   0  0  0  0  0  0  0  0  0  0  0  0
  152.7614  134.4624  156.4463 H   0  0  0  0  0  0  0  0  0  0  0  0
  151.7593  134.0709  157.8205 H   0  0  0  0  0  0  0  0  0  0  0  0
  149.3443  134.8041  156.7363 H   0  0  0  0  0  0  0  0  0  0  0  0
  150.1696  135.1827  154.3117 H   0  0  0  0  0  0  0  0  0  0  0  0
  151.7818  134.4880  154.1403 H   0  0  0  0  0  0  0  0  0  0  0  0
  149.1436  133.0352  153.7511 H   0  0  0  0  0  0  0  0  0  0  0  0
  150.5208  133.0858  152.6471 H   0  0  0  0  0  0  0  0  0  0  0  0
  152.2087  132.1898  155.7608 H   0  0  0  0  0  0  0  0  0  0  0  0
  150.7658  131.5712  157.7428 H   0  0  0  0  0  0  0  0  0  0  0  0
  150.8767  130.2922  156.5379 H   0  0  0  0  0  0  0  0  0  0  0  0
  149.4210  131.2713  156.6396 H   0  0  0  0  0  0  0  0  0  0  0  0
  148.7872  142.4939  157.5097 H   0  0  0  0  0  0  0  0  0  0  0  0
  149.2094  143.0706  159.1103 H   0  0  0  0  0  0  0  0  0  0  0  0
  149.2451  141.3545  158.7612 H   0  0  0  0  0  0  0  0  0  0  0  0
  150.4879  144.0078  156.4401 H   0  0  0  0  0  0  0  0  0  0  0  0
  152.1502  144.0299  156.9994 H   0  0  0  0  0  0  0  0  0  0  0  0
  150.8710  144.6445  158.0313 H   0  0  0  0  0  0  0  0  0  0  0  0
  1  2  1  0  0  0  0
  1 29  1  0  0  0  0
  1 30  1  0  0  0  0
  1 31  1  0  0  0  0
  2  3  1  0  0  0  0
  2 32  1  0  0  0  0
  2 33  1  0  0  0  0
  3  4  1  0  0  0  0
  4 26  1  0  0  0  0
  4  5  1  0  0  0  0
  4 34  1  0  0  0  0
  5  6  1  0  0  0  0
  5 35  1  0  0  0  0
  5 36  1  0  0  0  0
  6  7  1  0  0  0  0
  6 26  1  0  0  0  0
  6 37  1  0  0  0  0
  7  8  1  0  0  0  0
  7  9  1  0  0  0  0
  8 38  1  0  0  0  0
  8 39  1  0  0  0  0
  8 40  1  0  0  0  0
  9 14  1  0  0  0  0
  9 10  2  0  0  0  0
 10 11  1  0  0  0  0
 11 12  2  0  0  0  0
 11 41  1  0  0  0  0
 12 13  1  0  0  0  0
 13 17  1  0  0  0  0
 13 14  2  0  0  0  0
 14 15  1  0  0  0  0
 15 16  2  0  0  0  0
 16 17  1  0  0  0  0
 16 42  1  0  0  0  0
 17 18  1  0  0  0  0
 18 19  1  0  0  0  0
 18 43  1  0  0  0  0
 18 44  1  0  0  0  0
 19 24  1  0  0  0  0
 19 20  1  0  0  0  0
 19 21  1  0  0  0  0
 20 45  1  0  0  0  0
 21 22  1  0  0  0  0
 21 46  1  0  0  0  0
 21 47  1  0  0  0  0
 22 23  1  0  0  0  0
 22 48  1  0  0  0  0
 22 49  1  0  0  0  0
 23 24  1  0  0  0  0
 24 25  1  0  0  0  0
 24 50  1  0  0  0  0
 25 51  1  0  0  0  0
 25 52  1  0  0  0  0
 25 53  1  0  0  0  0
 26 27  1  0  0  0  0
 26 28  1  0  0  0  0
 27 54  1  0  0  0  0
 27 55  1  0  0  0  0
 27 56  1  0  0  0  0
 28 57  1  0  0  0  0
 28 58  1  0  0  0  0
 28 59  1  0  0  0  0
M  END
> <s_m_source_file>
AV-unprocessed.smi

> <i_m_source_file_index>
234

> <i_lp_mmshare_version>
43012

> <i_f3d_flags>
0

> <s_epik_input>
W0NIM11bQ0gyXU9bQ0BASF0oQzEoW0NIM10pW0NIM10pW0NIMl1bQ0BIXTFOKFtDSDNdKWMobltjSF1uMiljKGMyMyluW2NIXW4zW0NIMl1bQ0BAXTQoW09IXSlbQ0gyXVtDSDJdT1tDQEhdNFtDSDNd

> <s_epik_cmdline>
J2VwaWtfcHl0aG9uJywgJy1waCcsICc3LjAnLCAnLXRuJywgJzgnLCAnLW1hJywgJzIwMCcsICctbWV0YWxfYmluZGluZycsICctaW1hZScsICc8aW5maWxlLm1hZT4nLCAnLW9tYWUnLCAnPG91dGZpbGUubWFlPic=

> <r_lp_tautomer_probability>
1

> <r_epik_Ionization_Penalty>
0.00349132

> <r_epik_Ionization_Penalty_Charging>
0

> <r_epik_Ionization_Penalty_Neutral>
0.00349132

> <r_epik_State_Penalty>
0.00242418

> <r_epik_Charging_Adjusted_Penalty>
0.00242418

> <i_epik_Tot_Q>
0

> <i_epik_Tot_abs_Q>
0

> <r_epik_Metal_State_Penalty>
-0

> <b_epik_Metal_Only>
0

> <s_lp_Force_Field>
OPLS_2005

> <r_lp_Energy>
47.8711

> <b_lp_Chiralities_Consistent>
1

> <s_lp_Variant>
AV-unprocessed.smi:234-10

> <Gold.Version>
5.8.1

> <Gold.Id.Protein>
6NUR|6NUR_protein|mol2

> <Gold.PLP.Fitness>
49.0307

> <Gold.PLP.PLP>
-42.8742

> <Gold.PLP.part.hbond>
-2.3254

> <Gold.PLP.part.metal>
0.0000

> <Gold.PLP.part.buried>
-5.5284

> <Gold.PLP.part.nonpolar>
-35.0340

> <Gold.PLP.part.repulsive>
0.3695

> <Gold.PLP.ligand.clash>
0.0000

> <Gold.PLP.ligand.torsion>
1.6285

> <Gold.PLP.Chemscore.Hbond>
2.0000

> <Gold.PLP.Chemscore.CHOScore>
0.8678

> <Gold.PLP.Chemscore.Metal>
0.0000

> <Gold.Chemscore.Hbonds>
donor molecule, donor type, donor heavy atom, donor atom, acceptor molecule, acceptor atom, score
      P1  H  7989  7998       L1    10  1.00
      P1  H 10752 10763       L1    12  1.00
      L1  C    11    41       P1  7949  0.35

> <Gold.PLP.Chemscore.Internal.Correction>
0.8100

> <Gold.Rescore>
     Score         DG    S(hbond)    S(metal)    S(lipo)     H(rot)  DE(clash)    DE(int)     intcor
     11.60     -16.28       1.25        0.00     113.98       2.62       0.35       4.34       ----

> <Gold.Chemscore.Fitness>
11.5957

> <Gold.Chemscore.DG>
-16.2823

> <Gold.Chemscore.ZeroCoef>
-5.4800

> <Gold.Chemscore.Hbond>
1.2513

> <Gold.Chemscore.Metal>
0.0000

> <Gold.Chemscore.Lipo>
113.9764

> <Gold.Chemscore.Internal_Hbond>
0.0000

> <Gold.Chemscore.DEClash>
0.3472

> <Gold.Chemscore.DEInternal>
4.3394

> <Gold.Chemscore.Rot>
2.6219

> <Gold.Chemscore.Internal.Correction>
   9.000000E+99

> <Gold.Chemscore.Hbonds>
donor molecule, donor type, donor heavy atom, donor atom, acceptor molecule, acceptor atom, score
      P1  H  7989  7998       L1    10  0.91
      P1  H 10752 10763       L1    12  0.86

> <Gold.Chemscore.Hbond.Weighted>
-4.1792

> <Gold.Chemscore.Metal.Weighted>
-0.0000

> <Gold.Chemscore.Lipo.Weighted>
-13.3352

> <Gold.Chemscore.Internal_Hbond.Weighted>
0.0000

> <Gold.Chemscore.DEClash.Weighted>
0.3472

> <Gold.Chemscore.DEInternal.Weighted>
4.3394

> <Gold.Chemscore.Rot.Weighted>
6.7121

> <Gold.Chemscore.Internal.Correction.Weighted>
   9.000000E+99

> <Gold.Protein.RotatedTorsions>
[ 6907 6896 6895 6894 ] final  100.62 input  -60.11 | X-H torsion
[ 7974 7965 7964 7962 ] final   80.29 input  175.53 | X-H torsion
[ 8008 7997 7996 7995 ] final -114.61 input   59.86 | X-H torsion
[ 10167 10162 10161 10158 ] final -135.45 input  -65.29 | X-H torsion
[ 10718 10713 10712 10709 ] final  -85.32 input   66.30 | X-H torsion
[ 10763 10752 10751 10750 ] final   51.80 input  -60.55 | X-H torsion
[ 11005 11000 10999 10996 ] final  172.26 input  -57.11 | X-H torsion

> <Gold.Protein.ActiveResidues>
 VAL166  LYS551  ARG553  GLY616  TRP617  ASP618  TYR619  PRO620  LYS621  CYS622 
 ASP623  PHE694  ASN695  SER759  ASP760  ASP761  ALA762  ILE779  LEU786  VAL792 
 PHE793  MET794  SER795  GLU796  ALA797  LYS798  CYS799  TRP800  GLU811  SER814 

> <Gold.Protein.RotatedAtoms>
  152.5368  134.0249  159.7998 H   0  0  0  0  0  0  0  0  0  0  0  0  # atno 6907 bound_to 6896
  151.0430  133.5682  159.2656 H   0  0  0  0  0  0  0  0  0  0  0  0  # atno 6908 bound_to 6896
  151.2645  135.0672  159.9164 H   0  0  0  0  0  0  0  0  0  0  0  0  # atno 6909 bound_to 6896
  145.6531  139.2452  143.1965 H   0  0  0  0  0  0  0  0  0  0  0  0  # atno 7974 bound_to 7965
  155.0390  140.0392  157.2502 H   0  0  0  0  0  0  0  0  0  0  0  0  # atno 8008 bound_to 7997
  154.7232  140.2716  155.6498 H   0  0  0  0  0  0  0  0  0  0  0  0  # atno 8009 bound_to 7997
  156.2822  140.2698  156.1910 H   0  0  0  0  0  0  0  0  0  0  0  0  # atno 8010 bound_to 7997
  139.8777  143.6878  152.2631 H   0  0  0  0  0  0  0  0  0  0  0  0  # atno 10167 bound_to 10162
  155.9998  130.4727  150.4544 H   0  0  0  0  0  0  0  0  0  0  0  0  # atno 10718 bound_to 10713
  152.9786  135.5834  154.4474 H   0  0  0  0  0  0  0  0  0  0  0  0  # atno 10763 bound_to 10752
  154.4067  135.2769  155.2064 H   0  0  0  0  0  0  0  0  0  0  0  0  # atno 10764 bound_to 10752
  154.3872  135.6133  153.5877 H   0  0  0  0  0  0  0  0  0  0  0  0  # atno 10765 bound_to 10752
  140.3278  134.7383  157.4112 H   0  0  0  0  0  0  0  0  0  0  0  0  # atno 11005 bound_to 11000
  146.1187  140.7336  142.9468 LP  0  0  0  0  0  0  0  0  0  0  0  0  # atno 17320 bound_to 7965
  144.7115  140.4057  143.7076 LP  0  0  0  0  0  0  0  0  0  0  0  0  # atno 17321 bound_to 7965
  139.7225  144.7600  151.0933 LP  0  0  0  0  0  0  0  0  0  0  0  0  # atno 17342 bound_to 10162
  140.7750  143.5190  150.9559 LP  0  0  0  0  0  0  0  0  0  0  0  0  # atno 17343 bound_to 10162
  157.2574  131.0559  151.2342 LP  0  0  0  0  0  0  0  0  0  0  0  0  # atno 17370 bound_to 10713
  157.3469  130.7062  149.6416 LP  0  0  0  0  0  0  0  0  0  0  0  0  # atno 17371 bound_to 10713
  140.0887  134.5631  155.8466 LP  0  0  0  0  0  0  0  0  0  0  0  0  # atno 17394 bound_to 11000
  141.2071  133.6661  156.6284 LP  0  0  0  0  0  0  0  0  0  0  0  0  # atno 17395 bound_to 11000

$$$$
