AV-unprocessed.smi:2341|AV-procd|sdf|9352|dock5
  -GOLD-   2272012573D 1   1.00000     0.00000
 Structure written by MMmdl.
 52 54  0  0  0  0  0  0  0  0  2 V2000
  149.4221  129.5226  153.8702 C   0  0  0  0  0  0  0  0  0  0  0  0
  149.5798  131.0239  153.9871 C   0  0  0  0  0  0  0  0  0  0  0  0
  148.8763  131.8998  153.1385 C   0  0  0  0  0  0  0  0  0  0  0  0
  149.0617  133.2873  153.2913 C   0  0  0  0  0  0  0  0  0  0  0  0
  149.9445  133.7659  154.2854 C   0  0  0  0  0  0  0  0  0  0  0  0
  150.0600  135.1798  154.3559 N   0  0  0  0  0  0  0  0  0  0  0  0
  150.6928  135.9165  155.2859 C   0  0  0  0  0  0  0  0  0  0  0  0
  151.2983  135.4696  156.2605 O   0  0  0  0  0  0  0  0  0  0  0  0
  150.5873  137.2271  155.0217 N   0  0  0  0  0  0  0  0  0  0  0  0
  151.1532  138.2950  155.8409 C   0  0  2  0  0  0  0  0  0  0  0  0
  150.5479  138.2512  157.2498 C   0  0  0  0  0  0  0  0  0  0  0  0
  151.0608  139.4110  158.1212 C   0  0  0  0  0  0  0  0  0  0  0  0
  150.7930  140.7364  157.4900 N   0  3  1  0  0  0  0  0  0  0  0  0
  151.1456  141.9378  158.3165 C   0  0  0  0  0  0  0  0  0  0  0  0
  150.9235  143.2979  157.6013 C   0  0  0  0  0  0  0  0  0  0  0  0
  151.3325  144.4910  158.4801 C   0  0  0  0  0  0  0  0  0  0  0  0
  152.7925  144.3762  158.9338 C   0  0  0  0  0  0  0  0  0  0  0  0
  153.0296  143.0464  159.6597 C   0  0  0  0  0  0  0  0  0  0  0  0
  152.6204  141.8513  158.7841 C   0  0  0  0  0  0  0  0  0  0  0  0
  151.3968  140.7987  156.1279 C   0  0  0  0  0  0  0  0  0  0  0  0
  150.8770  139.6735  155.2196 C   0  0  0  0  0  0  0  0  0  0  0  0
  150.6186  132.9139  155.0975 N   0  0  0  0  0  0  0  0  0  0  0  0
  150.4401  131.5844  154.9508 C   0  0  0  0  0  0  0  0  0  0  0  0
  148.5975  129.2620  153.2063 H   0  0  0  0  0  0  0  0  0  0  0  0
  149.2224  129.0843  154.8483 H   0  0  0  0  0  0  0  0  0  0  0  0
  150.3350  129.0779  153.4737 H   0  0  0  0  0  0  0  0  0  0  0  0
  148.2053  131.5197  152.3822 H   0  0  0  0  0  0  0  0  0  0  0  0
  148.5292  133.9731  152.6485 H   0  0  0  0  0  0  0  0  0  0  0  0
  149.6060  135.6884  153.6119 H   0  0  0  0  0  0  0  0  0  0  0  0
  150.0716  137.5061  154.1995 H   0  0  0  0  0  0  0  0  0  0  0  0
  152.2318  138.1470  155.9250 H   0  0  0  0  0  0  0  0  0  0  0  0
  149.4596  138.3025  157.1875 H   0  0  0  0  0  0  0  0  0  0  0  0
  150.7845  137.3003  157.7289 H   0  0  0  0  0  0  0  0  0  0  0  0
  150.5537  139.3275  159.0815 H   0  0  0  0  0  0  0  0  0  0  0  0
  152.1306  139.3016  158.3066 H   0  0  0  0  0  0  0  0  0  0  0  0
  150.4989  141.9353  159.1960 H   0  0  0  0  0  0  0  0  0  0  0  0
  151.4919  143.3275  156.6705 H   0  0  0  0  0  0  0  0  0  0  0  0
  149.8739  143.4318  157.3389 H   0  0  0  0  0  0  0  0  0  0  0  0
  151.1877  145.4227  157.9321 H   0  0  0  0  0  0  0  0  0  0  0  0
  150.6808  144.5426  159.3532 H   0  0  0  0  0  0  0  0  0  0  0  0
  153.4539  144.4475  158.0693 H   0  0  0  0  0  0  0  0  0  0  0  0
  153.0469  145.2098  159.5892 H   0  0  0  0  0  0  0  0  0  0  0  0
  154.0803  142.9599  159.9380 H   0  0  0  0  0  0  0  0  0  0  0  0
  152.4615  143.0300  160.5907 H   0  0  0  0  0  0  0  0  0  0  0  0
  152.8039  140.9404  159.3515 H   0  0  0  0  0  0  0  0  0  0  0  0
  153.2763  141.8023  157.9135 H   0  0  0  0  0  0  0  0  0  0  0  0
  151.1805  141.7514  155.6477 H   0  0  0  0  0  0  0  0  0  0  0  0
  152.4830  140.7342  156.2099 H   0  0  0  0  0  0  0  0  0  0  0  0
  151.3529  139.7477  154.2410 H   0  0  0  0  0  0  0  0  0  0  0  0
  149.8064  139.8032  155.0537 H   0  0  0  0  0  0  0  0  0  0  0  0
  151.0012  130.9511  155.6222 H   0  0  0  0  0  0  0  0  0  0  0  0
  149.7913  140.7752  157.3659 H   0  0  0  0  0  0  0  0  0  0  0  0
  1  2  1  0  0  0  0
  1 24  1  0  0  0  0
  1 25  1  0  0  0  0
  1 26  1  0  0  0  0
  2 23  1  0  0  0  0
  2  3  2  0  0  0  0
  3  4  1  0  0  0  0
  3 27  1  0  0  0  0
  4  5  2  0  0  0  0
  4 28  1  0  0  0  0
  5  6  1  0  0  0  0
  5 22  1  0  0  0  0
  6  7  1  0  0  0  0
  6 29  1  0  0  0  0
  7  8  2  0  0  0  0
  7  9  1  0  0  0  0
  9 10  1  0  0  0  0
  9 30  1  0  0  0  0
 10 21  1  0  0  0  0
 10 11  1  0  0  0  0
 10 31  1  0  0  0  0
 11 12  1  0  0  0  0
 11 32  1  0  0  0  0
 11 33  1  0  0  0  0
 12 13  1  0  0  0  0
 12 34  1  0  0  0  0
 12 35  1  0  0  0  0
 13 14  1  0  0  0  0
 13 20  1  0  0  0  0
 13 52  1  0  0  0  0
 14 19  1  0  0  0  0
 14 15  1  0  0  0  0
 14 36  1  0  0  0  0
 15 16  1  0  0  0  0
 15 37  1  0  0  0  0
 15 38  1  0  0  0  0
 16 17  1  0  0  0  0
 16 39  1  0  0  0  0
 16 40  1  0  0  0  0
 17 18  1  0  0  0  0
 17 41  1  0  0  0  0
 17 42  1  0  0  0  0
 18 19  1  0  0  0  0
 18 43  1  0  0  0  0
 18 44  1  0  0  0  0
 19 45  1  0  0  0  0
 19 46  1  0  0  0  0
 20 21  1  0  0  0  0
 20 47  1  0  0  0  0
 20 48  1  0  0  0  0
 21 49  1  0  0  0  0
 21 50  1  0  0  0  0
 22 23  2  0  0  0  0
 23 51  1  0  0  0  0
M  CHG  1  13   1
M  END
> <s_m_source_file>
AV-unprocessed.smi

> <i_m_source_file_index>
2341

> <i_lp_mmshare_version>
43012

> <i_f3d_flags>
0

> <s_epik_input>
W0NIM11jMVtjSF1bY0hdYyhuW2NIXTEpW05IXUMoPU8pW05IXVtDSF0yW0NIMl1bQ0gyXU4oW0NIMl1bQ0gyXTIpW0NIXTNbQ0gyXVtDSDJdW0NIMl1bQ0gyXVtDSDJdMw==

> <s_epik_cmdline>
J2VwaWtfcHl0aG9uJywgJy1waCcsICc3LjAnLCAnLXRuJywgJzgnLCAnLW1hJywgJzIwMCcsICctbWV0YWxfYmluZGluZycsICctaW1hZScsICc8aW5maWxlLm1hZT4nLCAnLW9tYWUnLCAnPG91dGZpbGUubWFlPic=

> <r_epik_Ionization_Penalty>
0.00176486

> <r_epik_Ionization_Penalty_Charging>
0.00171891

> <r_epik_Ionization_Penalty_Neutral>
4.59494e-05

> <r_epik_State_Penalty>
0.00116222

> <r_epik_Charging_Adjusted_Penalty>
0.00288114

> <i_epik_Tot_Q>
1

> <i_epik_Tot_abs_Q>
1

> <r_epik_Metal_State_Penalty>
-0

> <b_epik_Metal_Only>
0

> <s_lp_Force_Field>
OPLS_2005

> <r_lp_Energy>
29.4095

> <b_lp_Chiralities_Consistent>
1

> <s_lp_Variant>
AV-unprocessed.smi:2341-1

> <Gold.Version>
5.8.1

> <Gold.Id.Protein>
6NUR|6NUR_protein|mol2

> <Gold.PLP.Fitness>
46.3069

> <Gold.PLP.PLP>
-43.4882

> <Gold.PLP.part.hbond>
-1.1203

> <Gold.PLP.part.metal>
0.0000

> <Gold.PLP.part.buried>
-3.2570

> <Gold.PLP.part.nonpolar>
-38.4431

> <Gold.PLP.part.repulsive>
0.1684

> <Gold.PLP.ligand.clash>
0.0000

> <Gold.PLP.ligand.torsion>
0.1106

> <Gold.PLP.Chemscore.Hbond>
1.0000

> <Gold.PLP.Chemscore.CHOScore>
0.0000

> <Gold.PLP.Chemscore.Metal>
0.0000

> <Gold.Chemscore.Hbonds>
donor molecule, donor type, donor heavy atom, donor atom, acceptor molecule, acceptor atom, score
      L1  H     6    29       P1  7948  0.90

> <Gold.PLP.Chemscore.Internal.Correction>
0.0398

> <Gold.Rescore>
     Score         DG    S(hbond)    S(metal)    S(lipo)     H(rot)  DE(clash)    DE(int)     intcor
     17.30     -18.78       0.80        0.00     116.89       1.19       0.12       1.37       ----

> <Gold.Chemscore.Fitness>
17.2962

> <Gold.Chemscore.DG>
-18.7825

> <Gold.Chemscore.ZeroCoef>
-5.4800

> <Gold.Chemscore.Hbond>
0.8017

> <Gold.Chemscore.Metal>
0.0000

> <Gold.Chemscore.Lipo>
116.8876

> <Gold.Chemscore.Internal_Hbond>
0.0000

> <Gold.Chemscore.DEClash>
0.1176

> <Gold.Chemscore.DEInternal>
1.3686

> <Gold.Chemscore.Rot>
1.1918

> <Gold.Chemscore.Internal.Correction>
   9.000000E+99

> <Gold.Chemscore.Hbonds>
donor molecule, donor type, donor heavy atom, donor atom, acceptor molecule, acceptor atom, score
      L1  H     6    29       P1  7948  0.18

> <Gold.Chemscore.Hbond.Weighted>
-2.6777

> <Gold.Chemscore.Metal.Weighted>
-0.0000

> <Gold.Chemscore.Lipo.Weighted>
-13.6759

> <Gold.Chemscore.Internal_Hbond.Weighted>
0.0000

> <Gold.Chemscore.DEClash.Weighted>
0.1176

> <Gold.Chemscore.DEInternal.Weighted>
1.3686

> <Gold.Chemscore.Rot.Weighted>
3.0511

> <Gold.Chemscore.Internal.Correction.Weighted>
   9.000000E+99

> <Gold.Protein.RotatedTorsions>
[ 6907 6896 6895 6894 ] final   41.93 input  -60.11 | X-H torsion
[ 7974 7965 7964 7962 ] final -161.24 input  175.53 | X-H torsion
[ 8008 7997 7996 7995 ] final   18.42 input   59.86 | X-H torsion
[ 10167 10162 10161 10158 ] final -138.42 input  -65.29 | X-H torsion
[ 10718 10713 10712 10709 ] final   24.67 input   66.30 | X-H torsion
[ 10763 10752 10751 10750 ] final   39.44 input  -60.55 | X-H torsion
[ 11005 11000 10999 10996 ] final  -39.31 input  -57.11 | X-H torsion

> <Gold.Protein.ActiveResidues>
 VAL166  LYS551  ARG553  GLY616  TRP617  ASP618  TYR619  PRO620  LYS621  CYS622 
 ASP623  PHE694  ASN695  SER759  ASP760  ASP761  ALA762  ILE779  LEU786  VAL792 
 PHE793  MET794  SER795  GLU796  ALA797  LYS798  CYS799  TRP800  GLU811  SER814 

> <Gold.Protein.RotatedAtoms>
  152.2015  134.8584  160.0507 H   0  0  0  0  0  0  0  0  0  0  0  0  # atno 6907 bound_to 6896
  151.9436  133.3640  159.3982 H   0  0  0  0  0  0  0  0  0  0  0  0  # atno 6908 bound_to 6896
  150.6956  134.4338  159.5304 H   0  0  0  0  0  0  0  0  0  0  0  0  # atno 6909 bound_to 6896
  144.7398  140.3426  143.6131 H   0  0  0  0  0  0  0  0  0  0  0  0  # atno 7974 bound_to 7965
  154.9058  140.3007  155.5293 H   0  0  0  0  0  0  0  0  0  0  0  0  # atno 8008 bound_to 7997
  156.3017  140.2398  156.4026 H   0  0  0  0  0  0  0  0  0  0  0  0  # atno 8009 bound_to 7997
  154.8475  140.0411  157.1571 H   0  0  0  0  0  0  0  0  0  0  0  0  # atno 8010 bound_to 7997
  139.8480  143.7236  152.2659 H   0  0  0  0  0  0  0  0  0  0  0  0  # atno 10167 bound_to 10162
  157.1830  130.6811  149.6120 H   0  0  0  0  0  0  0  0  0  0  0  0  # atno 10718 bound_to 10713
  152.9967  135.6220  154.2466 H   0  0  0  0  0  0  0  0  0  0  0  0  # atno 10763 bound_to 10752
  154.2205  135.2796  155.2928 H   0  0  0  0  0  0  0  0  0  0  0  0  # atno 10764 bound_to 10752
  154.5532  135.5727  153.6999 H   0  0  0  0  0  0  0  0  0  0  0  0  # atno 10765 bound_to 10752
  141.0093  133.6916  156.2170 H   0  0  0  0  0  0  0  0  0  0  0  0  # atno 11005 bound_to 11000
  145.7358  139.1749  143.2404 LP  0  0  0  0  0  0  0  0  0  0  0  0  # atno 17320 bound_to 7965
  146.1171  140.7355  142.9475 LP  0  0  0  0  0  0  0  0  0  0  0  0  # atno 17321 bound_to 7965
  139.7493  144.7538  151.0530 LP  0  0  0  0  0  0  0  0  0  0  0  0  # atno 17342 bound_to 10162
  140.7791  143.4878  150.9932 LP  0  0  0  0  0  0  0  0  0  0  0  0  # atno 17343 bound_to 10162
  155.9722  130.4640  150.6203 LP  0  0  0  0  0  0  0  0  0  0  0  0  # atno 17370 bound_to 10713
  157.3934  131.0799  151.1373 LP  0  0  0  0  0  0  0  0  0  0  0  0  # atno 17371 bound_to 10713
  140.6761  134.4817  157.5588 LP  0  0  0  0  0  0  0  0  0  0  0  0  # atno 17394 bound_to 11000
  139.9081  134.8405  156.1631 LP  0  0  0  0  0  0  0  0  0  0  0  0  # atno 17395 bound_to 11000

$$$$
