AV-unprocessed.smi:499|AV-procd|sdf|2733|dock2
  -GOLD-   2262023183D 1   1.00000     0.00000
 Structure written by MMmdl.
 36 37  0  0  0  0  0  0  0  0  1 V2000
  147.4080  142.3861  154.0614 C   0  0  0  0  0  0  0  0  0  0  0  0
  147.7737  141.3003  155.0931 C   0  0  2  0  0  0  0  0  0  0  0  0
  147.0785  141.6325  156.3505 C   0  0  0  0  0  0  0  0  0  0  0  0
  146.5355  141.8948  157.3385 N   0  0  0  0  0  0  0  0  0  0  0  0
  149.2121  141.3449  155.3686 N   0  0  0  0  0  0  0  0  0  0  0  0
  149.8801  140.7718  156.3840 C   0  0  0  0  0  0  0  0  0  0  0  0
  149.3447  140.0734  157.2448 O   0  0  0  0  0  0  0  0  0  0  0  0
  151.3955  141.0160  156.4081 C   0  0  0  0  0  0  0  0  0  0  0  0
  151.9011  141.3916  157.7391 N   0  0  0  0  0  0  0  0  0  0  0  0
  151.5064  142.6452  158.2461 C   0  0  0  0  0  0  0  0  0  0  0  0
  151.8904  143.1016  159.4537 C   0  0  0  0  0  0  0  0  0  0  0  0
  151.4963  144.4855  159.9460 C   0  0  0  0  0  0  0  0  0  0  0  0
  150.1690  144.5857  159.9994 F   0  0  0  0  0  0  0  0  0  0  0  0
  151.9803  144.7183  161.1664 F   0  0  0  0  0  0  0  0  0  0  0  0
  151.9509  145.4346  159.1269 F   0  0  0  0  0  0  0  0  0  0  0  0
  152.7737  142.2420  160.2170 C   0  0  0  0  0  0  0  0  0  0  0  0
  153.1726  141.0463  159.7406 C   0  0  0  0  0  0  0  0  0  0  0  0
  152.7328  140.5571  158.4320 C   0  0  0  0  0  0  0  0  0  0  0  0
  153.0901  139.4666  157.9857 O   0  0  0  0  0  0  0  0  0  0  0  0
  147.2958  139.9321  154.5935 C   0  0  0  0  0  0  0  0  0  0  0  0
  148.2035  138.9732  153.8552 C   0  0  0  0  0  0  0  0  0  0  0  0
  147.0538  139.6386  153.1302 C   0  0  0  0  0  0  0  0  0  0  0  0
  146.3284  142.4353  153.9155 H   0  0  0  0  0  0  0  0  0  0  0  0
  147.8550  142.1948  153.0858 H   0  0  0  0  0  0  0  0  0  0  0  0
  147.7377  143.3726  154.3898 H   0  0  0  0  0  0  0  0  0  0  0  0
  149.7596  141.8892  154.7174 H   0  0  0  0  0  0  0  0  0  0  0  0
  151.8904  140.1117  156.0517 H   0  0  0  0  0  0  0  0  0  0  0  0
  151.6528  141.7873  155.6794 H   0  0  0  0  0  0  0  0  0  0  0  0
  150.8767  143.2202  157.5827 H   0  0  0  0  0  0  0  0  0  0  0  0
  153.1201  142.5601  161.1893 H   0  0  0  0  0  0  0  0  0  0  0  0
  153.8304  140.4317  160.3375 H   0  0  0  0  0  0  0  0  0  0  0  0
  146.6066  139.4445  155.2799 H   0  0  0  0  0  0  0  0  0  0  0  0
  149.2109  139.2991  153.6053 H   0  0  0  0  0  0  0  0  0  0  0  0
  148.1048  137.9146  154.0867 H   0  0  0  0  0  0  0  0  0  0  0  0
  146.1918  139.0229  152.8813 H   0  0  0  0  0  0  0  0  0  0  0  0
  147.2968  140.4092  152.4019 H   0  0  0  0  0  0  0  0  0  0  0  0
  1  2  1  0  0  0  0
  1 23  1  0  0  0  0
  1 24  1  0  0  0  0
  1 25  1  0  0  0  0
  2  3  1  0  0  0  0
  2  5  1  0  0  0  0
  2 20  1  0  0  0  0
  3  4  3  0  0  0  0
  5  6  1  0  0  0  0
  5 26  1  0  0  0  0
  6  7  2  0  0  0  0
  6  8  1  0  0  0  0
  8  9  1  0  0  0  0
  8 27  1  0  0  0  0
  8 28  1  0  0  0  0
  9 18  1  0  0  0  0
  9 10  1  0  0  0  0
 10 11  2  0  0  0  0
 10 29  1  0  0  0  0
 11 12  1  0  0  0  0
 11 16  1  0  0  0  0
 12 13  1  0  0  0  0
 12 14  1  0  0  0  0
 12 15  1  0  0  0  0
 16 17  2  0  0  0  0
 16 30  1  0  0  0  0
 17 18  1  0  0  0  0
 17 31  1  0  0  0  0
 18 19  2  0  0  0  0
 20 22  1  0  0  0  0
 20 21  1  0  0  0  0
 20 32  1  0  0  0  0
 21 22  1  0  0  0  0
 21 33  1  0  0  0  0
 21 34  1  0  0  0  0
 22 35  1  0  0  0  0
 22 36  1  0  0  0  0
M  END
> <s_m_source_file>
AV-unprocessed.smi

> <i_m_source_file_index>
499

> <i_lp_mmshare_version>
43012

> <i_f3d_flags>
0

> <s_epik_input>
W0NIMl0xW0NIMl1bQ0hdMVtDQF0oW0NIM10pKEMjTilbTkhdQyg9TylbQ0gyXW4yW2NIXWMoQyhGKShGKUYpW2NIXVtjSF1jMj1P

> <s_epik_cmdline>
J2VwaWtfcHl0aG9uJywgJy1waCcsICc3LjAnLCAnLXRuJywgJzgnLCAnLW1hJywgJzIwMCcsICctbWV0YWxfYmluZGluZycsICctaW1hZScsICc8aW5maWxlLm1hZT4nLCAnLW9tYWUnLCAnPG91dGZpbGUubWFlPic=

> <r_lp_tautomer_probability>
1

> <r_epik_Ionization_Penalty>
4.79953e-07

> <r_epik_Ionization_Penalty_Charging>
1.46911e-08

> <r_epik_Ionization_Penalty_Neutral>
4.65262e-07

> <r_epik_State_Penalty>
-0

> <r_epik_Charging_Adjusted_Penalty>
1.46911e-08

> <i_epik_Tot_Q>
0

> <i_epik_Tot_abs_Q>
0

> <r_epik_Metal_State_Penalty>
-0

> <b_epik_Metal_Only>
0

> <s_lp_Force_Field>
OPLS_2005

> <r_lp_Energy>
23.9412

> <b_lp_Chiralities_Consistent>
1

> <s_lp_Variant>
AV-unprocessed.smi:499-2

> <Gold.Version>
5.8.1

> <Gold.Id.Protein>
6NUR|6NUR_protein|mol2

> <Gold.PLP.Fitness>
43.0199

> <Gold.PLP.PLP>
-42.2999

> <Gold.PLP.part.hbond>
-1.0000

> <Gold.PLP.part.metal>
0.0000

> <Gold.PLP.part.buried>
-3.8665

> <Gold.PLP.part.nonpolar>
-36.9020

> <Gold.PLP.part.repulsive>
0.2058

> <Gold.PLP.ligand.clash>
0.0000

> <Gold.PLP.ligand.torsion>
1.9451

> <Gold.PLP.Chemscore.Hbond>
1.0000

> <Gold.PLP.Chemscore.CHOScore>
0.0000

> <Gold.PLP.Chemscore.Metal>
0.0000

> <Gold.Chemscore.Hbonds>
donor molecule, donor type, donor heavy atom, donor atom, acceptor molecule, acceptor atom, score
      P1  H  7997  8009       L1    19  0.95

> <Gold.PLP.Chemscore.Internal.Correction>
1.6102

> <Gold.Rescore>
     Score         DG    S(hbond)    S(metal)    S(lipo)     H(rot)  DE(clash)    DE(int)     intcor
      9.91     -13.82       0.89        0.00      87.45       1.90       0.89       3.01       ----

> <Gold.Chemscore.Fitness>
9.9131

> <Gold.Chemscore.DG>
-13.8157

> <Gold.Chemscore.ZeroCoef>
-5.4800

> <Gold.Chemscore.Hbond>
0.8909

> <Gold.Chemscore.Metal>
0.0000

> <Gold.Chemscore.Lipo>
87.4516

> <Gold.Chemscore.Internal_Hbond>
0.0000

> <Gold.Chemscore.DEClash>
0.8892

> <Gold.Chemscore.DEInternal>
3.0133

> <Gold.Chemscore.Rot>
1.9030

> <Gold.Chemscore.Internal.Correction>
   9.000000E+99

> <Gold.Chemscore.Hbonds>
donor molecule, donor type, donor heavy atom, donor atom, acceptor molecule, acceptor atom, score
      P1  H  7997  8009       L1    19  0.22

> <Gold.Chemscore.Hbond.Weighted>
-2.9756

> <Gold.Chemscore.Metal.Weighted>
-0.0000

> <Gold.Chemscore.Lipo.Weighted>
-10.2318

> <Gold.Chemscore.Internal_Hbond.Weighted>
0.0000

> <Gold.Chemscore.DEClash.Weighted>
0.8892

> <Gold.Chemscore.DEInternal.Weighted>
3.0133

> <Gold.Chemscore.Rot.Weighted>
4.8718

> <Gold.Chemscore.Internal.Correction.Weighted>
   9.000000E+99

> <Gold.Protein.RotatedTorsions>
[ 6907 6896 6895 6894 ] final  139.53 input  -60.11 | X-H torsion
[ 7974 7965 7964 7962 ] final    4.26 input  175.53 | X-H torsion
[ 8008 7997 7996 7995 ] final  159.88 input   59.86 | X-H torsion
[ 10167 10162 10161 10158 ] final  -48.59 input  -65.29 | X-H torsion
[ 10718 10713 10712 10709 ] final   51.56 input   66.30 | X-H torsion
[ 10763 10752 10751 10750 ] final  135.64 input  -60.55 | X-H torsion
[ 11005 11000 10999 10996 ] final   18.31 input  -57.11 | X-H torsion

> <Gold.Protein.ActiveResidues>
 VAL166  LYS551  ARG553  GLY616  TRP617  ASP618  TYR619  PRO620  LYS621  CYS622 
 ASP623  PHE694  ASN695  SER759  ASP760  ASP761  ALA762  ILE779  LEU786  VAL792 
 PHE793  MET794  SER795  GLU796  ALA797  LYS798  CYS799  TRP800  GLU811  SER814 

> <Gold.Protein.RotatedAtoms>
  152.2539  133.5238  159.5341 H   0  0  0  0  0  0  0  0  0  0  0  0  # atno 6907 bound_to 6896
  150.7102  134.0923  159.3945 H   0  0  0  0  0  0  0  0  0  0  0  0  # atno 6908 bound_to 6896
  151.8842  135.0442  160.0542 H   0  0  0  0  0  0  0  0  0  0  0  0  # atno 6909 bound_to 6896
  146.2444  140.0562  142.8371 H   0  0  0  0  0  0  0  0  0  0  0  0  # atno 7974 bound_to 7965
  156.2209  140.1819  156.7478 H   0  0  0  0  0  0  0  0  0  0  0  0  # atno 8008 bound_to 7997
  154.5864  140.0658  156.9206 H   0  0  0  0  0  0  0  0  0  0  0  0  # atno 8009 bound_to 7997
  155.2412  140.3322  155.4294 H   0  0  0  0  0  0  0  0  0  0  0  0  # atno 8010 bound_to 7997
  140.6724  143.2733  151.4092 H   0  0  0  0  0  0  0  0  0  0  0  0  # atno 10167 bound_to 10162
  157.4992  130.8427  149.8296 H   0  0  0  0  0  0  0  0  0  0  0  0  # atno 10718 bound_to 10713
  153.8434  135.3088  155.3428 H   0  0  0  0  0  0  0  0  0  0  0  0  # atno 10763 bound_to 10752
  154.7923  135.4776  154.0083 H   0  0  0  0  0  0  0  0  0  0  0  0  # atno 10764 bound_to 10752
  153.1562  135.6852  153.8902 H   0  0  0  0  0  0  0  0  0  0  0  0  # atno 10765 bound_to 10752
  140.4262  134.1467  155.7676 H   0  0  0  0  0  0  0  0  0  0  0  0  # atno 11005 bound_to 11000
  145.0941  140.9303  143.4752 LP  0  0  0  0  0  0  0  0  0  0  0  0  # atno 17320 bound_to 7965
  145.0740  139.3009  143.5817 LP  0  0  0  0  0  0  0  0  0  0  0  0  # atno 17321 bound_to 7965
  139.5999  144.1318  152.2186 LP  0  0  0  0  0  0  0  0  0  0  0  0  # atno 17342 bound_to 10162
  140.0699  144.5788  150.7199 LP  0  0  0  0  0  0  0  0  0  0  0  0  # atno 17343 bound_to 10162
  156.0219  130.3792  150.1937 LP  0  0  0  0  0  0  0  0  0  0  0  0  # atno 17370 bound_to 10713
  157.0126  130.9955  151.3361 LP  0  0  0  0  0  0  0  0  0  0  0  0  # atno 17371 bound_to 10713
  141.1764  133.8505  157.1407 LP  0  0  0  0  0  0  0  0  0  0  0  0  # atno 17394 bound_to 11000
  140.0165  134.9965  157.0505 LP  0  0  0  0  0  0  0  0  0  0  0  0  # atno 17395 bound_to 11000

$$$$
