AV-unprocessed.smi:522|AV-procd|sdf|2802|dock1
  -GOLD-   2262023273D 1   1.00000     0.00000
 Structure written by MMmdl.
 41 42  0  0  0  0  0  0  0  0  1 V2000
  149.1815  141.2500  154.3178 C   0  0  0  0  0  0  0  0  0  0  0  0
  150.2958  140.5929  154.8944 O   0  0  0  0  0  0  0  0  0  0  0  0
  150.3892  140.8053  156.2936 C   0  0  0  0  0  0  0  0  0  0  0  0
  151.8056  140.4676  156.7792 C   0  0  0  0  0  0  0  0  0  0  0  0
  152.0709  141.0062  158.1051 N   0  0  0  0  0  0  0  0  0  0  0  0
  152.4057  140.3336  159.2339 C   0  0  0  0  0  0  0  0  0  0  0  0
  152.5805  138.5773  159.2637 S   0  0  0  0  0  0  0  0  0  0  0  0
  153.3444  138.4139  160.9090 C   0  0  0  0  0  0  0  0  0  0  0  0
  153.5729  136.9526  161.3216 C   0  0  0  0  0  0  0  0  0  0  0  0
  153.2806  136.0577  160.5272 O   0  0  0  0  0  0  0  0  0  0  0  0
  154.1075  136.7227  162.6886 C   0  0  0  0  0  0  0  0  0  0  0  0
  154.4716  137.8251  163.5225 C   0  0  0  0  0  0  0  0  0  0  0  0
  154.7712  138.7268  164.1838 N   0  0  0  0  0  0  0  0  0  0  0  0
  154.2821  135.4741  163.1989 C   0  0  0  0  0  0  0  0  0  0  0  0
  153.9869  134.1601  162.4856 C   0  0  0  0  0  0  0  0  0  0  0  0
  154.7788  135.2722  164.4748 N   0  0  0  0  0  0  0  0  0  0  0  0
  152.6003  141.0858  160.3180 N   0  0  0  0  0  0  0  0  0  0  0  0
  152.3652  142.3633  159.8497 C   0  0  0  0  0  0  0  0  0  0  0  0
  152.4088  143.6088  160.5163 C   0  0  0  0  0  0  0  0  0  0  0  0
  152.1262  144.8016  159.8189 C   0  0  0  0  0  0  0  0  0  0  0  0
  151.7974  144.7663  158.4482 C   0  0  0  0  0  0  0  0  0  0  0  0
  151.7485  143.5360  157.7652 C   0  0  0  0  0  0  0  0  0  0  0  0
  152.0311  142.3485  158.4664 C   0  0  0  0  0  0  0  0  0  0  0  0
  149.1596  141.0606  153.2446 H   0  0  0  0  0  0  0  0  0  0  0  0
  149.2383  142.3288  154.4686 H   0  0  0  0  0  0  0  0  0  0  0  0
  148.2457  140.8848  154.7430 H   0  0  0  0  0  0  0  0  0  0  0  0
  150.1566  141.8446  156.5294 H   0  0  0  0  0  0  0  0  0  0  0  0
  149.6604  140.1822  156.8145 H   0  0  0  0  0  0  0  0  0  0  0  0
  151.9606  139.3890  156.7827 H   0  0  0  0  0  0  0  0  0  0  0  0
  152.5430  140.8755  156.0874 H   0  0  0  0  0  0  0  0  0  0  0  0
  154.2896  138.9569  160.9181 H   0  0  0  0  0  0  0  0  0  0  0  0
  152.6939  138.8868  161.6447 H   0  0  0  0  0  0  0  0  0  0  0  0
  154.5330  134.1023  161.5434 H   0  0  0  0  0  0  0  0  0  0  0  0
  152.9203  134.0642  162.2809 H   0  0  0  0  0  0  0  0  0  0  0  0
  154.2813  133.2977  163.0854 H   0  0  0  0  0  0  0  0  0  0  0  0
  155.0307  136.0443  165.0757 H   0  0  0  0  0  0  0  0  0  0  0  0
  154.9120  134.3470  164.8586 H   0  0  0  0  0  0  0  0  0  0  0  0
  152.6590  143.6462  161.5662 H   0  0  0  0  0  0  0  0  0  0  0  0
  152.1614  145.7482  160.3381 H   0  0  0  0  0  0  0  0  0  0  0  0
  151.5827  145.6846  157.9214 H   0  0  0  0  0  0  0  0  0  0  0  0
  151.4961  143.5052  156.7156 H   0  0  0  0  0  0  0  0  0  0  0  0
  1  2  1  0  0  0  0
  1 24  1  0  0  0  0
  1 25  1  0  0  0  0
  1 26  1  0  0  0  0
  2  3  1  0  0  0  0
  3  4  1  0  0  0  0
  3 27  1  0  0  0  0
  3 28  1  0  0  0  0
  4  5  1  0  0  0  0
  4 29  1  0  0  0  0
  4 30  1  0  0  0  0
  5 23  1  0  0  0  0
  5  6  1  0  0  0  0
  6  7  1  0  0  0  0
  6 17  2  0  0  0  0
  7  8  1  0  0  0  0
  8  9  1  0  0  0  0
  8 31  1  0  0  0  0
  8 32  1  0  0  0  0
  9 10  2  0  0  0  0
  9 11  1  0  0  0  0
 11 12  1  0  0  0  0
 11 14  2  0  0  0  0
 12 13  3  0  0  0  0
 14 15  1  0  0  0  0
 14 16  1  0  0  0  0
 15 33  1  0  0  0  0
 15 34  1  0  0  0  0
 15 35  1  0  0  0  0
 16 36  1  0  0  0  0
 16 37  1  0  0  0  0
 17 18  1  0  0  0  0
 18 23  2  0  0  0  0
 18 19  1  0  0  0  0
 19 20  2  0  0  0  0
 19 38  1  0  0  0  0
 20 21  1  0  0  0  0
 20 39  1  0  0  0  0
 21 22  2  0  0  0  0
 21 40  1  0  0  0  0
 22 23  1  0  0  0  0
 22 41  1  0  0  0  0
M  END
> <s_m_source_file>
AV-unprocessed.smi

> <i_m_source_file_index>
522

> <i_lp_mmshare_version>
43012

> <i_f3d_flags>
0

> <s_epik_input>
W2NIXTFbY0hdW2NIXVtjSF1jKGMxMiluKFtDSDJdW0NIMl1PW0NIM10pYyhuMilTW0NIMl1DKD1PKS9DKEMjTik9QygvW0NIM10pW05IMl0=

> <s_epik_cmdline>
J2VwaWtfcHl0aG9uJywgJy1waCcsICc3LjAnLCAnLXRuJywgJzgnLCAnLW1hJywgJzIwMCcsICctbWV0YWxfYmluZGluZycsICctaW1hZScsICc8aW5maWxlLm1hZT4nLCAnLW9tYWUnLCAnPG91dGZpbGUubWFlPic=

> <r_lp_tautomer_probability>
0.5

> <r_epik_Ionization_Penalty>
0.0129021

> <r_epik_Ionization_Penalty_Charging>
0

> <r_epik_Ionization_Penalty_Neutral>
0.0129021

> <r_epik_State_Penalty>
0.42069

> <r_epik_Charging_Adjusted_Penalty>
0.42069

> <i_epik_Tot_Q>
0

> <i_epik_Tot_abs_Q>
0

> <r_epik_Metal_State_Penalty>
0.41068

> <b_epik_Metal_Only>
0

> <s_lp_Force_Field>
OPLS_2005

> <r_lp_Energy>
16.5573

> <b_lp_Chiralities_Consistent>
1

> <s_lp_Variant>
AV-unprocessed.smi:522-2

> <Gold.Version>
5.8.1

> <Gold.Id.Protein>
6NUR|6NUR_protein|mol2

> <Gold.PLP.Fitness>
52.0790

> <Gold.PLP.PLP>
-46.5594

> <Gold.PLP.part.hbond>
-2.0000

> <Gold.PLP.part.metal>
0.0000

> <Gold.PLP.part.buried>
-6.3073

> <Gold.PLP.part.nonpolar>
-38.8997

> <Gold.PLP.part.repulsive>
0.0916

> <Gold.PLP.ligand.clash>
0.0000

> <Gold.PLP.ligand.torsion>
0.2642

> <Gold.PLP.Chemscore.Hbond>
1.9760

> <Gold.PLP.Chemscore.CHOScore>
0.0000

> <Gold.PLP.Chemscore.Metal>
0.0000

> <Gold.Chemscore.Hbonds>
donor molecule, donor type, donor heavy atom, donor atom, acceptor molecule, acceptor atom, score
      P1  H  6896  6908       L1    10  1.00
      P1  H  7989  7998       L1     2  0.93

> <Gold.PLP.Chemscore.Internal.Correction>
0.1200

> <Gold.Rescore>
     Score         DG    S(hbond)    S(metal)    S(lipo)     H(rot)  DE(clash)    DE(int)     intcor
     17.73     -19.39       1.79        0.00     118.63       2.33       0.00       1.66       ----

> <Gold.Chemscore.Fitness>
17.7291

> <Gold.Chemscore.DG>
-19.3947

> <Gold.Chemscore.ZeroCoef>
-5.4800

> <Gold.Chemscore.Hbond>
1.7950

> <Gold.Chemscore.Metal>
0.0000

> <Gold.Chemscore.Lipo>
118.6262

> <Gold.Chemscore.Internal_Hbond>
0.0000

> <Gold.Chemscore.DEClash>
0.0033

> <Gold.Chemscore.DEInternal>
1.6624

> <Gold.Chemscore.Rot>
2.3280

> <Gold.Chemscore.Internal.Correction>
   9.000000E+99

> <Gold.Chemscore.Hbonds>
donor molecule, donor type, donor heavy atom, donor atom, acceptor molecule, acceptor atom, score
      P1  H  6896  6908       L1    10  0.99
      P1  H  7989  7998       L1     2  0.23

> <Gold.Chemscore.Hbond.Weighted>
-5.9953

> <Gold.Chemscore.Metal.Weighted>
-0.0000

> <Gold.Chemscore.Lipo.Weighted>
-13.8793

> <Gold.Chemscore.Internal_Hbond.Weighted>
0.0000

> <Gold.Chemscore.DEClash.Weighted>
0.0033

> <Gold.Chemscore.DEInternal.Weighted>
1.6624

> <Gold.Chemscore.Rot.Weighted>
5.9598

> <Gold.Chemscore.Internal.Correction.Weighted>
   9.000000E+99

> <Gold.Protein.RotatedTorsions>
[ 6907 6896 6895 6894 ] final  -85.12 input  -60.11 | X-H torsion
[ 7974 7965 7964 7962 ] final   29.63 input  175.53 | X-H torsion
[ 8008 7997 7996 7995 ] final   78.60 input   59.86 | X-H torsion
[ 10167 10162 10161 10158 ] final  103.32 input  -65.29 | X-H torsion
[ 10718 10713 10712 10709 ] final  153.44 input   66.30 | X-H torsion
[ 10763 10752 10751 10750 ] final   -8.15 input  -60.55 | X-H torsion
[ 11005 11000 10999 10996 ] final  -41.00 input  -57.11 | X-H torsion

> <Gold.Protein.ActiveResidues>
 VAL166  LYS551  ARG553  GLY616  TRP617  ASP618  TYR619  PRO620  LYS621  CYS622 
 ASP623  PHE694  ASN695  SER759  ASP760  ASP761  ALA762  ILE779  LEU786  VAL792 
 PHE793  MET794  SER795  GLU796  ALA797  LYS798  CYS799  TRP800  GLU811  SER814 

> <Gold.Protein.RotatedAtoms>
  150.6872  134.3254  159.4804 H   0  0  0  0  0  0  0  0  0  0  0  0  # atno 6907 bound_to 6896
  152.1125  134.9262  160.0575 H   0  0  0  0  0  0  0  0  0  0  0  0  # atno 6908 bound_to 6896
  152.0499  133.3979  159.4409 H   0  0  0  0  0  0  0  0  0  0  0  0  # atno 6909 bound_to 6896
  146.1660  139.6896  142.9001 H   0  0  0  0  0  0  0  0  0  0  0  0  # atno 7974 bound_to 7965
  155.8580  140.3455  155.5737 H   0  0  0  0  0  0  0  0  0  0  0  0  # atno 8008 bound_to 7997
  155.7965  140.0879  157.2000 H   0  0  0  0  0  0  0  0  0  0  0  0  # atno 8009 bound_to 7997
  154.4010  140.1473  156.3211 H   0  0  0  0  0  0  0  0  0  0  0  0  # atno 8010 bound_to 7997
  139.7273  144.7044  151.0777 H   0  0  0  0  0  0  0  0  0  0  0  0  # atno 10167 bound_to 10162
  157.2447  131.0766  151.1769 H   0  0  0  0  0  0  0  0  0  0  0  0  # atno 10718 bound_to 10713
  153.4364  135.7013  153.6197 H   0  0  0  0  0  0  0  0  0  0  0  0  # atno 10763 bound_to 10752
  153.4591  135.3740  155.2328 H   0  0  0  0  0  0  0  0  0  0  0  0  # atno 10764 bound_to 10752
  154.8727  135.4015  154.3755 H   0  0  0  0  0  0  0  0  0  0  0  0  # atno 10765 bound_to 10752
  141.0215  133.6861  156.2398 H   0  0  0  0  0  0  0  0  0  0  0  0  # atno 11005 bound_to 11000
  145.4466  141.0426  143.2828 LP  0  0  0  0  0  0  0  0  0  0  0  0  # atno 17320 bound_to 7965
  144.8093  139.5992  143.7036 LP  0  0  0  0  0  0  0  0  0  0  0  0  # atno 17321 bound_to 7965
  140.7765  143.5088  150.9678 LP  0  0  0  0  0  0  0  0  0  0  0  0  # atno 17342 bound_to 10162
  139.8776  143.7113  152.3160 LP  0  0  0  0  0  0  0  0  0  0  0  0  # atno 17343 bound_to 10162
  157.3342  130.7000  149.6342 LP  0  0  0  0  0  0  0  0  0  0  0  0  # atno 17370 bound_to 10713
  155.9668  130.4299  150.4851 LP  0  0  0  0  0  0  0  0  0  0  0  0  # atno 17371 bound_to 10713
  140.6565  134.5012  157.5581 LP  0  0  0  0  0  0  0  0  0  0  0  0  # atno 17394 bound_to 11000
  139.9149  134.8267  156.1401 LP  0  0  0  0  0  0  0  0  0  0  0  0  # atno 17395 bound_to 11000

$$$$
