AV-unprocessed.smi:2558|AV-procd|sdf|10033|dock10
  -GOLD-   2272014 73D 1   1.00000     0.00000
 Structure written by MMmdl.
 42 43  0  0  0  0  0  0  0  0  2 V2000
  153.8694  136.5313  157.6347 C   0  0  0  0  0  0  0  0  0  0  0  0
  152.6702  137.5204  156.6488 S   0  0  0  0  0  0  0  0  0  0  0  0
  153.3127  138.7900  156.2723 O   0  0  0  0  0  0  0  0  0  0  0  0
  152.1176  136.6543  155.5951 O   0  0  0  0  0  0  0  0  0  0  0  0
  151.3987  137.8437  157.8095 N   0  0  0  0  0  0  0  0  0  0  0  0
  150.3319  136.9485  158.0662 C   0  0  0  0  0  0  0  0  0  0  0  0
  149.8555  136.3004  157.1318 O   0  0  0  0  0  0  0  0  0  0  0  0
  150.0451  136.8364  159.3914 N   0  5  0  0  0  0  0  0  0  0  0  0
  148.8023  136.9223  159.9289 C   0  0  0  0  0  0  0  0  0  0  0  0
  147.9487  137.7801  159.6927 O   0  0  0  0  0  0  0  0  0  0  0  0
  148.5601  135.9460  160.8217 N   0  0  0  0  0  0  0  0  0  0  0  0
  147.3647  135.6771  161.5403 C   0  0  0  0  0  0  0  0  0  0  0  0
  147.1517  134.3659  162.0120 C   0  0  0  0  0  0  0  0  0  0  0  0
  145.9600  134.0718  162.7015 C   0  0  0  0  0  0  0  0  0  0  0  0
  145.0191  135.1041  162.8815 C   0  0  0  0  0  0  0  0  0  0  0  0
  145.1985  136.3598  162.4205 N   0  0  0  0  0  0  0  0  0  0  0  0
  146.3458  136.6358  161.7627 C   0  0  0  0  0  0  0  0  0  0  0  0
  151.4426  139.1707  158.4832 C   0  0  0  0  0  0  0  0  0  0  0  0
  151.0708  140.3242  157.5278 C   0  0  0  0  0  0  0  0  0  0  0  0
  151.0319  141.6641  158.2811 C   0  0  0  0  0  0  0  0  0  0  0  0
  152.3574  141.9344  159.0139 C   0  0  0  0  0  0  0  0  0  0  0  0
  152.7174  140.7841  159.9702 C   0  0  0  0  0  0  0  0  0  0  0  0
  152.7720  139.4393  159.2276 C   0  0  0  0  0  0  0  0  0  0  0  0
  154.7069  136.2420  157.0007 H   0  0  0  0  0  0  0  0  0  0  0  0
  153.3770  135.6376  158.0172 H   0  0  0  0  0  0  0  0  0  0  0  0
  154.2361  137.1274  158.4699 H   0  0  0  0  0  0  0  0  0  0  0  0
  149.3483  135.3589  161.0515 H   0  0  0  0  0  0  0  0  0  0  0  0
  147.8924  133.5958  161.8533 H   0  0  0  0  0  0  0  0  0  0  0  0
  145.7712  133.0788  163.0815 H   0  0  0  0  0  0  0  0  0  0  0  0
  144.0932  134.9139  163.4040 H   0  0  0  0  0  0  0  0  0  0  0  0
  146.4254  137.6455  161.3894 H   0  0  0  0  0  0  0  0  0  0  0  0
  150.6797  139.1625  159.2617 H   0  0  0  0  0  0  0  0  0  0  0  0
  151.7895  140.3996  156.7126 H   0  0  0  0  0  0  0  0  0  0  0  0
  150.1010  140.1317  157.0679 H   0  0  0  0  0  0  0  0  0  0  0  0
  150.8205  142.4751  157.5839 H   0  0  0  0  0  0  0  0  0  0  0  0
  150.2124  141.6542  159.0009 H   0  0  0  0  0  0  0  0  0  0  0  0
  153.1570  142.0647  158.2835 H   0  0  0  0  0  0  0  0  0  0  0  0
  152.2900  142.8708  159.5684 H   0  0  0  0  0  0  0  0  0  0  0  0
  153.6773  140.9836  160.4473 H   0  0  0  0  0  0  0  0  0  0  0  0
  151.9794  140.7301  160.7717 H   0  0  0  0  0  0  0  0  0  0  0  0
  152.9753  138.6340  159.9343 H   0  0  0  0  0  0  0  0  0  0  0  0
  153.6119  139.4628  158.5328 H   0  0  0  0  0  0  0  0  0  0  0  0
  1  2  1  0  0  0  0
  1 24  1  0  0  0  0
  1 25  1  0  0  0  0
  1 26  1  0  0  0  0
  2  3  2  0  0  0  0
  2  4  2  0  0  0  0
  2  5  1  0  0  0  0
  5  6  1  0  0  0  0
  5 18  1  0  0  0  0
  6  7  2  0  0  0  0
  6  8  1  0  0  0  0
  8  9  1  0  0  0  0
  9 10  2  0  0  0  0
  9 11  1  0  0  0  0
 11 12  1  0  0  0  0
 11 27  1  0  0  0  0
 12 17  1  0  0  0  0
 12 13  2  0  0  0  0
 13 14  1  0  0  0  0
 13 28  1  0  0  0  0
 14 15  2  0  0  0  0
 14 29  1  0  0  0  0
 15 16  1  0  0  0  0
 15 30  1  0  0  0  0
 16 17  2  0  0  0  0
 17 31  1  0  0  0  0
 18 23  1  0  0  0  0
 18 19  1  0  0  0  0
 18 32  1  0  0  0  0
 19 20  1  0  0  0  0
 19 33  1  0  0  0  0
 19 34  1  0  0  0  0
 20 21  1  0  0  0  0
 20 35  1  0  0  0  0
 20 36  1  0  0  0  0
 21 22  1  0  0  0  0
 21 37  1  0  0  0  0
 21 38  1  0  0  0  0
 22 23  1  0  0  0  0
 22 39  1  0  0  0  0
 22 40  1  0  0  0  0
 23 41  1  0  0  0  0
 23 42  1  0  0  0  0
M  CHG  1   8  -1
M  END
> <s_m_source_file>
AV-unprocessed.smi

> <i_m_source_file_index>
2558

> <i_lp_mmshare_version>
43012

> <i_f3d_flags>
0

> <s_epik_input>
W0NIMl0xW0NIMl1bQ0gyXVtDSDJdW0NIMl1bQ0hdMU4oUyg9TykoPU8pW0NIM10pQyg9TylbTkhdQyg9TylbTkhdYzJbY0hdW2NIXVtjSF1uW2NIXTI=

> <s_epik_cmdline>
J2VwaWtfcHl0aG9uJywgJy1waCcsICc3LjAnLCAnLXRuJywgJzgnLCAnLW1hJywgJzIwMCcsICctbWV0YWxfYmluZGluZycsICctaW1hZScsICc8aW5maWxlLm1hZT4nLCAnLW9tYWUnLCAnPG91dGZpbGUubWFlPic=

> <r_epik_Ionization_Penalty>
6.14208

> <r_epik_Ionization_Penalty_Charging>
6.14039

> <r_epik_Ionization_Penalty_Neutral>
0.00168563

> <r_epik_State_Penalty>
6.14513

> <r_epik_Charging_Adjusted_Penalty>
12.2855

> <i_epik_Tot_Q>
-1

> <i_epik_Tot_abs_Q>
1

> <r_epik_Metal_State_Penalty>
2.09011

> <b_epik_Metal_Only>
1

> <s_lp_Force_Field>
OPLS_2005

> <r_lp_Energy>
23.9967

> <b_lp_Chiralities_Consistent>
1

> <s_lp_Variant>
AV-unprocessed.smi:2558-2

> <Gold.Version>
5.8.1

> <Gold.Id.Protein>
6NUR|6NUR_protein|mol2

> <Gold.PLP.Fitness>
43.9178

> <Gold.PLP.PLP>
-32.5287

> <Gold.PLP.part.hbond>
-4.4725

> <Gold.PLP.part.metal>
0.0000

> <Gold.PLP.part.buried>
-4.2888

> <Gold.PLP.part.nonpolar>
-25.3297

> <Gold.PLP.part.repulsive>
0.2324

> <Gold.PLP.ligand.clash>
0.0000

> <Gold.PLP.ligand.torsion>
2.8010

> <Gold.PLP.Chemscore.Hbond>
4.5280

> <Gold.PLP.Chemscore.CHOScore>
0.0000

> <Gold.PLP.Chemscore.Metal>
0.0000

> <Gold.Chemscore.Hbonds>
donor molecule, donor type, donor heavy atom, donor atom, acceptor molecule, acceptor atom, score
      P1  H  6896  6908       L1     8  1.57
      P1  H  6934  6947       L1    10  0.51
      P1  H  7997  8010       L1     3  1.00
      P1  H 10752 10765       L1     4  1.00

> <Gold.PLP.Chemscore.Internal.Correction>
3.4070

> <Gold.Rescore>
     Score         DG    S(hbond)    S(metal)    S(lipo)     H(rot)  DE(clash)    DE(int)     intcor
     15.56     -22.08       3.00        0.00      78.09       1.00       0.13       6.39       ----

> <Gold.Chemscore.Fitness>
15.5617

> <Gold.Chemscore.DG>
-22.0778

> <Gold.Chemscore.ZeroCoef>
-5.4800

> <Gold.Chemscore.Hbond>
3.0005

> <Gold.Chemscore.Metal>
0.0000

> <Gold.Chemscore.Lipo>
78.0856

> <Gold.Chemscore.Internal_Hbond>
0.0000

> <Gold.Chemscore.DEClash>
0.1252

> <Gold.Chemscore.DEInternal>
6.3909

> <Gold.Chemscore.Rot>
1.0000

> <Gold.Chemscore.Internal.Correction>
   9.000000E+99

> <Gold.Chemscore.Hbonds>
donor molecule, donor type, donor heavy atom, donor atom, acceptor molecule, acceptor atom, score
      P1  H  6896  6908       L1     8  0.15
      P1  H  6934  6947       L1    10  0.52
      P1  H  7997  8010       L1     3  0.96
      P1  H 10752 10765       L1     4  0.95

> <Gold.Chemscore.Hbond.Weighted>
-10.0218

> <Gold.Chemscore.Metal.Weighted>
-0.0000

> <Gold.Chemscore.Lipo.Weighted>
-9.1360

> <Gold.Chemscore.Internal_Hbond.Weighted>
0.0000

> <Gold.Chemscore.DEClash.Weighted>
0.1252

> <Gold.Chemscore.DEInternal.Weighted>
6.3909

> <Gold.Chemscore.Rot.Weighted>
2.5600

> <Gold.Chemscore.Internal.Correction.Weighted>
   9.000000E+99

> <Gold.Protein.RotatedTorsions>
[ 6907 6896 6895 6894 ] final -156.47 input  -60.11 | X-H torsion
[ 7974 7965 7964 7962 ] final  143.99 input  175.53 | X-H torsion
[ 8008 7997 7996 7995 ] final   73.52 input   59.86 | X-H torsion
[ 10167 10162 10161 10158 ] final   43.17 input  -65.29 | X-H torsion
[ 10718 10713 10712 10709 ] final  -80.05 input   66.30 | X-H torsion
[ 10763 10752 10751 10750 ] final -161.19 input  -60.55 | X-H torsion
[ 11005 11000 10999 10996 ] final   51.01 input  -57.11 | X-H torsion

> <Gold.Protein.ActiveResidues>
 VAL166  LYS551  ARG553  GLY616  TRP617  ASP618  TYR619  PRO620  LYS621  CYS622 
 ASP623  PHE694  ASN695  SER759  ASP760  ASP761  ALA762  ILE779  LEU786  VAL792 
 PHE793  MET794  SER795  GLU796  ALA797  LYS798  CYS799  TRP800  GLU811  SER814 

> <Gold.Protein.RotatedAtoms>
  151.2882  133.4178  159.2631 H   0  0  0  0  0  0  0  0  0  0  0  0  # atno 6907 bound_to 6896
  151.0301  134.9533  159.8117 H   0  0  0  0  0  0  0  0  0  0  0  0  # atno 6908 bound_to 6896
  152.5344  134.2843  159.9071 H   0  0  0  0  0  0  0  0  0  0  0  0  # atno 6909 bound_to 6896
  144.8874  139.5609  143.5814 H   0  0  0  0  0  0  0  0  0  0  0  0  # atno 7974 bound_to 7965
  155.7849  140.3481  155.5317 H   0  0  0  0  0  0  0  0  0  0  0  0  # atno 8008 bound_to 7997
  155.8692  140.0984  157.1582 H   0  0  0  0  0  0  0  0  0  0  0  0  # atno 8009 bound_to 7997
  154.4016  140.1344  156.4044 H   0  0  0  0  0  0  0  0  0  0  0  0  # atno 8010 bound_to 7997
  140.3470  144.2398  150.6149 H   0  0  0  0  0  0  0  0  0  0  0  0  # atno 10167 bound_to 10162
  156.0078  130.4563  150.3741 H   0  0  0  0  0  0  0  0  0  0  0  0  # atno 10718 bound_to 10713
  154.7325  135.3049  154.8867 H   0  0  0  0  0  0  0  0  0  0  0  0  # atno 10763 bound_to 10752
  153.9706  135.6742  153.4751 H   0  0  0  0  0  0  0  0  0  0  0  0  # atno 10764 bound_to 10752
  153.0931  135.4949  154.8650 H   0  0  0  0  0  0  0  0  0  0  0  0  # atno 10765 bound_to 10752
  140.0969  134.5134  155.8799 H   0  0  0  0  0  0  0  0  0  0  0  0  # atno 11005 bound_to 11000
  146.3033  139.7496  142.9075 LP  0  0  0  0  0  0  0  0  0  0  0  0  # atno 17320 bound_to 7965
  145.3845  141.0363  143.3159 LP  0  0  0  0  0  0  0  0  0  0  0  0  # atno 17321 bound_to 7965
  140.5255  143.2255  151.8322 LP  0  0  0  0  0  0  0  0  0  0  0  0  # atno 17342 bound_to 10162
  139.4832  144.4785  151.9336 LP  0  0  0  0  0  0  0  0  0  0  0  0  # atno 17343 bound_to 10162
  157.1824  131.0395  151.2741 LP  0  0  0  0  0  0  0  0  0  0  0  0  # atno 17370 bound_to 10713
  157.4134  130.7397  149.6856 LP  0  0  0  0  0  0  0  0  0  0  0  0  # atno 17371 bound_to 10713
  141.2094  133.6684  156.6440 LP  0  0  0  0  0  0  0  0  0  0  0  0  # atno 17394 bound_to 11000
  140.3274  134.7957  157.4300 LP  0  0  0  0  0  0  0  0  0  0  0  0  # atno 17395 bound_to 11000

$$$$
