AV-unprocessed.smi:2474|AV-procd|sdf|9753|dock2
  -GOLD-   2272013393D 1   1.00000     0.00000
 Structure written by MMmdl.
 40 41  0  0  0  0  0  0  0  0  1 V2000
  151.3095  142.8928  158.7229 C   0  0  0  0  0  0  0  0  0  0  0  0
  151.4131  141.7442  157.7780 C   0  0  0  0  0  0  0  0  0  0  0  0
  152.1917  140.6203  157.9031 C   0  0  0  0  0  0  0  0  0  0  0  0
  152.0671  139.7258  156.8380 N   0  0  0  0  0  0  0  0  0  0  0  0
  151.2009  140.1497  155.9132 C   0  0  0  0  0  0  0  0  0  0  0  0
  150.8898  139.3978  154.6544 C   0  0  2  0  0  0  0  0  0  0  0  0
  149.3845  139.1491  154.4841 C   0  0  0  0  0  0  0  0  0  0  0  0
  151.7355  138.1149  154.4855 C   0  0  0  0  0  0  0  0  0  0  0  0
  150.9440  136.9549  154.0835 N   0  0  0  0  0  0  0  0  0  0  0  0
  151.0235  135.7381  154.6382 C   0  0  0  0  0  0  0  0  0  0  0  0
  151.8084  135.4401  155.5384 O   0  0  0  0  0  0  0  0  0  0  0  0
  150.1282  134.8930  154.1091 N   0  0  0  0  0  0  0  0  0  0  0  0
  149.9209  133.5117  154.5332 C   0  0  1  0  0  0  0  0  0  0  0  0
  149.0997  132.7500  153.4718 C   0  0  0  0  0  0  0  0  0  0  0  0
  148.8028  131.2991  153.8840 C   0  0  0  0  0  0  0  0  0  0  0  0
  150.0811  130.4747  154.0910 C   0  0  0  0  0  0  0  0  0  0  0  0
  151.0967  131.1619  155.4266 S   0  0  0  0  0  0  0  0  0  0  0  0
  151.2858  132.8475  154.7833 C   0  0  0  0  0  0  0  0  0  0  0  0
  150.4832  141.7093  156.3032 S   0  0  0  0  0  0  0  0  0  0  0  0
  151.9495  142.7452  159.5931 H   0  0  0  0  0  0  0  0  0  0  0  0
  150.2848  143.0114  159.0751 H   0  0  0  0  0  0  0  0  0  0  0  0
  151.6106  143.8210  158.2370 H   0  0  0  0  0  0  0  0  0  0  0  0
  152.8636  140.3776  158.7130 H   0  0  0  0  0  0  0  0  0  0  0  0
  151.1705  140.0619  153.8361 H   0  0  0  0  0  0  0  0  0  0  0  0
  148.8281  140.0867  154.4967 H   0  0  0  0  0  0  0  0  0  0  0  0
  148.9936  138.5188  155.2835 H   0  0  0  0  0  0  0  0  0  0  0  0
  149.1734  138.6523  153.5367 H   0  0  0  0  0  0  0  0  0  0  0  0
  152.4844  138.2738  153.7090 H   0  0  0  0  0  0  0  0  0  0  0  0
  152.2847  137.8931  155.4017 H   0  0  0  0  0  0  0  0  0  0  0  0
  150.2650  137.1010  153.3508 H   0  0  0  0  0  0  0  0  0  0  0  0
  149.5284  135.2363  153.3734 H   0  0  0  0  0  0  0  0  0  0  0  0
  149.3685  133.5126  155.4752 H   0  0  0  0  0  0  0  0  0  0  0  0
  148.1538  133.2651  153.2996 H   0  0  0  0  0  0  0  0  0  0  0  0
  149.6277  132.7586  152.5172 H   0  0  0  0  0  0  0  0  0  0  0  0
  148.2059  131.2895  154.7969 H   0  0  0  0  0  0  0  0  0  0  0  0
  148.1919  130.8257  153.1147 H   0  0  0  0  0  0  0  0  0  0  0  0
  149.8289  129.4436  154.3393 H   0  0  0  0  0  0  0  0  0  0  0  0
  150.6703  130.4480  153.1736 H   0  0  0  0  0  0  0  0  0  0  0  0
  151.8699  132.8103  153.8629 H   0  0  0  0  0  0  0  0  0  0  0  0
  151.8633  133.4249  155.5059 H   0  0  0  0  0  0  0  0  0  0  0  0
  1  2  1  0  0  0  0
  1 20  1  0  0  0  0
  1 21  1  0  0  0  0
  1 22  1  0  0  0  0
  2 19  1  0  0  0  0
  2  3  2  0  0  0  0
  3  4  1  0  0  0  0
  3 23  1  0  0  0  0
  4  5  2  0  0  0  0
  5  6  1  0  0  0  0
  5 19  1  0  0  0  0
  6  7  1  0  0  0  0
  6  8  1  0  0  0  0
  6 24  1  0  0  0  0
  7 25  1  0  0  0  0
  7 26  1  0  0  0  0
  7 27  1  0  0  0  0
  8  9  1  0  0  0  0
  8 28  1  0  0  0  0
  8 29  1  0  0  0  0
  9 10  1  0  0  0  0
  9 30  1  0  0  0  0
 10 11  2  0  0  0  0
 10 12  1  0  0  0  0
 12 13  1  0  0  0  0
 12 31  1  0  0  0  0
 13 18  1  0  0  0  0
 13 14  1  0  0  0  0
 13 32  1  0  0  0  0
 14 15  1  0  0  0  0
 14 33  1  0  0  0  0
 14 34  1  0  0  0  0
 15 16  1  0  0  0  0
 15 35  1  0  0  0  0
 15 36  1  0  0  0  0
 16 17  1  0  0  0  0
 16 37  1  0  0  0  0
 16 38  1  0  0  0  0
 17 18  1  0  0  0  0
 18 39  1  0  0  0  0
 18 40  1  0  0  0  0
M  END
> <s_m_source_file>
AV-unprocessed.smi

> <i_m_source_file_index>
2474

> <i_lp_mmshare_version>
43012

> <i_f3d_flags>
0

> <s_epik_input>
W0NIM11jMVtjSF1uYyhzMSlbQ0BIXShbQ0gzXSlbQ0gyXVtOSF1DKD1PKVtOSF1bQ0BASF0yW0NIMl1bQ0gyXVtDSDJdU1tDSDJdMg==

> <s_epik_cmdline>
J2VwaWtfcHl0aG9uJywgJy1waCcsICc3LjAnLCAnLXRuJywgJzgnLCAnLW1hJywgJzIwMCcsICctbWV0YWxfYmluZGluZycsICctaW1hZScsICc8aW5maWxlLm1hZT4nLCAnLW9tYWUnLCAnPG91dGZpbGUubWFlPic=

> <r_epik_Ionization_Penalty>
0.000644338

> <r_epik_Ionization_Penalty_Charging>
0

> <r_epik_Ionization_Penalty_Neutral>
0.000644338

> <r_epik_State_Penalty>
0.000374131

> <r_epik_Charging_Adjusted_Penalty>
0.000374131

> <i_epik_Tot_Q>
0

> <i_epik_Tot_abs_Q>
0

> <r_epik_Metal_State_Penalty>
-0

> <b_epik_Metal_Only>
0

> <s_lp_Force_Field>
OPLS_2005

> <r_lp_Energy>
-6.48006

> <b_lp_Chiralities_Consistent>
1

> <s_lp_Variant>
AV-unprocessed.smi:2474-3

> <Gold.Version>
5.8.1

> <Gold.Id.Protein>
6NUR|6NUR_protein|mol2

> <Gold.PLP.Fitness>
41.7934

> <Gold.PLP.PLP>
-36.2250

> <Gold.PLP.part.hbond>
-4.1513

> <Gold.PLP.part.metal>
0.0000

> <Gold.PLP.part.buried>
-1.9237

> <Gold.PLP.part.nonpolar>
-30.4259

> <Gold.PLP.part.repulsive>
0.1700

> <Gold.PLP.ligand.clash>
1.0294

> <Gold.PLP.ligand.torsion>
1.0347

> <Gold.PLP.Chemscore.Hbond>
2.8406

> <Gold.PLP.Chemscore.CHOScore>
0.0000

> <Gold.PLP.Chemscore.Metal>
0.0000

> <Gold.Chemscore.Hbonds>
donor molecule, donor type, donor heavy atom, donor atom, acceptor molecule, acceptor atom, score
      L1  H     9    30       P1  7948  0.54
      L1  H    12    31       P1  7948  0.55
      P1  H  7997  8008       L1     4  0.07
      P1  H 10752 10763       L1    11  0.65

> <Gold.PLP.Chemscore.Internal.Correction>
0.1455

> <Gold.Rescore>
     Score         DG    S(hbond)    S(metal)    S(lipo)     H(rot)  DE(clash)    DE(int)     intcor
     15.31     -19.28       2.01        0.00      92.59       1.46       1.47       2.50       ----

> <Gold.Chemscore.Fitness>
15.3077

> <Gold.Chemscore.DG>
-19.2765

> <Gold.Chemscore.ZeroCoef>
-5.4800

> <Gold.Chemscore.Hbond>
2.0074

> <Gold.Chemscore.Metal>
0.0000

> <Gold.Chemscore.Lipo>
92.5939

> <Gold.Chemscore.Internal_Hbond>
0.0000

> <Gold.Chemscore.DEClash>
1.4732

> <Gold.Chemscore.DEInternal>
2.4956

> <Gold.Chemscore.Rot>
1.4616

> <Gold.Chemscore.Internal.Correction>
   9.000000E+99

> <Gold.Chemscore.Hbonds>
donor molecule, donor type, donor heavy atom, donor atom, acceptor molecule, acceptor atom, score
      L1  H     9    30       P1  7948  0.05
      L1  H    12    31       P1  7948  0.03
      P1  H 10752 10763       L1    11  0.41

> <Gold.Chemscore.Hbond.Weighted>
-6.7046

> <Gold.Chemscore.Metal.Weighted>
-0.0000

> <Gold.Chemscore.Lipo.Weighted>
-10.8335

> <Gold.Chemscore.Internal_Hbond.Weighted>
0.0000

> <Gold.Chemscore.DEClash.Weighted>
1.4732

> <Gold.Chemscore.DEInternal.Weighted>
2.4956

> <Gold.Chemscore.Rot.Weighted>
3.7416

> <Gold.Chemscore.Internal.Correction.Weighted>
   9.000000E+99

> <Gold.Protein.RotatedTorsions>
[ 6907 6896 6895 6894 ] final   66.20 input  -60.11 | X-H torsion
[ 7974 7965 7964 7962 ] final   45.07 input  175.53 | X-H torsion
[ 8008 7997 7996 7995 ] final  -48.75 input   59.86 | X-H torsion
[ 10167 10162 10161 10158 ] final  112.11 input  -65.29 | X-H torsion
[ 10718 10713 10712 10709 ] final  -75.83 input   66.30 | X-H torsion
[ 10763 10752 10751 10750 ] final   86.49 input  -60.55 | X-H torsion
[ 11005 11000 10999 10996 ] final   17.68 input  -57.11 | X-H torsion

> <Gold.Protein.ActiveResidues>
 VAL166  LYS551  ARG553  GLY616  TRP617  ASP618  TYR619  PRO620  LYS621  CYS622 
 ASP623  PHE694  ASN695  SER759  ASP760  ASP761  ALA762  ILE779  LEU786  VAL792 
 PHE793  MET794  SER795  GLU796  ALA797  LYS798  CYS799  TRP800  GLU811  SER814 

> <Gold.Protein.RotatedAtoms>
  152.4463  134.5487  159.9860 H   0  0  0  0  0  0  0  0  0  0  0  0  # atno 6907 bound_to 6896
  151.5571  133.3403  159.2972 H   0  0  0  0  0  0  0  0  0  0  0  0  # atno 6908 bound_to 6896
  150.8380  134.7694  159.6973 H   0  0  0  0  0  0  0  0  0  0  0  0  # atno 6909 bound_to 6896
  146.0513  139.5005  142.9716 H   0  0  0  0  0  0  0  0  0  0  0  0  # atno 7974 bound_to 7965
  154.4033  140.1314  156.4389 H   0  0  0  0  0  0  0  0  0  0  0  0  # atno 8008 bound_to 7997
  155.7478  140.3488  155.5115 H   0  0  0  0  0  0  0  0  0  0  0  0  # atno 8009 bound_to 7997
  155.8978  140.1014  157.1362 H   0  0  0  0  0  0  0  0  0  0  0  0  # atno 8010 bound_to 7997
  139.6561  144.7129  151.1955 H   0  0  0  0  0  0  0  0  0  0  0  0  # atno 10167 bound_to 10162
  156.0195  130.4450  150.3101 H   0  0  0  0  0  0  0  0  0  0  0  0  # atno 10718 bound_to 10713
  153.1576  135.4578  154.9726 H   0  0  0  0  0  0  0  0  0  0  0  0  # atno 10763 bound_to 10752
  154.7873  135.3208  154.7860 H   0  0  0  0  0  0  0  0  0  0  0  0  # atno 10764 bound_to 10752
  153.8355  135.6935  153.4863 H   0  0  0  0  0  0  0  0  0  0  0  0  # atno 10765 bound_to 10752
  140.4333  134.1398  155.7682 H   0  0  0  0  0  0  0  0  0  0  0  0  # atno 11005 bound_to 11000
  145.6719  141.0214  143.1653 LP  0  0  0  0  0  0  0  0  0  0  0  0  # atno 17320 bound_to 7965
  144.7124  139.8321  143.7410 LP  0  0  0  0  0  0  0  0  0  0  0  0  # atno 17321 bound_to 7965
  140.7559  143.6071  150.8642 LP  0  0  0  0  0  0  0  0  0  0  0  0  # atno 17342 bound_to 10162
  139.9724  143.6042  152.2969 LP  0  0  0  0  0  0  0  0  0  0  0  0  # atno 17343 bound_to 10162
  157.1203  131.0245  151.3012 LP  0  0  0  0  0  0  0  0  0  0  0  0  # atno 17370 bound_to 10713
  157.4633  130.7666  149.7256 LP  0  0  0  0  0  0  0  0  0  0  0  0  # atno 17371 bound_to 10713
  141.1736  133.8558  157.1491 LP  0  0  0  0  0  0  0  0  0  0  0  0  # atno 17394 bound_to 11000
  140.0120  134.9984  157.0414 LP  0  0  0  0  0  0  0  0  0  0  0  0  # atno 17395 bound_to 11000

$$$$
