AV-unprocessed.smi:2192|AV-procd|sdf|8897|dock5
  -GOLD-   2272012103D 1   1.00000     0.00000
 Structure written by MMmdl.
 42 44  0  0  0  0  0  0  0  0  1 V2000
  153.3123  142.3818  162.5422 C   0  0  0  0  0  0  0  0  0  0  0  0
  152.7896  142.3088  161.1646 N   0  0  0  0  0  0  0  0  0  0  0  0
  152.9947  141.1553  160.4538 C   0  0  0  0  0  0  0  0  0  0  0  0
  153.5990  140.1674  160.8738 O   0  0  0  0  0  0  0  0  0  0  0  0
  152.4230  141.1803  159.1037 C   0  0  0  0  0  0  0  0  0  0  0  0
  151.7686  142.2551  158.6012 C   0  0  0  0  0  0  0  0  0  0  0  0
  151.3340  142.0226  157.3015 N   0  0  0  0  0  0  0  0  0  0  0  0
  151.7641  140.7792  157.0838 C   0  0  0  0  0  0  0  0  0  0  0  0
  152.4234  140.2024  158.1092 N   0  0  0  0  0  0  0  0  0  0  0  0
  152.9879  138.8611  158.1184 C   0  0  0  0  0  0  0  0  0  0  0  0
  152.5803  138.0575  159.3703 C   0  0  1  0  0  0  0  0  0  0  0  0
  151.7072  136.9913  159.0556 O   0  0  0  0  0  0  0  0  0  0  0  0
  153.7738  137.5066  160.1666 C   0  0  0  0  0  0  0  0  0  0  0  0
  153.5163  137.6210  161.5608 O   0  0  0  0  0  0  0  0  0  0  0  0
  153.8352  136.5551  162.3738 C   0  0  0  0  0  0  0  0  0  0  0  0
  153.5677  136.6997  163.7509 C   0  0  0  0  0  0  0  0  0  0  0  0
  153.8646  135.6628  164.6561 C   0  0  0  0  0  0  0  0  0  0  0  0
  154.4328  134.4635  164.1890 C   0  0  0  0  0  0  0  0  0  0  0  0
  154.7201  133.4652  165.0574 F   0  0  0  0  0  0  0  0  0  0  0  0
  154.7016  134.3037  162.8169 C   0  0  0  0  0  0  0  0  0  0  0  0
  154.4057  135.3417  161.9117 C   0  0  0  0  0  0  0  0  0  0  0  0
  151.6225  143.4050  159.4162 N   0  0  0  0  0  0  0  0  0  0  0  0
  150.9152  144.5505  158.8359 C   0  0  0  0  0  0  0  0  0  0  0  0
  152.1274  143.4304  160.6939 C   0  0  0  0  0  0  0  0  0  0  0  0
  151.9937  144.4309  161.4039 O   0  0  0  0  0  0  0  0  0  0  0  0
  153.8074  141.4765  162.8945 H   0  0  0  0  0  0  0  0  0  0  0  0
  152.5033  142.5827  163.2467 H   0  0  0  0  0  0  0  0  0  0  0  0
  154.0415  143.1891  162.6295 H   0  0  0  0  0  0  0  0  0  0  0  0
  151.5942  140.2704  156.1461 H   0  0  0  0  0  0  0  0  0  0  0  0
  152.7040  138.3448  157.2025 H   0  0  0  0  0  0  0  0  0  0  0  0
  154.0743  138.9519  158.0826 H   0  0  0  0  0  0  0  0  0  0  0  0
  152.0188  138.7182  160.0318 H   0  0  0  0  0  0  0  0  0  0  0  0
  151.3883  137.1177  158.1744 H   0  0  0  0  0  0  0  0  0  0  0  0
  153.9108  136.4540  159.9143 H   0  0  0  0  0  0  0  0  0  0  0  0
  154.6875  138.0362  159.8905 H   0  0  0  0  0  0  0  0  0  0  0  0
  153.1327  137.6179  164.1178 H   0  0  0  0  0  0  0  0  0  0  0  0
  153.6565  135.7887  165.7085 H   0  0  0  0  0  0  0  0  0  0  0  0
  155.1362  133.3826  162.4574 H   0  0  0  0  0  0  0  0  0  0  0  0
  154.6253  135.1811  160.8673 H   0  0  0  0  0  0  0  0  0  0  0  0
  150.8095  145.4036  159.5066 H   0  0  0  0  0  0  0  0  0  0  0  0
  149.9111  144.2532  158.5319 H   0  0  0  0  0  0  0  0  0  0  0  0
  151.4424  144.9001  157.9477 H   0  0  0  0  0  0  0  0  0  0  0  0
  1  2  1  0  0  0  0
  1 26  1  0  0  0  0
  1 27  1  0  0  0  0
  1 28  1  0  0  0  0
  2 24  1  0  0  0  0
  2  3  1  0  0  0  0
  3  4  2  0  0  0  0
  3  5  1  0  0  0  0
  5  9  1  0  0  0  0
  5  6  2  0  0  0  0
  6  7  1  0  0  0  0
  6 22  1  0  0  0  0
  7  8  2  0  0  0  0
  8  9  1  0  0  0  0
  8 29  1  0  0  0  0
  9 10  1  0  0  0  0
 10 11  1  0  0  0  0
 10 30  1  0  0  0  0
 10 31  1  0  0  0  0
 11 12  1  0  0  0  0
 11 13  1  0  0  0  0
 11 32  1  0  0  0  0
 12 33  1  0  0  0  0
 13 14  1  0  0  0  0
 13 34  1  0  0  0  0
 13 35  1  0  0  0  0
 14 15  1  0  0  0  0
 15 21  1  0  0  0  0
 15 16  2  0  0  0  0
 16 17  1  0  0  0  0
 16 36  1  0  0  0  0
 17 18  2  0  0  0  0
 17 37  1  0  0  0  0
 18 19  1  0  0  0  0
 18 20  1  0  0  0  0
 20 21  2  0  0  0  0
 20 38  1  0  0  0  0
 21 39  1  0  0  0  0
 22 23  1  0  0  0  0
 22 24  1  0  0  0  0
 23 40  1  0  0  0  0
 23 41  1  0  0  0  0
 23 42  1  0  0  0  0
 24 25  2  0  0  0  0
M  END
> <s_m_source_file>
AV-unprocessed.smi

> <i_m_source_file_index>
2192

> <i_lp_mmshare_version>
43012

> <i_f3d_flags>
0

> <s_epik_input>
Tz1jMW4oW0NIM10pYyg9TyluKFtDSDNdKWMoYzEyKW5bY0hdbjJbQ0gyXVtDQEhdKFtPSF0pW0NIMl1PYzNbY0hdW2NIXWMoRilbY0hdW2NIXTM=

> <s_epik_cmdline>
J2VwaWtfcHl0aG9uJywgJy1waCcsICc3LjAnLCAnLXRuJywgJzgnLCAnLW1hJywgJzIwMCcsICctbWV0YWxfYmluZGluZycsICctaW1hZScsICc8aW5maWxlLm1hZT4nLCAnLW9tYWUnLCAnPG91dGZpbGUubWFlPic=

> <r_lp_tautomer_probability>
1

> <r_epik_Ionization_Penalty>
1.0344e-06

> <r_epik_Ionization_Penalty_Charging>
3.2247e-09

> <r_epik_Ionization_Penalty_Neutral>
1.03118e-06

> <r_epik_State_Penalty>
-0

> <r_epik_Charging_Adjusted_Penalty>
3.2247e-09

> <i_epik_Tot_Q>
0

> <i_epik_Tot_abs_Q>
0

> <r_epik_Metal_State_Penalty>
-0

> <b_epik_Metal_Only>
0

> <s_lp_Force_Field>
OPLS_2005

> <r_lp_Energy>
39.8918

> <b_lp_Chiralities_Consistent>
1

> <s_lp_Variant>
AV-unprocessed.smi:2192-2

> <Gold.Version>
5.8.1

> <Gold.Id.Protein>
6NUR|6NUR_protein|mol2

> <Gold.PLP.Fitness>
50.8168

> <Gold.PLP.PLP>
-50.9990

> <Gold.PLP.part.hbond>
-1.0000

> <Gold.PLP.part.metal>
0.0000

> <Gold.PLP.part.buried>
-4.7151

> <Gold.PLP.part.nonpolar>
-45.2831

> <Gold.PLP.part.repulsive>
0.2342

> <Gold.PLP.ligand.clash>
0.0000

> <Gold.PLP.ligand.torsion>
1.6356

> <Gold.PLP.Chemscore.Hbond>
1.0000

> <Gold.PLP.Chemscore.CHOScore>
0.0000

> <Gold.PLP.Chemscore.Metal>
0.0000

> <Gold.Chemscore.Hbonds>
donor molecule, donor type, donor heavy atom, donor atom, acceptor molecule, acceptor atom, score
      P1  H  6896  6909       L1    12  0.96

> <Gold.PLP.Chemscore.Internal.Correction>
0.0890

> <Gold.Rescore>
     Score         DG    S(hbond)    S(metal)    S(lipo)     H(rot)  DE(clash)    DE(int)     intcor
      5.44     -11.39       0.87        0.00      88.63       2.88       0.00       5.95       ----

> <Gold.Chemscore.Fitness>
5.4407

> <Gold.Chemscore.DG>
-11.3857

> <Gold.Chemscore.ZeroCoef>
-5.4800

> <Gold.Chemscore.Hbond>
0.8679

> <Gold.Chemscore.Metal>
0.0000

> <Gold.Chemscore.Lipo>
88.6325

> <Gold.Chemscore.Internal_Hbond>
0.0000

> <Gold.Chemscore.DEClash>
0.0000

> <Gold.Chemscore.DEInternal>
5.9450

> <Gold.Chemscore.Rot>
2.8762

> <Gold.Chemscore.Internal.Correction>
   9.000000E+99

> <Gold.Chemscore.Hbonds>
donor molecule, donor type, donor heavy atom, donor atom, acceptor molecule, acceptor atom, score
      P1  H  6896  6909       L1    12  0.84

> <Gold.Chemscore.Hbond.Weighted>
-2.8989

> <Gold.Chemscore.Metal.Weighted>
-0.0000

> <Gold.Chemscore.Lipo.Weighted>
-10.3700

> <Gold.Chemscore.Internal_Hbond.Weighted>
0.0000

> <Gold.Chemscore.DEClash.Weighted>
0.0000

> <Gold.Chemscore.DEInternal.Weighted>
5.9450

> <Gold.Chemscore.Rot.Weighted>
7.3631

> <Gold.Chemscore.Internal.Correction.Weighted>
   9.000000E+99

> <Gold.Protein.RotatedTorsions>
[ 6907 6896 6895 6894 ] final  112.45 input  -60.11 | X-H torsion
[ 7974 7965 7964 7962 ] final  -67.64 input  175.53 | X-H torsion
[ 8008 7997 7996 7995 ] final -148.95 input   59.86 | X-H torsion
[ 10167 10162 10161 10158 ] final -156.03 input  -65.29 | X-H torsion
[ 10718 10713 10712 10709 ] final -116.60 input   66.30 | X-H torsion
[ 10763 10752 10751 10750 ] final -162.45 input  -60.55 | X-H torsion
[ 11005 11000 10999 10996 ] final   87.10 input  -57.11 | X-H torsion

> <Gold.Protein.ActiveResidues>
 VAL166  LYS551  ARG553  GLY616  TRP617  ASP618  TYR619  PRO620  LYS621  CYS622 
 ASP623  PHE694  ASN695  SER759  ASP760  ASP761  ALA762  ILE779  LEU786  VAL792 
 PHE793  MET794  SER795  GLU796  ALA797  LYS798  CYS799  TRP800  GLU811  SER814 

> <Gold.Protein.RotatedAtoms>
  152.4916  133.8514  159.7203 H   0  0  0  0  0  0  0  0  0  0  0  0  # atno 6907 bound_to 6896
  150.9050  133.7060  159.2876 H   0  0  0  0  0  0  0  0  0  0  0  0  # atno 6908 bound_to 6896
  151.4488  135.1032  159.9744 H   0  0  0  0  0  0  0  0  0  0  0  0  # atno 6909 bound_to 6896
  145.7266  140.9015  143.0602 H   0  0  0  0  0  0  0  0  0  0  0  0  # atno 7974 bound_to 7965
  155.5998  140.0661  157.2736 H   0  0  0  0  0  0  0  0  0  0  0  0  # atno 8008 bound_to 7997
  154.4282  140.1820  156.1208 H   0  0  0  0  0  0  0  0  0  0  0  0  # atno 8009 bound_to 7997
  156.0168  140.3321  155.7001 H   0  0  0  0  0  0  0  0  0  0  0  0  # atno 8010 bound_to 7997
  139.6883  143.9464  152.2372 H   0  0  0  0  0  0  0  0  0  0  0  0  # atno 10167 bound_to 10162
  156.0975  130.6144  150.9056 H   0  0  0  0  0  0  0  0  0  0  0  0  # atno 10718 bound_to 10713
  154.7213  135.3026  154.9043 H   0  0  0  0  0  0  0  0  0  0  0  0  # atno 10763 bound_to 10752
  153.9914  135.6718  153.4758 H   0  0  0  0  0  0  0  0  0  0  0  0  # atno 10764 bound_to 10752
  153.0836  135.4996  154.8470 H   0  0  0  0  0  0  0  0  0  0  0  0  # atno 10765 bound_to 10752
  139.8928  134.8400  156.2813 H   0  0  0  0  0  0  0  0  0  0  0  0  # atno 11005 bound_to 11000
  144.6903  139.9275  143.7470 LP  0  0  0  0  0  0  0  0  0  0  0  0  # atno 17320 bound_to 7965
  146.0576  139.3572  143.0601 LP  0  0  0  0  0  0  0  0  0  0  0  0  # atno 17321 bound_to 7965
  139.9273  144.6763  150.8399 LP  0  0  0  0  0  0  0  0  0  0  0  0  # atno 17342 bound_to 10162
  140.7674  143.3333  151.2363 LP  0  0  0  0  0  0  0  0  0  0  0  0  # atno 17343 bound_to 10162
  157.6138  131.0934  150.8746 LP  0  0  0  0  0  0  0  0  0  0  0  0  # atno 17370 bound_to 10713
  156.8881  130.5203  149.5287 LP  0  0  0  0  0  0  0  0  0  0  0  0  # atno 17371 bound_to 10713
  141.0036  133.7136  156.1000 LP  0  0  0  0  0  0  0  0  0  0  0  0  # atno 17394 bound_to 11000
  140.7463  134.4094  157.5548 LP  0  0  0  0  0  0  0  0  0  0  0  0  # atno 17395 bound_to 11000

$$$$
