#       Name:                AV-unprocessed.smi:227
#       Creating user name   scv26
#       Creation time:       Thu Mar 26 20:24:28 2020


#       File generated by GOLD software.
#

@<TRIPOS>MOLECULE
AV-unprocessed.smi:227
    64    68     1
SMALL
NO_CHARGES


@<TRIPOS>ATOM
      1 ****        -1.0473   3.7027   2.0505 O.3            1 S1                 0.0000
      2 ****        -1.5976   2.9422   0.9951 C.3            1 S1                 0.0000
      3 ****        -1.0422   3.4043  -0.3763 C.3            1 S1                 0.0000
      4 ****         0.5019   3.2098  -0.4375 C.3            1 S1                 0.0000
      5 ****         0.9338   1.8188  -0.4256 N.pl3          1 S1                 0.0000
      6 ****         1.1034   0.9959  -1.5160 C.2            1 S1                 0.0000
      7 ****         1.4951  -0.2174  -1.2427 N.2            1 S1                 0.0000
      8 ****         1.6209  -0.2354   0.1411 C.ar           1 S1                 0.0000
      9 ****         1.9932  -1.2260   1.0960 C.ar           1 S1                 0.0000
     10 ****         2.3127  -2.5079   0.7707 N.3            1 S1                 0.0000
     11 ****         2.2923  -3.5677   1.7673 C.3            1 S1                 0.0000
     12 ****         2.9374  -4.7394   1.0071 C.3            1 S1                 0.0000
     13 ****         2.4180  -4.4946  -0.4195 C.3            1 S1                 0.0000
     14 ****         1.5356  -3.2501  -0.2120 C.3            1 S1                 0.0000
     15 ****         0.2468  -3.6816   0.5327 C.3            1 S1                 0.0000
     16 ****        -0.9165  -2.6769   0.4190 C.3            1 S1                 0.0000
     17 ****        -2.0817  -3.2137   1.0078 O.3            1 S1                 0.0000
     18 ****         0.7900  -3.8585   1.9654 C.3            1 S1                 0.0000
     19 ****         2.0389  -0.8460   2.4005 N.ar           1 S1                 0.0000
     20 ****         1.7157   0.4001   2.7556 C.ar           1 S1                 0.0000
     21 ****         1.3273   1.4127   1.9803 N.ar           1 S1                 0.0000
     22 ****         1.2935   1.0473   0.6672 C.ar           1 S1                 0.0000
     23 ****        -1.7994   2.7185  -1.5569 C.3            1 S1                 0.0000
     24 ****        -3.2785   3.0824  -1.6652 C.3            1 S1                 0.0000
     25 ****        -3.2790   4.3833  -2.4675 C.3            1 S1                 0.0000
     26 ****        -2.0560   4.3933  -3.1940 O.3            1 S1                 0.0000
     27 ****        -1.3563   3.1808  -2.9533 C.3            1 S1                 0.0000
     28 ****        -1.3882   3.3729   2.8680 H              1 S1                 0.0000
     29 ****        -1.3997   1.8840   1.1655 H              1 S1                 0.0000
     30 ****        -2.6753   3.0680   1.0634 H              1 S1                 0.0000
     31 ****        -1.2248   4.4773  -0.4519 H              1 S1                 0.0000
     32 ****         0.9221   3.6891  -1.3203 H              1 S1                 0.0000
     33 ****         0.9800   3.7191   0.3996 H              1 S1                 0.0000
     34 ****         0.9222   1.3196  -2.5299 H              1 S1                 0.0000
     35 ****         2.8149  -3.3360   2.6961 H              1 S1                 0.0000
     36 ****         4.0257  -4.6728   1.0357 H              1 S1                 0.0000
     37 ****         2.6445  -5.7111   1.4064 H              1 S1                 0.0000
     38 ****         3.2463  -4.2719  -1.0935 H              1 S1                 0.0000
     39 ****         1.8715  -5.3457  -0.8274 H              1 S1                 0.0000
     40 ****         1.3409  -2.7370  -1.1521 H              1 S1                 0.0000
     41 ****        -0.0974  -4.6381   0.1359 H              1 S1                 0.0000
     42 ****        -0.6848  -1.7299   0.9050 H              1 S1                 0.0000
     43 ****        -1.1268  -2.4582  -0.6283 H              1 S1                 0.0000
     44 ****        -2.3019  -4.0171   0.5614 H              1 S1                 0.0000
     45 ****         0.6037  -4.8557   2.3655 H              1 S1                 0.0000
     46 ****         0.3444  -3.1380   2.6524 H              1 S1                 0.0000
     47 ****         1.7723   0.6149   3.8125 H              1 S1                 0.0000
     48 ****        -1.6888   1.6377  -1.4645 H              1 S1                 0.0000
     49 ****        -3.7920   2.3102  -2.2402 H              1 S1                 0.0000
     50 ****        -3.8149   3.1764  -0.7238 H              1 S1                 0.0000
     51 ****        -4.1362   4.4465  -3.1383 H              1 S1                 0.0000
     52 ****        -3.3003   5.2503  -1.8066 H              1 S1                 0.0000
     53 ****        -0.2847   3.3154  -3.0800 H              1 S1                 0.0000
     54 ****        -1.6731   2.4510  -3.7003 H              1 S1                 0.0000
     55 ****        -1.3020   4.6637   1.9421 LP             1 S1                 0.0000
     56 ****        -0.0509   3.6191   2.0425 LP             1 S1                 0.0000
     57 ****         1.6662  -0.9655  -1.8838 LP             1 S1                 0.0000
     58 ****         3.2091  -2.1688   0.4852 LP             1 S1                 0.0000
     59 ****        -2.8349  -2.5618   0.9196 LP             1 S1                 0.0000
     60 ****        -1.9146  -3.4009   1.9758 LP             1 S1                 0.0000
     61 ****         2.3167  -1.5048   3.0996 LP             1 S1                 0.0000
     62 ****         1.0910   2.3237   2.3185 LP             1 S1                 0.0000
     63 ****        -1.4966   5.1666  -2.8955 LP             1 S1                 0.0000
     64 ****        -2.2490   4.4792  -4.1715 LP             1 S1                 0.0000
@<TRIPOS>BOND
    1    1    2 1     
    2    1   28 1     
    3    2    3 1     
    4    2   29 1     
    5    2   30 1     
    6    3    4 1     
    7    3   23 1     
    8    3   31 1     
    9    4    5 1     
   10    4   32 1     
   11    4   33 1     
   12    5   22 1     
   13    5    6 1     
   14    6    7 2     
   15    6   34 1     
   16    7    8 1     
   17    8   22 ar    
   18    8    9 ar    
   19    9   10 1     
   20    9   19 ar    
   21   10   14 1     
   22   10   11 1     
   23   11   18 1     
   24   11   12 1     
   25   11   35 1     
   26   12   13 1     
   27   12   36 1     
   28   12   37 1     
   29   13   14 1     
   30   13   38 1     
   31   13   39 1     
   32   14   15 1     
   33   14   40 1     
   34   15   16 1     
   35   15   18 1     
   36   15   41 1     
   37   16   17 1     
   38   16   42 1     
   39   16   43 1     
   40   17   44 1     
   41   18   45 1     
   42   18   46 1     
   43   19   20 ar    
   44   20   21 ar    
   45   20   47 1     
   46   21   22 ar    
   47   23   27 1     
   48   23   24 1     
   49   23   48 1     
   50   24   25 1     
   51   24   49 1     
   52   24   50 1     
   53   25   26 1     
   54   25   51 1     
   55   25   52 1     
   56   26   27 1     
   57   27   53 1     
   58   27   54 1     
   59    1   55 1     
   60    1   56 1     
   61    7   57 1     
   62   10   58 1     
   63   17   59 1     
   64   17   60 1     
   65   19   61 1     
   66   21   62 1     
   67   26   63 1     
   68   26   64 1     
@<TRIPOS>SUBSTRUCTURE
      1 S1             1
@<TRIPOS>SET
LONE_PAIRS      STATIC     ATOMS    <user>   **** ""
10 55 56 57 58 59 60 61 62 63 64
DONOR_HYDROGENS      STATIC     ATOMS    <user>   **** ""
2 28 44
ATOM$BLUE        STATIC     ATOMS    COLORGROUP SYSTEM
10 55 56 57 58 59 60 61 62 63 64
ATOM$RED        STATIC     ATOMS    COLORGROUP SYSTEM
2 28 44
