AV-unprocessed.smi:38|AV-procd|sdf|347|dock5
  -GOLD-   2262016183D 1   1.00000     0.00000
 Structure written by MMmdl.
 27 28  0  0  0  0  0  0  0  0  2 V2000
  151.1060  139.4327  154.3380 O   0  0  0  0  0  0  0  0  0  0  0  0
  151.2119  139.9374  155.4549 C   0  0  0  0  0  0  0  0  0  0  0  0
  152.2111  139.6064  156.3231 N   0  5  0  0  0  0  0  0  0  0  0  0
  152.3283  140.1692  157.5615 C   0  0  0  0  0  0  0  0  0  0  0  0
  153.2270  139.8764  158.3507 O   0  0  0  0  0  0  0  0  0  0  0  0
  151.3756  141.1431  157.9695 N   0  0  0  0  0  0  0  0  0  0  0  0
  151.5124  141.7639  159.3463 C   0  0  1  0  0  0  0  0  0  0  0  0
  152.8825  142.4500  159.5002 C   0  0  0  0  0  0  0  0  0  0  0  0
  152.5259  143.8431  159.9872 C   0  0  2  0  0  0  0  0  0  0  0  0
  152.5516  143.9017  161.4013 O   0  0  0  0  0  0  0  0  0  0  0  0
  151.1136  144.0401  159.4245 C   0  0  2  0  0  0  0  0  0  0  0  0
  150.2310  145.0977  160.1102 C   0  0  0  0  0  0  0  0  0  0  0  0
  148.8875  144.9626  159.6970 O   0  0  0  0  0  0  0  0  0  0  0  0
  150.5316  142.7456  159.5270 O   0  0  0  0  0  0  0  0  0  0  0  0
  150.3468  141.4938  157.1095 C   0  0  0  0  0  0  0  0  0  0  0  0
  150.2351  140.9347  155.8871 C   0  0  0  0  0  0  0  0  0  0  0  0
  149.2261  141.2965  155.0758 F   0  0  0  0  0  0  0  0  0  0  0  0
  151.3386  140.9525  160.0551 H   0  0  0  0  0  0  0  0  0  0  0  0
  153.2182  144.5928  159.6030 H   0  0  0  0  0  0  0  0  0  0  0  0
  151.1953  144.2789  158.3628 H   0  0  0  0  0  0  0  0  0  0  0  0
  153.5271  141.8928  160.1812 H   0  0  0  0  0  0  0  0  0  0  0  0
  153.3760  142.5104  158.5290 H   0  0  0  0  0  0  0  0  0  0  0  0
  151.6843  144.1202  161.7063 H   0  0  0  0  0  0  0  0  0  0  0  0
  150.2720  144.9682  161.1919 H   0  0  0  0  0  0  0  0  0  0  0  0
  150.5803  146.1088  159.9000 H   0  0  0  0  0  0  0  0  0  0  0  0
  148.7571  145.4890  158.9232 H   0  0  0  0  0  0  0  0  0  0  0  0
  149.6097  142.2246  157.4046 H   0  0  0  0  0  0  0  0  0  0  0  0
  1  2  2  0  0  0  0
  2 16  1  0  0  0  0
  2  3  1  0  0  0  0
  3  4  1  0  0  0  0
  4  5  2  0  0  0  0
  4  6  1  0  0  0  0
  6  7  1  0  0  0  0
  6 15  1  0  0  0  0
  7 18  1  0  0  0  0
  7 14  1  0  0  0  0
  7  8  1  0  0  0  0
  8  9  1  0  0  0  0
  8 21  1  0  0  0  0
  8 22  1  0  0  0  0
  9 19  1  0  0  0  0
  9 10  1  0  0  0  0
  9 11  1  0  0  0  0
 10 23  1  0  0  0  0
 11 20  1  0  0  0  0
 11 12  1  0  0  0  0
 11 14  1  0  0  0  0
 12 13  1  0  0  0  0
 12 24  1  0  0  0  0
 12 25  1  0  0  0  0
 13 26  1  0  0  0  0
 15 16  2  0  0  0  0
 15 27  1  0  0  0  0
 16 17  1  0  0  0  0
M  CHG  1   3  -1
M  END
> <s_m_source_file>
AV-unprocessed.smi

> <i_m_source_file_index>
38

> <i_lp_mmshare_version>
43012

> <i_f3d_flags>
0

> <s_epik_input>
Tz1jMVtuSF1jKD1PKW4oW2NIXWMxRilbQ0BIXTJbQ0gyXVtDQEhdKFtPSF0pW0NASF0oTzIpW0NIMl1bT0hd

> <s_epik_cmdline>
J2VwaWtfcHl0aG9uJywgJy1waCcsICc3LjAnLCAnLXRuJywgJzgnLCAnLW1hJywgJzIwMCcsICctbWV0YWxfYmluZGluZycsICctaW1hZScsICc8aW5maWxlLm1hZT4nLCAnLW9tYWUnLCAnPG91dGZpbGUubWFlPic=

> <r_epik_Ionization_Penalty>
1.68146

> <r_epik_Ionization_Penalty_Charging>
3.4211e-08

> <r_epik_Ionization_Penalty_Neutral>
1.68146

> <r_epik_State_Penalty>
1.78593

> <r_epik_Charging_Adjusted_Penalty>
1.78593

> <i_epik_Tot_Q>
-1

> <i_epik_Tot_abs_Q>
1

> <r_epik_Metal_State_Penalty>
0.0113696

> <b_epik_Metal_Only>
0

> <s_epik_Chemistry_Notes>
This compound contains an acetal/aminal-like group ( X-CH(R)-Y where X, Y are N, S, or O) that may be acid/base labile, releasing an aldehyde.

> <s_lp_Force_Field>
OPLS_2005

> <r_lp_Energy>
41.2479

> <b_lp_Chiralities_Consistent>
1

> <s_lp_Variant>
AV-unprocessed.smi:38-13

> <Gold.Version>
5.8.1

> <Gold.Id.Protein>
6NUR|6NUR_protein|mol2

> <Gold.PLP.Fitness>
40.2985

> <Gold.PLP.PLP>
-32.3772

> <Gold.PLP.part.hbond>
-4.0486

> <Gold.PLP.part.metal>
0.0000

> <Gold.PLP.part.buried>
-3.2505

> <Gold.PLP.part.nonpolar>
-26.3423

> <Gold.PLP.part.repulsive>
0.1936

> <Gold.PLP.ligand.clash>
0.0000

> <Gold.PLP.ligand.torsion>
0.0911

> <Gold.PLP.Chemscore.Hbond>
2.7000

> <Gold.PLP.Chemscore.CHOScore>
0.0000

> <Gold.PLP.Chemscore.Metal>
0.0000

> <Gold.Chemscore.Hbonds>
donor molecule, donor type, donor heavy atom, donor atom, acceptor molecule, acceptor atom, score
      L1  H    13    26       P1  8029  1.00
      P1  H  7989  7998       L1     1  0.75
      P1  H  7997  8009       L1     5  0.95

> <Gold.PLP.Chemscore.Internal.Correction>
0.0034

> <Gold.Rescore>
     Score         DG    S(hbond)    S(metal)    S(lipo)     H(rot)  DE(clash)    DE(int)     intcor
      8.95     -10.58       1.86        0.00      53.45       2.88       0.11       1.52       ----

> <Gold.Chemscore.Fitness>
8.9510

> <Gold.Chemscore.DG>
-10.5805

> <Gold.Chemscore.ZeroCoef>
-5.4800

> <Gold.Chemscore.Hbond>
1.8634

> <Gold.Chemscore.Metal>
0.0000

> <Gold.Chemscore.Lipo>
53.4476

> <Gold.Chemscore.Internal_Hbond>
0.0000

> <Gold.Chemscore.DEClash>
0.1051

> <Gold.Chemscore.DEInternal>
1.5244

> <Gold.Chemscore.Rot>
2.8815

> <Gold.Chemscore.Internal.Correction>
   9.000000E+99

> <Gold.Chemscore.Hbonds>
donor molecule, donor type, donor heavy atom, donor atom, acceptor molecule, acceptor atom, score
      L1  H    13    26       P1  8029  0.98
      P1  H  7989  7998       L1     1  0.09
      P1  H  7997  8009       L1     5  0.21

> <Gold.Chemscore.Hbond.Weighted>
-6.2237

> <Gold.Chemscore.Metal.Weighted>
-0.0000

> <Gold.Chemscore.Lipo.Weighted>
-6.2534

> <Gold.Chemscore.Internal_Hbond.Weighted>
0.0000

> <Gold.Chemscore.DEClash.Weighted>
0.1051

> <Gold.Chemscore.DEInternal.Weighted>
1.5244

> <Gold.Chemscore.Rot.Weighted>
7.3765

> <Gold.Chemscore.Internal.Correction.Weighted>
   9.000000E+99

> <Gold.Protein.RotatedTorsions>
[ 6907 6896 6895 6894 ] final  -51.48 input  -60.11 | X-H torsion
[ 7974 7965 7964 7962 ] final   53.93 input  175.53 | X-H torsion
[ 8008 7997 7996 7995 ] final  143.65 input   59.86 | X-H torsion
[ 10167 10162 10161 10158 ] final    3.78 input  -65.29 | X-H torsion
[ 10718 10713 10712 10709 ] final   82.48 input   66.30 | X-H torsion
[ 10763 10752 10751 10750 ] final -133.12 input  -60.55 | X-H torsion
[ 11005 11000 10999 10996 ] final  -99.97 input  -57.11 | X-H torsion

> <Gold.Protein.ActiveResidues>
 VAL166  LYS551  ARG553  GLY616  TRP617  ASP618  TYR619  PRO620  LYS621  CYS622 
 ASP623  PHE694  ASN695  SER759  ASP760  ASP761  ALA762  ILE779  LEU786  VAL792 
 PHE793  MET794  SER795  GLU796  ALA797  LYS798  CYS799  TRP800  GLU811  SER814 

> <Gold.Protein.RotatedAtoms>
  150.8608  134.7959  159.7080 H   0  0  0  0  0  0  0  0  0  0  0  0  # atno 6907 bound_to 6896
  152.4645  134.5104  159.9762 H   0  0  0  0  0  0  0  0  0  0  0  0  # atno 6908 bound_to 6896
  151.5208  133.3428  159.2936 H   0  0  0  0  0  0  0  0  0  0  0  0  # atno 6909 bound_to 6896
  145.9661  139.4105  143.0218 H   0  0  0  0  0  0  0  0  0  0  0  0  # atno 7974 bound_to 7965
  156.2925  140.2256  156.4925 H   0  0  0  0  0  0  0  0  0  0  0  0  # atno 8008 bound_to 7997
  154.7759  140.0463  157.1110 H   0  0  0  0  0  0  0  0  0  0  0  0  # atno 8009 bound_to 7997
  154.9818  140.3079  155.4946 H   0  0  0  0  0  0  0  0  0  0  0  0  # atno 8010 bound_to 7997
  140.6568  143.7406  150.7668 H   0  0  0  0  0  0  0  0  0  0  0  0  # atno 10167 bound_to 10162
  157.6858  131.0050  150.2381 H   0  0  0  0  0  0  0  0  0  0  0  0  # atno 10718 bound_to 10713
  154.8736  135.3776  154.4521 H   0  0  0  0  0  0  0  0  0  0  0  0  # atno 10763 bound_to 10752
  153.5197  135.7029  153.5743 H   0  0  0  0  0  0  0  0  0  0  0  0  # atno 10764 bound_to 10752
  153.3996  135.3952  155.1944 H   0  0  0  0  0  0  0  0  0  0  0  0  # atno 10765 bound_to 10752
  141.1288  133.8363  157.1041 H   0  0  0  0  0  0  0  0  0  0  0  0  # atno 11005 bound_to 11000
  145.7971  140.9788  143.1018 LP  0  0  0  0  0  0  0  0  0  0  0  0  # atno 17320 bound_to 7965
  144.6826  139.9755  143.7483 LP  0  0  0  0  0  0  0  0  0  0  0  0  # atno 17321 bound_to 7965
  140.1067  143.4737  152.2394 LP  0  0  0  0  0  0  0  0  0  0  0  0  # atno 17342 bound_to 10162
  139.5793  144.7502  151.3683 LP  0  0  0  0  0  0  0  0  0  0  0  0  # atno 17343 bound_to 10162
  156.3001  130.3757  149.7759 LP  0  0  0  0  0  0  0  0  0  0  0  0  # atno 17370 bound_to 10713
  156.5391  130.8292  151.3263 LP  0  0  0  0  0  0  0  0  0  0  0  0  # atno 17371 bound_to 10713
  140.0315  134.9899  157.0789 LP  0  0  0  0  0  0  0  0  0  0  0  0  # atno 17394 bound_to 11000
  140.4278  134.1813  155.7167 LP  0  0  0  0  0  0  0  0  0  0  0  0  # atno 17395 bound_to 11000

$$$$
