AV-unprocessed.smi:686|AV-procd|sdf|3339|dock1
  -GOLD-   22720 0313D 1   1.00000     0.00000
 Structure written by MMmdl.
 41 42  0  0  0  0  0  0  0  0  2 V2000
  146.7680  140.7584  152.8212 C   0  0  0  0  0  0  0  0  0  0  0  0
  147.2899  139.3153  152.8018 C   0  0  2  0  0  0  0  0  0  0  0  0
  146.2769  138.3007  152.2714 C   0  0  0  0  0  0  0  0  0  0  0  0
  146.7022  137.0045  152.8367 N   0  3  2  0  0  0  0  0  0  0  0  0
  145.6940  135.9095  152.7555 C   0  0  0  0  0  0  0  0  0  0  0  0
  146.2595  134.5868  153.3061 C   0  0  0  0  0  0  0  0  0  0  0  0
  145.1996  135.6989  151.3120 C   0  0  0  0  0  0  0  0  0  0  0  0
  147.1864  137.3109  154.2018 C   0  0  0  0  0  0  0  0  0  0  0  0
  147.6793  138.7700  154.1858 C   0  0  1  0  0  0  0  0  0  0  0  0
  149.1312  138.8449  154.3718 N   0  0  0  0  0  0  0  0  0  0  0  0
  149.8237  140.3703  154.7851 S   0  0  0  0  0  0  0  0  0  0  0  0
  151.2842  140.1999  154.7970 O   0  0  0  0  0  0  0  0  0  0  0  0
  149.2120  141.3890  153.9178 O   0  0  0  0  0  0  0  0  0  0  0  0
  149.2282  140.6278  156.5093 C   0  0  0  0  0  0  0  0  0  0  0  0
  150.4025  140.8379  157.4218 C   0  0  0  0  0  0  0  0  0  0  0  0
  150.7378  141.9944  158.1791 C   0  0  0  0  0  0  0  0  0  0  0  0
  151.8866  141.6322  158.8216 C   0  0  0  0  0  0  0  0  0  0  0  0
  152.2338  140.3620  158.4937 O   0  0  0  0  0  0  0  0  0  0  0  0
  151.2792  139.8626  157.6005 N   0  0  0  0  0  0  0  0  0  0  0  0
  145.8815  140.8530  153.4490 H   0  0  0  0  0  0  0  0  0  0  0  0
  146.5033  141.0921  151.8175 H   0  0  0  0  0  0  0  0  0  0  0  0
  147.5249  141.4409  153.2089 H   0  0  0  0  0  0  0  0  0  0  0  0
  148.1593  139.2739  152.1427 H   0  0  0  0  0  0  0  0  0  0  0  0
  145.2740  138.5415  152.6290 H   0  0  0  0  0  0  0  0  0  0  0  0
  146.2557  138.2868  151.1813 H   0  0  0  0  0  0  0  0  0  0  0  0
  144.8350  136.1908  153.3668 H   0  0  0  0  0  0  0  0  0  0  0  0
  145.5328  133.7799  153.2067 H   0  0  0  0  0  0  0  0  0  0  0  0
  146.5085  134.6570  154.3650 H   0  0  0  0  0  0  0  0  0  0  0  0
  147.1602  134.2867  152.7696 H   0  0  0  0  0  0  0  0  0  0  0  0
  144.5022  134.8623  151.2566 H   0  0  0  0  0  0  0  0  0  0  0  0
  146.0277  135.4831  150.6359 H   0  0  0  0  0  0  0  0  0  0  0  0
  144.6712  136.5719  150.9291 H   0  0  0  0  0  0  0  0  0  0  0  0
  146.3660  137.2192  154.9155 H   0  0  0  0  0  0  0  0  0  0  0  0
  147.9608  136.6028  154.4995 H   0  0  0  0  0  0  0  0  0  0  0  0
  147.1849  139.3363  154.9772 H   0  0  0  0  0  0  0  0  0  0  0  0
  149.6218  138.4286  153.5801 H   0  0  0  0  0  0  0  0  0  0  0  0
  148.5677  141.4946  156.5197 H   0  0  0  0  0  0  0  0  0  0  0  0
  148.6421  139.7577  156.8067 H   0  0  0  0  0  0  0  0  0  0  0  0
  150.2195  142.9398  158.2398 H   0  0  0  0  0  0  0  0  0  0  0  0
  152.5436  142.1414  159.5112 H   0  0  0  0  0  0  0  0  0  0  0  0
  147.5106  136.7149  152.3051 H   0  0  0  0  0  0  0  0  0  0  0  0
  1  2  1  0  0  0  0
  1 20  1  0  0  0  0
  1 21  1  0  0  0  0
  1 22  1  0  0  0  0
  2  9  1  0  0  0  0
  2  3  1  0  0  0  0
  2 23  1  0  0  0  0
  3  4  1  0  0  0  0
  3 24  1  0  0  0  0
  3 25  1  0  0  0  0
  4  5  1  0  0  0  0
  4  8  1  0  0  0  0
  4 41  1  0  0  0  0
  5  6  1  0  0  0  0
  5  7  1  0  0  0  0
  5 26  1  0  0  0  0
  6 27  1  0  0  0  0
  6 28  1  0  0  0  0
  6 29  1  0  0  0  0
  7 30  1  0  0  0  0
  7 31  1  0  0  0  0
  7 32  1  0  0  0  0
  8  9  1  0  0  0  0
  8 33  1  0  0  0  0
  8 34  1  0  0  0  0
  9 10  1  0  0  0  0
  9 35  1  0  0  0  0
 10 11  1  0  0  0  0
 10 36  1  0  0  0  0
 11 12  2  0  0  0  0
 11 13  2  0  0  0  0
 11 14  1  0  0  0  0
 14 15  1  0  0  0  0
 14 37  1  0  0  0  0
 14 38  1  0  0  0  0
 15 19  2  0  0  0  0
 15 16  1  0  0  0  0
 16 17  2  0  0  0  0
 16 39  1  0  0  0  0
 17 18  1  0  0  0  0
 17 40  1  0  0  0  0
 18 19  1  0  0  0  0
M  CHG  1   4   1
M  END
> <s_m_source_file>
AV-unprocessed.smi

> <i_m_source_file_index>
686

> <i_lp_mmshare_version>
43012

> <i_f3d_flags>
0

> <s_epik_input>
W0NIM11bQ0BASF0xW0NIMl1OKFtDSF0oW0NIM10pW0NIM10pW0NIMl1bQ0BIXTFbTkhdUyg9TykoPU8pW0NIMl1jMltjSF1bY0hdb24y

> <s_epik_cmdline>
J2VwaWtfcHl0aG9uJywgJy1waCcsICc3LjAnLCAnLXRuJywgJzgnLCAnLW1hJywgJzIwMCcsICctbWV0YWxfYmluZGluZycsICctaW1hZScsICc8aW5maWxlLm1hZT4nLCAnLW9tYWUnLCAnPG91dGZpbGUubWFlPic=

> <r_epik_Ionization_Penalty>
0.00200818

> <r_epik_Ionization_Penalty_Charging>
0.000701289

> <r_epik_Ionization_Penalty_Neutral>
0.00130689

> <r_epik_State_Penalty>
0.00131314

> <r_epik_Charging_Adjusted_Penalty>
0.00201443

> <i_epik_Tot_Q>
1

> <i_epik_Tot_abs_Q>
1

> <r_epik_Metal_State_Penalty>
0.310831

> <b_epik_Metal_Only>
0

> <s_lp_Force_Field>
OPLS_2005

> <r_lp_Energy>
20.8584

> <b_lp_Chiralities_Consistent>
1

> <s_lp_Variant>
AV-unprocessed.smi:686-3

> <Gold.Version>
5.8.1

> <Gold.Id.Protein>
6NUR|6NUR_protein|mol2

> <Gold.PLP.Fitness>
35.9002

> <Gold.PLP.PLP>
-25.1423

> <Gold.PLP.part.hbond>
-3.9905

> <Gold.PLP.part.metal>
0.0000

> <Gold.PLP.part.buried>
-1.5668

> <Gold.PLP.part.nonpolar>
-20.7037

> <Gold.PLP.part.repulsive>
0.4834

> <Gold.PLP.ligand.clash>
0.0000

> <Gold.PLP.ligand.torsion>
0.3745

> <Gold.PLP.Chemscore.Hbond>
3.7680

> <Gold.PLP.Chemscore.CHOScore>
0.0000

> <Gold.PLP.Chemscore.Metal>
0.0000

> <Gold.Chemscore.Hbonds>
donor molecule, donor type, donor heavy atom, donor atom, acceptor molecule, acceptor atom, score
      L1  H     4    41       P1  7948  2.00
      P1  H  7989  7998       L1    12  0.93
      P1  H  8011  8017       L1    13  0.77

> <Gold.PLP.Chemscore.Internal.Correction>
0.2030

> <Gold.Rescore>
     Score         DG    S(hbond)    S(metal)    S(lipo)     H(rot)  DE(clash)    DE(int)     intcor
     10.63     -14.97       2.18        0.00      60.69       1.91       1.12       3.22       ----

> <Gold.Chemscore.Fitness>
10.6303

> <Gold.Chemscore.DG>
-14.9749

> <Gold.Chemscore.ZeroCoef>
-5.4800

> <Gold.Chemscore.Hbond>
2.1818

> <Gold.Chemscore.Metal>
0.0000

> <Gold.Chemscore.Lipo>
60.6929

> <Gold.Chemscore.Internal_Hbond>
0.0000

> <Gold.Chemscore.DEClash>
1.1220

> <Gold.Chemscore.DEInternal>
3.2226

> <Gold.Chemscore.Rot>
1.9115

> <Gold.Chemscore.Internal.Correction>
   9.000000E+99

> <Gold.Chemscore.Hbonds>
donor molecule, donor type, donor heavy atom, donor atom, acceptor molecule, acceptor atom, score
      L1  H     4    41       P1  7948  0.97
      P1  H  7989  7998       L1    12  0.23
      P1  H  8011  8017       L1    13  0.74

> <Gold.Chemscore.Hbond.Weighted>
-7.2873

> <Gold.Chemscore.Metal.Weighted>
-0.0000

> <Gold.Chemscore.Lipo.Weighted>
-7.1011

> <Gold.Chemscore.Internal_Hbond.Weighted>
0.0000

> <Gold.Chemscore.DEClash.Weighted>
1.1220

> <Gold.Chemscore.DEInternal.Weighted>
3.2226

> <Gold.Chemscore.Rot.Weighted>
4.8935

> <Gold.Chemscore.Internal.Correction.Weighted>
   9.000000E+99

> <Gold.Protein.RotatedTorsions>
[ 6907 6896 6895 6894 ] final  -34.11 input  -60.11 | X-H torsion
[ 7974 7965 7964 7962 ] final  -69.21 input  175.53 | X-H torsion
[ 8008 7997 7996 7995 ] final  -55.44 input   59.86 | X-H torsion
[ 10167 10162 10161 10158 ] final  -32.32 input  -65.29 | X-H torsion
[ 10718 10713 10712 10709 ] final -107.17 input   66.30 | X-H torsion
[ 10763 10752 10751 10750 ] final  -71.30 input  -60.55 | X-H torsion
[ 11005 11000 10999 10996 ] final  145.51 input  -57.11 | X-H torsion

> <Gold.Protein.ActiveResidues>
 VAL166  LYS551  ARG553  GLY616  TRP617  ASP618  TYR619  PRO620  LYS621  CYS622 
 ASP623  PHE694  ASN695  SER759  ASP760  ASP761  ALA762  ILE779  LEU786  VAL792 
 PHE793  MET794  SER795  GLU796  ALA797  LYS798  CYS799  TRP800  GLU811  SER814 

> <Gold.Protein.RotatedAtoms>
  151.0569  134.9710  159.8240 H   0  0  0  0  0  0  0  0  0  0  0  0  # atno 6907 bound_to 6896
  152.5389  134.2467  159.8893 H   0  0  0  0  0  0  0  0  0  0  0  0  # atno 6908 bound_to 6896
  151.2485  133.4319  159.2644 H   0  0  0  0  0  0  0  0  0  0  0  0  # atno 6909 bound_to 6896
  145.7066  140.9095  143.0703 H   0  0  0  0  0  0  0  0  0  0  0  0  # atno 7974 bound_to 7965
  154.4195  140.1153  156.5477 H   0  0  0  0  0  0  0  0  0  0  0  0  # atno 8008 bound_to 7997
  155.6442  140.3496  155.4706 H   0  0  0  0  0  0  0  0  0  0  0  0  # atno 8009 bound_to 7997
  155.9845  140.1167  157.0685 H   0  0  0  0  0  0  0  0  0  0  0  0  # atno 8010 bound_to 7997
  140.7223  143.3703  151.1790 H   0  0  0  0  0  0  0  0  0  0  0  0  # atno 10167 bound_to 10162
  156.0424  130.5649  150.7784 H   0  0  0  0  0  0  0  0  0  0  0  0  # atno 10718 bound_to 10713
  154.4299  135.5966  153.6062 H   0  0  0  0  0  0  0  0  0  0  0  0  # atno 10763 bound_to 10752
  152.9798  135.5972  154.3852 H   0  0  0  0  0  0  0  0  0  0  0  0  # atno 10764 bound_to 10752
  154.3689  135.2841  155.2256 H   0  0  0  0  0  0  0  0  0  0  0  0  # atno 10765 bound_to 10752
  140.0718  134.9147  157.1357 H   0  0  0  0  0  0  0  0  0  0  0  0  # atno 11005 bound_to 11000
  144.6953  139.9019  143.7459 LP  0  0  0  0  0  0  0  0  0  0  0  0  # atno 17320 bound_to 7965
  146.0750  139.3738  143.0499 LP  0  0  0  0  0  0  0  0  0  0  0  0  # atno 17321 bound_to 7965
  139.7273  143.9128  152.3007 LP  0  0  0  0  0  0  0  0  0  0  0  0  # atno 17342 bound_to 10162
  139.8905  144.6968  150.8776 LP  0  0  0  0  0  0  0  0  0  0  0  0  # atno 17343 bound_to 10162
  157.5258  131.0934  151.0019 LP  0  0  0  0  0  0  0  0  0  0  0  0  # atno 17370 bound_to 10713
  157.0338  130.5722  149.5347 LP  0  0  0  0  0  0  0  0  0  0  0  0  # atno 17371 bound_to 10713
  140.3616  134.2487  155.7186 LP  0  0  0  0  0  0  0  0  0  0  0  0  # atno 17394 bound_to 11000
  141.2014  133.7962  157.0440 LP  0  0  0  0  0  0  0  0  0  0  0  0  # atno 17395 bound_to 11000

$$$$
