AV-unprocessed.smi:1513|AV-procd|sdf|6113|dock5
  -GOLD-   22720 6243D 1   1.00000     0.00000
 Structure written by MMmdl.
 33 34  0  0  0  0  0  0  0  0  4 V2000
  152.0256  137.0942  155.9633 N   0  5  0  0  0  0  0  0  0  0  0  0
  152.3474  138.5922  155.4382 S   0  0  0  0  0  0  0  0  0  0  0  0
  153.6106  138.5913  154.6857 O   0  0  0  0  0  0  0  0  0  0  0  0
  151.1932  139.1742  154.7315 O   0  0  0  0  0  0  0  0  0  0  0  0
  152.5844  139.2531  156.9105 N   0  5  0  0  0  0  0  0  0  0  0  0
  151.4775  139.6663  157.7678 C   0  0  0  0  0  0  0  0  0  0  0  0
  151.4336  141.1908  157.9189 C   0  0  0  0  0  0  0  0  0  0  0  0
  152.4320  141.8165  158.7072 C   0  0  0  0  0  0  0  0  0  0  0  0
  152.4322  143.2157  158.8698 C   0  0  0  0  0  0  0  0  0  0  0  0
  151.4295  143.9755  158.2435 C   0  0  0  0  0  0  0  0  0  0  0  0
  150.4882  143.3577  157.5014 N   0  3  0  0  0  0  0  0  0  0  0  0
  150.4358  142.0149  157.3067 C   0  0  0  0  0  0  0  0  0  0  0  0
  149.3730  141.5285  156.5161 N   0  0  0  0  0  0  0  0  0  0  0  0
  148.0644  141.9672  156.9861 C   0  0  0  0  0  0  0  0  0  0  0  0
  146.9500  141.3027  156.1589 C   0  0  0  0  0  0  0  0  0  0  0  0
  147.1619  141.5593  154.7733 O   0  0  0  0  0  0  0  0  0  0  0  0
  148.4028  141.0267  154.3198 C   0  0  0  0  0  0  0  0  0  0  0  0
  149.5538  141.7049  155.0805 C   0  0  0  0  0  0  0  0  0  0  0  0
  151.9163  137.1280  156.9839 H   0  0  0  0  0  0  0  0  0  0  0  0
  150.5177  139.3203  157.3825 H   0  0  0  0  0  0  0  0  0  0  0  0
  151.5551  139.2449  158.7705 H   0  0  0  0  0  0  0  0  0  0  0  0
  153.2066  141.2420  159.1979 H   0  0  0  0  0  0  0  0  0  0  0  0
  153.1907  143.6964  159.4697 H   0  0  0  0  0  0  0  0  0  0  0  0
  151.3490  145.0502  158.3155 H   0  0  0  0  0  0  0  0  0  0  0  0
  147.9464  141.7141  158.0406 H   0  0  0  0  0  0  0  0  0  0  0  0
  147.9904  143.0521  156.9034 H   0  0  0  0  0  0  0  0  0  0  0  0
  146.9183  140.2272  156.3356 H   0  0  0  0  0  0  0  0  0  0  0  0
  145.9780  141.7002  156.4506 H   0  0  0  0  0  0  0  0  0  0  0  0
  148.4237  139.9448  154.4624 H   0  0  0  0  0  0  0  0  0  0  0  0
  148.4988  141.2101  153.2496 H   0  0  0  0  0  0  0  0  0  0  0  0
  149.5799  142.7672  154.8348 H   0  0  0  0  0  0  0  0  0  0  0  0
  150.5091  141.2760  154.7756 H   0  0  0  0  0  0  0  0  0  0  0  0
  149.7677  143.9324  157.0648 H   0  0  0  0  0  0  0  0  0  0  0  0
  1  2  1  0  0  0  0
  1 19  1  0  0  0  0
  2  3  2  0  0  0  0
  2  4  2  0  0  0  0
  2  5  1  0  0  0  0
  5  6  1  0  0  0  0
  6  7  1  0  0  0  0
  6 20  1  0  0  0  0
  6 21  1  0  0  0  0
  7 12  1  0  0  0  0
  7  8  2  0  0  0  0
  8  9  1  0  0  0  0
  8 22  1  0  0  0  0
  9 10  2  0  0  0  0
  9 23  1  0  0  0  0
 10 11  1  0  0  0  0
 10 24  1  0  0  0  0
 11 12  2  0  0  0  0
 11 33  1  0  0  0  0
 12 13  1  0  0  0  0
 13 18  1  0  0  0  0
 13 14  1  0  0  0  0
 14 15  1  0  0  0  0
 14 25  1  0  0  0  0
 14 26  1  0  0  0  0
 15 16  1  0  0  0  0
 15 27  1  0  0  0  0
 15 28  1  0  0  0  0
 16 17  1  0  0  0  0
 17 18  1  0  0  0  0
 17 29  1  0  0  0  0
 17 30  1  0  0  0  0
 18 31  1  0  0  0  0
 18 32  1  0  0  0  0
M  CHG  1   1  -1
M  CHG  1   5  -1
M  CHG  1  11   1
M  END
> <s_m_source_file>
AV-unprocessed.smi

> <i_m_source_file_index>
1513

> <i_lp_mmshare_version>
43012

> <i_f3d_flags>
0

> <s_epik_input>
W05IMl1TKD1PKSg9TylbTkhdW0NIMl1jMVtjSF1bY0hdW2NIXW5jMU4yW0NIMl1bQ0gyXU9bQ0gyXVtDSDJdMg==

> <s_epik_cmdline>
J2VwaWtfcHl0aG9uJywgJy1waCcsICc3LjAnLCAnLXRuJywgJzgnLCAnLW1hJywgJzIwMCcsICctbWV0YWxfYmluZGluZycsICctaW1hZScsICc8aW5maWxlLm1hZT4nLCAnLW9tYWUnLCAnPG91dGZpbGUubWFlPic=

> <r_epik_Ionization_Penalty>
8.77184

> <r_epik_Ionization_Penalty_Charging>
8.77184

> <r_epik_Ionization_Penalty_Neutral>
3.18713e-12

> <r_epik_State_Penalty>
5.60098

> <r_epik_Charging_Adjusted_Penalty>
14.3728

> <i_epik_Tot_Q>
-1

> <i_epik_Tot_abs_Q>
3

> <r_epik_Metal_State_Penalty>
2.46454

> <b_epik_Metal_Only>
1

> <s_lp_Force_Field>
OPLS_2005

> <r_lp_Energy>
20.8309

> <b_lp_Chiralities_Consistent>
1

> <s_lp_Variant>
AV-unprocessed.smi:1513-6

> <Gold.Version>
5.8.1

> <Gold.Id.Protein>
6NUR|6NUR_protein|mol2

> <Gold.PLP.Fitness>
50.5481

> <Gold.PLP.PLP>
-30.8102

> <Gold.PLP.part.hbond>
-4.9743

> <Gold.PLP.part.metal>
0.0000

> <Gold.PLP.part.buried>
-3.8853

> <Gold.PLP.part.nonpolar>
-22.8579

> <Gold.PLP.part.repulsive>
0.3564

> <Gold.PLP.ligand.clash>
0.0000

> <Gold.PLP.ligand.torsion>
0.9449

> <Gold.PLP.Chemscore.Hbond>
6.8240

> <Gold.PLP.Chemscore.CHOScore>
0.0000

> <Gold.PLP.Chemscore.Metal>
0.0000

> <Gold.Chemscore.Hbonds>
donor molecule, donor type, donor heavy atom, donor atom, acceptor molecule, acceptor atom, score
      L1  H    11    33       P1  8028  2.00
      P1  H  7989  7998       L1     4  0.73
      P1  H  7997  8009       L1     5  1.60
      P1  H 10752 10765       L1     1  1.40

> <Gold.PLP.Chemscore.Internal.Correction>
1.1558

> <Gold.Rescore>
     Score         DG    S(hbond)    S(metal)    S(lipo)     H(rot)  DE(clash)    DE(int)     intcor
     17.85     -19.30       3.27        0.00      66.08       1.89       0.65       0.80       ----

> <Gold.Chemscore.Fitness>
17.8451

> <Gold.Chemscore.DG>
-19.2967

> <Gold.Chemscore.ZeroCoef>
-5.4800

> <Gold.Chemscore.Hbond>
3.2723

> <Gold.Chemscore.Metal>
0.0000

> <Gold.Chemscore.Lipo>
66.0793

> <Gold.Chemscore.Internal_Hbond>
0.0000

> <Gold.Chemscore.DEClash>
0.6528

> <Gold.Chemscore.DEInternal>
0.7988

> <Gold.Chemscore.Rot>
1.8922

> <Gold.Chemscore.Internal.Correction>
   9.000000E+99

> <Gold.Chemscore.Hbonds>
donor molecule, donor type, donor heavy atom, donor atom, acceptor molecule, acceptor atom, score
      L1  H    11    33       P1  8028  0.84
      P1  H  7989  7998       L1     4  0.66
      P1  H  7997  8009       L1     5  0.11
      P1  H 10752 10765       L1     1  0.57

> <Gold.Chemscore.Hbond.Weighted>
-10.9295

> <Gold.Chemscore.Metal.Weighted>
-0.0000

> <Gold.Chemscore.Lipo.Weighted>
-7.7313

> <Gold.Chemscore.Internal_Hbond.Weighted>
0.0000

> <Gold.Chemscore.DEClash.Weighted>
0.6528

> <Gold.Chemscore.DEInternal.Weighted>
0.7988

> <Gold.Chemscore.Rot.Weighted>
4.8441

> <Gold.Chemscore.Internal.Correction.Weighted>
   9.000000E+99

> <Gold.Protein.RotatedTorsions>
[ 6907 6896 6895 6894 ] final -118.11 input  -60.11 | X-H torsion
[ 7974 7965 7964 7962 ] final   64.85 input  175.53 | X-H torsion
[ 8008 7997 7996 7995 ] final -170.08 input   59.86 | X-H torsion
[ 10167 10162 10161 10158 ] final   33.51 input  -65.29 | X-H torsion
[ 10718 10713 10712 10709 ] final  154.48 input   66.30 | X-H torsion
[ 10763 10752 10751 10750 ] final -165.20 input  -60.55 | X-H torsion
[ 11005 11000 10999 10996 ] final -137.49 input  -57.11 | X-H torsion

> <Gold.Protein.ActiveResidues>
 VAL166  LYS551  ARG553  GLY616  TRP617  ASP618  TYR619  PRO620  LYS621  CYS622 
 ASP623  PHE694  ASN695  SER759  ASP760  ASP761  ALA762  ILE779  LEU786  VAL792 
 PHE793  MET794  SER795  GLU796  ALA797  LYS798  CYS799  TRP800  GLU811  SER814 

> <Gold.Protein.RotatedAtoms>
  150.8192  133.8282  159.3146 H   0  0  0  0  0  0  0  0  0  0  0  0  # atno 6907 bound_to 6896
  151.6045  135.1043  160.0077 H   0  0  0  0  0  0  0  0  0  0  0  0  # atno 6908 bound_to 6896
  152.4282  133.7191  159.6579 H   0  0  0  0  0  0  0  0  0  0  0  0  # atno 6909 bound_to 6896
  145.8454  139.3221  143.0907 H   0  0  0  0  0  0  0  0  0  0  0  0  # atno 7974 bound_to 7965
  155.9135  140.1061  157.1261 H   0  0  0  0  0  0  0  0  0  0  0  0  # atno 8008 bound_to 7997
  154.4043  140.1269  156.4653 H   0  0  0  0  0  0  0  0  0  0  0  0  # atno 8009 bound_to 7997
  155.7281  140.3469  155.5049 H   0  0  0  0  0  0  0  0  0  0  0  0  # atno 8010 bound_to 7997
  140.4401  144.1200  150.6172 H   0  0  0  0  0  0  0  0  0  0  0  0  # atno 10167 bound_to 10162
  157.2310  131.0739  151.1853 H   0  0  0  0  0  0  0  0  0  0  0  0  # atno 10718 bound_to 10713
  154.6954  135.2978  154.9418 H   0  0  0  0  0  0  0  0  0  0  0  0  # atno 10763 bound_to 10752
  154.0368  135.6663  153.4790 H   0  0  0  0  0  0  0  0  0  0  0  0  # atno 10764 bound_to 10752
  153.0642  135.5098  154.8069 H   0  0  0  0  0  0  0  0  0  0  0  0  # atno 10765 bound_to 10752
  140.8706  134.2056  157.4653 H   0  0  0  0  0  0  0  0  0  0  0  0  # atno 11005 bound_to 11000
  145.9418  140.8974  143.0304 LP  0  0  0  0  0  0  0  0  0  0  0  0  # atno 17320 bound_to 7965
  144.6731  140.1559  143.7426 LP  0  0  0  0  0  0  0  0  0  0  0  0  # atno 17321 bound_to 7965
  140.4328  143.2560  151.9573 LP  0  0  0  0  0  0  0  0  0  0  0  0  # atno 17342 bound_to 10162
  139.4789  144.5727  151.8061 LP  0  0  0  0  0  0  0  0  0  0  0  0  # atno 17343 bound_to 10162
  157.3478  130.7066  149.6421 LP  0  0  0  0  0  0  0  0  0  0  0  0  # atno 17370 bound_to 10713
  155.9675  130.4261  150.4685 LP  0  0  0  0  0  0  0  0  0  0  0  0  # atno 17371 bound_to 10713
  139.8712  134.9772  156.4951 LP  0  0  0  0  0  0  0  0  0  0  0  0  # atno 17394 bound_to 11000
  140.8578  133.8083  155.9234 LP  0  0  0  0  0  0  0  0  0  0  0  0  # atno 17395 bound_to 11000

$$$$
