AV-unprocessed.smi:218|AV-procd|sdf|1666|dock5
  -GOLD-   2262020 73D 1   1.00000     0.00000
 Structure written by MMmdl.
 54 57  0  0  0  0  0  0  0  0  1 V2000
  152.5359  142.0494  160.1292 C   0  0  0  0  0  0  0  0  0  0  0  0
  152.2105  141.8471  158.6446 C   0  0  0  0  0  0  0  0  0  0  0  0
  151.3890  143.0235  158.0898 C   0  0  0  0  0  0  0  0  0  0  0  0
  151.4670  140.6306  158.5441 O   0  0  0  0  0  0  0  0  0  0  0  0
  151.4200  139.9417  157.3471 C   0  0  0  0  0  0  0  0  0  0  0  0
  150.3122  139.1045  157.1015 C   0  0  0  0  0  0  0  0  0  0  0  0
  150.2575  138.3819  155.8915 C   0  0  0  0  0  0  0  0  0  0  0  0
  149.0957  137.4511  155.5902 C   0  0  0  0  0  0  0  0  0  0  0  0
  147.8305  138.1173  155.3003 N   0  0  0  0  0  0  0  0  0  0  0  0
  146.9368  137.5690  154.4476 C   0  0  0  0  0  0  0  0  0  0  0  0
  146.2534  138.3341  153.5568 N   0  0  0  0  0  0  0  0  0  0  0  0
  145.3866  137.7653  152.7141 C   0  0  0  0  0  0  0  0  0  0  0  0
  145.0672  136.4754  152.5914 N   0  0  0  0  0  0  0  0  0  0  0  0
  145.7521  135.7009  153.4816 C   0  0  0  0  0  0  0  0  0  0  0  0
  146.6960  136.1703  154.4374 C   0  0  0  0  0  0  0  0  0  0  0  0
  147.1941  135.1016  155.1711 N   0  0  0  0  0  0  0  0  0  0  0  0
  146.5825  134.0621  154.6699 C   0  0  0  0  0  0  0  0  0  0  0  0
  145.6985  134.3314  153.6486 N   0  0  0  0  0  0  0  0  0  0  0  0
  144.8663  133.3538  152.8841 C   0  0  2  0  0  0  0  0  0  0  0  0
  145.6951  132.6807  151.9912 O   0  0  0  0  0  0  0  0  0  0  0  0
  144.9624  132.3960  150.8089 C   0  0  2  0  0  0  0  0  0  0  0  0
  145.9084  132.0818  149.6369 C   0  0  0  0  0  0  0  0  0  0  0  0
  147.1223  132.7843  149.7947 O   0  0  0  0  0  0  0  0  0  0  0  0
  144.0759  133.6396  150.6351 C   0  0  2  0  0  0  0  0  0  0  0  0
  144.7519  134.6715  149.9412 O   0  0  0  0  0  0  0  0  0  0  0  0
  143.7745  134.0700  152.0692 C   0  0  1  0  0  0  0  0  0  0  0  0
  142.4874  133.6137  152.4353 O   0  0  0  0  0  0  0  0  0  0  0  0
  151.3151  138.5269  154.9719 C   0  0  0  0  0  0  0  0  0  0  0  0
  152.3771  139.3903  155.3027 C   0  0  0  0  0  0  0  0  0  0  0  0
  152.4376  140.0809  156.4611 N   0  0  0  0  0  0  0  0  0  0  0  0
  144.4751  132.6648  153.6344 H   0  0  0  0  0  0  0  0  0  0  0  0
  144.3115  131.5416  151.0061 H   0  0  0  0  0  0  0  0  0  0  0  0
  143.1732  133.4053  150.0687 H   0  0  0  0  0  0  0  0  0  0  0  0
  143.8231  135.1527  152.2004 H   0  0  0  0  0  0  0  0  0  0  0  0
  153.1128  142.9615  160.2845 H   0  0  0  0  0  0  0  0  0  0  0  0
  153.1235  141.2166  160.5161 H   0  0  0  0  0  0  0  0  0  0  0  0
  151.6272  142.1221  160.7277 H   0  0  0  0  0  0  0  0  0  0  0  0
  153.1613  141.7730  158.1145 H   0  0  0  0  0  0  0  0  0  0  0  0
  151.9339  143.9621  158.1939 H   0  0  0  0  0  0  0  0  0  0  0  0
  150.4425  143.1264  158.6214 H   0  0  0  0  0  0  0  0  0  0  0  0
  151.1607  142.8950  157.0322 H   0  0  0  0  0  0  0  0  0  0  0  0
  149.5228  139.0160  157.8332 H   0  0  0  0  0  0  0  0  0  0  0  0
  149.3544  136.7877  154.7636 H   0  0  0  0  0  0  0  0  0  0  0  0
  148.9454  136.8090  156.4580 H   0  0  0  0  0  0  0  0  0  0  0  0
  147.6876  139.0101  155.7501 H   0  0  0  0  0  0  0  0  0  0  0  0
  144.8792  138.4392  152.0396 H   0  0  0  0  0  0  0  0  0  0  0  0
  146.7623  133.0610  155.0339 H   0  0  0  0  0  0  0  0  0  0  0  0
  146.1481  131.0182  149.6220 H   0  0  0  0  0  0  0  0  0  0  0  0
  145.4511  132.3282  148.6778 H   0  0  0  0  0  0  0  0  0  0  0  0
  147.8361  132.1747  149.6820 H   0  0  0  0  0  0  0  0  0  0  0  0
  145.0739  134.3251  149.1233 H   0  0  0  0  0  0  0  0  0  0  0  0
  142.5693  133.0703  153.2040 H   0  0  0  0  0  0  0  0  0  0  0  0
  151.3147  137.9924  154.0334 H   0  0  0  0  0  0  0  0  0  0  0  0
  153.2032  139.5265  154.6204 H   0  0  0  0  0  0  0  0  0  0  0  0
  1  2  1  0  0  0  0
  1 35  1  0  0  0  0
  1 36  1  0  0  0  0
  1 37  1  0  0  0  0
  2  3  1  0  0  0  0
  2  4  1  0  0  0  0
  2 38  1  0  0  0  0
  3 39  1  0  0  0  0
  3 40  1  0  0  0  0
  3 41  1  0  0  0  0
  4  5  1  0  0  0  0
  5 30  1  0  0  0  0
  5  6  2  0  0  0  0
  6  7  1  0  0  0  0
  6 42  1  0  0  0  0
  7  8  1  0  0  0  0
  7 28  2  0  0  0  0
  8  9  1  0  0  0  0
  8 43  1  0  0  0  0
  8 44  1  0  0  0  0
  9 10  1  0  0  0  0
  9 45  1  0  0  0  0
 10 15  1  0  0  0  0
 10 11  2  0  0  0  0
 11 12  1  0  0  0  0
 12 13  2  0  0  0  0
 12 46  1  0  0  0  0
 13 14  1  0  0  0  0
 14 18  1  0  0  0  0
 14 15  2  0  0  0  0
 15 16  1  0  0  0  0
 16 17  2  0  0  0  0
 17 18  1  0  0  0  0
 17 47  1  0  0  0  0
 18 19  1  0  0  0  0
 19 31  1  0  0  0  0
 19 26  1  0  0  0  0
 19 20  1  0  0  0  0
 20 21  1  0  0  0  0
 21 32  1  0  0  0  0
 21 22  1  0  0  0  0
 21 24  1  0  0  0  0
 22 23  1  0  0  0  0
 22 48  1  0  0  0  0
 22 49  1  0  0  0  0
 23 50  1  0  0  0  0
 24 33  1  0  0  0  0
 24 25  1  0  0  0  0
 24 26  1  0  0  0  0
 25 51  1  0  0  0  0
 26 34  1  0  0  0  0
 26 27  1  0  0  0  0
 27 52  1  0  0  0  0
 28 29  1  0  0  0  0
 28 53  1  0  0  0  0
 29 30  2  0  0  0  0
 29 54  1  0  0  0  0
M  END
> <s_m_source_file>
AV-unprocessed.smi

> <i_m_source_file_index>
218

> <i_lp_mmshare_version>
43012

> <i_f3d_flags>
0

> <s_epik_input>
W0NIM11bQ0hdKFtDSDNdKU9jMVtjSF1jKFtjSF1bY0hdbjEpW0NIMl1bTkhdYyhuW2NIXW4yKWMoYzIzKW5bY0hdbjNbQ0BASF00T1tDQEhdKFtDSDJdW09IXSlbQ0BASF0oW09IXSlbQ0BIXTRbT0hd

> <s_epik_cmdline>
J2VwaWtfcHl0aG9uJywgJy1waCcsICc3LjAnLCAnLXRuJywgJzgnLCAnLW1hJywgJzIwMCcsICctbWV0YWxfYmluZGluZycsICctaW1hZScsICc8aW5maWxlLm1hZT4nLCAnLW9tYWUnLCAnPG91dGZpbGUubWFlPic=

> <r_lp_tautomer_probability>
1

> <r_epik_Ionization_Penalty>
0.00457014

> <r_epik_Ionization_Penalty_Charging>
0

> <r_epik_Ionization_Penalty_Neutral>
0.00457014

> <r_epik_State_Penalty>
-0

> <r_epik_Charging_Adjusted_Penalty>
0

> <i_epik_Tot_Q>
0

> <i_epik_Tot_abs_Q>
0

> <r_epik_Metal_State_Penalty>
-0

> <b_epik_Metal_Only>
0

> <s_epik_Chemistry_Notes>
This compound contains an acetal/aminal-like group ( X-CH(R)-Y where X, Y are N, S, or O) that may be acid/base labile, releasing an aldehyde.

> <s_lp_Force_Field>
OPLS_2005

> <r_lp_Energy>
40.0122

> <b_lp_Chiralities_Consistent>
1

> <s_lp_Variant>
AV-unprocessed.smi:218-5

> <Gold.Version>
5.8.1

> <Gold.Id.Protein>
6NUR|6NUR_protein|mol2

> <Gold.PLP.Fitness>
51.4159

> <Gold.PLP.PLP>
-37.6699

> <Gold.PLP.part.hbond>
-5.7773

> <Gold.PLP.part.metal>
0.0000

> <Gold.PLP.part.buried>
-4.5382

> <Gold.PLP.part.nonpolar>
-27.9683

> <Gold.PLP.part.repulsive>
0.5256

> <Gold.PLP.ligand.clash>
0.0000

> <Gold.PLP.ligand.torsion>
1.8910

> <Gold.PLP.Chemscore.Hbond>
3.7753

> <Gold.PLP.Chemscore.CHOScore>
2.0000

> <Gold.PLP.Chemscore.Metal>
0.0000

> <Gold.Chemscore.Hbonds>
donor molecule, donor type, donor heavy atom, donor atom, acceptor molecule, acceptor atom, score
      L1  H    23    50       P1 10747  1.00
      L1  H    25    51       P1  7921  0.83
      L1  H    27    52       P1 10957  0.99
      P1  H  7997  8010       L1    30  0.70
      L1  C    12    46       P1 10171  1.00
      L1  C    12    46       P1 10175  1.00

> <Gold.PLP.Chemscore.Internal.Correction>
0.2023

> <Gold.Rescore>
     Score         DG    S(hbond)    S(metal)    S(lipo)     H(rot)  DE(clash)    DE(int)     intcor
     10.18     -13.81       3.04        0.00      91.61       4.90       0.41       3.22       ----

> <Gold.Chemscore.Fitness>
10.1762

> <Gold.Chemscore.DG>
-13.8085

> <Gold.Chemscore.ZeroCoef>
-5.4800

> <Gold.Chemscore.Hbond>
3.0426

> <Gold.Chemscore.Metal>
0.0000

> <Gold.Chemscore.Lipo>
91.6050

> <Gold.Chemscore.Internal_Hbond>
0.0000

> <Gold.Chemscore.DEClash>
0.4091

> <Gold.Chemscore.DEInternal>
3.2232

> <Gold.Chemscore.Rot>
4.9029

> <Gold.Chemscore.Internal.Correction>
   9.000000E+99

> <Gold.Chemscore.Hbonds>
donor molecule, donor type, donor heavy atom, donor atom, acceptor molecule, acceptor atom, score
      L1  H    23    50       P1 10747  0.98
      L1  H    25    51       P1  7921  0.81
      L1  H    27    52       P1 10957  0.69
      P1  H  7997  8010       L1    30  0.07

> <Gold.Chemscore.Hbond.Weighted>
-10.1623

> <Gold.Chemscore.Metal.Weighted>
-0.0000

> <Gold.Chemscore.Lipo.Weighted>
-10.7178

> <Gold.Chemscore.Internal_Hbond.Weighted>
0.0000

> <Gold.Chemscore.DEClash.Weighted>
0.4091

> <Gold.Chemscore.DEInternal.Weighted>
3.2232

> <Gold.Chemscore.Rot.Weighted>
12.5515

> <Gold.Chemscore.Internal.Correction.Weighted>
   9.000000E+99

> <Gold.Protein.RotatedTorsions>
[ 6907 6896 6895 6894 ] final  123.15 input  -60.11 | X-H torsion
[ 7974 7965 7964 7962 ] final   45.27 input  175.53 | X-H torsion
[ 8008 7997 7996 7995 ] final   68.67 input   59.86 | X-H torsion
[ 10167 10162 10161 10158 ] final  131.87 input  -65.29 | X-H torsion
[ 10718 10713 10712 10709 ] final  159.25 input   66.30 | X-H torsion
[ 10763 10752 10751 10750 ] final  168.75 input  -60.55 | X-H torsion
[ 11005 11000 10999 10996 ] final   30.49 input  -57.11 | X-H torsion

> <Gold.Protein.ActiveResidues>
 VAL166  LYS551  ARG553  GLY616  TRP617  ASP618  TYR619  PRO620  LYS621  CYS622 
 ASP623  PHE694  ASN695  SER759  ASP760  ASP761  ALA762  ILE779  LEU786  VAL792 
 PHE793  MET794  SER795  GLU796  ALA797  LYS798  CYS799  TRP800  GLU811  SER814 

> <Gold.Protein.RotatedAtoms>
  152.4185  133.7078  159.6460 H   0  0  0  0  0  0  0  0  0  0  0  0  # atno 6907 bound_to 6896
  150.8062  133.8495  159.3210 H   0  0  0  0  0  0  0  0  0  0  0  0  # atno 6908 bound_to 6896
  151.6219  135.1033  160.0155 H   0  0  0  0  0  0  0  0  0  0  0  0  # atno 6909 bound_to 6896
  146.0495  139.4983  142.9727 H   0  0  0  0  0  0  0  0  0  0  0  0  # atno 7974 bound_to 7965
  155.7119  140.3494  155.4977 H   0  0  0  0  0  0  0  0  0  0  0  0  # atno 8008 bound_to 7997
  155.9348  140.1091  157.1125 H   0  0  0  0  0  0  0  0  0  0  0  0  # atno 8009 bound_to 7997
  154.4092  140.1224  156.4837 H   0  0  0  0  0  0  0  0  0  0  0  0  # atno 8010 bound_to 7997
  139.5365  144.6687  151.4769 H   0  0  0  0  0  0  0  0  0  0  0  0  # atno 10167 bound_to 10162
  157.1668  131.0600  151.2204 H   0  0  0  0  0  0  0  0  0  0  0  0  # atno 10718 bound_to 10713
  154.3731  135.2753  155.2255 H   0  0  0  0  0  0  0  0  0  0  0  0  # atno 10763 bound_to 10752
  154.4394  135.5958  153.6123 H   0  0  0  0  0  0  0  0  0  0  0  0  # atno 10764 bound_to 10752
  152.9837  135.6015  154.3965 H   0  0  0  0  0  0  0  0  0  0  0  0  # atno 10765 bound_to 10752
  140.2939  134.2833  155.7769 H   0  0  0  0  0  0  0  0  0  0  0  0  # atno 11005 bound_to 11000
  145.6748  141.0207  143.1638 LP  0  0  0  0  0  0  0  0  0  0  0  0  # atno 17320 bound_to 7965
  144.7115  139.8353  143.7413 LP  0  0  0  0  0  0  0  0  0  0  0  0  # atno 17321 bound_to 7965
  140.6574  143.8571  150.6849 LP  0  0  0  0  0  0  0  0  0  0  0  0  # atno 17342 bound_to 10162
  140.1955  143.4002  152.1831 LP  0  0  0  0  0  0  0  0  0  0  0  0  # atno 17343 bound_to 10162
  157.4081  130.7370  149.6818 LP  0  0  0  0  0  0  0  0  0  0  0  0  # atno 17370 bound_to 10713
  155.9745  130.4103  150.3921 LP  0  0  0  0  0  0  0  0  0  0  0  0  # atno 17371 bound_to 10713
  141.2141  133.7602  156.9665 LP  0  0  0  0  0  0  0  0  0  0  0  0  # atno 17394 bound_to 11000
  140.1171  134.9441  157.2149 LP  0  0  0  0  0  0  0  0  0  0  0  0  # atno 17395 bound_to 11000

$$$$
