AV-unprocessed.smi:1701|AV-procd|sdf|6835|dock2
  -GOLD-   22720 8 13D 1   1.00000     0.00000
 Structure written by MMmdl.
 54 56  0  0  0  0  0  0  0  0  2 V2000
  151.1145  143.2992  158.0709 C   0  0  0  0  0  0  0  0  0  0  0  0
  150.0817  142.4199  157.3517 C   0  0  0  0  0  0  0  0  0  0  0  0
  150.6575  141.1969  156.7922 N   0  0  0  0  0  0  0  0  0  0  0  0
  152.0204  140.8152  157.1709 C   0  0  0  0  0  0  0  0  0  0  0  0
  152.1678  140.5158  158.6707 C   0  0  0  0  0  0  0  0  0  0  0  0
  149.8620  140.3092  156.0249 C   0  0  0  0  0  0  0  0  0  0  0  0
  148.6034  139.8445  156.4841 C   0  0  0  0  0  0  0  0  0  0  0  0
  147.8521  138.9658  155.6805 C   0  0  0  0  0  0  0  0  0  0  0  0
  148.3760  138.5605  154.4321 C   0  0  0  0  0  0  0  0  0  0  0  0
  147.7106  137.6960  153.5226 N   0  0  0  0  0  0  0  0  0  0  0  0
  146.3926  137.4366  153.4160 C   0  0  0  0  0  0  0  0  0  0  0  0
  145.5209  137.9268  154.1293 O   0  0  0  0  0  0  0  0  0  0  0  0
  146.0843  136.5430  152.4586 N   0  0  0  0  0  0  0  0  0  0  0  0
  144.7603  136.0417  152.0819 C   0  0  2  0  0  0  0  0  0  0  0  0
  143.9725  135.4932  153.2650 C   0  0  0  0  0  0  0  0  0  0  0  0
  142.9011  134.6245  152.5988 C   0  0  0  0  0  0  0  0  0  0  0  0
  143.4578  134.1788  151.2981 N   0  3  2  0  0  0  0  0  0  0  0  0
  143.4677  132.7022  151.1182 C   0  0  0  0  0  0  0  0  0  0  0  0
  144.3912  132.2967  149.9601 C   0  0  0  0  0  0  0  0  0  0  0  0
  145.8511  132.7048  150.2337 C   0  0  0  0  0  0  0  0  0  0  0  0
  145.9597  133.8762  151.2286 C   0  0  0  0  0  0  0  0  0  0  0  0
  144.7695  134.8575  151.0937 C   0  0  2  0  0  0  0  0  0  0  0  0
  149.6267  139.0826  154.0519 C   0  0  0  0  0  0  0  0  0  0  0  0
  150.3493  139.9232  154.8197 N   0  0  0  0  0  0  0  0  0  0  0  0
  150.6320  144.1695  158.5154 H   0  0  0  0  0  0  0  0  0  0  0  0
  151.8741  143.6670  157.3822 H   0  0  0  0  0  0  0  0  0  0  0  0
  151.6191  142.7567  158.8705 H   0  0  0  0  0  0  0  0  0  0  0  0
  149.2522  142.1799  158.0162 H   0  0  0  0  0  0  0  0  0  0  0  0
  149.6332  142.9948  156.5409 H   0  0  0  0  0  0  0  0  0  0  0  0
  152.3479  139.9581  156.5816 H   0  0  0  0  0  0  0  0  0  0  0  0
  152.7004  141.6251  156.9058 H   0  0  0  0  0  0  0  0  0  0  0  0
  153.1955  140.2393  158.9055 H   0  0  0  0  0  0  0  0  0  0  0  0
  151.5274  139.6897  158.9798 H   0  0  0  0  0  0  0  0  0  0  0  0
  151.9140  141.3808  159.2818 H   0  0  0  0  0  0  0  0  0  0  0  0
  148.1952  140.1371  157.4388 H   0  0  0  0  0  0  0  0  0  0  0  0
  146.8884  138.6342  156.0343 H   0  0  0  0  0  0  0  0  0  0  0  0
  148.3162  137.1625  152.9171 H   0  0  0  0  0  0  0  0  0  0  0  0
  146.8632  136.1494  151.9499 H   0  0  0  0  0  0  0  0  0  0  0  0
  144.1763  136.8586  151.6526 H   0  0  0  0  0  0  0  0  0  0  0  0
  144.6139  134.8710  153.8912 H   0  0  0  0  0  0  0  0  0  0  0  0
  143.5486  136.2770  153.8934 H   0  0  0  0  0  0  0  0  0  0  0  0
  142.5978  133.7980  153.2431 H   0  0  0  0  0  0  0  0  0  0  0  0
  142.0103  135.2196  152.3949 H   0  0  0  0  0  0  0  0  0  0  0  0
  143.8057  132.2130  152.0335 H   0  0  0  0  0  0  0  0  0  0  0  0
  142.4486  132.3601  150.9356 H   0  0  0  0  0  0  0  0  0  0  0  0
  144.3321  131.2227  149.7806 H   0  0  0  0  0  0  0  0  0  0  0  0
  144.0430  132.7776  149.0449 H   0  0  0  0  0  0  0  0  0  0  0  0
  146.4102  131.8549  150.6268 H   0  0  0  0  0  0  0  0  0  0  0  0
  146.3281  132.9703  149.2896 H   0  0  0  0  0  0  0  0  0  0  0  0
  145.9896  133.4846  152.2463 H   0  0  0  0  0  0  0  0  0  0  0  0
  146.9113  134.3846  151.0723 H   0  0  0  0  0  0  0  0  0  0  0  0
  144.7844  135.2494  150.0756 H   0  0  0  0  0  0  0  0  0  0  0  0
  150.0672  138.8148  153.1023 H   0  0  0  0  0  0  0  0  0  0  0  0
  142.8437  134.5503  150.5874 H   0  0  0  0  0  0  0  0  0  0  0  0
  1  2  1  0  0  0  0
  1 25  1  0  0  0  0
  1 26  1  0  0  0  0
  1 27  1  0  0  0  0
  2  3  1  0  0  0  0
  2 28  1  0  0  0  0
  2 29  1  0  0  0  0
  3  4  1  0  0  0  0
  3  6  1  0  0  0  0
  4  5  1  0  0  0  0
  4 30  1  0  0  0  0
  4 31  1  0  0  0  0
  5 32  1  0  0  0  0
  5 33  1  0  0  0  0
  5 34  1  0  0  0  0
  6 24  1  0  0  0  0
  6  7  2  0  0  0  0
  7  8  1  0  0  0  0
  7 35  1  0  0  0  0
  8  9  2  0  0  0  0
  8 36  1  0  0  0  0
  9 10  1  0  0  0  0
  9 23  1  0  0  0  0
 10 11  1  0  0  0  0
 10 37  1  0  0  0  0
 11 12  2  0  0  0  0
 11 13  1  0  0  0  0
 13 14  1  0  0  0  0
 13 38  1  0  0  0  0
 14 22  1  0  0  0  0
 14 15  1  0  0  0  0
 14 39  1  0  0  0  0
 15 16  1  0  0  0  0
 15 40  1  0  0  0  0
 15 41  1  0  0  0  0
 16 17  1  0  0  0  0
 16 42  1  0  0  0  0
 16 43  1  0  0  0  0
 17 22  1  0  0  0  0
 17 18  1  0  0  0  0
 17 54  1  0  0  0  0
 18 19  1  0  0  0  0
 18 44  1  0  0  0  0
 18 45  1  0  0  0  0
 19 20  1  0  0  0  0
 19 46  1  0  0  0  0
 19 47  1  0  0  0  0
 20 21  1  0  0  0  0
 20 48  1  0  0  0  0
 20 49  1  0  0  0  0
 21 22  1  0  0  0  0
 21 50  1  0  0  0  0
 21 51  1  0  0  0  0
 22 52  1  0  0  0  0
 23 24  2  0  0  0  0
 23 53  1  0  0  0  0
M  CHG  1  17   1
M  END
> <s_m_source_file>
AV-unprocessed.smi

> <i_m_source_file_index>
1701

> <i_lp_mmshare_version>
43012

> <i_f3d_flags>
0

> <s_epik_input>
W0NIM11bQ0gyXU4oW0NIMl1bQ0gzXSljMVtjSF1bY0hdYyhbY0hdbjEpW05IXUMoPU8pW05IXVtDQEhdKFtDSDJdW0NIMl0yKVtDQEBIXShOMjMpW0NIMl1bQ0gyXVtDSDJdW0NIMl0z

> <s_epik_cmdline>
J2VwaWtfcHl0aG9uJywgJy1waCcsICc3LjAnLCAnLXRuJywgJzgnLCAnLW1hJywgJzIwMCcsICctbWV0YWxfYmluZGluZycsICctaW1hZScsICc8aW5maWxlLm1hZT4nLCAnLW9tYWUnLCAnPG91dGZpbGUubWFlPic=

> <r_lp_tautomer_probability>
1

> <r_epik_Ionization_Penalty>
0.56662

> <r_epik_Ionization_Penalty_Charging>
0.000974069

> <r_epik_Ionization_Penalty_Neutral>
0.565646

> <r_epik_State_Penalty>
2.0247

> <r_epik_Charging_Adjusted_Penalty>
2.02568

> <i_epik_Tot_Q>
1

> <i_epik_Tot_abs_Q>
1

> <r_epik_Metal_State_Penalty>
1.51504

> <b_epik_Metal_Only>
0

> <s_lp_Force_Field>
OPLS_2005

> <r_lp_Energy>
59.1107

> <b_lp_Chiralities_Consistent>
1

> <s_lp_Variant>
AV-unprocessed.smi:1701-15

> <Gold.Version>
5.8.1

> <Gold.Id.Protein>
6NUR|6NUR_protein|mol2

> <Gold.PLP.Fitness>
50.1282

> <Gold.PLP.PLP>
-37.1800

> <Gold.PLP.part.hbond>
-3.8910

> <Gold.PLP.part.metal>
0.0000

> <Gold.PLP.part.buried>
-5.0431

> <Gold.PLP.part.nonpolar>
-29.0478

> <Gold.PLP.part.repulsive>
0.2323

> <Gold.PLP.ligand.clash>
0.0000

> <Gold.PLP.ligand.torsion>
1.2909

> <Gold.PLP.Chemscore.Hbond>
4.3016

> <Gold.PLP.Chemscore.CHOScore>
0.8472

> <Gold.PLP.Chemscore.Metal>
0.0000

> <Gold.Chemscore.Hbonds>
donor molecule, donor type, donor heavy atom, donor atom, acceptor molecule, acceptor atom, score
      L1  H    10    37       P1  7948  1.00
      L1  H    13    38       P1  7948  0.77
      L1  H    17    54       P1 10186  1.59
      P1  H  7989  7998       L1    24  0.91
      L1  C    23    53       P1  7957  0.85

> <Gold.PLP.Chemscore.Internal.Correction>
0.0837

> <Gold.Rescore>
     Score         DG    S(hbond)    S(metal)    S(lipo)     H(rot)  DE(clash)    DE(int)     intcor
     18.82     -21.50       2.43        0.00      95.62       1.28       0.38       2.30       ----

> <Gold.Chemscore.Fitness>
18.8184

> <Gold.Chemscore.DG>
-21.5046

> <Gold.Chemscore.ZeroCoef>
-5.4800

> <Gold.Chemscore.Hbond>
2.4321

> <Gold.Chemscore.Metal>
0.0000

> <Gold.Chemscore.Lipo>
95.6237

> <Gold.Chemscore.Internal_Hbond>
0.0000

> <Gold.Chemscore.DEClash>
0.3813

> <Gold.Chemscore.DEInternal>
2.3049

> <Gold.Chemscore.Rot>
1.2838

> <Gold.Chemscore.Internal.Correction>
   9.000000E+99

> <Gold.Chemscore.Hbonds>
donor molecule, donor type, donor heavy atom, donor atom, acceptor molecule, acceptor atom, score
      L1  H    10    37       P1  7948  0.94
      L1  H    13    38       P1  7948  0.72
      L1  H    17    54       P1 10186  0.30
      P1  H  7989  7998       L1    24  0.39

> <Gold.Chemscore.Hbond.Weighted>
-8.1231

> <Gold.Chemscore.Metal.Weighted>
-0.0000

> <Gold.Chemscore.Lipo.Weighted>
-11.1880

> <Gold.Chemscore.Internal_Hbond.Weighted>
0.0000

> <Gold.Chemscore.DEClash.Weighted>
0.3813

> <Gold.Chemscore.DEInternal.Weighted>
2.3049

> <Gold.Chemscore.Rot.Weighted>
3.2865

> <Gold.Chemscore.Internal.Correction.Weighted>
   9.000000E+99

> <Gold.Protein.RotatedTorsions>
[ 6907 6896 6895 6894 ] final   41.28 input  -60.11 | X-H torsion
[ 7974 7965 7964 7962 ] final -177.70 input  175.53 | X-H torsion
[ 8008 7997 7996 7995 ] final  -88.95 input   59.86 | X-H torsion
[ 10167 10162 10161 10158 ] final  176.40 input  -65.29 | X-H torsion
[ 10718 10713 10712 10709 ] final  144.66 input   66.30 | X-H torsion
[ 10763 10752 10751 10750 ] final   25.81 input  -60.55 | X-H torsion
[ 11005 11000 10999 10996 ] final  -67.97 input  -57.11 | X-H torsion

> <Gold.Protein.ActiveResidues>
 VAL166  LYS551  ARG553  GLY616  TRP617  ASP618  TYR619  PRO620  LYS621  CYS622 
 ASP623  PHE694  ASN695  SER759  ASP760  ASP761  ALA762  ILE779  LEU786  VAL792 
 PHE793  MET794  SER795  GLU796  ALA797  LYS798  CYS799  TRP800  GLU811  SER814 

> <Gold.Protein.RotatedAtoms>
  152.1933  134.8653  160.0515 H   0  0  0  0  0  0  0  0  0  0  0  0  # atno 6907 bound_to 6896
  151.9533  133.3667  159.4016 H   0  0  0  0  0  0  0  0  0  0  0  0  # atno 6908 bound_to 6896
  150.6939  134.4241  159.5262 H   0  0  0  0  0  0  0  0  0  0  0  0  # atno 6909 bound_to 6896
  144.7128  140.0980  143.6418 H   0  0  0  0  0  0  0  0  0  0  0  0  # atno 7974 bound_to 7965
  154.6808  140.0547  157.0264 H   0  0  0  0  0  0  0  0  0  0  0  0  # atno 8008 bound_to 7997
  155.0954  140.3223  155.4543 H   0  0  0  0  0  0  0  0  0  0  0  0  # atno 8009 bound_to 7997
  156.2693  140.2040  156.6080 H   0  0  0  0  0  0  0  0  0  0  0  0  # atno 8010 bound_to 7997
  139.5213  144.2919  152.0456 H   0  0  0  0  0  0  0  0  0  0  0  0  # atno 10167 bound_to 10162
  157.3546  131.0956  151.0970 H   0  0  0  0  0  0  0  0  0  0  0  0  # atno 10718 bound_to 10713
  153.0666  135.6574  154.0341 H   0  0  0  0  0  0  0  0  0  0  0  0  # atno 10763 bound_to 10752
  153.9997  135.2938  155.3405 H   0  0  0  0  0  0  0  0  0  0  0  0  # atno 10764 bound_to 10752
  154.7026  135.5238  153.8617 H   0  0  0  0  0  0  0  0  0  0  0  0  # atno 10765 bound_to 10752
  141.1521  133.6730  156.6374 H   0  0  0  0  0  0  0  0  0  0  0  0  # atno 11005 bound_to 11000
  145.9562  139.2768  143.1183 LP  0  0  0  0  0  0  0  0  0  0  0  0  # atno 17320 bound_to 7965
  145.9270  140.9075  143.0376 LP  0  0  0  0  0  0  0  0  0  0  0  0  # atno 17321 bound_to 7965
  140.2370  144.4309  150.6276 LP  0  0  0  0  0  0  0  0  0  0  0  0  # atno 17342 bound_to 10162
  140.6316  143.2188  151.6482 LP  0  0  0  0  0  0  0  0  0  0  0  0  # atno 17343 bound_to 10162
  157.2133  130.6448  149.5782 LP  0  0  0  0  0  0  0  0  0  0  0  0  # atno 17370 bound_to 10713
  155.9727  130.4653  150.6248 LP  0  0  0  0  0  0  0  0  0  0  0  0  # atno 17371 bound_to 10713
  140.3420  134.7841  157.4404 LP  0  0  0  0  0  0  0  0  0  0  0  0  # atno 17394 bound_to 11000
  140.0930  134.5575  155.8425 LP  0  0  0  0  0  0  0  0  0  0  0  0  # atno 17395 bound_to 11000

$$$$
