AV-unprocessed.smi:3250|AV-procd|sdf|12431|dock2
  -GOLD-   2272018323D 1   1.00000     0.00000
 Structure written by MMmdl.
 40 41  0  0  0  0  0  0  0  0  3 V2000
  143.8091  132.4279  149.5519 C   0  0  0  0  0  0  0  0  0  0  0  0
  144.9635  133.1049  150.3038 C   0  0  0  0  0  0  0  0  0  0  0  0
  144.5688  134.4042  150.9032 N   0  3  1  0  0  0  0  0  0  0  0  0
  143.6159  134.2386  152.0257 C   0  0  0  0  0  0  0  0  0  0  0  0
  143.1988  135.6083  152.5836 C   0  0  0  0  0  0  0  0  0  0  0  0
  144.3569  136.3284  152.9867 O   0  0  0  0  0  0  0  0  0  0  0  0
  145.2412  136.5867  151.9006 C   0  0  1  0  0  0  0  0  0  0  0  0
  146.4133  137.4245  152.4321 C   0  0  0  0  0  0  0  0  0  0  0  0
  146.0048  138.7834  152.7560 N   0  0  0  0  0  0  0  0  0  0  0  0
  146.8411  139.7201  153.3345 C   0  0  0  0  0  0  0  0  0  0  0  0
  146.3350  140.9377  153.5803 N   0  3  0  0  0  0  0  0  0  0  0  0
  147.1171  141.8907  154.1449 C   0  0  0  0  0  0  0  0  0  0  0  0
  148.4546  141.6081  154.4756 C   0  0  0  0  0  0  0  0  0  0  0  0
  148.9198  140.3131  154.1948 C   0  0  0  0  0  0  0  0  0  0  0  0
  150.2216  139.9763  154.5034 O   0  0  0  0  0  0  0  0  0  0  0  0
  150.6312  138.6251  154.3207 C   0  0  0  0  0  0  0  0  0  0  0  0
  148.1073  139.3903  153.6268 N   0  0  0  0  0  0  0  0  0  0  0  0
  145.7218  135.2391  151.3245 C   0  0  0  0  0  0  0  0  0  0  0  0
  144.1080  131.4390  149.2034 H   0  0  0  0  0  0  0  0  0  0  0  0
  143.4996  132.9979  148.6762 H   0  0  0  0  0  0  0  0  0  0  0  0
  142.9397  132.2998  150.1973 H   0  0  0  0  0  0  0  0  0  0  0  0
  145.2841  132.4296  151.0984 H   0  0  0  0  0  0  0  0  0  0  0  0
  145.8243  133.2398  149.6471 H   0  0  0  0  0  0  0  0  0  0  0  0
  142.7317  133.6977  151.6866 H   0  0  0  0  0  0  0  0  0  0  0  0
  144.0770  133.6389  152.8123 H   0  0  0  0  0  0  0  0  0  0  0  0
  142.6385  136.1792  151.8415 H   0  0  0  0  0  0  0  0  0  0  0  0
  142.5450  135.4787  153.4462 H   0  0  0  0  0  0  0  0  0  0  0  0
  144.7186  137.1477  151.1230 H   0  0  0  0  0  0  0  0  0  0  0  0
  146.8469  136.9485  153.3125 H   0  0  0  0  0  0  0  0  0  0  0  0
  147.1994  137.4790  151.6781 H   0  0  0  0  0  0  0  0  0  0  0  0
  145.0666  139.0736  152.5212 H   0  0  0  0  0  0  0  0  0  0  0  0
  146.6457  142.8478  154.3146 H   0  0  0  0  0  0  0  0  0  0  0  0
  149.0947  142.3523  154.9272 H   0  0  0  0  0  0  0  0  0  0  0  0
  151.6769  138.5227  154.6104 H   0  0  0  0  0  0  0  0  0  0  0  0
  150.5462  138.3196  153.2767 H   0  0  0  0  0  0  0  0  0  0  0  0
  150.0478  137.9440  154.9420 H   0  0  0  0  0  0  0  0  0  0  0  0
  146.3087  134.6989  152.0694 H   0  0  0  0  0  0  0  0  0  0  0  0
  146.3792  135.4264  150.4759 H   0  0  0  0  0  0  0  0  0  0  0  0
  144.0750  134.9149  150.1848 H   0  0  0  0  0  0  0  0  0  0  0  0
  145.3668  141.1603  153.3481 H   0  0  0  0  0  0  0  0  0  0  0  0
  1  2  1  0  0  0  0
  1 19  1  0  0  0  0
  1 20  1  0  0  0  0
  1 21  1  0  0  0  0
  2  3  1  0  0  0  0
  2 22  1  0  0  0  0
  2 23  1  0  0  0  0
  3 18  1  0  0  0  0
  3  4  1  0  0  0  0
  3 39  1  0  0  0  0
  4  5  1  0  0  0  0
  4 24  1  0  0  0  0
  4 25  1  0  0  0  0
  5  6  1  0  0  0  0
  5 26  1  0  0  0  0
  5 27  1  0  0  0  0
  6  7  1  0  0  0  0
  7  8  1  0  0  0  0
  7 18  1  0  0  0  0
  7 28  1  0  0  0  0
  8  9  1  0  0  0  0
  8 29  1  0  0  0  0
  8 30  1  0  0  0  0
  9 10  1  0  0  0  0
  9 31  1  0  0  0  0
 10 17  1  0  0  0  0
 10 11  2  0  0  0  0
 11 12  1  0  0  0  0
 11 40  1  0  0  0  0
 12 13  2  0  0  0  0
 12 32  1  0  0  0  0
 13 14  1  0  0  0  0
 13 33  1  0  0  0  0
 14 15  1  0  0  0  0
 14 17  2  0  0  0  0
 15 16  1  0  0  0  0
 16 34  1  0  0  0  0
 16 35  1  0  0  0  0
 16 36  1  0  0  0  0
 18 37  1  0  0  0  0
 18 38  1  0  0  0  0
M  CHG  1   3   1
M  CHG  1  11   1
M  END
> <s_m_source_file>
AV-unprocessed.smi

> <i_m_source_file_index>
3250

> <i_lp_mmshare_version>
43012

> <i_f3d_flags>
0

> <s_epik_input>
W0NIM11bQ0gyXU4xW0NIMl1bQ0gyXU9bQ0BIXShbQ0gyXTEpW0NIMl1bTkhdYzJuW2NIXVtjSF1jKG4yKU9bQ0gzXQ==

> <s_epik_cmdline>
J2VwaWtfcHl0aG9uJywgJy1waCcsICc3LjAnLCAnLXRuJywgJzgnLCAnLW1hJywgJzIwMCcsICctbWV0YWxfYmluZGluZycsICctaW1hZScsICc8aW5maWxlLm1hZT4nLCAnLW9tYWUnLCAnPG91dGZpbGUubWFlPic=

> <r_lp_tautomer_probability>
0.999985

> <r_epik_Ionization_Penalty>
2.24691

> <r_epik_Ionization_Penalty_Charging>
2.24686

> <r_epik_Ionization_Penalty_Neutral>
4.52111e-05

> <r_epik_State_Penalty>
2.24709

> <r_epik_Charging_Adjusted_Penalty>
4.49395

> <i_epik_Tot_Q>
2

> <i_epik_Tot_abs_Q>
2

> <r_epik_Metal_State_Penalty>
2.26327

> <b_epik_Metal_Only>
0

> <s_lp_Force_Field>
OPLS_2005

> <r_lp_Energy>
18.3796

> <b_lp_Chiralities_Consistent>
1

> <s_lp_Variant>
AV-unprocessed.smi:3250-7

> <Gold.Version>
5.8.1

> <Gold.Id.Protein>
6NUR|6NUR_protein|mol2

> <Gold.PLP.Fitness>
47.4183

> <Gold.PLP.PLP>
-33.1672

> <Gold.PLP.part.hbond>
-3.0000

> <Gold.PLP.part.metal>
0.0000

> <Gold.PLP.part.buried>
-3.1830

> <Gold.PLP.part.nonpolar>
-28.8436

> <Gold.PLP.part.repulsive>
1.8117

> <Gold.PLP.ligand.clash>
0.0000

> <Gold.PLP.ligand.torsion>
0.1721

> <Gold.PLP.Chemscore.Hbond>
4.8560

> <Gold.PLP.Chemscore.CHOScore>
0.0000

> <Gold.PLP.Chemscore.Metal>
0.0000

> <Gold.Chemscore.Hbonds>
donor molecule, donor type, donor heavy atom, donor atom, acceptor molecule, acceptor atom, score
      L1  H     9    31       P1 10175  2.00
      L1  H    11    40       P1 10175  1.82
      P1  H  7989  7998       L1    15  0.95

> <Gold.PLP.Chemscore.Internal.Correction>
0.0273

> <Gold.Rescore>
     Score         DG    S(hbond)    S(metal)    S(lipo)     H(rot)  DE(clash)    DE(int)     intcor
     13.52     -15.09       1.84        0.00      67.94       1.75       1.37       0.20       ----

> <Gold.Chemscore.Fitness>
13.5190

> <Gold.Chemscore.DG>
-15.0861

> <Gold.Chemscore.ZeroCoef>
-5.4800

> <Gold.Chemscore.Hbond>
1.8396

> <Gold.Chemscore.Metal>
0.0000

> <Gold.Chemscore.Lipo>
67.9446

> <Gold.Chemscore.Internal_Hbond>
0.0000

> <Gold.Chemscore.DEClash>
1.3655

> <Gold.Chemscore.DEInternal>
0.2015

> <Gold.Chemscore.Rot>
1.7530

> <Gold.Chemscore.Internal.Correction>
   9.000000E+99

> <Gold.Chemscore.Hbonds>
donor molecule, donor type, donor heavy atom, donor atom, acceptor molecule, acceptor atom, score
      L1  H     9    31       P1 10175  0.94
      L1  H    11    40       P1 10175  0.30
      P1  H  7989  7998       L1    15  0.20

> <Gold.Chemscore.Hbond.Weighted>
-6.1442

> <Gold.Chemscore.Metal.Weighted>
-0.0000

> <Gold.Chemscore.Lipo.Weighted>
-7.9495

> <Gold.Chemscore.Internal_Hbond.Weighted>
0.0000

> <Gold.Chemscore.DEClash.Weighted>
1.3655

> <Gold.Chemscore.DEInternal.Weighted>
0.2015

> <Gold.Chemscore.Rot.Weighted>
4.4876

> <Gold.Chemscore.Internal.Correction.Weighted>
   9.000000E+99

> <Gold.Protein.RotatedTorsions>
[ 6907 6896 6895 6894 ] final -101.22 input  -60.11 | X-H torsion
[ 7974 7965 7964 7962 ] final  164.46 input  175.53 | X-H torsion
[ 8008 7997 7996 7995 ] final  -92.12 input   59.86 | X-H torsion
[ 10167 10162 10161 10158 ] final -117.24 input  -65.29 | X-H torsion
[ 10718 10713 10712 10709 ] final  -84.58 input   66.30 | X-H torsion
[ 10763 10752 10751 10750 ] final  112.21 input  -60.55 | X-H torsion
[ 11005 11000 10999 10996 ] final  -86.08 input  -57.11 | X-H torsion

> <Gold.Protein.ActiveResidues>
 VAL166  LYS551  ARG553  GLY616  TRP617  ASP618  TYR619  PRO620  LYS621  CYS622 
 ASP623  PHE694  ASN695  SER759  ASP760  ASP761  ALA762  ILE779  LEU786  VAL792 
 PHE793  MET794  SER795  GLU796  ALA797  LYS798  CYS799  TRP800  GLU811  SER814 

> <Gold.Protein.RotatedAtoms>
  150.7146  134.0767  159.3883 H   0  0  0  0  0  0  0  0  0  0  0  0  # atno 6907 bound_to 6896
  151.8750  135.0473  160.0492 H   0  0  0  0  0  0  0  0  0  0  0  0  # atno 6908 bound_to 6896
  152.2613  133.5264  159.5420 H   0  0  0  0  0  0  0  0  0  0  0  0  # atno 6909 bound_to 6896
  144.7544  139.8329  143.6355 H   0  0  0  0  0  0  0  0  0  0  0  0  # atno 7974 bound_to 7965
  154.7192  140.0512  157.0624 H   0  0  0  0  0  0  0  0  0  0  0  0  # atno 8008 bound_to 7997
  155.0450  140.3173  155.4692 H   0  0  0  0  0  0  0  0  0  0  0  0  # atno 8009 bound_to 7997
  156.2812  140.2126  156.5574 H   0  0  0  0  0  0  0  0  0  0  0  0  # atno 8010 bound_to 7997
  140.0705  143.4882  152.1982 H   0  0  0  0  0  0  0  0  0  0  0  0  # atno 10167 bound_to 10162
  156.0005  130.4702  150.4431 H   0  0  0  0  0  0  0  0  0  0  0  0  # atno 10718 bound_to 10713
  153.4745  135.3693  155.2409 H   0  0  0  0  0  0  0  0  0  0  0  0  # atno 10763 bound_to 10752
  154.8756  135.3939  154.3773 H   0  0  0  0  0  0  0  0  0  0  0  0  # atno 10764 bound_to 10752
  153.4366  135.7083  153.6260 H   0  0  0  0  0  0  0  0  0  0  0  0  # atno 10765 bound_to 10752
  141.1634  133.7435  156.9109 H   0  0  0  0  0  0  0  0  0  0  0  0  # atno 11005 bound_to 11000
  146.1536  139.4627  143.0033 LP  0  0  0  0  0  0  0  0  0  0  0  0  # atno 17320 bound_to 7965
  145.6830  141.0186  143.1596 LP  0  0  0  0  0  0  0  0  0  0  0  0  # atno 17321 bound_to 7965
  139.5839  144.7522  151.3570 LP  0  0  0  0  0  0  0  0  0  0  0  0  # atno 17342 bound_to 10162
  140.7128  143.7346  150.7598 LP  0  0  0  0  0  0  0  0  0  0  0  0  # atno 17343 bound_to 10162
  157.2471  131.0538  151.2402 LP  0  0  0  0  0  0  0  0  0  0  0  0  # atno 17370 bound_to 10713
  157.3565  130.7109  149.6474 LP  0  0  0  0  0  0  0  0  0  0  0  0  # atno 17371 bound_to 10713
  140.1517  134.9225  157.2601 LP  0  0  0  0  0  0  0  0  0  0  0  0  # atno 17394 bound_to 11000
  140.2715  134.3455  155.7372 LP  0  0  0  0  0  0  0  0  0  0  0  0  # atno 17395 bound_to 11000

$$$$
