#       Name:                AV-unprocessed.smi:850
#       Creating user name   scv26
#       Creation time:       Fri Mar 27 01:41:45 2020


#       File generated by GOLD software.
#

@<TRIPOS>MOLECULE
AV-unprocessed.smi:850
    46    48     1
SMALL
NO_CHARGES


@<TRIPOS>ATOM
      1 ****        -2.1656   3.8984   1.8239 C.3            1 S1                 0.0000
      2 ****        -1.7305   3.0080   0.7546 N.am           1 S1                 0.0000
      3 ****        -1.2366   1.7547   0.8857 C.2            1 S1                 0.0000
      4 ****        -1.0687   1.1479   1.9434 O.2            1 S1                 0.0000
      5 ****        -0.9537   1.2840  -0.3525 N.am           1 S1                 0.0000
      6 ****        -0.4046  -0.0311  -0.6777 C.3            1 S1                 0.0000
      7 ****         1.1244  -0.0772  -0.4829 C.3            1 S1                 0.0000
      8 ****         1.7423   0.4755  -1.6277 O.3            1 S1                 0.0000
      9 ****         1.6444  -1.5148  -0.3330 C.3            1 S1                 0.0000
     10 ****         1.2128  -2.0284   0.9205 O.3            1 S1                 0.0000
     11 ****         1.5357  -3.3291   1.2409 C.ar           1 S1                 0.0000
     12 ****         1.0733  -3.8151   2.4815 C.ar           1 S1                 0.0000
     13 ****         1.3538  -5.1334   2.8892 C.ar           1 S1                 0.0000
     14 ****         2.1042  -5.9826   2.0556 C.ar           1 S1                 0.0000
     15 ****         2.5731  -5.5107   0.8156 C.ar           1 S1                 0.0000
     16 ****         2.2930  -4.1917   0.4080 C.ar           1 S1                 0.0000
     17 ****        -1.2696   2.2673  -1.3012 C.ar           1 S1                 0.0000
     18 ****        -1.1537   2.2765  -2.7025 C.ar           1 S1                 0.0000
     19 ****        -1.5679   3.4488  -3.3775 C.ar           1 S1                 0.0000
     20 ****        -2.0765   4.5616  -2.6583 C.ar           1 S1                 0.0000
     21 ****        -2.1799   4.5266  -1.2478 C.ar           1 S1                 0.0000
     22 ****        -1.7606   3.3504  -0.6030 C.ar           1 S1                 0.0000
     23 ****        -2.0391   3.4497   2.8101 H              1 S1                 0.0000
     24 ****        -3.2198   4.1476   1.7001 H              1 S1                 0.0000
     25 ****        -1.5905   4.8242   1.7994 H              1 S1                 0.0000
     26 ****        -0.8810  -0.7565  -0.0161 H              1 S1                 0.0000
     27 ****        -0.6831  -0.3359  -1.6871 H              1 S1                 0.0000
     28 ****         1.4264   0.5015   0.3912 H              1 S1                 0.0000
     29 ****         1.4699   1.3768  -1.7087 H              1 S1                 0.0000
     30 ****         1.2778  -2.1324  -1.1550 H              1 S1                 0.0000
     31 ****         2.7355  -1.5191  -0.3651 H              1 S1                 0.0000
     32 ****         0.4957  -3.1698   3.1270 H              1 S1                 0.0000
     33 ****         0.9928  -5.4924   3.8418 H              1 S1                 0.0000
     34 ****         2.3200  -6.9941   2.3671 H              1 S1                 0.0000
     35 ****         3.1497  -6.1613   0.1748 H              1 S1                 0.0000
     36 ****         2.6709  -3.8656  -0.5491 H              1 S1                 0.0000
     37 ****        -0.7644   1.4285  -3.2460 H              1 S1                 0.0000
     38 ****        -1.4961   3.4974  -4.4541 H              1 S1                 0.0000
     39 ****        -2.3877   5.4463  -3.1942 H              1 S1                 0.0000
     40 ****        -2.5644   5.3693  -0.6925 H              1 S1                 0.0000
     41 ****        -1.3056   1.5826   2.8123 LP             1 S1                 0.0000
     42 ****        -0.6955   0.2202   1.9339 LP             1 S1                 0.0000
     43 ****         1.4644  -0.0355  -2.4411 LP             1 S1                 0.0000
     44 ****         2.7364   0.4309  -1.5294 LP             1 S1                 0.0000
     45 ****         0.2155  -1.9573   0.9419 LP             1 S1                 0.0000
     46 ****         1.6039  -1.4430   1.6306 LP             1 S1                 0.0000
@<TRIPOS>BOND
    1    1    2 1     
    2    1   23 1     
    3    1   24 1     
    4    1   25 1     
    5    2   22 1     
    6    2    3 am    
    7    3    4 2     
    8    3    5 am    
    9    5    6 1     
   10    5   17 1     
   11    6    7 1     
   12    6   26 1     
   13    6   27 1     
   14    7    8 1     
   15    7    9 1     
   16    7   28 1     
   17    8   29 1     
   18    9   10 1     
   19    9   30 1     
   20    9   31 1     
   21   10   11 1     
   22   11   16 ar    
   23   11   12 ar    
   24   12   13 ar    
   25   12   32 1     
   26   13   14 ar    
   27   13   33 1     
   28   14   15 ar    
   29   14   34 1     
   30   15   16 ar    
   31   15   35 1     
   32   16   36 1     
   33   17   22 ar    
   34   17   18 ar    
   35   18   19 ar    
   36   18   37 1     
   37   19   20 ar    
   38   19   38 1     
   39   20   21 ar    
   40   20   39 1     
   41   21   22 ar    
   42   21   40 1     
   43    4   41 1     
   44    4   42 1     
   45    8   43 1     
   46    8   44 1     
   47   10   45 1     
   48   10   46 1     
@<TRIPOS>SUBSTRUCTURE
      1 S1             1
@<TRIPOS>SET
LONE_PAIRS      STATIC     ATOMS    <user>   **** ""
6 41 42 43 44 45 46
DONOR_HYDROGENS      STATIC     ATOMS    <user>   **** ""
1 29
ATOM$BLUE        STATIC     ATOMS    COLORGROUP SYSTEM
6 41 42 43 44 45 46
ATOM$RED        STATIC     ATOMS    COLORGROUP SYSTEM
1 29
