AV-unprocessed.smi:3269|AV-procd|sdf|12510|dock7
  -GOLD-   2272018423D 1   1.00000     0.00000
 Structure written by MMmdl.
 39 40  0  0  0  0  0  0  0  0  1 V2000
  150.1594  135.4244  156.6078 C   0  0  0  0  0  0  0  0  0  0  0  0
  150.1282  133.9256  156.5236 C   0  0  0  0  0  0  0  0  0  0  0  0
  150.5099  133.2074  157.5667 N   0  0  0  0  0  0  0  0  0  0  0  0
  150.3608  131.9261  157.1749 N   0  0  0  0  0  0  0  0  0  0  0  0
  150.6974  130.8569  158.0947 C   0  0  0  0  0  0  0  0  0  0  0  0
  149.8825  131.8351  155.8821 C   0  0  0  0  0  0  0  0  0  0  0  0
  149.6239  130.5213  155.2180 C   0  0  0  0  0  0  0  0  0  0  0  0
  149.7266  133.1153  155.4215 C   0  0  0  0  0  0  0  0  0  0  0  0
  149.2443  133.5817  154.0688 C   0  0  0  0  0  0  0  0  0  0  0  0
  147.7559  133.2783  153.8592 C   0  0  0  0  0  0  0  0  0  0  0  0
  147.2165  132.3175  154.4102 O   0  0  0  0  0  0  0  0  0  0  0  0
  147.1014  134.1199  153.0449 N   0  0  0  0  0  0  0  0  0  0  0  0
  145.6795  134.0499  152.7216 C   0  0  0  0  0  0  0  0  0  0  0  0
  145.4224  133.6721  151.2499 C   0  0  2  0  0  0  0  0  0  0  0  0
  143.9524  133.5962  150.8276 C   0  0  0  0  0  0  0  0  0  0  0  0
  144.0329  132.6752  149.6313 C   0  0  0  0  0  0  0  0  0  0  0  0
  145.0927  131.6745  150.0826 C   0  0  0  0  0  0  0  0  0  0  0  0
  145.9793  132.3990  150.9309 O   0  0  0  0  0  0  0  0  0  0  0  0
  149.2299  135.8532  156.2345 H   0  0  0  0  0  0  0  0  0  0  0  0
  150.9758  135.8305  156.0107 H   0  0  0  0  0  0  0  0  0  0  0  0
  150.2924  135.7700  157.6335 H   0  0  0  0  0  0  0  0  0  0  0  0
  151.4363  130.1989  157.6366 H   0  0  0  0  0  0  0  0  0  0  0  0
  149.8025  130.2803  158.3290 H   0  0  0  0  0  0  0  0  0  0  0  0
  151.1109  131.2596  159.0206 H   0  0  0  0  0  0  0  0  0  0  0  0
  149.0710  130.6509  154.2879 H   0  0  0  0  0  0  0  0  0  0  0  0
  149.0356  129.8679  155.8625 H   0  0  0  0  0  0  0  0  0  0  0  0
  150.5609  130.0151  154.9857 H   0  0  0  0  0  0  0  0  0  0  0  0
  149.4012  134.6550  153.9548 H   0  0  0  0  0  0  0  0  0  0  0  0
  149.8072  133.1098  153.2633 H   0  0  0  0  0  0  0  0  0  0  0  0
  147.6234  134.8794  152.6328 H   0  0  0  0  0  0  0  0  0  0  0  0
  145.2299  133.2976  153.3701 H   0  0  0  0  0  0  0  0  0  0  0  0
  145.1826  134.9916  152.9608 H   0  0  0  0  0  0  0  0  0  0  0  0
  145.9251  134.3985  150.6095 H   0  0  0  0  0  0  0  0  0  0  0  0
  143.3347  133.1367  151.5997 H   0  0  0  0  0  0  0  0  0  0  0  0
  143.5286  134.5719  150.5886 H   0  0  0  0  0  0  0  0  0  0  0  0
  143.0803  132.2056  149.3846 H   0  0  0  0  0  0  0  0  0  0  0  0
  144.3819  133.2255  148.7566 H   0  0  0  0  0  0  0  0  0  0  0  0
  144.6344  130.8751  150.6652 H   0  0  0  0  0  0  0  0  0  0  0  0
  145.6224  131.2211  149.2447 H   0  0  0  0  0  0  0  0  0  0  0  0
  1  2  1  0  0  0  0
  1 19  1  0  0  0  0
  1 20  1  0  0  0  0
  1 21  1  0  0  0  0
  2  8  1  0  0  0  0
  2  3  2  0  0  0  0
  3  4  1  0  0  0  0
  4  5  1  0  0  0  0
  4  6  1  0  0  0  0
  5 22  1  0  0  0  0
  5 23  1  0  0  0  0
  5 24  1  0  0  0  0
  6  7  1  0  0  0  0
  6  8  2  0  0  0  0
  7 25  1  0  0  0  0
  7 26  1  0  0  0  0
  7 27  1  0  0  0  0
  8  9  1  0  0  0  0
  9 10  1  0  0  0  0
  9 28  1  0  0  0  0
  9 29  1  0  0  0  0
 10 11  2  0  0  0  0
 10 12  1  0  0  0  0
 12 13  1  0  0  0  0
 12 30  1  0  0  0  0
 13 14  1  0  0  0  0
 13 31  1  0  0  0  0
 13 32  1  0  0  0  0
 14 18  1  0  0  0  0
 14 15  1  0  0  0  0
 14 33  1  0  0  0  0
 15 16  1  0  0  0  0
 15 34  1  0  0  0  0
 15 35  1  0  0  0  0
 16 17  1  0  0  0  0
 16 36  1  0  0  0  0
 16 37  1  0  0  0  0
 17 18  1  0  0  0  0
 17 38  1  0  0  0  0
 17 39  1  0  0  0  0
M  END
> <s_m_source_file>
AV-unprocessed.smi

> <i_m_source_file_index>
3269

> <i_lp_mmshare_version>
43012

> <i_f3d_flags>
0

> <s_epik_input>
W0NIM11jMW5uKFtDSDNdKWMoW0NIM10pYzFbQ0gyXUMoPU8pW05IXVtDSDJdW0NAQEhdMltDSDJdW0NIMl1bQ0gyXU8y

> <s_epik_cmdline>
J2VwaWtfcHl0aG9uJywgJy1waCcsICc3LjAnLCAnLXRuJywgJzgnLCAnLW1hJywgJzIwMCcsICctbWV0YWxfYmluZGluZycsICctaW1hZScsICc8aW5maWxlLm1hZT4nLCAnLW9tYWUnLCAnPG91dGZpbGUubWFlPic=

> <r_lp_tautomer_probability>
1

> <r_epik_Ionization_Penalty>
0.00306713

> <r_epik_Ionization_Penalty_Charging>
0

> <r_epik_Ionization_Penalty_Neutral>
0.00306713

> <r_epik_State_Penalty>
0.00215672

> <r_epik_Charging_Adjusted_Penalty>
0.00215672

> <i_epik_Tot_Q>
0

> <i_epik_Tot_abs_Q>
0

> <r_epik_Metal_State_Penalty>
-0

> <b_epik_Metal_Only>
0

> <s_lp_Force_Field>
OPLS_2005

> <r_lp_Energy>
13.6043

> <b_lp_Chiralities_Consistent>
1

> <s_lp_Variant>
AV-unprocessed.smi:3269-1

> <Gold.Version>
5.8.1

> <Gold.Id.Protein>
6NUR|6NUR_protein|mol2

> <Gold.PLP.Fitness>
36.7750

> <Gold.PLP.PLP>
-31.9185

> <Gold.PLP.part.hbond>
-2.0000

> <Gold.PLP.part.metal>
0.0000

> <Gold.PLP.part.buried>
-5.6524

> <Gold.PLP.part.nonpolar>
-25.1955

> <Gold.PLP.part.repulsive>
0.2058

> <Gold.PLP.ligand.clash>
0.0000

> <Gold.PLP.ligand.torsion>
0.4794

> <Gold.PLP.Chemscore.Hbond>
1.9357

> <Gold.PLP.Chemscore.CHOScore>
0.0000

> <Gold.PLP.Chemscore.Metal>
0.0000

> <Gold.Chemscore.Hbonds>
donor molecule, donor type, donor heavy atom, donor atom, acceptor molecule, acceptor atom, score
      L1  H    12    30       P1  7948  1.00
      P1  H  6896  6909       L1     3  0.86

> <Gold.PLP.Chemscore.Internal.Correction>
0.0080

> <Gold.Rescore>
     Score         DG    S(hbond)    S(metal)    S(lipo)     H(rot)  DE(clash)    DE(int)     intcor
     15.83     -16.47       1.88        0.00      72.95       1.50       0.04       0.60       ----

> <Gold.Chemscore.Fitness>
15.8285

> <Gold.Chemscore.DG>
-16.4655

> <Gold.Chemscore.ZeroCoef>
-5.4800

> <Gold.Chemscore.Hbond>
1.8824

> <Gold.Chemscore.Metal>
0.0000

> <Gold.Chemscore.Lipo>
72.9515

> <Gold.Chemscore.Internal_Hbond>
0.0000

> <Gold.Chemscore.DEClash>
0.0383

> <Gold.Chemscore.DEInternal>
0.5987

> <Gold.Chemscore.Rot>
1.4989

> <Gold.Chemscore.Internal.Correction>
   9.000000E+99

> <Gold.Chemscore.Hbonds>
donor molecule, donor type, donor heavy atom, donor atom, acceptor molecule, acceptor atom, score
      L1  H    12    30       P1  7948  0.91
      P1  H  6896  6909       L1     3  0.75

> <Gold.Chemscore.Hbond.Weighted>
-6.2873

> <Gold.Chemscore.Metal.Weighted>
-0.0000

> <Gold.Chemscore.Lipo.Weighted>
-8.5353

> <Gold.Chemscore.Internal_Hbond.Weighted>
0.0000

> <Gold.Chemscore.DEClash.Weighted>
0.0383

> <Gold.Chemscore.DEInternal.Weighted>
0.5987

> <Gold.Chemscore.Rot.Weighted>
3.8371

> <Gold.Chemscore.Internal.Correction.Weighted>
   9.000000E+99

> <Gold.Protein.RotatedTorsions>
[ 6907 6896 6895 6894 ] final  -37.27 input  -60.11 | X-H torsion
[ 7974 7965 7964 7962 ] final  -12.82 input  175.53 | X-H torsion
[ 8008 7997 7996 7995 ] final   91.16 input   59.86 | X-H torsion
[ 10167 10162 10161 10158 ] final   85.09 input  -65.29 | X-H torsion
[ 10718 10713 10712 10709 ] final   50.47 input   66.30 | X-H torsion
[ 10763 10752 10751 10750 ] final  148.20 input  -60.55 | X-H torsion
[ 11005 11000 10999 10996 ] final    0.72 input  -57.11 | X-H torsion

> <Gold.Protein.ActiveResidues>
 VAL166  LYS551  ARG553  GLY616  TRP617  ASP618  TYR619  PRO620  LYS621  CYS622 
 ASP623  PHE694  ASN695  SER759  ASP760  ASP761  ALA762  ILE779  LEU786  VAL792 
 PHE793  MET794  SER795  GLU796  ALA797  LYS798  CYS799  TRP800  GLU811  SER814 

> <Gold.Protein.RotatedAtoms>
  151.0167  134.9438  159.8036 H   0  0  0  0  0  0  0  0  0  0  0  0  # atno 6907 bound_to 6896
  152.5315  134.2957  159.9069 H   0  0  0  0  0  0  0  0  0  0  0  0  # atno 6908 bound_to 6896
  151.2963  133.4100  159.2671 H   0  0  0  0  0  0  0  0  0  0  0  0  # atno 6909 bound_to 6896
  146.2137  140.3114  142.8383 H   0  0  0  0  0  0  0  0  0  0  0  0  # atno 7974 bound_to 7965
  156.0205  140.3341  155.7034 H   0  0  0  0  0  0  0  0  0  0  0  0  # atno 8008 bound_to 7997
  155.6029  140.0657  157.2745 H   0  0  0  0  0  0  0  0  0  0  0  0  # atno 8009 bound_to 7997
  154.4314  140.1807  156.1179 H   0  0  0  0  0  0  0  0  0  0  0  0  # atno 8010 bound_to 7997
  139.9013  144.6328  150.8634 H   0  0  0  0  0  0  0  0  0  0  0  0  # atno 10167 bound_to 10162
  157.4888  130.8362  149.8178 H   0  0  0  0  0  0  0  0  0  0  0  0  # atno 10718 bound_to 10713
  154.0508  135.2882  155.3341 H   0  0  0  0  0  0  0  0  0  0  0  0  # atno 10763 bound_to 10752
  154.6870  135.5241  153.8343 H   0  0  0  0  0  0  0  0  0  0  0  0  # atno 10764 bound_to 10752
  153.0561  135.6596  154.0704 H   0  0  0  0  0  0  0  0  0  0  0  0  # atno 10765 bound_to 10752
  140.6234  133.9640  155.8236 H   0  0  0  0  0  0  0  0  0  0  0  0  # atno 11005 bound_to 11000
  144.8986  140.7614  143.5881 LP  0  0  0  0  0  0  0  0  0  0  0  0  # atno 17320 bound_to 7965
  145.3039  139.1841  143.4675 LP  0  0  0  0  0  0  0  0  0  0  0  0  # atno 17321 bound_to 7965
  140.7706  143.3435  151.2160 LP  0  0  0  0  0  0  0  0  0  0  0  0  # atno 17342 bound_to 10162
  139.7023  143.9513  152.2911 LP  0  0  0  0  0  0  0  0  0  0  0  0  # atno 17343 bound_to 10162
  156.0162  130.3813  150.2105 LP  0  0  0  0  0  0  0  0  0  0  0  0  # atno 17370 bound_to 10713
  157.0293  131.0002  151.3317 LP  0  0  0  0  0  0  0  0  0  0  0  0  # atno 17371 bound_to 10713
  141.0726  134.0182  157.3504 LP  0  0  0  0  0  0  0  0  0  0  0  0  # atno 17394 bound_to 11000
  139.9144  135.0195  156.7823 LP  0  0  0  0  0  0  0  0  0  0  0  0  # atno 17395 bound_to 11000

$$$$
