AV-unprocessed.smi:966|AV-procd|sdf|4283|dock5
  -GOLD-   22720 2193D 1   1.00000     0.00000
 Structure written by MMmdl.
 30 31  0  0  0  0  0  0  0  0  2 V2000
  150.2160  139.2416  154.1154 C   0  0  0  0  0  0  0  0  0  0  0  0
  150.6513  139.8103  155.4538 C   0  0  0  0  0  0  0  0  0  0  0  0
  149.8424  140.8241  156.0919 C   0  0  0  0  0  0  0  0  0  0  0  0
  150.2565  141.3408  157.3043 C   0  0  0  0  0  0  0  0  0  0  0  0
  149.7059  142.2034  158.0282 O   0  5  0  0  0  0  0  0  0  0  0  0
  151.4706  140.8857  157.9201 N   0  0  0  0  0  0  0  0  0  0  0  0
  151.9461  141.4446  159.2196 C   0  0  0  0  0  0  0  0  0  0  0  0
  152.4598  142.8912  159.0726 C   0  0  2  0  0  0  0  0  0  0  0  0
  152.1820  143.7631  160.2966 C   0  0  0  0  0  0  0  0  0  0  0  0
  152.1738  145.1481  159.6923 C   0  0  0  0  0  0  0  0  0  0  0  0
  151.4727  144.8944  158.3624 C   0  0  0  0  0  0  0  0  0  0  0  0
  151.8161  143.5627  157.9904 O   0  0  0  0  0  0  0  0  0  0  0  0
  152.2370  139.9020  157.3495 C   0  0  0  0  0  0  0  0  0  0  0  0
  153.2621  139.4736  157.8857 O   0  0  0  0  0  0  0  0  0  0  0  0
  151.7776  139.3801  156.0590 C   0  0  0  0  0  0  0  0  0  0  0  0
  152.6050  138.3749  155.4700 C   0  0  0  0  0  0  0  0  0  0  0  0
  153.2563  137.5470  154.9883 N   0  0  0  0  0  0  0  0  0  0  0  0
  149.2946  139.7103  153.7685 H   0  0  0  0  0  0  0  0  0  0  0  0
  150.0386  138.1688  154.1968 H   0  0  0  0  0  0  0  0  0  0  0  0
  150.9845  139.4097  153.3605 H   0  0  0  0  0  0  0  0  0  0  0  0
  148.9249  141.1644  155.6340 H   0  0  0  0  0  0  0  0  0  0  0  0
  151.1716  141.4167  159.9876 H   0  0  0  0  0  0  0  0  0  0  0  0
  152.7246  140.8181  159.6573 H   0  0  0  0  0  0  0  0  0  0  0  0
  153.5324  142.8999  158.8743 H   0  0  0  0  0  0  0  0  0  0  0  0
  151.2012  143.5361  160.7174 H   0  0  0  0  0  0  0  0  0  0  0  0
  152.9285  143.6415  161.0819 H   0  0  0  0  0  0  0  0  0  0  0  0
  151.6637  145.8864  160.3116 H   0  0  0  0  0  0  0  0  0  0  0  0
  153.1956  145.4894  159.5213 H   0  0  0  0  0  0  0  0  0  0  0  0
  150.3905  144.9489  158.4866 H   0  0  0  0  0  0  0  0  0  0  0  0
  151.7622  145.6121  157.5947 H   0  0  0  0  0  0  0  0  0  0  0  0
  1  2  1  0  0  0  0
  1 18  1  0  0  0  0
  1 19  1  0  0  0  0
  1 20  1  0  0  0  0
  2 15  2  0  0  0  0
  2  3  1  0  0  0  0
  3  4  2  0  0  0  0
  3 21  1  0  0  0  0
  4  5  1  0  0  0  0
  4  6  1  0  0  0  0
  6  7  1  0  0  0  0
  6 13  1  0  0  0  0
  7  8  1  0  0  0  0
  7 22  1  0  0  0  0
  7 23  1  0  0  0  0
  8 12  1  0  0  0  0
  8  9  1  0  0  0  0
  8 24  1  0  0  0  0
  9 10  1  0  0  0  0
  9 25  1  0  0  0  0
  9 26  1  0  0  0  0
 10 11  1  0  0  0  0
 10 27  1  0  0  0  0
 10 28  1  0  0  0  0
 11 12  1  0  0  0  0
 11 29  1  0  0  0  0
 11 30  1  0  0  0  0
 13 14  2  0  0  0  0
 13 15  1  0  0  0  0
 15 16  1  0  0  0  0
 16 17  3  0  0  0  0
M  CHG  1   5  -1
M  END
> <s_m_source_file>
AV-unprocessed.smi

> <i_m_source_file_index>
966

> <i_lp_mmshare_version>
43012

> <i_f3d_flags>
0

> <s_epik_input>
W0NIM11jMVtjSF1jKFtPSF0pbihjKD1PKWMxQyNOKVtDSDJdW0NAQEhdMltDSDJdW0NIMl1bQ0gyXU8y

> <s_epik_cmdline>
J2VwaWtfcHl0aG9uJywgJy1waCcsICc3LjAnLCAnLXRuJywgJzgnLCAnLW1hJywgJzIwMCcsICctbWV0YWxfYmluZGluZycsICctaW1hZScsICc8aW5maWxlLm1hZT4nLCAnLW9tYWUnLCAnPG91dGZpbGUubWFlPic=

> <r_lp_tautomer_probability>
1

> <r_epik_Ionization_Penalty>
3.48555e-06

> <r_epik_Ionization_Penalty_Charging>
3.48554e-06

> <r_epik_Ionization_Penalty_Neutral>
1.71861e-11

> <r_epik_State_Penalty>
-0

> <r_epik_Charging_Adjusted_Penalty>
3.48554e-06

> <i_epik_Tot_Q>
-1

> <i_epik_Tot_abs_Q>
1

> <r_epik_Metal_State_Penalty>
-0

> <b_epik_Metal_Only>
0

> <s_lp_Force_Field>
OPLS_2005

> <r_lp_Energy>
36.1557

> <b_lp_Chiralities_Consistent>
1

> <s_lp_Variant>
AV-unprocessed.smi:966-1

> <Gold.Version>
5.8.1

> <Gold.Id.Protein>
6NUR|6NUR_protein|mol2

> <Gold.PLP.Fitness>
38.9239

> <Gold.PLP.PLP>
-36.0610

> <Gold.PLP.part.hbond>
-2.0000

> <Gold.PLP.part.metal>
0.0000

> <Gold.PLP.part.buried>
-2.9744

> <Gold.PLP.part.nonpolar>
-31.5989

> <Gold.PLP.part.repulsive>
0.2673

> <Gold.PLP.ligand.clash>
0.0000

> <Gold.PLP.ligand.torsion>
0.5472

> <Gold.PLP.Chemscore.Hbond>
1.3185

> <Gold.PLP.Chemscore.CHOScore>
0.0000

> <Gold.PLP.Chemscore.Metal>
0.0000

> <Gold.Chemscore.Hbonds>
donor molecule, donor type, donor heavy atom, donor atom, acceptor molecule, acceptor atom, score
      P1  H  7997  8008       L1    14  1.00
      P1  H 10752 10764       L1    17  0.11

> <Gold.PLP.Chemscore.Internal.Correction>
0.0018

> <Gold.Rescore>
     Score         DG    S(hbond)    S(metal)    S(lipo)     H(rot)  DE(clash)    DE(int)     intcor
     13.28     -17.75       1.81        0.00      80.43       1.25       0.17       4.29       ----

> <Gold.Chemscore.Fitness>
13.2846

> <Gold.Chemscore.DG>
-17.7484

> <Gold.Chemscore.ZeroCoef>
-5.4800

> <Gold.Chemscore.Hbond>
1.8149

> <Gold.Chemscore.Metal>
0.0000

> <Gold.Chemscore.Lipo>
80.4283

> <Gold.Chemscore.Internal_Hbond>
0.0000

> <Gold.Chemscore.DEClash>
0.1730

> <Gold.Chemscore.DEInternal>
4.2908

> <Gold.Chemscore.Rot>
1.2514

> <Gold.Chemscore.Internal.Correction>
   9.000000E+99

> <Gold.Chemscore.Hbonds>
donor molecule, donor type, donor heavy atom, donor atom, acceptor molecule, acceptor atom, score
      P1  H  7997  8008       L1    14  0.60
      P1  H 10752 10764       L1    17  0.13

> <Gold.Chemscore.Hbond.Weighted>
-6.0619

> <Gold.Chemscore.Metal.Weighted>
-0.0000

> <Gold.Chemscore.Lipo.Weighted>
-9.4101

> <Gold.Chemscore.Internal_Hbond.Weighted>
0.0000

> <Gold.Chemscore.DEClash.Weighted>
0.1730

> <Gold.Chemscore.DEInternal.Weighted>
4.2908

> <Gold.Chemscore.Rot.Weighted>
3.2036

> <Gold.Chemscore.Internal.Correction.Weighted>
   9.000000E+99

> <Gold.Protein.RotatedTorsions>
[ 6907 6896 6895 6894 ] final  -49.12 input  -60.11 | X-H torsion
[ 7974 7965 7964 7962 ] final -109.80 input  175.53 | X-H torsion
[ 8008 7997 7996 7995 ] final  -81.89 input   59.86 | X-H torsion
[ 10167 10162 10161 10158 ] final   82.50 input  -65.29 | X-H torsion
[ 10718 10713 10712 10709 ] final -110.79 input   66.30 | X-H torsion
[ 10763 10752 10751 10750 ] final  -82.48 input  -60.55 | X-H torsion
[ 11005 11000 10999 10996 ] final  101.42 input  -57.11 | X-H torsion

> <Gold.Protein.ActiveResidues>
 VAL166  LYS551  ARG553  GLY616  TRP617  ASP618  TYR619  PRO620  LYS621  CYS622 
 ASP623  PHE694  ASN695  SER759  ASP760  ASP761  ALA762  ILE779  LEU786  VAL792 
 PHE793  MET794  SER795  GLU796  ALA797  LYS798  CYS799  TRP800  GLU811  SER814 

> <Gold.Protein.RotatedAtoms>
  150.8836  134.8231  159.7242 H   0  0  0  0  0  0  0  0  0  0  0  0  # atno 6907 bound_to 6896
  152.4794  134.4757  159.9659 H   0  0  0  0  0  0  0  0  0  0  0  0  # atno 6908 bound_to 6896
  151.4828  133.3503  159.2876 H   0  0  0  0  0  0  0  0  0  0  0  0  # atno 6909 bound_to 6896
  145.1760  140.8948  143.3507 H   0  0  0  0  0  0  0  0  0  0  0  0  # atno 7974 bound_to 7965
  154.6030  140.0641  156.9393 H   0  0  0  0  0  0  0  0  0  0  0  0  # atno 8008 bound_to 7997
  155.2101  140.3322  155.4312 H   0  0  0  0  0  0  0  0  0  0  0  0  # atno 8009 bound_to 7997
  156.2330  140.1849  156.7178 H   0  0  0  0  0  0  0  0  0  0  0  0  # atno 8010 bound_to 7997
  139.9281  144.6170  150.8372 H   0  0  0  0  0  0  0  0  0  0  0  0  # atno 10167 bound_to 10162
  156.0611  130.5834  150.8286 H   0  0  0  0  0  0  0  0  0  0  0  0  # atno 10718 bound_to 10713
  154.5762  135.5590  153.7142 H   0  0  0  0  0  0  0  0  0  0  0  0  # atno 10763 bound_to 10752
  153.0065  135.6309  154.2045 H   0  0  0  0  0  0  0  0  0  0  0  0  # atno 10764 bound_to 10752
  154.1986  135.2879  155.2978 H   0  0  0  0  0  0  0  0  0  0  0  0  # atno 10765 bound_to 10752
  139.8773  134.9182  156.4904 H   0  0  0  0  0  0  0  0  0  0  0  0  # atno 11005 bound_to 11000
  145.0184  139.3446  143.6085 LP  0  0  0  0  0  0  0  0  0  0  0  0  # atno 17320 bound_to 7965
  146.3461  139.9475  142.8733 LP  0  0  0  0  0  0  0  0  0  0  0  0  # atno 17321 bound_to 7965
  140.7645  143.3249  151.2538 LP  0  0  0  0  0  0  0  0  0  0  0  0  # atno 17342 bound_to 10162
  139.6805  143.9863  152.2806 LP  0  0  0  0  0  0  0  0  0  0  0  0  # atno 17343 bound_to 10162
  157.5619  131.0946  150.9546 LP  0  0  0  0  0  0  0  0  0  0  0  0  # atno 17370 bound_to 10713
  156.9782  130.5516  149.5294 LP  0  0  0  0  0  0  0  0  0  0  0  0  # atno 17371 bound_to 10713
  140.8663  133.8022  155.9317 LP  0  0  0  0  0  0  0  0  0  0  0  0  # atno 17394 bound_to 11000
  140.8998  134.2392  157.5048 LP  0  0  0  0  0  0  0  0  0  0  0  0  # atno 17395 bound_to 11000

$$$$
