AV-unprocessed.smi:1797|AV-procd|sdf|7258|dock6
  -GOLD-   22720 8513D 1   1.00000     0.00000
 Structure written by MMmdl.
 29 30  0  0  0  0  0  0  0  0  2 V2000
  152.0392  132.1024  156.8744 C   0  0  0  0  0  0  0  0  0  0  0  0
  150.7709  132.8066  156.5334 C   0  0  0  0  0  0  0  0  0  0  0  0
  150.2621  133.7843  157.2871 N   0  0  0  0  0  0  0  0  0  0  0  0
  149.0769  134.2832  156.7661 N   0  0  0  0  0  0  0  0  0  0  0  0
  148.7133  133.6864  155.6219 C   0  0  0  0  0  0  0  0  0  0  0  0
  147.5968  134.0251  154.9508 N   0  5  0  0  0  0  0  0  0  0  0  0
  147.3908  133.6850  153.6512 C   0  0  0  0  0  0  0  0  0  0  0  0
  148.2273  133.0956  152.9681 O   0  0  0  0  0  0  0  0  0  0  0  0
  146.2081  134.0128  153.0949 N   0  0  0  0  0  0  0  0  0  0  0  0
  145.7947  133.7497  151.7200 C   0  0  1  0  0  0  0  0  0  0  0  0
  146.1379  132.3100  151.3088 C   0  0  0  0  0  0  0  0  0  0  0  0
  145.7038  132.0309  149.8609 C   0  0  0  0  0  0  0  0  0  0  0  0
  144.2893  132.5342  149.5362 C   0  0  0  0  0  0  0  0  0  0  0  0
  143.7093  132.1060  148.5407 O   0  0  0  0  0  0  0  0  0  0  0  0
  143.7286  133.4633  150.3303 N   0  0  0  0  0  0  0  0  0  0  0  0
  144.2790  133.9795  151.5832 C   0  0  0  0  0  0  0  0  0  0  0  0
  149.8266  132.4206  155.1046 S   0  0  0  0  0  0  0  0  0  0  0  0
  152.8939  132.7080  156.5725 H   0  0  0  0  0  0  0  0  0  0  0  0
  152.0897  131.1431  156.3589 H   0  0  0  0  0  0  0  0  0  0  0  0
  152.0956  131.9236  157.9485 H   0  0  0  0  0  0  0  0  0  0  0  0
  145.5389  134.4870  153.6836 H   0  0  0  0  0  0  0  0  0  0  0  0
  146.3085  134.4427  151.0508 H   0  0  0  0  0  0  0  0  0  0  0  0
  147.2098  132.1330  151.4049 H   0  0  0  0  0  0  0  0  0  0  0  0
  145.6484  131.6040  151.9815 H   0  0  0  0  0  0  0  0  0  0  0  0
  146.3931  132.5250  149.1754 H   0  0  0  0  0  0  0  0  0  0  0  0
  145.7684  130.9627  149.6521 H   0  0  0  0  0  0  0  0  0  0  0  0
  142.8121  133.7996  150.0721 H   0  0  0  0  0  0  0  0  0  0  0  0
  143.7503  133.4831  152.3983 H   0  0  0  0  0  0  0  0  0  0  0  0
  144.0491  135.0424  151.6628 H   0  0  0  0  0  0  0  0  0  0  0  0
  1  2  1  0  0  0  0
  1 18  1  0  0  0  0
  1 19  1  0  0  0  0
  1 20  1  0  0  0  0
  2 17  1  0  0  0  0
  2  3  2  0  0  0  0
  3  4  1  0  0  0  0
  4  5  2  0  0  0  0
  5  6  1  0  0  0  0
  5 17  1  0  0  0  0
  6  7  1  0  0  0  0
  7  8  2  0  0  0  0
  7  9  1  0  0  0  0
  9 10  1  0  0  0  0
  9 21  1  0  0  0  0
 10 16  1  0  0  0  0
 10 11  1  0  0  0  0
 10 22  1  0  0  0  0
 11 12  1  0  0  0  0
 11 23  1  0  0  0  0
 11 24  1  0  0  0  0
 12 13  1  0  0  0  0
 12 25  1  0  0  0  0
 12 26  1  0  0  0  0
 13 14  2  0  0  0  0
 13 15  1  0  0  0  0
 15 16  1  0  0  0  0
 15 27  1  0  0  0  0
 16 28  1  0  0  0  0
 16 29  1  0  0  0  0
M  CHG  1   6  -1
M  END
> <s_m_source_file>
AV-unprocessed.smi

> <i_m_source_file_index>
1797

> <i_lp_mmshare_version>
43012

> <i_f3d_flags>
0

> <s_epik_input>
W0NIM11jMW5uYyhzMSlbTkhdQyg9TylbTkhdW0NAQEhdMltDSDJdW0NIMl1DKD1PKVtOSF1bQ0gyXTI=

> <s_epik_cmdline>
J2VwaWtfcHl0aG9uJywgJy1waCcsICc3LjAnLCAnLXRuJywgJzgnLCAnLW1hJywgJzIwMCcsICctbWV0YWxfYmluZGluZycsICctaW1hZScsICc8aW5maWxlLm1hZT4nLCAnLW9tYWUnLCAnPG91dGZpbGUubWFlPic=

> <r_lp_tautomer_probability>
1

> <r_epik_Ionization_Penalty>
3.31792

> <r_epik_Ionization_Penalty_Charging>
3.17379

> <r_epik_Ionization_Penalty_Neutral>
0.144127

> <r_epik_State_Penalty>
3.17099

> <r_epik_Charging_Adjusted_Penalty>
6.34478

> <i_epik_Tot_Q>
-1

> <i_epik_Tot_abs_Q>
1

> <r_epik_Metal_State_Penalty>
0.468583

> <b_epik_Metal_Only>
1

> <s_lp_Force_Field>
OPLS_2005

> <r_lp_Energy>
8.48183

> <b_lp_Chiralities_Consistent>
1

> <s_lp_Variant>
AV-unprocessed.smi:1797-4

> <Gold.Version>
5.8.1

> <Gold.Id.Protein>
6NUR|6NUR_protein|mol2

> <Gold.PLP.Fitness>
33.3165

> <Gold.PLP.PLP>
-26.0783

> <Gold.PLP.part.hbond>
-3.0000

> <Gold.PLP.part.metal>
0.0000

> <Gold.PLP.part.buried>
-6.4806

> <Gold.PLP.part.nonpolar>
-18.2957

> <Gold.PLP.part.repulsive>
0.5520

> <Gold.PLP.ligand.clash>
0.0000

> <Gold.PLP.ligand.torsion>
0.2335

> <Gold.PLP.Chemscore.Hbond>
2.5680

> <Gold.PLP.Chemscore.CHOScore>
0.0000

> <Gold.PLP.Chemscore.Metal>
0.0000

> <Gold.Chemscore.Hbonds>
donor molecule, donor type, donor heavy atom, donor atom, acceptor molecule, acceptor atom, score
      L1  H    15    27       P1 10186  1.00
      P1  H  6896  6907       L1     3  0.91
      P1  H 10785 10796       L1    14  0.64

> <Gold.PLP.Chemscore.Internal.Correction>
0.0012

> <Gold.Rescore>
     Score         DG    S(hbond)    S(metal)    S(lipo)     H(rot)  DE(clash)    DE(int)     intcor
     14.25     -17.24       2.79        0.00      42.76       1.00       0.04       2.95       ----

> <Gold.Chemscore.Fitness>
14.2549

> <Gold.Chemscore.DG>
-17.2375

> <Gold.Chemscore.ZeroCoef>
-5.4800

> <Gold.Chemscore.Hbond>
2.7888

> <Gold.Chemscore.Metal>
0.0000

> <Gold.Chemscore.Lipo>
42.7609

> <Gold.Chemscore.Internal_Hbond>
0.0000

> <Gold.Chemscore.DEClash>
0.0363

> <Gold.Chemscore.DEInternal>
2.9463

> <Gold.Chemscore.Rot>
1.0000

> <Gold.Chemscore.Internal.Correction>
   9.000000E+99

> <Gold.Chemscore.Hbonds>
donor molecule, donor type, donor heavy atom, donor atom, acceptor molecule, acceptor atom, score
      L1  H    15    27       P1 10186  0.98
      P1  H  6896  6907       L1     3  0.75
      P1  H 10785 10796       L1    14  0.51

> <Gold.Chemscore.Hbond.Weighted>
-9.3145

> <Gold.Chemscore.Metal.Weighted>
-0.0000

> <Gold.Chemscore.Lipo.Weighted>
-5.0030

> <Gold.Chemscore.Internal_Hbond.Weighted>
0.0000

> <Gold.Chemscore.DEClash.Weighted>
0.0363

> <Gold.Chemscore.DEInternal.Weighted>
2.9463

> <Gold.Chemscore.Rot.Weighted>
2.5600

> <Gold.Chemscore.Internal.Correction.Weighted>
   9.000000E+99

> <Gold.Protein.RotatedTorsions>
[ 6907 6896 6895 6894 ] final -123.59 input  -60.11 | X-H torsion
[ 7974 7965 7964 7962 ] final -137.87 input  175.53 | X-H torsion
[ 8008 7997 7996 7995 ] final  139.45 input   59.86 | X-H torsion
[ 10167 10162 10161 10158 ] final  109.04 input  -65.29 | X-H torsion
[ 10718 10713 10712 10709 ] final -125.62 input   66.30 | X-H torsion
[ 10763 10752 10751 10750 ] final   47.53 input  -60.55 | X-H torsion
[ 11005 11000 10999 10996 ] final  116.70 input  -57.11 | X-H torsion

> <Gold.Protein.ActiveResidues>
 VAL166  LYS551  ARG553  GLY616  TRP617  ASP618  TYR619  PRO620  LYS621  CYS622 
 ASP623  PHE694  ASN695  SER759  ASP760  ASP761  ALA762  ILE779  LEU786  VAL792 
 PHE793  MET794  SER795  GLU796  ALA797  LYS798  CYS799  TRP800  GLU811  SER814 

> <Gold.Protein.RotatedAtoms>
  150.8686  133.7538  159.2968 H   0  0  0  0  0  0  0  0  0  0  0  0  # atno 6907 bound_to 6896
  151.5158  135.1064  159.9875 H   0  0  0  0  0  0  0  0  0  0  0  0  # atno 6908 bound_to 6896
  152.4679  133.7919  159.6962 H   0  0  0  0  0  0  0  0  0  0  0  0  # atno 6909 bound_to 6896
  144.8805  140.6501  143.5209 H   0  0  0  0  0  0  0  0  0  0  0  0  # atno 7974 bound_to 7965
  156.2989  140.2367  156.4240 H   0  0  0  0  0  0  0  0  0  0  0  0  # atno 8008 bound_to 7997
  154.8330  140.0432  157.1510 H   0  0  0  0  0  0  0  0  0  0  0  0  # atno 8009 bound_to 7997
  154.9187  140.3000  155.5231 H   0  0  0  0  0  0  0  0  0  0  0  0  # atno 8010 bound_to 7997
  139.6798  144.7119  151.1536 H   0  0  0  0  0  0  0  0  0  0  0  0  # atno 10167 bound_to 10162
  156.1692  130.6656  151.0157 H   0  0  0  0  0  0  0  0  0  0  0  0  # atno 10718 bound_to 10713
  152.9799  135.5973  154.3777 H   0  0  0  0  0  0  0  0  0  0  0  0  # atno 10763 bound_to 10752
  154.3445  135.2767  155.2407 H   0  0  0  0  0  0  0  0  0  0  0  0  # atno 10764 bound_to 10752
  154.4473  135.5998  153.6224 H   0  0  0  0  0  0  0  0  0  0  0  0  # atno 10765 bound_to 10752
  139.9050  134.9601  156.7239 H   0  0  0  0  0  0  0  0  0  0  0  0  # atno 11005 bound_to 11000
  145.3962  139.1606  143.4202 LP  0  0  0  0  0  0  0  0  0  0  0  0  # atno 17320 bound_to 7965
  146.2991  140.4056  142.8710 LP  0  0  0  0  0  0  0  0  0  0  0  0  # atno 17321 bound_to 7965
  140.7648  143.5717  150.8989 LP  0  0  0  0  0  0  0  0  0  0  0  0  # atno 17342 bound_to 10162
  139.9388  143.6406  152.3059 LP  0  0  0  0  0  0  0  0  0  0  0  0  # atno 17343 bound_to 10162
  157.6790  131.0843  150.7419 LP  0  0  0  0  0  0  0  0  0  0  0  0  # atno 17370 bound_to 10713
  156.7479  130.4759  149.5463 LP  0  0  0  0  0  0  0  0  0  0  0  0  # atno 17371 bound_to 10713
  140.6979  133.9332  155.8006 LP  0  0  0  0  0  0  0  0  0  0  0  0  # atno 17394 bound_to 11000
  141.0393  134.0644  157.3921 LP  0  0  0  0  0  0  0  0  0  0  0  0  # atno 17395 bound_to 11000

$$$$
