AV-unprocessed.smi:1833|AV-procd|sdf|7466|dock4
  -GOLD-   22720 9163D 1   1.00000     0.00000
 Structure written by MMmdl.
 42 43  0  0  0  0  0  0  0  0  2 V2000
  145.5235  135.9095  151.6220 C   0  0  0  0  0  0  0  0  0  0  0  0
  145.7843  134.4362  151.9623 C   0  0  0  0  0  0  0  0  0  0  0  0
  147.0538  134.2387  152.7057 N   0  3  2  0  0  0  0  0  0  0  0  0
  147.5675  132.8503  152.5692 C   0  0  0  0  0  0  0  0  0  0  0  0
  148.9483  132.6943  153.2286 C   0  0  0  0  0  0  0  0  0  0  0  0
  148.9158  133.1374  154.6998 C   0  0  0  0  0  0  0  0  0  0  0  0
  148.3447  134.5598  154.8307 C   0  0  1  0  0  0  0  0  0  0  0  0
  149.2897  135.5282  154.2757 N   0  0  0  0  0  0  0  0  0  0  0  0
  149.9783  136.4322  154.9858 C   0  0  0  0  0  0  0  0  0  0  0  0
  149.8725  136.5767  156.2035 O   0  0  0  0  0  0  0  0  0  0  0  0
  150.7960  137.1536  154.2068 N   0  0  0  0  0  0  0  0  0  0  0  0
  151.7267  138.1776  154.6729 C   0  0  0  0  0  0  0  0  0  0  0  0
  151.0971  139.5815  154.7173 C   0  0  0  0  0  0  0  0  0  0  0  0
  151.3391  140.3208  155.9935 C   0  0  0  0  0  0  0  0  0  0  0  0
  152.3481  140.0543  156.8290 N   0  0  0  0  0  0  0  0  0  0  0  0
  152.3497  140.8947  157.9452 C   0  0  0  0  0  0  0  0  0  0  0  0
  151.3448  141.8275  157.9317 C   0  0  0  0  0  0  0  0  0  0  0  0
  150.3429  141.6749  156.5156 S   0  0  0  0  0  0  0  0  0  0  0  0
  146.9691  134.6457  154.1347 C   0  0  0  0  0  0  0  0  0  0  0  0
  144.6426  136.0062  150.9873 H   0  0  0  0  0  0  0  0  0  0  0  0
  146.3665  136.3453  151.0849 H   0  0  0  0  0  0  0  0  0  0  0  0
  145.3436  136.5090  152.5137 H   0  0  0  0  0  0  0  0  0  0  0  0
  144.9499  134.0175  152.5266 H   0  0  0  0  0  0  0  0  0  0  0  0
  145.8302  133.8835  151.0229 H   0  0  0  0  0  0  0  0  0  0  0  0
  146.8569  132.1538  153.0171 H   0  0  0  0  0  0  0  0  0  0  0  0
  147.6465  132.5871  151.5138 H   0  0  0  0  0  0  0  0  0  0  0  0
  149.2764  131.6566  153.1615 H   0  0  0  0  0  0  0  0  0  0  0  0
  149.6842  133.2826  152.6793 H   0  0  0  0  0  0  0  0  0  0  0  0
  148.2950  132.4452  155.2700 H   0  0  0  0  0  0  0  0  0  0  0  0
  149.9146  133.0825  155.1350 H   0  0  0  0  0  0  0  0  0  0  0  0
  148.2170  134.7766  155.8930 H   0  0  0  0  0  0  0  0  0  0  0  0
  149.4556  135.4832  153.2808 H   0  0  0  0  0  0  0  0  0  0  0  0
  150.8015  136.9587  153.2165 H   0  0  0  0  0  0  0  0  0  0  0  0
  152.1355  137.9150  155.6502 H   0  0  0  0  0  0  0  0  0  0  0  0
  152.5723  138.1871  153.9853 H   0  0  0  0  0  0  0  0  0  0  0  0
  151.4945  140.1823  153.8989 H   0  0  0  0  0  0  0  0  0  0  0  0
  150.0217  139.5118  154.5489 H   0  0  0  0  0  0  0  0  0  0  0  0
  153.1042  140.7597  158.7053 H   0  0  0  0  0  0  0  0  0  0  0  0
  151.1310  142.5891  158.6670 H   0  0  0  0  0  0  0  0  0  0  0  0
  146.5850  135.6616  154.2211 H   0  0  0  0  0  0  0  0  0  0  0  0
  146.2531  134.0030  154.6496 H   0  0  0  0  0  0  0  0  0  0  0  0
  147.7380  134.8400  152.2693 H   0  0  0  0  0  0  0  0  0  0  0  0
  1  2  1  0  0  0  0
  1 20  1  0  0  0  0
  1 21  1  0  0  0  0
  1 22  1  0  0  0  0
  2  3  1  0  0  0  0
  2 23  1  0  0  0  0
  2 24  1  0  0  0  0
  3 19  1  0  0  0  0
  3  4  1  0  0  0  0
  3 42  1  0  0  0  0
  4  5  1  0  0  0  0
  4 25  1  0  0  0  0
  4 26  1  0  0  0  0
  5  6  1  0  0  0  0
  5 27  1  0  0  0  0
  5 28  1  0  0  0  0
  6  7  1  0  0  0  0
  6 29  1  0  0  0  0
  6 30  1  0  0  0  0
  7  8  1  0  0  0  0
  7 19  1  0  0  0  0
  7 31  1  0  0  0  0
  8  9  1  0  0  0  0
  8 32  1  0  0  0  0
  9 10  2  0  0  0  0
  9 11  1  0  0  0  0
 11 12  1  0  0  0  0
 11 33  1  0  0  0  0
 12 13  1  0  0  0  0
 12 34  1  0  0  0  0
 12 35  1  0  0  0  0
 13 14  1  0  0  0  0
 13 36  1  0  0  0  0
 13 37  1  0  0  0  0
 14 18  1  0  0  0  0
 14 15  2  0  0  0  0
 15 16  1  0  0  0  0
 16 17  2  0  0  0  0
 16 38  1  0  0  0  0
 17 18  1  0  0  0  0
 17 39  1  0  0  0  0
 19 40  1  0  0  0  0
 19 41  1  0  0  0  0
M  CHG  1   3   1
M  END
> <s_m_source_file>
AV-unprocessed.smi

> <i_m_source_file_index>
1833

> <i_lp_mmshare_version>
43012

> <i_f3d_flags>
0

> <s_epik_input>
W0NIM11bQ0gyXU4xW0NIMl1bQ0gyXVtDSDJdW0NASF0oW0NIMl0xKVtOSF1DKD1PKVtOSF1bQ0gyXVtDSDJdYzJuW2NIXVtjSF1zMg==

> <s_epik_cmdline>
J2VwaWtfcHl0aG9uJywgJy1waCcsICc3LjAnLCAnLXRuJywgJzgnLCAnLW1hJywgJzIwMCcsICctbWV0YWxfYmluZGluZycsICctaW1hZScsICc8aW5maWxlLm1hZT4nLCAnLW9tYWUnLCAnPG91dGZpbGUubWFlPic=

> <r_lp_tautomer_probability>
1

> <r_epik_Ionization_Penalty>
0.00269629

> <r_epik_Ionization_Penalty_Charging>
0.00233899

> <r_epik_Ionization_Penalty_Neutral>
0.000357304

> <r_epik_State_Penalty>
-0

> <r_epik_Charging_Adjusted_Penalty>
0.00233899

> <i_epik_Tot_Q>
1

> <i_epik_Tot_abs_Q>
1

> <r_epik_Metal_State_Penalty>
-0

> <b_epik_Metal_Only>
0

> <s_lp_Force_Field>
OPLS_2005

> <r_lp_Energy>
14.5557

> <b_lp_Chiralities_Consistent>
1

> <s_lp_Variant>
AV-unprocessed.smi:1833-2

> <Gold.Version>
5.8.1

> <Gold.Id.Protein>
6NUR|6NUR_protein|mol2

> <Gold.PLP.Fitness>
44.3101

> <Gold.PLP.PLP>
-33.1325

> <Gold.PLP.part.hbond>
-4.7195

> <Gold.PLP.part.metal>
0.0000

> <Gold.PLP.part.buried>
-1.6534

> <Gold.PLP.part.nonpolar>
-26.8048

> <Gold.PLP.part.repulsive>
0.1333

> <Gold.PLP.ligand.clash>
0.0000

> <Gold.PLP.ligand.torsion>
1.0531

> <Gold.PLP.Chemscore.Hbond>
4.4100

> <Gold.PLP.Chemscore.CHOScore>
0.0000

> <Gold.PLP.Chemscore.Metal>
0.0000

> <Gold.Chemscore.Hbonds>
donor molecule, donor type, donor heavy atom, donor atom, acceptor molecule, acceptor atom, score
      L1  H     3    42       P1  7948  2.00
      L1  H     8    32       P1  7948  0.62
      L1  H    11    33       P1  7949  0.75
      P1  H  7997  8008       L1    15  0.93

> <Gold.PLP.Chemscore.Internal.Correction>
0.0537

> <Gold.Rescore>
     Score         DG    S(hbond)    S(metal)    S(lipo)     H(rot)  DE(clash)    DE(int)     intcor
     15.85     -16.99       2.25        0.00      71.66       1.71       0.05       1.10       ----

> <Gold.Chemscore.Fitness>
15.8495

> <Gold.Chemscore.DG>
-16.9918

> <Gold.Chemscore.ZeroCoef>
-5.4800

> <Gold.Chemscore.Hbond>
2.2505

> <Gold.Chemscore.Metal>
0.0000

> <Gold.Chemscore.Lipo>
71.6638

> <Gold.Chemscore.Internal_Hbond>
0.0000

> <Gold.Chemscore.DEClash>
0.0462

> <Gold.Chemscore.DEInternal>
1.0960

> <Gold.Chemscore.Rot>
1.7147

> <Gold.Chemscore.Internal.Correction>
   9.000000E+99

> <Gold.Chemscore.Hbonds>
donor molecule, donor type, donor heavy atom, donor atom, acceptor molecule, acceptor atom, score
      L1  H     3    42       P1  7948  0.82
      L1  H     8    32       P1  7948  0.08
      L1  H    11    33       P1  7949  0.09
      P1  H  7997  8008       L1    15  0.19

> <Gold.Chemscore.Hbond.Weighted>
-7.5167

> <Gold.Chemscore.Metal.Weighted>
-0.0000

> <Gold.Chemscore.Lipo.Weighted>
-8.3847

> <Gold.Chemscore.Internal_Hbond.Weighted>
0.0000

> <Gold.Chemscore.DEClash.Weighted>
0.0462

> <Gold.Chemscore.DEInternal.Weighted>
1.0960

> <Gold.Chemscore.Rot.Weighted>
4.3896

> <Gold.Chemscore.Internal.Correction.Weighted>
   9.000000E+99

> <Gold.Protein.RotatedTorsions>
[ 6907 6896 6895 6894 ] final -177.53 input  -60.11 | X-H torsion
[ 7974 7965 7964 7962 ] final   87.91 input  175.53 | X-H torsion
[ 8008 7997 7996 7995 ] final  -42.64 input   59.86 | X-H torsion
[ 10167 10162 10161 10158 ] final  -44.99 input  -65.29 | X-H torsion
[ 10718 10713 10712 10709 ] final  158.65 input   66.30 | X-H torsion
[ 10763 10752 10751 10750 ] final  -22.92 input  -60.55 | X-H torsion
[ 11005 11000 10999 10996 ] final   -0.97 input  -57.11 | X-H torsion

> <Gold.Protein.ActiveResidues>
 VAL166  LYS551  ARG553  GLY616  TRP617  ASP618  TYR619  PRO620  LYS621  CYS622 
 ASP623  PHE694  ASN695  SER759  ASP760  ASP761  ALA762  ILE779  LEU786  VAL792 
 PHE793  MET794  SER795  GLU796  ALA797  LYS798  CYS799  TRP800  GLU811  SER814 

> <Gold.Protein.RotatedAtoms>
  151.6226  133.3338  159.3090 H   0  0  0  0  0  0  0  0  0  0  0  0  # atno 6907 bound_to 6896
  150.8098  134.7249  159.6689 H   0  0  0  0  0  0  0  0  0  0  0  0  # atno 6908 bound_to 6896
  152.4194  134.5987  160.0045 H   0  0  0  0  0  0  0  0  0  0  0  0  # atno 6909 bound_to 6896
  145.5527  139.2297  143.2504 H   0  0  0  0  0  0  0  0  0  0  0  0  # atno 7974 bound_to 7965
  154.3998  140.1468  156.3388 H   0  0  0  0  0  0  0  0  0  0  0  0  # atno 8008 bound_to 7997
  155.8376  140.3463  155.5590 H   0  0  0  0  0  0  0  0  0  0  0  0  # atno 8009 bound_to 7997
  155.8122  140.0885  157.1888 H   0  0  0  0  0  0  0  0  0  0  0  0  # atno 8010 bound_to 7997
  140.6876  143.2902  151.3574 H   0  0  0  0  0  0  0  0  0  0  0  0  # atno 10167 bound_to 10162
  157.1750  131.0619  151.2163 H   0  0  0  0  0  0  0  0  0  0  0  0  # atno 10718 bound_to 10713
  153.6595  135.6977  153.5182 H   0  0  0  0  0  0  0  0  0  0  0  0  # atno 10763 bound_to 10752
  153.2643  135.4235  155.0924 H   0  0  0  0  0  0  0  0  0  0  0  0  # atno 10764 bound_to 10752
  154.8455  135.3562  154.6140 H   0  0  0  0  0  0  0  0  0  0  0  0  # atno 10765 bound_to 10752
  140.6422  133.9479  155.8332 H   0  0  0  0  0  0  0  0  0  0  0  0  # atno 11005 bound_to 11000
  146.1906  140.6350  142.9147 LP  0  0  0  0  0  0  0  0  0  0  0  0  # atno 17320 bound_to 7965
  144.7521  140.5218  143.6794 LP  0  0  0  0  0  0  0  0  0  0  0  0  # atno 17321 bound_to 7965
  139.6248  144.0837  152.2424 LP  0  0  0  0  0  0  0  0  0  0  0  0  # atno 17342 bound_to 10162
  140.0292  144.6094  150.7502 LP  0  0  0  0  0  0  0  0  0  0  0  0  # atno 17343 bound_to 10162
  157.4007  130.7332  149.6765 LP  0  0  0  0  0  0  0  0  0  0  0  0  # atno 17370 bound_to 10713
  155.9733  130.4121  150.4017 LP  0  0  0  0  0  0  0  0  0  0  0  0  # atno 17371 bound_to 10713
  141.0598  134.0363  157.3673 LP  0  0  0  0  0  0  0  0  0  0  0  0  # atno 17394 bound_to 11000
  139.9076  135.0183  156.7553 LP  0  0  0  0  0  0  0  0  0  0  0  0  # atno 17395 bound_to 11000

$$$$
