#       Name:                AV-unprocessed.smi:160
#       Creating user name   scv26
#       Creation time:       Thu Mar 26 19:04:31 2020


#       File generated by GOLD software.
#

@<TRIPOS>MOLECULE
AV-unprocessed.smi:160
    41    42     1
SMALL
NO_CHARGES


@<TRIPOS>ATOM
      1 ****        -3.5771   2.0852   0.0150 N.am           1 S1                 0.0000
      2 ****        -3.9840   0.8482   0.3183 C.2            1 S1                 0.0000
      3 ****        -5.1591   0.5841   0.5673 O.2            1 S1                 0.0000
      4 ****        -2.9198  -0.2140   0.3413 C.2            1 S1                 0.0000
      5 ****        -3.2205  -1.5075   0.6609 N.2            1 S1                 0.0000
      6 ****        -2.0077  -2.0351   0.5556 C.2            1 S1                 0.0000
      7 ****        -1.0594  -1.1649   0.1939 N.pl3          1 S1                 0.0000
      8 ****         0.4116  -1.3801   0.0087 C.3            1 S1                 0.0000
      9 ****         1.0774  -0.6057   0.9614 O.3            1 S1                 0.0000
     10 ****         1.5616   0.5917   0.3604 C.3            1 S1                 0.0000
     11 ****         2.6748   1.2328   1.2079 C.3            1 S1                 0.0000
     12 ****         2.1098   2.0261   2.2301 O.3            1 S1                 0.0000
     13 ****         1.9819   0.1040  -1.0322 C.3            1 S1                 0.0000
     14 ****         3.2691  -0.4913  -0.9807 O.3            1 S1                 0.0000
     15 ****         0.8828  -0.9016  -1.3790 C.3            1 S1                 0.0000
     16 ****         1.3524  -1.9520  -2.2043 O.3            1 S1                 0.0000
     17 ****        -1.6440   0.0523   0.0557 N.2            1 S1                 0.0000
     18 ****         0.5685  -2.4430   0.1975 H              1 S1                 0.0000
     19 ****         0.7380   1.2976   0.2412 H              1 S1                 0.0000
     20 ****         2.0169   0.9218  -1.7527 H              1 S1                 0.0000
     21 ****         0.0692  -0.3911  -1.8954 H              1 S1                 0.0000
     22 ****        -4.2439   2.8424  -0.0113 H              1 S1                 0.0000
     23 ****        -2.6011   2.2538  -0.1810 H              1 S1                 0.0000
     24 ****        -1.8061  -3.0789   0.7474 H              1 S1                 0.0000
     25 ****         3.3350   0.4785   1.6370 H              1 S1                 0.0000
     26 ****         3.2870   1.8887   0.5884 H              1 S1                 0.0000
     27 ****         2.8108   2.4062   2.7372 H              1 S1                 0.0000
     28 ****         3.4390  -0.9027  -1.8148 H              1 S1                 0.0000
     29 ****         0.6358  -2.5444  -2.3739 H              1 S1                 0.0000
     30 ****        -5.8492   1.3074   0.5471 LP             1 S1                 0.0000
     31 ****        -5.4243  -0.3540   0.7900 LP             1 S1                 0.0000
     32 ****        -4.0939  -1.9305   0.9022 LP             1 S1                 0.0000
     33 ****         1.8472  -1.1255   1.3320 LP             1 S1                 0.0000
     34 ****         0.4452  -0.3736   1.7006 LP             1 S1                 0.0000
     35 ****         1.5366   1.4576   2.8202 LP             1 S1                 0.0000
     36 ****         1.5543   2.7523   1.8252 LP             1 S1                 0.0000
     37 ****         3.2957  -1.1773  -0.2535 LP             1 S1                 0.0000
     38 ****         3.9593   0.2101  -0.8027 LP             1 S1                 0.0000
     39 ****         2.0913  -2.4408  -1.7403 LP             1 S1                 0.0000
     40 ****         1.6913  -1.5770  -3.0672 LP             1 S1                 0.0000
     41 ****        -1.2256   0.9250  -0.1958 LP             1 S1                 0.0000
@<TRIPOS>BOND
    1    1    2 am    
    2    1   22 1     
    3    1   23 1     
    4    2    3 2     
    5    2    4 1     
    6    4   17 2     
    7    4    5 1     
    8    5    6 2     
    9    6    7 1     
   10    6   24 1     
   11    7    8 1     
   12    7   17 1     
   13    8   18 1     
   14    8   15 1     
   15    8    9 1     
   16    9   10 1     
   17   10   19 1     
   18   10   11 1     
   19   10   13 1     
   20   11   12 1     
   21   11   25 1     
   22   11   26 1     
   23   12   27 1     
   24   13   20 1     
   25   13   14 1     
   26   13   15 1     
   27   14   28 1     
   28   15   21 1     
   29   15   16 1     
   30   16   29 1     
   31    3   30 1     
   32    3   31 1     
   33    5   32 1     
   34    9   33 1     
   35    9   34 1     
   36   12   35 1     
   37   12   36 1     
   38   14   37 1     
   39   14   38 1     
   40   16   39 1     
   41   16   40 1     
   42   17   41 1     
@<TRIPOS>SUBSTRUCTURE
      1 S1             1
@<TRIPOS>SET
LONE_PAIRS      STATIC     ATOMS    <user>   **** ""
12 30 31 32 33 34 35 36 37 38 39 40 41
DONOR_HYDROGENS      STATIC     ATOMS    <user>   **** ""
5 22 23 27 28 29
ATOM$BLUE        STATIC     ATOMS    COLORGROUP SYSTEM
12 30 31 32 33 34 35 36 37 38 39 40 41
ATOM$RED        STATIC     ATOMS    COLORGROUP SYSTEM
5 22 23 27 28 29
