AV-unprocessed.smi:1538|AV-procd|sdf|6192|dock6
  -GOLD-   22720 6353D 1   1.00000     0.00000
 Structure written by MMmdl.
 37 38  0  0  0  0  0  0  0  0  2 V2000
  148.4919  136.3993  155.4346 C   0  0  0  0  0  0  0  0  0  0  0  0
  149.5444  137.4020  155.2602 N   0  0  0  0  0  0  0  0  0  0  0  0
  149.1378  138.7828  155.5483 C   0  0  0  0  0  0  0  0  0  0  0  0
  150.0579  139.8298  154.9063 C   0  0  0  0  0  0  0  0  0  0  0  0
  151.5416  139.5258  155.1593 C   0  0  1  0  0  0  0  0  0  0  0  0
  151.9785  139.8262  156.6042 C   0  0  0  0  0  0  0  0  0  0  0  0
  152.8789  139.1745  157.1338 O   0  0  0  0  0  0  0  0  0  0  0  0
  151.3404  140.8267  157.2294 N   0  0  0  0  0  0  0  0  0  0  0  0
  151.6229  141.2536  158.5924 C   0  0  0  0  0  0  0  0  0  0  0  0
  152.5420  142.4825  158.5960 C   0  0  0  0  0  0  0  0  0  0  0  0
  151.8083  143.7056  158.9266 N   0  0  0  0  0  0  0  0  0  0  0  0
  152.1222  144.6276  159.8917 C   0  0  0  0  0  0  0  0  0  0  0  0
  151.1576  145.6003  159.8309 C   0  0  0  0  0  0  0  0  0  0  0  0
  150.2977  145.2318  158.8311 N   0  3  0  0  0  0  0  0  0  0  0  0
  150.6952  144.0792  158.2820 C   0  0  0  0  0  0  0  0  0  0  0  0
  151.9022  138.0852  154.7294 C   0  0  0  0  0  0  0  0  0  0  0  0
  150.7986  137.0255  154.9118 C   0  0  0  0  0  0  0  0  0  0  0  0
  151.0992  135.8479  154.7144 O   0  0  0  0  0  0  0  0  0  0  0  0
  148.8151  135.6075  156.1120 H   0  0  0  0  0  0  0  0  0  0  0  0
  148.2364  135.9455  154.4762 H   0  0  0  0  0  0  0  0  0  0  0  0
  147.5802  136.8269  155.8537 H   0  0  0  0  0  0  0  0  0  0  0  0
  148.1189  138.9526  155.1972 H   0  0  0  0  0  0  0  0  0  0  0  0
  149.1134  138.9138  156.6306 H   0  0  0  0  0  0  0  0  0  0  0  0
  149.8800  139.8479  153.8301 H   0  0  0  0  0  0  0  0  0  0  0  0
  149.7996  140.8251  155.2705 H   0  0  0  0  0  0  0  0  0  0  0  0
  152.1144  140.1978  154.5176 H   0  0  0  0  0  0  0  0  0  0  0  0
  150.6149  141.3197  156.7287 H   0  0  0  0  0  0  0  0  0  0  0  0
  150.6846  141.4854  159.0990 H   0  0  0  0  0  0  0  0  0  0  0  0
  152.0912  140.4332  159.1389 H   0  0  0  0  0  0  0  0  0  0  0  0
  153.3505  142.3626  159.3189 H   0  0  0  0  0  0  0  0  0  0  0  0
  153.0024  142.6232  157.6170 H   0  0  0  0  0  0  0  0  0  0  0  0
  152.9862  144.5265  160.5327 H   0  0  0  0  0  0  0  0  0  0  0  0
  151.0231  146.5034  160.4084 H   0  0  0  0  0  0  0  0  0  0  0  0
  150.2125  143.5555  157.4760 H   0  0  0  0  0  0  0  0  0  0  0  0
  152.1520  138.0939  153.6679 H   0  0  0  0  0  0  0  0  0  0  0  0
  152.8048  137.7417  155.2380 H   0  0  0  0  0  0  0  0  0  0  0  0
  149.4791  145.7547  158.5456 H   0  0  0  0  0  0  0  0  0  0  0  0
  1  2  1  0  0  0  0
  1 19  1  0  0  0  0
  1 20  1  0  0  0  0
  1 21  1  0  0  0  0
  2 17  1  0  0  0  0
  2  3  1  0  0  0  0
  3  4  1  0  0  0  0
  3 22  1  0  0  0  0
  3 23  1  0  0  0  0
  4  5  1  0  0  0  0
  4 24  1  0  0  0  0
  4 25  1  0  0  0  0
  5  6  1  0  0  0  0
  5 16  1  0  0  0  0
  5 26  1  0  0  0  0
  6  7  2  0  0  0  0
  6  8  1  0  0  0  0
  8  9  1  0  0  0  0
  8 27  1  0  0  0  0
  9 10  1  0  0  0  0
  9 28  1  0  0  0  0
  9 29  1  0  0  0  0
 10 11  1  0  0  0  0
 10 30  1  0  0  0  0
 10 31  1  0  0  0  0
 11 15  1  0  0  0  0
 11 12  1  0  0  0  0
 12 13  2  0  0  0  0
 12 32  1  0  0  0  0
 13 14  1  0  0  0  0
 13 33  1  0  0  0  0
 14 15  2  0  0  0  0
 14 37  1  0  0  0  0
 15 34  1  0  0  0  0
 16 17  1  0  0  0  0
 16 35  1  0  0  0  0
 16 36  1  0  0  0  0
 17 18  2  0  0  0  0
M  CHG  1  14   1
M  END
> <s_m_source_file>
AV-unprocessed.smi

> <i_m_source_file_index>
1538

> <i_lp_mmshare_version>
43012

> <i_f3d_flags>
0

> <s_epik_input>
W0NIM11OMVtDSDJdW0NIMl1bQ0BIXShbQ0gyXUMxPU8pQyg9TylbTkhdW0NIMl1bQ0gyXW4yW2NIXVtjSF1uW2NIXTI=

> <s_epik_cmdline>
J2VwaWtfcHl0aG9uJywgJy1waCcsICc3LjAnLCAnLXRuJywgJzgnLCAnLW1hJywgJzIwMCcsICctbWV0YWxfYmluZGluZycsICctaW1hZScsICc8aW5maWxlLm1hZT4nLCAnLW9tYWUnLCAnPG91dGZpbGUubWFlPic=

> <r_lp_tautomer_probability>
1

> <r_epik_Ionization_Penalty>
0.272873

> <r_epik_Ionization_Penalty_Charging>
0

> <r_epik_Ionization_Penalty_Neutral>
0.272873

> <r_epik_State_Penalty>
0.265096

> <r_epik_Charging_Adjusted_Penalty>
0.265096

> <i_epik_Tot_Q>
1

> <i_epik_Tot_abs_Q>
1

> <r_epik_Metal_State_Penalty>
0.549113

> <b_epik_Metal_Only>
0

> <s_lp_Force_Field>
OPLS_2005

> <r_lp_Energy>
17.3063

> <b_lp_Chiralities_Consistent>
1

> <s_lp_Variant>
AV-unprocessed.smi:1538-1

> <Gold.Version>
5.8.1

> <Gold.Id.Protein>
6NUR|6NUR_protein|mol2

> <Gold.PLP.Fitness>
46.8922

> <Gold.PLP.PLP>
-34.8646

> <Gold.PLP.part.hbond>
-3.0000

> <Gold.PLP.part.metal>
0.0000

> <Gold.PLP.part.buried>
-2.2873

> <Gold.PLP.part.nonpolar>
-30.2348

> <Gold.PLP.part.repulsive>
0.4892

> <Gold.PLP.ligand.clash>
0.0000

> <Gold.PLP.ligand.torsion>
1.2248

> <Gold.PLP.Chemscore.Hbond>
3.9349

> <Gold.PLP.Chemscore.CHOScore>
0.8745

> <Gold.PLP.Chemscore.Metal>
0.0000

> <Gold.Chemscore.Hbonds>
donor molecule, donor type, donor heavy atom, donor atom, acceptor molecule, acceptor atom, score
      L1  H    14    37       P1  8029  1.95
      P1  H  7997  8009       L1     7  1.00
      P1  H 10752 10765       L1    18  1.00
      L1  C    15    34       P1  8028  0.85

> <Gold.PLP.Chemscore.Internal.Correction>
0.0488

> <Gold.Rescore>
     Score         DG    S(hbond)    S(metal)    S(lipo)     H(rot)  DE(clash)    DE(int)     intcor
     14.99     -16.72       2.49        0.00      69.78       2.05       0.47       1.26       ----

> <Gold.Chemscore.Fitness>
14.9934

> <Gold.Chemscore.DG>
-16.7181

> <Gold.Chemscore.ZeroCoef>
-5.4800

> <Gold.Chemscore.Hbond>
2.4900

> <Gold.Chemscore.Metal>
0.0000

> <Gold.Chemscore.Lipo>
69.7777

> <Gold.Chemscore.Internal_Hbond>
0.0000

> <Gold.Chemscore.DEClash>
0.4655

> <Gold.Chemscore.DEInternal>
1.2592

> <Gold.Chemscore.Rot>
2.0478

> <Gold.Chemscore.Internal.Correction>
   9.000000E+99

> <Gold.Chemscore.Hbonds>
donor molecule, donor type, donor heavy atom, donor atom, acceptor molecule, acceptor atom, score
      L1  H    14    37       P1  8029  0.82
      P1  H  7997  8009       L1     7  0.45
      P1  H 10752 10765       L1    18  0.81

> <Gold.Chemscore.Hbond.Weighted>
-8.3165

> <Gold.Chemscore.Metal.Weighted>
-0.0000

> <Gold.Chemscore.Lipo.Weighted>
-8.1640

> <Gold.Chemscore.Internal_Hbond.Weighted>
0.0000

> <Gold.Chemscore.DEClash.Weighted>
0.4655

> <Gold.Chemscore.DEInternal.Weighted>
1.2592

> <Gold.Chemscore.Rot.Weighted>
5.2423

> <Gold.Chemscore.Internal.Correction.Weighted>
   9.000000E+99

> <Gold.Protein.RotatedTorsions>
[ 6907 6896 6895 6894 ] final   17.82 input  -60.11 | X-H torsion
[ 7974 7965 7964 7962 ] final -113.30 input  175.53 | X-H torsion
[ 8008 7997 7996 7995 ] final  177.34 input   59.86 | X-H torsion
[ 10167 10162 10161 10158 ] final   61.45 input  -65.29 | X-H torsion
[ 10718 10713 10712 10709 ] final -134.22 input   66.30 | X-H torsion
[ 10763 10752 10751 10750 ] final -168.51 input  -60.55 | X-H torsion
[ 11005 11000 10999 10996 ] final -135.93 input  -57.11 | X-H torsion

> <Gold.Protein.ActiveResidues>
 VAL166  LYS551  ARG553  GLY616  TRP617  ASP618  TYR619  PRO620  LYS621  CYS622 
 ASP623  PHE694  ASN695  SER759  ASP760  ASP761  ALA762  ILE779  LEU786  VAL792 
 PHE793  MET794  SER795  GLU796  ALA797  LYS798  CYS799  TRP800  GLU811  SER814 

> <Gold.Protein.RotatedAtoms>
  151.8556  135.0542  160.0463 H   0  0  0  0  0  0  0  0  0  0  0  0  # atno 6907 bound_to 6896
  152.2703  133.5371  159.5443 H   0  0  0  0  0  0  0  0  0  0  0  0  # atno 6908 bound_to 6896
  150.7149  134.0624  159.3878 H   0  0  0  0  0  0  0  0  0  0  0  0  # atno 6909 bound_to 6896
  145.1337  140.8739  143.3743 H   0  0  0  0  0  0  0  0  0  0  0  0  # atno 7974 bound_to 7965
  156.0667  140.1361  156.9877 H   0  0  0  0  0  0  0  0  0  0  0  0  # atno 8008 bound_to 7997
  154.4510  140.0980  156.6669 H   0  0  0  0  0  0  0  0  0  0  0  0  # atno 8009 bound_to 7997
  155.5292  140.3458  155.4425 H   0  0  0  0  0  0  0  0  0  0  0  0  # atno 8010 bound_to 7997
  140.1546  144.4430  150.6741 H   0  0  0  0  0  0  0  0  0  0  0  0  # atno 10167 bound_to 10162
  156.2532  130.7165  151.1072 H   0  0  0  0  0  0  0  0  0  0  0  0  # atno 10718 bound_to 10713
  154.6621  135.2926  154.9853 H   0  0  0  0  0  0  0  0  0  0  0  0  # atno 10763 bound_to 10752
  154.0909  135.6591  153.4856 H   0  0  0  0  0  0  0  0  0  0  0  0  # atno 10764 bound_to 10752
  153.0436  135.5220  154.7576 H   0  0  0  0  0  0  0  0  0  0  0  0  # atno 10765 bound_to 10752
  140.8852  134.1881  157.4565 H   0  0  0  0  0  0  0  0  0  0  0  0  # atno 11005 bound_to 11000
  145.0608  139.3107  143.5881 LP  0  0  0  0  0  0  0  0  0  0  0  0  # atno 17320 bound_to 7965
  146.3511  140.0049  142.8672 LP  0  0  0  0  0  0  0  0  0  0  0  0  # atno 17321 bound_to 7965
  140.6681  143.2275  151.5693 LP  0  0  0  0  0  0  0  0  0  0  0  0  # atno 17342 bound_to 10162
  139.5410  144.2649  152.1349 LP  0  0  0  0  0  0  0  0  0  0  0  0  # atno 17343 bound_to 10162
  157.7222  131.0674  150.6085 LP  0  0  0  0  0  0  0  0  0  0  0  0  # atno 17370 bound_to 10713
  156.6167  130.4394  149.5838 LP  0  0  0  0  0  0  0  0  0  0  0  0  # atno 17371 bound_to 10713
  139.8723  134.9835  156.5199 LP  0  0  0  0  0  0  0  0  0  0  0  0  # atno 17394 bound_to 11000
  140.8413  133.8203  155.9078 LP  0  0  0  0  0  0  0  0  0  0  0  0  # atno 17395 bound_to 11000

$$$$
