AV-unprocessed.smi:200|AV-procd|sdf|1577|dock5
  -GOLD-   2262019463D 1   1.00000     0.00000
 Structure written by MMmdl.
 56 59  0  0  0  0  0  0  0  0  1 V2000
  149.0638  136.9613  159.1636 C   0  0  0  0  0  0  0  0  0  0  0  0
  150.4501  136.8091  159.4100 O   0  0  0  0  0  0  0  0  0  0  0  0
  151.2475  137.5878  158.5335 C   0  0  0  0  0  0  0  0  0  0  0  0
  151.6335  138.8939  159.2411 C   0  0  0  0  0  0  0  0  0  0  0  0
  152.4402  139.7745  158.3950 N   0  0  0  0  0  0  0  0  0  0  0  0
  152.0232  139.8206  157.1086 C   0  0  0  0  0  0  0  0  0  0  0  0
  152.7469  139.2030  156.1385 N   0  0  0  0  0  0  0  0  0  0  0  0
  152.3338  139.2492  154.8683 C   0  0  0  0  0  0  0  0  0  0  0  0
  151.2524  139.8470  154.3626 N   0  0  0  0  0  0  0  0  0  0  0  0
  150.5293  140.4729  155.3353 C   0  0  0  0  0  0  0  0  0  0  0  0
  150.8456  140.5127  156.7217 C   0  0  0  0  0  0  0  0  0  0  0  0
  149.8912  141.2492  157.4105 N   0  0  0  0  0  0  0  0  0  0  0  0
  149.0547  141.6250  156.4820 C   0  0  0  0  0  0  0  0  0  0  0  0
  149.3538  141.1926  155.2086 N   0  0  0  0  0  0  0  0  0  0  0  0
  148.5880  141.4628  154.0011 C   0  0  0  0  0  0  0  0  0  0  0  0
  147.1973  140.7941  153.9693 C   0  0  0  0  0  0  0  0  0  0  0  0
  146.1534  141.6582  154.6992 C   0  0  0  0  0  0  0  0  0  0  0  0
  144.9227  140.9769  154.8368 O   0  0  0  0  0  0  0  0  0  0  0  0
  146.7469  140.2602  152.6025 C   0  0  0  0  0  0  0  0  0  0  0  0
  146.4255  138.9648  153.1513 O   0  0  0  0  0  0  0  0  0  0  0  0
  147.1592  139.3061  154.3459 C   0  0  0  0  0  0  0  0  0  0  0  0
  152.9735  141.0149  158.9779 C   0  0  1  0  0  0  0  0  0  0  0  0
  152.0764  142.2588  158.8816 C   0  0  0  0  0  0  0  0  0  0  0  0
  152.6477  143.2363  159.9182 C   0  0  0  0  0  0  0  0  0  0  0  0
  153.5556  142.4100  160.8511 C   0  0  1  0  0  0  0  0  0  0  0  0
  153.3397  142.6967  162.3429 C   0  0  0  0  0  0  0  0  0  0  0  0
  153.3161  140.9442  160.4687 C   0  0  0  0  0  0  0  0  0  0  0  0
  148.4990  136.3415  159.8601 H   0  0  0  0  0  0  0  0  0  0  0  0
  148.8063  136.6507  158.1503 H   0  0  0  0  0  0  0  0  0  0  0  0
  148.7503  137.9965  159.3040 H   0  0  0  0  0  0  0  0  0  0  0  0
  152.1530  137.0331  158.2842 H   0  0  0  0  0  0  0  0  0  0  0  0
  150.7245  137.7806  157.5968 H   0  0  0  0  0  0  0  0  0  0  0  0
  150.7220  139.4001  159.5643 H   0  0  0  0  0  0  0  0  0  0  0  0
  152.1934  138.6650  160.1479 H   0  0  0  0  0  0  0  0  0  0  0  0
  152.9587  138.7325  154.1549 H   0  0  0  0  0  0  0  0  0  0  0  0
  148.1840  142.2251  156.7032 H   0  0  0  0  0  0  0  0  0  0  0  0
  148.4912  142.5441  153.8961 H   0  0  0  0  0  0  0  0  0  0  0  0
  149.1878  141.1422  153.1484 H   0  0  0  0  0  0  0  0  0  0  0  0
  146.5038  141.9168  155.6990 H   0  0  0  0  0  0  0  0  0  0  0  0
  145.9844  142.6059  154.1875 H   0  0  0  0  0  0  0  0  0  0  0  0
  144.4714  141.0030  154.0068 H   0  0  0  0  0  0  0  0  0  0  0  0
  145.8755  140.7691  152.1889 H   0  0  0  0  0  0  0  0  0  0  0  0
  147.5486  140.1999  151.8644 H   0  0  0  0  0  0  0  0  0  0  0  0
  148.1366  138.8224  154.3629 H   0  0  0  0  0  0  0  0  0  0  0  0
  146.6031  139.0916  155.2591 H   0  0  0  0  0  0  0  0  0  0  0  0
  153.8925  141.2545  158.4435 H   0  0  0  0  0  0  0  0  0  0  0  0
  152.0557  142.6786  157.8754 H   0  0  0  0  0  0  0  0  0  0  0  0
  151.0484  142.0345  159.1662 H   0  0  0  0  0  0  0  0  0  0  0  0
  153.2275  144.0214  159.4312 H   0  0  0  0  0  0  0  0  0  0  0  0
  151.8388  143.7259  160.4621 H   0  0  0  0  0  0  0  0  0  0  0  0
  154.5906  142.6502  160.6029 H   0  0  0  0  0  0  0  0  0  0  0  0
  152.3161  142.4747  162.6459 H   0  0  0  0  0  0  0  0  0  0  0  0
  153.5354  143.7445  162.5714 H   0  0  0  0  0  0  0  0  0  0  0  0
  154.0079  142.0924  162.9568 H   0  0  0  0  0  0  0  0  0  0  0  0
  152.4764  140.5448  161.0379 H   0  0  0  0  0  0  0  0  0  0  0  0
  154.1855  140.3188  160.6728 H   0  0  0  0  0  0  0  0  0  0  0  0
  1  2  1  0  0  0  0
  1 28  1  0  0  0  0
  1 29  1  0  0  0  0
  1 30  1  0  0  0  0
  2  3  1  0  0  0  0
  3  4  1  0  0  0  0
  3 31  1  0  0  0  0
  3 32  1  0  0  0  0
  4  5  1  0  0  0  0
  4 33  1  0  0  0  0
  4 34  1  0  0  0  0
  5  6  1  0  0  0  0
  5 22  1  0  0  0  0
  6 11  1  0  0  0  0
  6  7  2  0  0  0  0
  7  8  1  0  0  0  0
  8  9  2  0  0  0  0
  8 35  1  0  0  0  0
  9 10  1  0  0  0  0
 10 14  1  0  0  0  0
 10 11  2  0  0  0  0
 11 12  1  0  0  0  0
 12 13  2  0  0  0  0
 13 14  1  0  0  0  0
 13 36  1  0  0  0  0
 14 15  1  0  0  0  0
 15 16  1  0  0  0  0
 15 37  1  0  0  0  0
 15 38  1  0  0  0  0
 16 21  1  0  0  0  0
 16 17  1  0  0  0  0
 16 19  1  0  0  0  0
 17 18  1  0  0  0  0
 17 39  1  0  0  0  0
 17 40  1  0  0  0  0
 18 41  1  0  0  0  0
 19 20  1  0  0  0  0
 19 42  1  0  0  0  0
 19 43  1  0  0  0  0
 20 21  1  0  0  0  0
 21 44  1  0  0  0  0
 21 45  1  0  0  0  0
 22 27  1  0  0  0  0
 22 23  1  0  0  0  0
 22 46  1  0  0  0  0
 23 24  1  0  0  0  0
 23 47  1  0  0  0  0
 23 48  1  0  0  0  0
 24 25  1  0  0  0  0
 24 49  1  0  0  0  0
 24 50  1  0  0  0  0
 25 26  1  0  0  0  0
 25 27  1  0  0  0  0
 25 51  1  0  0  0  0
 26 52  1  0  0  0  0
 26 53  1  0  0  0  0
 26 54  1  0  0  0  0
 27 55  1  0  0  0  0
 27 56  1  0  0  0  0
M  END
> <s_m_source_file>
AV-unprocessed.smi

> <i_m_source_file_index>
200

> <i_lp_mmshare_version>
43012

> <i_f3d_flags>
0

> <s_epik_input>
W0NIM11bQ0BASF0oW0NIMl0xKVtDSDJdW0NIMl1bQ0BIXTFOKFtDSDJdW0NIMl1PW0NIM10pYyhuW2NIXW4yKWMoYzIzKW5bY0hdbjNbQ0gyXUM0KFtDSDJdW09IXSlbQ0gyXU9bQ0gyXTQ=

> <s_epik_cmdline>
J2VwaWtfcHl0aG9uJywgJy1waCcsICc3LjAnLCAnLXRuJywgJzgnLCAnLW1hJywgJzIwMCcsICctbWV0YWxfYmluZGluZycsICctaW1hZScsICc8aW5maWxlLm1hZT4nLCAnLW9tYWUnLCAnPG91dGZpbGUubWFlPic=

> <r_lp_tautomer_probability>
1

> <r_epik_Ionization_Penalty>
0.00363087

> <r_epik_Ionization_Penalty_Charging>
0

> <r_epik_Ionization_Penalty_Neutral>
0.00363087

> <r_epik_State_Penalty>
0.0024341

> <r_epik_Charging_Adjusted_Penalty>
0.0024341

> <i_epik_Tot_Q>
0

> <i_epik_Tot_abs_Q>
0

> <r_epik_Metal_State_Penalty>
-0

> <b_epik_Metal_Only>
0

> <s_lp_Force_Field>
OPLS_2005

> <r_lp_Energy>
50.9431

> <b_lp_Chiralities_Consistent>
1

> <s_lp_Variant>
AV-unprocessed.smi:200-2

> <Gold.Version>
5.8.1

> <Gold.Id.Protein>
6NUR|6NUR_protein|mol2

> <Gold.PLP.Fitness>
59.7769

> <Gold.PLP.PLP>
-48.9259

> <Gold.PLP.part.hbond>
-3.8788

> <Gold.PLP.part.metal>
0.0000

> <Gold.PLP.part.buried>
-0.6437

> <Gold.PLP.part.nonpolar>
-43.6533

> <Gold.PLP.part.repulsive>
0.4089

> <Gold.PLP.ligand.clash>
0.0000

> <Gold.PLP.ligand.torsion>
1.5904

> <Gold.PLP.Chemscore.Hbond>
3.9263

> <Gold.PLP.Chemscore.CHOScore>
0.2847

> <Gold.PLP.Chemscore.Metal>
0.0000

> <Gold.Chemscore.Hbonds>
donor molecule, donor type, donor heavy atom, donor atom, acceptor molecule, acceptor atom, score
      L1  H    18    41       P1 10175  1.00
      P1  H  6896  6909       L1     2  1.00
      P1  H  7989  7998       L1     9  0.65
      P1  H  7997  8010       L1     7  1.00
      L1  C    13    36       P1  8028  0.17

> <Gold.PLP.Chemscore.Internal.Correction>
1.3991

> <Gold.Rescore>
     Score         DG    S(hbond)    S(metal)    S(lipo)     H(rot)  DE(clash)    DE(int)     intcor
     13.30     -18.52       2.53        0.00     110.84       3.28       0.47       4.74       ----

> <Gold.Chemscore.Fitness>
13.3016

> <Gold.Chemscore.DG>
-18.5200

> <Gold.Chemscore.ZeroCoef>
-5.4800

> <Gold.Chemscore.Hbond>
2.5326

> <Gold.Chemscore.Metal>
0.0000

> <Gold.Chemscore.Lipo>
110.8380

> <Gold.Chemscore.Internal_Hbond>
0.0000

> <Gold.Chemscore.DEClash>
0.4750

> <Gold.Chemscore.DEInternal>
4.7434

> <Gold.Chemscore.Rot>
3.2761

> <Gold.Chemscore.Internal.Correction>
   9.000000E+99

> <Gold.Chemscore.Hbonds>
donor molecule, donor type, donor heavy atom, donor atom, acceptor molecule, acceptor atom, score
      L1  H    18    41       P1 10175  0.85
      P1  H  6896  6909       L1     2  0.87
      P1  H  7989  7998       L1     9  0.23
      P1  H  7997  8010       L1     7  0.19

> <Gold.Chemscore.Hbond.Weighted>
-8.4588

> <Gold.Chemscore.Metal.Weighted>
-0.0000

> <Gold.Chemscore.Lipo.Weighted>
-12.9681

> <Gold.Chemscore.Internal_Hbond.Weighted>
0.0000

> <Gold.Chemscore.DEClash.Weighted>
0.4750

> <Gold.Chemscore.DEInternal.Weighted>
4.7434

> <Gold.Chemscore.Rot.Weighted>
8.3868

> <Gold.Chemscore.Internal.Correction.Weighted>
   9.000000E+99

> <Gold.Protein.RotatedTorsions>
[ 6907 6896 6895 6894 ] final  100.53 input  -60.11 | X-H torsion
[ 7974 7965 7964 7962 ] final -112.09 input  175.53 | X-H torsion
[ 8008 7997 7996 7995 ] final   86.62 input   59.86 | X-H torsion
[ 10167 10162 10161 10158 ] final  -61.33 input  -65.29 | X-H torsion
[ 10718 10713 10712 10709 ] final  134.28 input   66.30 | X-H torsion
[ 10763 10752 10751 10750 ] final  -74.12 input  -60.55 | X-H torsion
[ 11005 11000 10999 10996 ] final  -50.80 input  -57.11 | X-H torsion

> <Gold.Protein.ActiveResidues>
 VAL166  LYS551  ARG553  GLY616  TRP617  ASP618  TYR619  PRO620  LYS621  CYS622 
 ASP623  PHE694  ASN695  SER759  ASP760  ASP761  ALA762  ILE779  LEU786  VAL792 
 PHE793  MET794  SER795  GLU796  ALA797  LYS798  CYS799  TRP800  GLU811  SER814 

> <Gold.Protein.RotatedAtoms>
  152.5370  134.0263  159.8004 H   0  0  0  0  0  0  0  0  0  0  0  0  # atno 6907 bound_to 6896
  151.0441  133.5673  159.2655 H   0  0  0  0  0  0  0  0  0  0  0  0  # atno 6908 bound_to 6896
  151.2632  135.0668  159.9159 H   0  0  0  0  0  0  0  0  0  0  0  0  # atno 6909 bound_to 6896
  145.1482  140.8815  143.3662 H   0  0  0  0  0  0  0  0  0  0  0  0  # atno 7974 bound_to 7965
  155.9650  140.3390  155.6525 H   0  0  0  0  0  0  0  0  0  0  0  0  # atno 8008 bound_to 7997
  155.6748  140.0731  157.2525 H   0  0  0  0  0  0  0  0  0  0  0  0  # atno 8009 bound_to 7997
  154.4152  140.1685  156.1906 H   0  0  0  0  0  0  0  0  0  0  0  0  # atno 8010 bound_to 7997
  140.6013  143.2362  151.5923 H   0  0  0  0  0  0  0  0  0  0  0  0  # atno 10167 bound_to 10162
  157.4688  131.1078  150.9828 H   0  0  0  0  0  0  0  0  0  0  0  0  # atno 10718 bound_to 10713
  154.4688  135.5875  153.6307 H   0  0  0  0  0  0  0  0  0  0  0  0  # atno 10763 bound_to 10752
  152.9832  135.6062  154.3393 H   0  0  0  0  0  0  0  0  0  0  0  0  # atno 10764 bound_to 10752
  154.3272  135.2843  155.2469 H   0  0  0  0  0  0  0  0  0  0  0  0  # atno 10765 bound_to 10752
  141.0836  133.6647  156.3784 H   0  0  0  0  0  0  0  0  0  0  0  0  # atno 11005 bound_to 11000
  145.0459  139.3221  143.5953 LP  0  0  0  0  0  0  0  0  0  0  0  0  # atno 17320 bound_to 7965
  146.3497  139.9849  142.8692 LP  0  0  0  0  0  0  0  0  0  0  0  0  # atno 17321 bound_to 7965
  139.5293  144.2964  152.1109 LP  0  0  0  0  0  0  0  0  0  0  0  0  # atno 17342 bound_to 10162
  140.2146  144.4528  150.6370 LP  0  0  0  0  0  0  0  0  0  0  0  0  # atno 17343 bound_to 10162
  157.0600  130.5822  149.5384 LP  0  0  0  0  0  0  0  0  0  0  0  0  # atno 17370 bound_to 10713
  156.0063  130.5150  150.7841 LP  0  0  0  0  0  0  0  0  0  0  0  0  # atno 17371 bound_to 10713
  140.5413  134.6117  157.5380 LP  0  0  0  0  0  0  0  0  0  0  0  0  # atno 17394 bound_to 11000
  139.9652  134.7385  156.0153 LP  0  0  0  0  0  0  0  0  0  0  0  0  # atno 17395 bound_to 11000

$$$$
