AV-unprocessed.smi:1679|AV-procd|sdf|6733|dock7
  -GOLD-   22720 7483D 1   1.00000     0.00000
 Structure written by MMmdl.
 44 45  0  0  0  0  0  0  0  0  2 V2000
  153.7247  141.0561  160.6366 C   0  0  0  0  0  0  0  0  0  0  0  0
  153.1108  142.0558  159.6433 C   0  0  2  0  0  0  0  0  0  0  0  0
  152.5664  143.2952  160.3827 C   0  0  0  0  0  0  0  0  0  0  0  0
  151.9407  144.3098  159.4130 C   0  0  0  0  0  0  0  0  0  0  0  0
  150.8356  143.6576  158.5714 C   0  0  0  0  0  0  0  0  0  0  0  0
  151.3724  142.4298  157.8236 C   0  0  0  0  0  0  0  0  0  0  0  0
  152.0044  141.4021  158.7853 C   0  0  1  0  0  0  0  0  0  0  0  0
  152.5976  140.3714  158.0081 O   0  0  0  0  0  0  0  0  0  0  0  0
  151.6729  139.5715  157.2856 C   0  0  0  0  0  0  0  0  0  0  0  0
  152.0023  138.0981  157.5420 C   0  0  0  0  0  0  0  0  0  0  0  0
  150.7820  137.3092  157.4651 N   0  0  0  0  0  0  0  0  0  0  0  0
  150.1902  136.6812  158.4921 C   0  0  0  0  0  0  0  0  0  0  0  0
  150.6402  136.7081  159.6371 O   0  0  0  0  0  0  0  0  0  0  0  0
  148.8882  135.9102  158.2121 C   0  0  0  0  0  0  0  0  0  0  0  0
  148.3440  135.1746  159.3693 N   0  0  0  0  0  0  0  0  0  0  0  0
  148.4094  133.7703  159.3350 C   0  0  0  0  0  0  0  0  0  0  0  0
  147.9499  133.0119  160.3485 C   0  0  0  0  0  0  0  0  0  0  0  0
  147.3688  133.6831  161.5044 C   0  0  0  0  0  0  0  0  0  0  0  0
  146.9488  133.0072  162.4414 O   0  0  0  0  0  0  0  0  0  0  0  0
  147.3260  135.0476  161.4901 N   0  5  0  0  0  0  0  0  0  0  0  0
  147.8071  135.8064  160.4570 C   0  0  0  0  0  0  0  0  0  0  0  0
  147.7788  137.0370  160.4750 O   0  0  0  0  0  0  0  0  0  0  0  0
  152.9743  140.6740  161.3292 H   0  0  0  0  0  0  0  0  0  0  0  0
  154.5146  141.5233  161.2254 H   0  0  0  0  0  0  0  0  0  0  0  0
  154.1648  140.2031  160.1194 H   0  0  0  0  0  0  0  0  0  0  0  0
  153.9053  142.3898  158.9739 H   0  0  0  0  0  0  0  0  0  0  0  0
  151.8195  142.9876  161.1160 H   0  0  0  0  0  0  0  0  0  0  0  0
  153.3685  143.7766  160.9436 H   0  0  0  0  0  0  0  0  0  0  0  0
  151.5349  145.1557  159.9682 H   0  0  0  0  0  0  0  0  0  0  0  0
  152.7118  144.7121  158.7545 H   0  0  0  0  0  0  0  0  0  0  0  0
  150.0061  143.3624  159.2150 H   0  0  0  0  0  0  0  0  0  0  0  0
  150.4357  144.3799  157.8588 H   0  0  0  0  0  0  0  0  0  0  0  0
  150.5684  141.9780  157.2429 H   0  0  0  0  0  0  0  0  0  0  0  0
  152.1253  142.7508  157.1040 H   0  0  0  0  0  0  0  0  0  0  0  0
  151.2416  140.9898  159.4493 H   0  0  0  0  0  0  0  0  0  0  0  0
  150.6620  139.8064  157.6201 H   0  0  0  0  0  0  0  0  0  0  0  0
  151.7101  139.7700  156.2134 H   0  0  0  0  0  0  0  0  0  0  0  0
  152.7261  137.7328  156.8123 H   0  0  0  0  0  0  0  0  0  0  0  0
  152.4497  137.9870  158.5308 H   0  0  0  0  0  0  0  0  0  0  0  0
  150.3540  137.2230  156.5539 H   0  0  0  0  0  0  0  0  0  0  0  0
  148.1487  136.6103  157.8202 H   0  0  0  0  0  0  0  0  0  0  0  0
  149.0777  135.2158  157.3924 H   0  0  0  0  0  0  0  0  0  0  0  0
  148.8596  133.3540  158.4458 H   0  0  0  0  0  0  0  0  0  0  0  0
  148.0120  131.9343  160.3081 H   0  0  0  0  0  0  0  0  0  0  0  0
  1  2  1  0  0  0  0
  1 23  1  0  0  0  0
  1 24  1  0  0  0  0
  1 25  1  0  0  0  0
  2  7  1  0  0  0  0
  2  3  1  0  0  0  0
  2 26  1  0  0  0  0
  3  4  1  0  0  0  0
  3 27  1  0  0  0  0
  3 28  1  0  0  0  0
  4  5  1  0  0  0  0
  4 29  1  0  0  0  0
  4 30  1  0  0  0  0
  5  6  1  0  0  0  0
  5 31  1  0  0  0  0
  5 32  1  0  0  0  0
  6  7  1  0  0  0  0
  6 33  1  0  0  0  0
  6 34  1  0  0  0  0
  7  8  1  0  0  0  0
  7 35  1  0  0  0  0
  8  9  1  0  0  0  0
  9 10  1  0  0  0  0
  9 36  1  0  0  0  0
  9 37  1  0  0  0  0
 10 11  1  0  0  0  0
 10 38  1  0  0  0  0
 10 39  1  0  0  0  0
 11 12  1  0  0  0  0
 11 40  1  0  0  0  0
 12 13  2  0  0  0  0
 12 14  1  0  0  0  0
 14 15  1  0  0  0  0
 14 41  1  0  0  0  0
 14 42  1  0  0  0  0
 15 21  1  0  0  0  0
 15 16  1  0  0  0  0
 16 17  2  0  0  0  0
 16 43  1  0  0  0  0
 17 18  1  0  0  0  0
 17 44  1  0  0  0  0
 18 19  2  0  0  0  0
 18 20  1  0  0  0  0
 20 21  1  0  0  0  0
 21 22  2  0  0  0  0
M  CHG  1  20  -1
M  END
> <s_m_source_file>
AV-unprocessed.smi

> <i_m_source_file_index>
1679

> <i_lp_mmshare_version>
43012

> <i_f3d_flags>
0

> <s_epik_input>
W0NIM11bQ0BASF0xW0NIMl1bQ0gyXVtDSDJdW0NIMl1bQ0BIXTFPW0NIMl1bQ0gyXVtOSF1DKD1PKVtDSDJdbjJbY0hdW2NIXWMoPU8pW25IXWMyPU8=

> <s_epik_cmdline>
J2VwaWtfcHl0aG9uJywgJy1waCcsICc3LjAnLCAnLXRuJywgJzgnLCAnLW1hJywgJzIwMCcsICctbWV0YWxfYmluZGluZycsICctaW1hZScsICc8aW5maWxlLm1hZT4nLCAnLW9tYWUnLCAnPG91dGZpbGUubWFlPic=

> <r_lp_tautomer_probability>
0.999537

> <r_epik_Ionization_Penalty>
3.07454

> <r_epik_Ionization_Penalty_Charging>
2.80088e-08

> <r_epik_Ionization_Penalty_Neutral>
3.07454

> <r_epik_State_Penalty>
3.07357

> <r_epik_Charging_Adjusted_Penalty>
3.07357

> <i_epik_Tot_Q>
-1

> <i_epik_Tot_abs_Q>
1

> <r_epik_Metal_State_Penalty>
0.45948

> <b_epik_Metal_Only>
1

> <s_lp_Force_Field>
OPLS_2005

> <r_lp_Energy>
18.3585

> <b_lp_Chiralities_Consistent>
1

> <s_lp_Variant>
AV-unprocessed.smi:1679-5

> <Gold.Version>
5.8.1

> <Gold.Id.Protein>
6NUR|6NUR_protein|mol2

> <Gold.PLP.Fitness>
48.0067

> <Gold.PLP.PLP>
-39.5421

> <Gold.PLP.part.hbond>
-4.7090

> <Gold.PLP.part.metal>
0.0000

> <Gold.PLP.part.buried>
-3.8121

> <Gold.PLP.part.nonpolar>
-31.0360

> <Gold.PLP.part.repulsive>
0.0681

> <Gold.PLP.ligand.clash>
0.0000

> <Gold.PLP.ligand.torsion>
0.6958

> <Gold.PLP.Chemscore.Hbond>
3.2598

> <Gold.PLP.Chemscore.CHOScore>
0.0000

> <Gold.PLP.Chemscore.Metal>
0.0000

> <Gold.Chemscore.Hbonds>
donor molecule, donor type, donor heavy atom, donor atom, acceptor molecule, acceptor atom, score
      P1  H  6896  6907       L1    13  1.00
      P1  H  6931  6943       L1    22  0.37
      P1  H  6934  6947       L1    22  0.70
      P1  H  7997  8008       L1     8  0.50

> <Gold.PLP.Chemscore.Internal.Correction>
0.0767

> <Gold.Rescore>
     Score         DG    S(hbond)    S(metal)    S(lipo)     H(rot)  DE(clash)    DE(int)     intcor
     20.48     -21.31       3.31        0.00      94.46       2.45       0.13       0.71       ----

> <Gold.Chemscore.Fitness>
20.4752

> <Gold.Chemscore.DG>
-21.3116

> <Gold.Chemscore.ZeroCoef>
-5.4800

> <Gold.Chemscore.Hbond>
3.3083

> <Gold.Chemscore.Metal>
0.0000

> <Gold.Chemscore.Lipo>
94.4557

> <Gold.Chemscore.Internal_Hbond>
0.0000

> <Gold.Chemscore.DEClash>
0.1270

> <Gold.Chemscore.DEInternal>
0.7094

> <Gold.Chemscore.Rot>
2.4490

> <Gold.Chemscore.Internal.Correction>
   9.000000E+99

> <Gold.Chemscore.Hbonds>
donor molecule, donor type, donor heavy atom, donor atom, acceptor molecule, acceptor atom, score
      P1  H  6896  6907       L1    13  0.50
      P1  H  6931  6943       L1    22  0.36
      P1  H  6934  6947       L1    22  0.68
      P1  H  7997  8008       L1     8  0.17

> <Gold.Chemscore.Hbond.Weighted>
-11.0497

> <Gold.Chemscore.Metal.Weighted>
-0.0000

> <Gold.Chemscore.Lipo.Weighted>
-11.0513

> <Gold.Chemscore.Internal_Hbond.Weighted>
0.0000

> <Gold.Chemscore.DEClash.Weighted>
0.1270

> <Gold.Chemscore.DEInternal.Weighted>
0.7094

> <Gold.Chemscore.Rot.Weighted>
6.2694

> <Gold.Chemscore.Internal.Correction.Weighted>
   9.000000E+99

> <Gold.Protein.RotatedTorsions>
[ 6907 6896 6895 6894 ] final  -19.00 input  -60.11 | X-H torsion
[ 7974 7965 7964 7962 ] final  -75.01 input  175.53 | X-H torsion
[ 8008 7997 7996 7995 ] final  -73.98 input   59.86 | X-H torsion
[ 10167 10162 10161 10158 ] final -125.02 input  -65.29 | X-H torsion
[ 10718 10713 10712 10709 ] final -138.43 input   66.30 | X-H torsion
[ 10763 10752 10751 10750 ] final   18.86 input  -60.55 | X-H torsion
[ 11005 11000 10999 10996 ] final  -73.79 input  -57.11 | X-H torsion

> <Gold.Protein.ActiveResidues>
 VAL166  LYS551  ARG553  GLY616  TRP617  ASP618  TYR619  PRO620  LYS621  CYS622 
 ASP623  PHE694  ASN695  SER759  ASP760  ASP761  ALA762  ILE779  LEU786  VAL792 
 PHE793  MET794  SER795  GLU796  ALA797  LYS798  CYS799  TRP800  GLU811  SER814 

> <Gold.Protein.RotatedAtoms>
  151.2698  135.0681  159.9129 H   0  0  0  0  0  0  0  0  0  0  0  0  # atno 6907 bound_to 6896
  152.5352  134.0143  159.7963 H   0  0  0  0  0  0  0  0  0  0  0  0  # atno 6908 bound_to 6896
  151.0379  133.5682  159.2685 H   0  0  0  0  0  0  0  0  0  0  0  0  # atno 6909 bound_to 6896
  145.6316  140.9336  143.1084 H   0  0  0  0  0  0  0  0  0  0  0  0  # atno 7974 bound_to 7965
  154.5292  140.0769  156.8314 H   0  0  0  0  0  0  0  0  0  0  0  0  # atno 8008 bound_to 7997
  155.3410  140.3407  155.4221 H   0  0  0  0  0  0  0  0  0  0  0  0  # atno 8009 bound_to 7997
  156.1764  140.1637  156.8342 H   0  0  0  0  0  0  0  0  0  0  0  0  # atno 8010 bound_to 7997
  139.9865  143.5686  152.2358 H   0  0  0  0  0  0  0  0  0  0  0  0  # atno 10167 bound_to 10162
  156.2993  130.7419  151.1466 H   0  0  0  0  0  0  0  0  0  0  0  0  # atno 10718 bound_to 10713
  153.1212  135.6719  153.9332 H   0  0  0  0  0  0  0  0  0  0  0  0  # atno 10763 bound_to 10752
  153.8846  135.3054  155.3447 H   0  0  0  0  0  0  0  0  0  0  0  0  # atno 10764 bound_to 10752
  154.7624  135.4981  153.9568 H   0  0  0  0  0  0  0  0  0  0  0  0  # atno 10765 bound_to 10752
  141.1627  133.6890  156.7266 H   0  0  0  0  0  0  0  0  0  0  0  0  # atno 11005 bound_to 11000
  144.7191  139.8091  143.7388 LP  0  0  0  0  0  0  0  0  0  0  0  0  # atno 17320 bound_to 7965
  146.1352  139.4396  143.0143 LP  0  0  0  0  0  0  0  0  0  0  0  0  # atno 17321 bound_to 7965
  139.6371  144.7651  151.2415 LP  0  0  0  0  0  0  0  0  0  0  0  0  # atno 17342 bound_to 10162
  140.7470  143.6380  150.8361 LP  0  0  0  0  0  0  0  0  0  0  0  0  # atno 17343 bound_to 10162
  157.7363  131.0563  150.5418 LP  0  0  0  0  0  0  0  0  0  0  0  0  # atno 17370 bound_to 10713
  156.5544  130.4240  149.6092 LP  0  0  0  0  0  0  0  0  0  0  0  0  # atno 17371 bound_to 10713
  140.2776  134.8342  157.3904 LP  0  0  0  0  0  0  0  0  0  0  0  0  # atno 17394 bound_to 11000
  140.1463  134.4907  155.7994 LP  0  0  0  0  0  0  0  0  0  0  0  0  # atno 17395 bound_to 11000

$$$$
