#       Name:                AV-unprocessed.smi:2864
#       Creating user name   scv26
#       Creation time:       Fri Mar 27 15:47:39 2020


#       File generated by GOLD software.
#

@<TRIPOS>MOLECULE
AV-unprocessed.smi:2864
    42    43     1
SMALL
NO_CHARGES


@<TRIPOS>ATOM
      1 ****        -5.0437  -1.6642  -0.3387 C.3            1 S1                 0.0000
      2 ****        -3.9434  -0.6442  -0.1303 C.ar           1 S1                 0.0000
      3 ****        -4.2145   0.5592   0.5470 C.ar           1 S1                 0.0000
      4 ****        -3.1877   1.4991   0.7488 C.ar           1 S1                 0.0000
      5 ****        -1.8818   1.2499   0.2752 C.ar           1 S1                 0.0000
      6 ****        -0.8034   2.2887   0.5352 C.3            1 S1                 0.0000
      7 ****        -1.6033   0.0435  -0.4205 C.ar           1 S1                 0.0000
      8 ****        -0.1999  -0.2682  -0.9412 C.3            1 S1                 0.0000
      9 ****        -0.2387  -0.9801  -2.1639 O.3            1 S1                 0.0000
     10 ****         0.5968  -1.0981   0.0893 C.3            1 S1                 0.0000
     11 ****         2.0436  -0.8826  -0.0340 N.am           1 S1                 0.0000
     12 ****         2.5150   0.2049   0.6820 N.2            1 S1                 0.0000
     13 ****         3.7662   0.5337   0.6612 C.2            1 S1                 0.0000
     14 ****         4.1806   1.7389   1.4691 C.3            1 S1                 0.0000
     15 ****         3.9005   1.5442   2.7581 F              1 S1                 0.0000
     16 ****         5.4882   1.9708   1.3495 F              1 S1                 0.0000
     17 ****         3.5191   2.8190   1.0516 F              1 S1                 0.0000
     18 ****         4.6914  -0.2618  -0.1286 C.2            1 S1                 0.0000
     19 ****         4.2285  -1.3191  -0.8294 C.2            1 S1                 0.0000
     20 ****         2.8156  -1.6905  -0.8169 C.2            1 S1                 0.0000
     21 ****         2.3617  -2.6382  -1.4571 O.2            1 S1                 0.0000
     22 ****        -2.6422  -0.8986  -0.6064 C.ar           1 S1                 0.0000
     23 ****        -6.0142  -1.1758  -0.4312 H              1 S1                 0.0000
     24 ****        -5.0837  -2.3514   0.5066 H              1 S1                 0.0000
     25 ****        -4.8700  -2.2442  -1.2456 H              1 S1                 0.0000
     26 ****        -5.2082   0.7633   0.9183 H              1 S1                 0.0000
     27 ****        -3.4088   2.4156   1.2762 H              1 S1                 0.0000
     28 ****         0.0671   1.8333   1.0073 H              1 S1                 0.0000
     29 ****        -1.1623   3.0764   1.1981 H              1 S1                 0.0000
     30 ****        -0.4902   2.7553  -0.3989 H              1 S1                 0.0000
     31 ****         0.3193   0.6660  -1.1522 H              1 S1                 0.0000
     32 ****         0.6486  -1.1637  -2.4330 H              1 S1                 0.0000
     33 ****         0.3114  -0.7827   1.0951 H              1 S1                 0.0000
     34 ****         0.3247  -2.1546   0.0460 H              1 S1                 0.0000
     35 ****         5.7402  -0.0058  -0.1532 H              1 S1                 0.0000
     36 ****         4.9192  -1.9074  -1.4159 H              1 S1                 0.0000
     37 ****        -2.4430  -1.8300  -1.1162 H              1 S1                 0.0000
     38 ****        -0.6951  -0.4277  -2.8614 LP             1 S1                 0.0000
     39 ****        -0.7374  -1.8378  -2.0390 LP             1 S1                 0.0000
     40 ****         1.8752   0.7473   1.2264 LP             1 S1                 0.0000
     41 ****         1.3843  -2.8459  -1.4178 LP             1 S1                 0.0000
     42 ****         2.9703  -3.2008  -2.0168 LP             1 S1                 0.0000
@<TRIPOS>BOND
    1    1    2 1     
    2    1   23 1     
    3    1   24 1     
    4    1   25 1     
    5    2   22 ar    
    6    2    3 ar    
    7    3    4 ar    
    8    3   26 1     
    9    4    5 ar    
   10    4   27 1     
   11    5    6 1     
   12    5    7 ar    
   13    6   28 1     
   14    6   29 1     
   15    6   30 1     
   16    7    8 1     
   17    7   22 ar    
   18    8    9 1     
   19    8   10 1     
   20    8   31 1     
   21    9   32 1     
   22   10   11 1     
   23   10   33 1     
   24   10   34 1     
   25   11   20 am    
   26   11   12 1     
   27   12   13 2     
   28   13   14 1     
   29   13   18 1     
   30   14   15 1     
   31   14   16 1     
   32   14   17 1     
   33   18   19 2     
   34   18   35 1     
   35   19   20 1     
   36   19   36 1     
   37   20   21 2     
   38   22   37 1     
   39    9   38 1     
   40    9   39 1     
   41   12   40 1     
   42   21   41 1     
   43   21   42 1     
@<TRIPOS>SUBSTRUCTURE
      1 S1             1
@<TRIPOS>SET
LONE_PAIRS      STATIC     ATOMS    <user>   **** ""
5 38 39 40 41 42
DONOR_HYDROGENS      STATIC     ATOMS    <user>   **** ""
1 32
ATOM$BLUE        STATIC     ATOMS    COLORGROUP SYSTEM
5 38 39 40 41 42
ATOM$RED        STATIC     ATOMS    COLORGROUP SYSTEM
1 32
