AV-unprocessed.smi:1230|AV-procd|sdf|5157|dock9
  -GOLD-   22720 4233D 1   1.00000     0.00000
 Structure written by MMmdl.
 39 40  0  0  0  0  0  0  0  0  1 V2000
  153.4603  141.6807  160.3559 C   0  0  0  0  0  0  0  0  0  0  0  0
  152.4710  142.6527  159.6937 C   0  0  1  0  0  0  0  0  0  0  0  0
  153.1952  143.7480  158.8848 C   0  0  0  0  0  0  0  0  0  0  0  0
  152.1997  144.7377  158.2584 C   0  0  0  0  0  0  0  0  0  0  0  0
  151.1557  144.0111  157.3968 C   0  0  0  0  0  0  0  0  0  0  0  0
  150.4321  142.9198  158.2024 C   0  0  0  0  0  0  0  0  0  0  0  0
  151.4268  141.9161  158.8248 C   0  0  1  0  0  0  0  0  0  0  0  0
  152.1161  141.1954  157.8082 O   0  0  0  0  0  0  0  0  0  0  0  0
  151.3055  140.3045  157.0580 C   0  0  0  0  0  0  0  0  0  0  0  0
  151.2358  140.8191  155.6125 C   0  0  0  0  0  0  0  0  0  0  0  0
  149.9880  140.5038  154.9632 N   0  0  0  0  0  0  0  0  0  0  0  0
  148.8764  141.3284  155.0478 C   0  0  0  0  0  0  0  0  0  0  0  0
  147.6970  141.0315  154.4520 C   0  0  0  0  0  0  0  0  0  0  0  0
  146.5620  141.8891  154.5472 C   0  0  0  0  0  0  0  0  0  0  0  0
  145.6289  142.5714  154.6070 N   0  0  0  0  0  0  0  0  0  0  0  0
  147.5392  139.8006  153.6791 C   0  0  0  0  0  0  0  0  0  0  0  0
  146.5146  139.4432  153.1006 O   0  0  0  0  0  0  0  0  0  0  0  0
  148.6848  138.9994  153.6310 N   0  0  0  0  0  0  0  0  0  0  0  0
  149.9068  139.2897  154.2410 C   0  0  0  0  0  0  0  0  0  0  0  0
  150.8470  138.5019  154.1361 O   0  0  0  0  0  0  0  0  0  0  0  0
  148.6225  138.1353  153.1123 H   0  0  0  0  0  0  0  0  0  0  0  0
  154.0630  141.1561  159.6140 H   0  0  0  0  0  0  0  0  0  0  0  0
  152.9361  140.9311  160.9489 H   0  0  0  0  0  0  0  0  0  0  0  0
  154.1424  142.2095  161.0217 H   0  0  0  0  0  0  0  0  0  0  0  0
  151.9300  143.1492  160.5007 H   0  0  0  0  0  0  0  0  0  0  0  0
  153.8892  144.2891  159.5286 H   0  0  0  0  0  0  0  0  0  0  0  0
  153.7985  143.2915  158.0989 H   0  0  0  0  0  0  0  0  0  0  0  0
  151.6956  145.2964  159.0480 H   0  0  0  0  0  0  0  0  0  0  0  0
  152.7345  145.4713  157.6546 H   0  0  0  0  0  0  0  0  0  0  0  0
  150.4312  144.7274  157.0086 H   0  0  0  0  0  0  0  0  0  0  0  0
  151.6431  143.5648  156.5290 H   0  0  0  0  0  0  0  0  0  0  0  0
  149.8545  143.3896  158.9995 H   0  0  0  0  0  0  0  0  0  0  0  0
  149.7054  142.4107  157.5705 H   0  0  0  0  0  0  0  0  0  0  0  0
  150.8829  141.2183  159.4641 H   0  0  0  0  0  0  0  0  0  0  0  0
  151.7329  139.3014  157.0873 H   0  0  0  0  0  0  0  0  0  0  0  0
  150.3015  140.2474  157.4784 H   0  0  0  0  0  0  0  0  0  0  0  0
  151.3275  141.9060  155.5871 H   0  0  0  0  0  0  0  0  0  0  0  0
  152.0433  140.4290  154.9888 H   0  0  0  0  0  0  0  0  0  0  0  0
  148.9474  142.2473  155.6132 H   0  0  0  0  0  0  0  0  0  0  0  0
  1  2  1  0  0  0  0
  1 22  1  0  0  0  0
  1 23  1  0  0  0  0
  1 24  1  0  0  0  0
  2  7  1  0  0  0  0
  2  3  1  0  0  0  0
  2 25  1  0  0  0  0
  3  4  1  0  0  0  0
  3 26  1  0  0  0  0
  3 27  1  0  0  0  0
  4  5  1  0  0  0  0
  4 28  1  0  0  0  0
  4 29  1  0  0  0  0
  5  6  1  0  0  0  0
  5 30  1  0  0  0  0
  5 31  1  0  0  0  0
  6  7  1  0  0  0  0
  6 32  1  0  0  0  0
  6 33  1  0  0  0  0
  7  8  1  0  0  0  0
  7 34  1  0  0  0  0
  8  9  1  0  0  0  0
  9 10  1  0  0  0  0
  9 35  1  0  0  0  0
  9 36  1  0  0  0  0
 10 11  1  0  0  0  0
 10 37  1  0  0  0  0
 10 38  1  0  0  0  0
 11 19  1  0  0  0  0
 11 12  1  0  0  0  0
 12 13  2  0  0  0  0
 12 39  1  0  0  0  0
 13 14  1  0  0  0  0
 13 16  1  0  0  0  0
 14 15  3  0  0  0  0
 16 17  2  0  0  0  0
 16 18  1  0  0  0  0
 18 21  1  0  0  0  0
 18 19  1  0  0  0  0
 19 20  2  0  0  0  0
M  END
> <s_m_source_file>
AV-unprocessed.smi

> <i_m_source_file_index>
1230

> <i_lp_mmshare_version>
43012

> <i_f3d_flags>
0

> <s_epik_input>
W0NIM11bQ0BASF0xW0NIMl1bQ0gyXVtDSDJdW0NIMl1bQ0BIXTFPW0NIMl1bQ0gyXW4yW2NIXWMoQyNOKWMoPU8pW25IXWMyPU8=

> <s_epik_cmdline>
J2VwaWtfcHl0aG9uJywgJy1waCcsICc3LjAnLCAnLXRuJywgJzgnLCAnLW1hJywgJzIwMCcsICctbWV0YWxfYmluZGluZycsICctaW1hZScsICc8aW5maWxlLm1hZT4nLCAnLW9tYWUnLCAnPG91dGZpbGUubWFlPic=

> <r_epik_Ionization_Penalty>
0.421541

> <r_epik_Ionization_Penalty_Charging>
0.421541

> <r_epik_Ionization_Penalty_Neutral>
2.29267e-11

> <r_epik_State_Penalty>
0.422277

> <r_epik_Charging_Adjusted_Penalty>
0.843818

> <i_epik_Tot_Q>
0

> <i_epik_Tot_abs_Q>
0

> <r_epik_Metal_State_Penalty>
4.11629

> <b_epik_Metal_Only>
0

> <s_lp_Force_Field>
OPLS_2005

> <r_lp_Energy>
14.8101

> <b_lp_Chiralities_Consistent>
1

> <s_lp_Variant>
AV-unprocessed.smi:1230-6

> <Gold.Version>
5.8.1

> <Gold.Id.Protein>
6NUR|6NUR_protein|mol2

> <Gold.PLP.Fitness>
49.1536

> <Gold.PLP.PLP>
-46.4210

> <Gold.PLP.part.hbond>
-1.5040

> <Gold.PLP.part.metal>
0.0000

> <Gold.PLP.part.buried>
-2.9449

> <Gold.PLP.part.nonpolar>
-42.4277

> <Gold.PLP.part.repulsive>
0.8428

> <Gold.PLP.ligand.clash>
0.0000

> <Gold.PLP.ligand.torsion>
0.9733

> <Gold.PLP.Chemscore.Hbond>
0.6175

> <Gold.PLP.Chemscore.CHOScore>
0.9354

> <Gold.PLP.Chemscore.Metal>
0.0000

> <Gold.Chemscore.Hbonds>
donor molecule, donor type, donor heavy atom, donor atom, acceptor molecule, acceptor atom, score
      L1  H    18    21       P1  7948  0.37
      L1  C    12    39       P1  8028  1.00

> <Gold.PLP.Chemscore.Internal.Correction>
0.0206

> <Gold.Rescore>
     Score         DG    S(hbond)    S(metal)    S(lipo)     H(rot)  DE(clash)    DE(int)     intcor
     14.64     -15.69       0.97        0.00     101.90       1.94       0.14       0.90       ----

> <Gold.Chemscore.Fitness>
14.6395

> <Gold.Chemscore.DG>
-15.6861

> <Gold.Chemscore.ZeroCoef>
-5.4800

> <Gold.Chemscore.Hbond>
0.9721

> <Gold.Chemscore.Metal>
0.0000

> <Gold.Chemscore.Lipo>
101.8964

> <Gold.Chemscore.Internal_Hbond>
0.0000

> <Gold.Chemscore.DEClash>
0.1442

> <Gold.Chemscore.DEInternal>
0.9024

> <Gold.Chemscore.Rot>
1.9385

> <Gold.Chemscore.Internal.Correction>
   9.000000E+99

> <Gold.Chemscore.Hbonds>
donor molecule, donor type, donor heavy atom, donor atom, acceptor molecule, acceptor atom, score
      L1  H    18    21       P1  7948  0.37

> <Gold.Chemscore.Hbond.Weighted>
-3.2468

> <Gold.Chemscore.Metal.Weighted>
-0.0000

> <Gold.Chemscore.Lipo.Weighted>
-11.9219

> <Gold.Chemscore.Internal_Hbond.Weighted>
0.0000

> <Gold.Chemscore.DEClash.Weighted>
0.1442

> <Gold.Chemscore.DEInternal.Weighted>
0.9024

> <Gold.Chemscore.Rot.Weighted>
4.9625

> <Gold.Chemscore.Internal.Correction.Weighted>
   9.000000E+99

> <Gold.Protein.RotatedTorsions>
[ 6907 6896 6895 6894 ] final  -78.03 input  -60.11 | X-H torsion
[ 7974 7965 7964 7962 ] final -149.96 input  175.53 | X-H torsion
[ 8008 7997 7996 7995 ] final   55.75 input   59.86 | X-H torsion
[ 10167 10162 10161 10158 ] final   72.11 input  -65.29 | X-H torsion
[ 10718 10713 10712 10709 ] final  142.71 input   66.30 | X-H torsion
[ 10763 10752 10751 10750 ] final  -89.03 input  -60.55 | X-H torsion
[ 11005 11000 10999 10996 ] final -112.41 input  -57.11 | X-H torsion

> <Gold.Protein.ActiveResidues>
 VAL166  LYS551  ARG553  GLY616  TRP617  ASP618  TYR619  PRO620  LYS621  CYS622 
 ASP623  PHE694  ASN695  SER759  ASP760  ASP761  ALA762  ILE779  LEU786  VAL792 
 PHE793  MET794  SER795  GLU796  ALA797  LYS798  CYS799  TRP800  GLU811  SER814 

> <Gold.Protein.RotatedAtoms>
  150.6983  134.4334  159.5258 H   0  0  0  0  0  0  0  0  0  0  0  0  # atno 6907 bound_to 6896
  152.2056  134.8545  160.0512 H   0  0  0  0  0  0  0  0  0  0  0  0  # atno 6908 bound_to 6896
  151.9449  133.3614  159.4015 H   0  0  0  0  0  0  0  0  0  0  0  0  # atno 6909 bound_to 6896
  144.7936  140.4995  143.5756 H   0  0  0  0  0  0  0  0  0  0  0  0  # atno 7974 bound_to 7965
  155.5062  140.3476  155.4380 H   0  0  0  0  0  0  0  0  0  0  0  0  # atno 8008 bound_to 7997
  156.0880  140.1403  156.9656 H   0  0  0  0  0  0  0  0  0  0  0  0  # atno 8009 bound_to 7997
  154.4618  140.0932  156.6890 H   0  0  0  0  0  0  0  0  0  0  0  0  # atno 8010 bound_to 7997
  140.0388  144.5406  150.7450 H   0  0  0  0  0  0  0  0  0  0  0  0  # atno 10167 bound_to 10162
  157.3774  131.0987  151.0771 H   0  0  0  0  0  0  0  0  0  0  0  0  # atno 10718 bound_to 10713
  154.6509  135.5355  153.7900 H   0  0  0  0  0  0  0  0  0  0  0  0  # atno 10763 bound_to 10752
  153.0385  135.6482  154.1018 H   0  0  0  0  0  0  0  0  0  0  0  0  # atno 10764 bound_to 10752
  154.0935  135.2938  155.3246 H   0  0  0  0  0  0  0  0  0  0  0  0  # atno 10765 bound_to 10752
  141.0676  133.9432  157.2547 H   0  0  0  0  0  0  0  0  0  0  0  0  # atno 11005 bound_to 11000
  145.5731  139.1484  143.3277 LP  0  0  0  0  0  0  0  0  0  0  0  0  # atno 17320 bound_to 7965
  146.2196  140.5864  142.9023 LP  0  0  0  0  0  0  0  0  0  0  0  0  # atno 17321 bound_to 7965
  140.7269  143.2646  151.4088 LP  0  0  0  0  0  0  0  0  0  0  0  0  # atno 17342 bound_to 10162
  139.6027  144.1261  152.2216 LP  0  0  0  0  0  0  0  0  0  0  0  0  # atno 17343 bound_to 10162
  157.1853  130.6328  149.5686 LP  0  0  0  0  0  0  0  0  0  0  0  0  # atno 17370 bound_to 10713
  155.9768  130.4740  150.6553 LP  0  0  0  0  0  0  0  0  0  0  0  0  # atno 17371 bound_to 10713
  139.9492  135.0178  156.8943 LP  0  0  0  0  0  0  0  0  0  0  0  0  # atno 17394 bound_to 11000
  140.5740  134.0416  155.7440 LP  0  0  0  0  0  0  0  0  0  0  0  0  # atno 17395 bound_to 11000

$$$$
