AV-unprocessed.smi:2889|AV-procd|sdf|11113|dock4
  -GOLD-   2272015583D 1   1.00000     0.00000
 Structure written by MMmdl.
 35 36  0  0  0  0  0  0  0  0  2 V2000
  150.7643  145.2912  159.2184 C   0  0  0  0  0  0  0  0  0  0  0  0
  151.6063  143.9315  158.3592 S   0  0  0  0  0  0  0  0  0  0  0  0
  152.7357  143.3035  159.6507 C   0  0  1  0  0  0  0  0  0  0  0  0
  152.1034  143.4905  161.0570 C   0  0  0  0  0  0  0  0  0  0  0  0
  153.0394  143.0466  162.2005 C   0  0  0  0  0  0  0  0  0  0  0  0
  153.4987  141.5938  161.9630 C   0  0  0  0  0  0  0  0  0  0  0  0
  154.1287  141.3858  160.5611 C   0  0  0  0  0  0  0  0  0  0  0  0
  153.2300  141.8479  159.3864 C   0  0  1  0  0  0  0  0  0  0  0  0
  152.1044  140.9340  159.2342 N   0  5  0  0  0  0  0  0  0  0  0  0
  152.0041  139.9927  157.9177 S   0  0  0  0  0  0  0  0  0  0  0  0
  153.2391  139.2325  157.6612 O   0  0  0  0  0  0  0  0  0  0  0  0
  150.7354  139.2478  157.8720 O   0  0  0  0  0  0  0  0  0  0  0  0
  151.8913  141.2708  156.5893 C   0  0  0  0  0  0  0  0  0  0  0  0
  150.6255  141.0945  155.7949 C   0  0  0  0  0  0  0  0  0  0  0  0
  149.2918  141.4144  156.1739 C   0  0  0  0  0  0  0  0  0  0  0  0
  148.5546  141.0591  155.0820 C   0  0  0  0  0  0  0  0  0  0  0  0
  149.3560  140.5474  154.1139 O   0  0  0  0  0  0  0  0  0  0  0  0
  150.6755  140.5698  154.5796 N   0  0  0  0  0  0  0  0  0  0  0  0
  149.9900  145.7121  158.5775 H   0  0  0  0  0  0  0  0  0  0  0  0
  151.4649  146.0871  159.4701 H   0  0  0  0  0  0  0  0  0  0  0  0
  150.2965  144.9334  160.1355 H   0  0  0  0  0  0  0  0  0  0  0  0
  153.6112  143.9532  159.6198 H   0  0  0  0  0  0  0  0  0  0  0  0
  151.8436  144.5398  161.2003 H   0  0  0  0  0  0  0  0  0  0  0  0
  151.1612  142.9423  161.1252 H   0  0  0  0  0  0  0  0  0  0  0  0
  153.9081  143.7049  162.2406 H   0  0  0  0  0  0  0  0  0  0  0  0
  152.5333  143.1333  163.1623 H   0  0  0  0  0  0  0  0  0  0  0  0
  154.2222  141.3138  162.7292 H   0  0  0  0  0  0  0  0  0  0  0  0
  152.6506  140.9194  162.0974 H   0  0  0  0  0  0  0  0  0  0  0  0
  155.0636  141.9458  160.5201 H   0  0  0  0  0  0  0  0  0  0  0  0
  154.4069  140.3390  160.4313 H   0  0  0  0  0  0  0  0  0  0  0  0
  153.8469  141.8628  158.4872 H   0  0  0  0  0  0  0  0  0  0  0  0
  151.9120  142.2482  157.0716 H   0  0  0  0  0  0  0  0  0  0  0  0
  152.7766  141.1990  155.9581 H   0  0  0  0  0  0  0  0  0  0  0  0
  148.9375  141.8512  157.0959 H   0  0  0  0  0  0  0  0  0  0  0  0
  147.5005  141.1041  154.8518 H   0  0  0  0  0  0  0  0  0  0  0  0
  1  2  1  0  0  0  0
  1 19  1  0  0  0  0
  1 20  1  0  0  0  0
  1 21  1  0  0  0  0
  2  3  1  0  0  0  0
  3  8  1  0  0  0  0
  3  4  1  0  0  0  0
  3 22  1  0  0  0  0
  4  5  1  0  0  0  0
  4 23  1  0  0  0  0
  4 24  1  0  0  0  0
  5  6  1  0  0  0  0
  5 25  1  0  0  0  0
  5 26  1  0  0  0  0
  6  7  1  0  0  0  0
  6 27  1  0  0  0  0
  6 28  1  0  0  0  0
  7  8  1  0  0  0  0
  7 29  1  0  0  0  0
  7 30  1  0  0  0  0
  8  9  1  0  0  0  0
  8 31  1  0  0  0  0
  9 10  1  0  0  0  0
 10 11  2  0  0  0  0
 10 12  2  0  0  0  0
 10 13  1  0  0  0  0
 13 14  1  0  0  0  0
 13 32  1  0  0  0  0
 13 33  1  0  0  0  0
 14 18  2  0  0  0  0
 14 15  1  0  0  0  0
 15 16  2  0  0  0  0
 15 34  1  0  0  0  0
 16 17  1  0  0  0  0
 16 35  1  0  0  0  0
 17 18  1  0  0  0  0
M  CHG  1   9  -1
M  END
> <s_m_source_file>
AV-unprocessed.smi

> <i_m_source_file_index>
2889

> <i_lp_mmshare_version>
43012

> <i_f3d_flags>
0

> <s_epik_input>
W0NIM11TW0NAQEhdMVtDSDJdW0NIMl1bQ0gyXVtDSDJdW0NASF0xW05IXVMoPU8pKD1PKVtDSDJdYzJbY0hdW2NIXW9uMg==

> <s_epik_cmdline>
J2VwaWtfcHl0aG9uJywgJy1waCcsICc3LjAnLCAnLXRuJywgJzgnLCAnLW1hJywgJzIwMCcsICctbWV0YWxfYmluZGluZycsICctaW1hZScsICc8aW5maWxlLm1hZT4nLCAnLW9tYWUnLCAnPG91dGZpbGUubWFlPic=

> <r_lp_tautomer_probability>
1

> <r_epik_Ionization_Penalty>
4.65467

> <r_epik_Ionization_Penalty_Charging>
4.65467

> <r_epik_Ionization_Penalty_Neutral>
2.71476e-10

> <r_epik_State_Penalty>
4.65444

> <r_epik_Charging_Adjusted_Penalty>
9.30911

> <i_epik_Tot_Q>
-1

> <i_epik_Tot_abs_Q>
1

> <r_epik_Metal_State_Penalty>
0.901484

> <b_epik_Metal_Only>
1

> <s_lp_Force_Field>
OPLS_2005

> <r_lp_Energy>
11.2119

> <b_lp_Chiralities_Consistent>
1

> <s_lp_Variant>
AV-unprocessed.smi:2889-6

> <Gold.Version>
5.8.1

> <Gold.Id.Protein>
6NUR|6NUR_protein|mol2

> <Gold.PLP.Fitness>
44.4107

> <Gold.PLP.PLP>
-39.4663

> <Gold.PLP.part.hbond>
-2.0000

> <Gold.PLP.part.metal>
0.0000

> <Gold.PLP.part.buried>
-6.7268

> <Gold.PLP.part.nonpolar>
-30.8061

> <Gold.PLP.part.repulsive>
0.2232

> <Gold.PLP.ligand.clash>
0.0000

> <Gold.PLP.ligand.torsion>
1.0338

> <Gold.PLP.Chemscore.Hbond>
1.9920

> <Gold.PLP.Chemscore.CHOScore>
0.0000

> <Gold.PLP.Chemscore.Metal>
0.0000

> <Gold.Chemscore.Hbonds>
donor molecule, donor type, donor heavy atom, donor atom, acceptor molecule, acceptor atom, score
      P1  H  7989  7998       L1    18  0.84
      P1  H  7997  8010       L1    11  1.00

> <Gold.PLP.Chemscore.Internal.Correction>
1.0360

> <Gold.Rescore>
     Score         DG    S(hbond)    S(metal)    S(lipo)     H(rot)  DE(clash)    DE(int)     intcor
     19.84     -21.01       1.89        0.00     112.20       1.53       0.28       0.89       ----

> <Gold.Chemscore.Fitness>
19.8393

> <Gold.Chemscore.DG>
-21.0085

> <Gold.Chemscore.ZeroCoef>
-5.4800

> <Gold.Chemscore.Hbond>
1.8927

> <Gold.Chemscore.Metal>
0.0000

> <Gold.Chemscore.Lipo>
112.2003

> <Gold.Chemscore.Internal_Hbond>
0.0000

> <Gold.Chemscore.DEClash>
0.2822

> <Gold.Chemscore.DEInternal>
0.8871

> <Gold.Chemscore.Rot>
1.5314

> <Gold.Chemscore.Internal.Correction>
   9.000000E+99

> <Gold.Chemscore.Hbonds>
donor molecule, donor type, donor heavy atom, donor atom, acceptor molecule, acceptor atom, score
      P1  H  7989  7998       L1    18  0.62
      P1  H  7997  8010       L1    11  0.93

> <Gold.Chemscore.Hbond.Weighted>
-6.3216

> <Gold.Chemscore.Metal.Weighted>
-0.0000

> <Gold.Chemscore.Lipo.Weighted>
-13.1274

> <Gold.Chemscore.Internal_Hbond.Weighted>
0.0000

> <Gold.Chemscore.DEClash.Weighted>
0.2822

> <Gold.Chemscore.DEInternal.Weighted>
0.8871

> <Gold.Chemscore.Rot.Weighted>
3.9205

> <Gold.Chemscore.Internal.Correction.Weighted>
   9.000000E+99

> <Gold.Protein.RotatedTorsions>
[ 6907 6896 6895 6894 ] final -157.08 input  -60.11 | X-H torsion
[ 7974 7965 7964 7962 ] final  159.18 input  175.53 | X-H torsion
[ 8008 7997 7996 7995 ] final   50.49 input   59.86 | X-H torsion
[ 10167 10162 10161 10158 ] final  -15.22 input  -65.29 | X-H torsion
[ 10718 10713 10712 10709 ] final  -25.92 input   66.30 | X-H torsion
[ 10763 10752 10751 10750 ] final  101.23 input  -60.55 | X-H torsion
[ 11005 11000 10999 10996 ] final  110.63 input  -57.11 | X-H torsion

> <Gold.Protein.ActiveResidues>
 VAL166  LYS551  ARG553  GLY616  TRP617  ASP618  TYR619  PRO620  LYS621  CYS622 
 ASP623  PHE694  ASN695  SER759  ASP760  ASP761  ALA762  ILE779  LEU786  VAL792 
 PHE793  MET794  SER795  GLU796  ALA797  LYS798  CYS799  TRP800  GLU811  SER814 

> <Gold.Protein.RotatedAtoms>
  151.2974  133.4138  159.2637 H   0  0  0  0  0  0  0  0  0  0  0  0  # atno 6907 bound_to 6896
  151.0225  134.9480  159.8077 H   0  0  0  0  0  0  0  0  0  0  0  0  # atno 6908 bound_to 6896
  152.5327  134.2937  159.9105 H   0  0  0  0  0  0  0  0  0  0  0  0  # atno 6909 bound_to 6896
  144.7805  139.7581  143.6262 H   0  0  0  0  0  0  0  0  0  0  0  0  # atno 7974 bound_to 7965
  155.4196  140.3446  155.4270 H   0  0  0  0  0  0  0  0  0  0  0  0  # atno 8008 bound_to 7997
  156.1401  140.1539  156.8966 H   0  0  0  0  0  0  0  0  0  0  0  0  # atno 8009 bound_to 7997
  154.4963  140.0827  156.7685 H   0  0  0  0  0  0  0  0  0  0  0  0  # atno 8010 bound_to 7997
  140.7215  143.5241  150.9598 H   0  0  0  0  0  0  0  0  0  0  0  0  # atno 10167 bound_to 10162
  156.4580  130.4498  149.6947 H   0  0  0  0  0  0  0  0  0  0  0  0  # atno 10718 bound_to 10713
  153.3240  135.4052  155.1440 H   0  0  0  0  0  0  0  0  0  0  0  0  # atno 10763 bound_to 10752
  154.8607  135.3594  154.5559 H   0  0  0  0  0  0  0  0  0  0  0  0  # atno 10764 bound_to 10752
  153.5994  135.7071  153.5450 H   0  0  0  0  0  0  0  0  0  0  0  0  # atno 10765 bound_to 10752
  139.8886  134.9489  156.6309 H   0  0  0  0  0  0  0  0  0  0  0  0  # atno 11005 bound_to 11000
  146.2010  139.5304  142.9743 LP  0  0  0  0  0  0  0  0  0  0  0  0  # atno 17320 bound_to 7965
  145.6065  141.0347  143.1990 LP  0  0  0  0  0  0  0  0  0  0  0  0  # atno 17321 bound_to 7965
  139.8959  143.6896  152.3138 LP  0  0  0  0  0  0  0  0  0  0  0  0  # atno 17342 bound_to 10162
  139.7228  144.7599  151.0928 LP  0  0  0  0  0  0  0  0  0  0  0  0  # atno 17343 bound_to 10162
  156.3746  130.7548  151.2535 LP  0  0  0  0  0  0  0  0  0  0  0  0  # atno 17370 bound_to 10713
  157.7499  131.0313  150.4176 LP  0  0  0  0  0  0  0  0  0  0  0  0  # atno 17371 bound_to 10713
  140.7667  133.8772  155.8460 LP  0  0  0  0  0  0  0  0  0  0  0  0  # atno 17394 bound_to 11000
  140.9876  134.1322  157.4438 LP  0  0  0  0  0  0  0  0  0  0  0  0  # atno 17395 bound_to 11000

$$$$
