AV-unprocessed.smi:1727|AV-procd|sdf|6966|dock5
  -GOLD-   22720 8183D 1   1.00000     0.00000
 Structure written by MMmdl.
 50 52  0  0  0  0  0  0  0  0  2 V2000
  151.0921  141.2011  158.2393 C   0  0  0  0  0  0  0  0  0  0  0  0
  151.9748  140.2545  157.4226 C   0  0  0  0  0  0  0  0  0  0  0  0
  152.8870  139.6683  158.0054 O   0  0  0  0  0  0  0  0  0  0  0  0
  151.7295  140.0951  156.0998 N   0  0  0  0  0  0  0  0  0  0  0  0
  152.4407  139.1699  155.2089 C   0  0  0  0  0  0  0  0  0  0  0  0
  151.4941  138.0162  154.8327 C   0  0  0  0  0  0  0  0  0  0  0  0
  150.1881  138.5462  154.1964 C   0  0  0  0  0  0  0  0  0  0  0  0
  149.2211  137.4659  154.0270 N   0  0  0  0  0  0  0  0  0  0  0  0
  148.4094  136.9971  154.9850 C   0  0  0  0  0  0  0  0  0  0  0  0
  148.3845  137.4352  156.1351 O   0  0  0  0  0  0  0  0  0  0  0  0
  147.6219  136.0134  154.5194 N   0  0  0  0  0  0  0  0  0  0  0  0
  146.6076  135.3075  155.2248 C   0  0  0  0  0  0  0  0  0  0  0  0
  146.5424  135.3472  156.6413 C   0  0  0  0  0  0  0  0  0  0  0  0
  145.5760  134.5834  157.3220 C   0  0  0  0  0  0  0  0  0  0  0  0
  144.6982  133.7776  156.5769 C   0  0  0  0  0  0  0  0  0  0  0  0
  144.7932  133.7519  155.2314 N   0  3  0  0  0  0  0  0  0  0  0  0
  145.6921  134.4752  154.5176 C   0  0  0  0  0  0  0  0  0  0  0  0
  145.6658  134.3578  153.1091 N   0  0  0  0  0  0  0  0  0  0  0  0
  146.2071  133.1705  152.4574 C   0  0  0  0  0  0  0  0  0  0  0  0
  145.6824  133.2311  151.0254 C   0  0  0  0  0  0  0  0  0  0  0  0
  144.2977  133.8448  151.2097 C   0  0  0  0  0  0  0  0  0  0  0  0
  144.4819  134.8108  152.3850 C   0  0  0  0  0  0  0  0  0  0  0  0
  149.5618  139.6706  155.0491 C   0  0  0  0  0  0  0  0  0  0  0  0
  150.6032  140.7425  155.4173 C   0  0  0  0  0  0  0  0  0  0  0  0
  151.1321  142.2134  157.8358 H   0  0  0  0  0  0  0  0  0  0  0  0
  151.4297  141.2428  159.2754 H   0  0  0  0  0  0  0  0  0  0  0  0
  150.0569  140.8589  158.2406 H   0  0  0  0  0  0  0  0  0  0  0  0
  152.7483  139.7057  154.3098 H   0  0  0  0  0  0  0  0  0  0  0  0
  153.3596  138.7706  155.6355 H   0  0  0  0  0  0  0  0  0  0  0  0
  151.9985  137.3346  154.1469 H   0  0  0  0  0  0  0  0  0  0  0  0
  151.2622  137.4377  155.7283 H   0  0  0  0  0  0  0  0  0  0  0  0
  150.4278  138.9682  153.2182 H   0  0  0  0  0  0  0  0  0  0  0  0
  149.1705  137.0452  153.1107 H   0  0  0  0  0  0  0  0  0  0  0  0
  147.6800  135.8246  153.5293 H   0  0  0  0  0  0  0  0  0  0  0  0
  147.2374  135.9374  157.2197 H   0  0  0  0  0  0  0  0  0  0  0  0
  145.5189  134.6062  158.4005 H   0  0  0  0  0  0  0  0  0  0  0  0
  143.9311  133.1537  157.0121 H   0  0  0  0  0  0  0  0  0  0  0  0
  147.2970  133.1603  152.4892 H   0  0  0  0  0  0  0  0  0  0  0  0
  145.8388  132.2657  152.9429 H   0  0  0  0  0  0  0  0  0  0  0  0
  146.3073  133.8945  150.4257 H   0  0  0  0  0  0  0  0  0  0  0  0
  145.6579  132.2553  150.5394 H   0  0  0  0  0  0  0  0  0  0  0  0
  143.9260  134.3371  150.3104 H   0  0  0  0  0  0  0  0  0  0  0  0
  143.5860  133.0645  151.4829 H   0  0  0  0  0  0  0  0  0  0  0  0
  143.5945  134.8365  153.0193 H   0  0  0  0  0  0  0  0  0  0  0  0
  144.6631  135.8196  152.0127 H   0  0  0  0  0  0  0  0  0  0  0  0
  148.7305  140.1291  154.5121 H   0  0  0  0  0  0  0  0  0  0  0  0
  149.1439  139.2523  155.9663 H   0  0  0  0  0  0  0  0  0  0  0  0
  150.1352  141.5225  156.0198 H   0  0  0  0  0  0  0  0  0  0  0  0
  150.9637  141.2415  154.5166 H   0  0  0  0  0  0  0  0  0  0  0  0
  144.1419  133.1569  154.7191 H   0  0  0  0  0  0  0  0  0  0  0  0
  1  2  1  0  0  0  0
  1 25  1  0  0  0  0
  1 26  1  0  0  0  0
  1 27  1  0  0  0  0
  2  3  2  0  0  0  0
  2  4  1  0  0  0  0
  4 24  1  0  0  0  0
  4  5  1  0  0  0  0
  5  6  1  0  0  0  0
  5 28  1  0  0  0  0
  5 29  1  0  0  0  0
  6  7  1  0  0  0  0
  6 30  1  0  0  0  0
  6 31  1  0  0  0  0
  7  8  1  0  0  0  0
  7 23  1  0  0  0  0
  7 32  1  0  0  0  0
  8  9  1  0  0  0  0
  8 33  1  0  0  0  0
  9 10  2  0  0  0  0
  9 11  1  0  0  0  0
 11 12  1  0  0  0  0
 11 34  1  0  0  0  0
 12 17  1  0  0  0  0
 12 13  2  0  0  0  0
 13 14  1  0  0  0  0
 13 35  1  0  0  0  0
 14 15  2  0  0  0  0
 14 36  1  0  0  0  0
 15 16  1  0  0  0  0
 15 37  1  0  0  0  0
 16 17  2  0  0  0  0
 16 50  1  0  0  0  0
 17 18  1  0  0  0  0
 18 22  1  0  0  0  0
 18 19  1  0  0  0  0
 19 20  1  0  0  0  0
 19 38  1  0  0  0  0
 19 39  1  0  0  0  0
 20 21  1  0  0  0  0
 20 40  1  0  0  0  0
 20 41  1  0  0  0  0
 21 22  1  0  0  0  0
 21 42  1  0  0  0  0
 21 43  1  0  0  0  0
 22 44  1  0  0  0  0
 22 45  1  0  0  0  0
 23 24  1  0  0  0  0
 23 46  1  0  0  0  0
 23 47  1  0  0  0  0
 24 48  1  0  0  0  0
 24 49  1  0  0  0  0
M  CHG  1  16   1
M  END
> <s_m_source_file>
AV-unprocessed.smi

> <i_m_source_file_index>
1727

> <i_lp_mmshare_version>
43012

> <i_f3d_flags>
0

> <s_epik_input>
W0NIM11DKD1PKU4xW0NIMl1bQ0gyXVtDSF0oW0NIMl1bQ0gyXTEpW05IXUMoPU8pW05IXWMyW2NIXVtjSF1bY0hdbmMyTjNbQ0gyXVtDSDJdW0NIMl1bQ0gyXTM=

> <s_epik_cmdline>
J2VwaWtfcHl0aG9uJywgJy1waCcsICc3LjAnLCAnLXRuJywgJzgnLCAnLW1hJywgJzIwMCcsICctbWV0YWxfYmluZGluZycsICctaW1hZScsICc8aW5maWxlLm1hZT4nLCAnLW9tYWUnLCAnPG91dGZpbGUubWFlPic=

> <r_lp_tautomer_probability>
0.999994

> <r_epik_Ionization_Penalty>
1.09439

> <r_epik_Ionization_Penalty_Charging>
1.09437

> <r_epik_Ionization_Penalty_Neutral>
2.13526e-05

> <r_epik_State_Penalty>
1.15094

> <r_epik_Charging_Adjusted_Penalty>
2.24531

> <i_epik_Tot_Q>
1

> <i_epik_Tot_abs_Q>
1

> <r_epik_Metal_State_Penalty>
1.23914

> <b_epik_Metal_Only>
0

> <s_lp_Force_Field>
OPLS_2005

> <r_lp_Energy>
56.6798

> <b_lp_Chiralities_Consistent>
1

> <s_lp_Variant>
AV-unprocessed.smi:1727-2

> <Gold.Version>
5.8.1

> <Gold.Id.Protein>
6NUR|6NUR_protein|mol2

> <Gold.PLP.Fitness>
43.9422

> <Gold.PLP.PLP>
-31.1192

> <Gold.PLP.part.hbond>
-3.9299

> <Gold.PLP.part.metal>
0.0000

> <Gold.PLP.part.buried>
-4.1831

> <Gold.PLP.part.nonpolar>
-24.5081

> <Gold.PLP.part.repulsive>
0.1152

> <Gold.PLP.ligand.clash>
0.0024

> <Gold.PLP.ligand.torsion>
0.5569

> <Gold.PLP.Chemscore.Hbond>
4.5175

> <Gold.PLP.Chemscore.CHOScore>
0.0000

> <Gold.PLP.Chemscore.Metal>
0.0000

> <Gold.Chemscore.Hbonds>
donor molecule, donor type, donor heavy atom, donor atom, acceptor molecule, acceptor atom, score
      L1  H     8    33       P1  7948  0.88
      L1  H    11    34       P1  7948  0.60
      L1  H    16    50       P1 10957  1.89
      P1  H  7997  8008       L1     3  1.00

> <Gold.PLP.Chemscore.Internal.Correction>
0.3866

> <Gold.Rescore>
     Score         DG    S(hbond)    S(metal)    S(lipo)     H(rot)  DE(clash)    DE(int)     intcor
     17.66     -21.08       3.39        0.00      63.27       1.22       0.02       3.41       ----

> <Gold.Chemscore.Fitness>
17.6553

> <Gold.Chemscore.DG>
-21.0850

> <Gold.Chemscore.ZeroCoef>
-5.4800

> <Gold.Chemscore.Hbond>
3.3925

> <Gold.Chemscore.Metal>
0.0000

> <Gold.Chemscore.Lipo>
63.2734

> <Gold.Chemscore.Internal_Hbond>
0.0000

> <Gold.Chemscore.DEClash>
0.0174

> <Gold.Chemscore.DEInternal>
3.4123

> <Gold.Chemscore.Rot>
1.2222

> <Gold.Chemscore.Internal.Correction>
   9.000000E+99

> <Gold.Chemscore.Hbonds>
donor molecule, donor type, donor heavy atom, donor atom, acceptor molecule, acceptor atom, score
      L1  H     8    33       P1  7948  0.85
      L1  H    11    34       P1  7948  0.59
      L1  H    16    50       P1 10957  0.86
      P1  H  7997  8008       L1     3  0.49

> <Gold.Chemscore.Hbond.Weighted>
-11.3309

> <Gold.Chemscore.Metal.Weighted>
-0.0000

> <Gold.Chemscore.Lipo.Weighted>
-7.4030

> <Gold.Chemscore.Internal_Hbond.Weighted>
0.0000

> <Gold.Chemscore.DEClash.Weighted>
0.0174

> <Gold.Chemscore.DEInternal.Weighted>
3.4123

> <Gold.Chemscore.Rot.Weighted>
3.1289

> <Gold.Chemscore.Internal.Correction.Weighted>
   9.000000E+99

> <Gold.Protein.RotatedTorsions>
[ 6907 6896 6895 6894 ] final -127.75 input  -60.11 | X-H torsion
[ 7974 7965 7964 7962 ] final -156.55 input  175.53 | X-H torsion
[ 8008 7997 7996 7995 ] final  -78.41 input   59.86 | X-H torsion
[ 10167 10162 10161 10158 ] final   17.62 input  -65.29 | X-H torsion
[ 10718 10713 10712 10709 ] final  -75.96 input   66.30 | X-H torsion
[ 10763 10752 10751 10750 ] final -109.03 input  -60.55 | X-H torsion
[ 11005 11000 10999 10996 ] final -130.80 input  -57.11 | X-H torsion

> <Gold.Protein.ActiveResidues>
 VAL166  LYS551  ARG553  GLY616  TRP617  ASP618  TYR619  PRO620  LYS621  CYS622 
 ASP623  PHE694  ASN695  SER759  ASP760  ASP761  ALA762  ILE779  LEU786  VAL792 
 PHE793  MET794  SER795  GLU796  ALA797  LYS798  CYS799  TRP800  GLU811  SER814 

> <Gold.Protein.RotatedAtoms>
  150.9106  133.7003  159.2855 H   0  0  0  0  0  0  0  0  0  0  0  0  # atno 6907 bound_to 6896
  151.4491  135.1026  159.9702 H   0  0  0  0  0  0  0  0  0  0  0  0  # atno 6908 bound_to 6896
  152.4927  133.8496  159.7250 H   0  0  0  0  0  0  0  0  0  0  0  0  # atno 6909 bound_to 6896
  144.7588  140.4094  143.5992 H   0  0  0  0  0  0  0  0  0  0  0  0  # atno 7974 bound_to 7965
  154.5687  140.0695  156.8931 H   0  0  0  0  0  0  0  0  0  0  0  0  # atno 8008 bound_to 7997
  155.2675  140.3363  155.4250 H   0  0  0  0  0  0  0  0  0  0  0  0  # atno 8009 bound_to 7997
  156.2101  140.1755  156.7700 H   0  0  0  0  0  0  0  0  0  0  0  0  # atno 8010 bound_to 7997
  140.5713  143.9157  150.6715 H   0  0  0  0  0  0  0  0  0  0  0  0  # atno 10167 bound_to 10162
  156.0190  130.4454  150.3122 H   0  0  0  0  0  0  0  0  0  0  0  0  # atno 10718 bound_to 10713
  154.8169  135.4616  154.0670 H   0  0  0  0  0  0  0  0  0  0  0  0  # atno 10763 bound_to 10752
  153.2055  135.6875  153.8185 H   0  0  0  0  0  0  0  0  0  0  0  0  # atno 10764 bound_to 10752
  153.7654  135.3278  155.3321 H   0  0  0  0  0  0  0  0  0  0  0  0  # atno 10765 bound_to 10752
  140.9314  134.1314  157.4231 H   0  0  0  0  0  0  0  0  0  0  0  0  # atno 11005 bound_to 11000
  145.6688  139.1595  143.2766 LP  0  0  0  0  0  0  0  0  0  0  0  0  # atno 17320 bound_to 7965
  146.1629  140.6762  142.9269 LP  0  0  0  0  0  0  0  0  0  0  0  0  # atno 17321 bound_to 7965
  140.2632  143.3508  152.1304 LP  0  0  0  0  0  0  0  0  0  0  0  0  # atno 17342 bound_to 10162
  139.5119  144.6908  151.5766 LP  0  0  0  0  0  0  0  0  0  0  0  0  # atno 17343 bound_to 10162
  157.1224  131.0250  151.3004 LP  0  0  0  0  0  0  0  0  0  0  0  0  # atno 17370 bound_to 10713
  157.4617  130.7657  149.7242 LP  0  0  0  0  0  0  0  0  0  0  0  0  # atno 17371 bound_to 10713
  139.8797  135.0006  156.6021 LP  0  0  0  0  0  0  0  0  0  0  0  0  # atno 17394 bound_to 11000
  140.7857  133.8623  155.8604 LP  0  0  0  0  0  0  0  0  0  0  0  0  # atno 17395 bound_to 11000

$$$$
