AV-unprocessed.smi:3009|AV-procd|sdf|11449|dock7
  -GOLD-   2272016383D 1   1.00000     0.00000
 Structure written by MMmdl.
 44 45  0  0  0  0  0  0  0  0  2 V2000
  151.8893  144.2169  157.7922 C   0  0  0  0  0  0  0  0  0  0  0  0
  151.6508  142.9885  158.6827 C   0  0  0  0  0  0  0  0  0  0  0  0
  152.2152  143.2319  160.0926 C   0  0  0  0  0  0  0  0  0  0  0  0
  152.2495  141.7227  158.0305 C   0  0  0  0  0  0  0  0  0  0  0  0
  151.3103  141.0369  157.1058 N   0  3  1  0  0  0  0  0  0  0  0  0
  150.5064  141.9649  156.2722 C   0  0  0  0  0  0  0  0  0  0  0  0
  149.5400  141.1770  155.3726 C   0  0  0  0  0  0  0  0  0  0  0  0
  150.2745  140.2569  154.5754 O   0  0  0  0  0  0  0  0  0  0  0  0
  150.9708  139.2968  155.3639 C   0  0  1  0  0  0  0  0  0  0  0  0
  151.6533  138.2916  154.4187 C   0  0  0  0  0  0  0  0  0  0  0  0
  150.7989  137.1438  154.1331 N   0  0  0  0  0  0  0  0  0  0  0  0
  150.8070  135.9925  154.8190 C   0  0  0  0  0  0  0  0  0  0  0  0
  151.5482  135.7809  155.7789 O   0  0  0  0  0  0  0  0  0  0  0  0
  149.9116  135.1221  154.3260 N   0  0  0  0  0  0  0  0  0  0  0  0
  149.6286  133.8195  154.8078 C   0  0  0  0  0  0  0  0  0  0  0  0
  149.9978  133.2156  156.0456 C   0  0  0  0  0  0  0  0  0  0  0  0
  149.5387  131.9750  156.1297 N   0  0  0  0  0  0  0  0  0  0  0  0
  148.8833  131.7816  154.9632 N   0  0  0  0  0  0  0  0  0  0  0  0
  148.9125  132.8781  154.1301 C   0  0  0  0  0  0  0  0  0  0  0  0
  151.9912  140.0359  156.2504 C   0  0  0  0  0  0  0  0  0  0  0  0
  148.4261  130.9056  154.7533 H   0  0  0  0  0  0  0  0  0  0  0  0
  152.9543  144.4124  157.6628 H   0  0  0  0  0  0  0  0  0  0  0  0
  151.4371  145.1106  158.2238 H   0  0  0  0  0  0  0  0  0  0  0  0
  151.4543  144.0763  156.8021 H   0  0  0  0  0  0  0  0  0  0  0  0
  150.5711  142.8714  158.7691 H   0  0  0  0  0  0  0  0  0  0  0  0
  153.2981  143.3588  160.0709 H   0  0  0  0  0  0  0  0  0  0  0  0
  151.9897  142.4023  160.7630 H   0  0  0  0  0  0  0  0  0  0  0  0
  151.7853  144.1307  160.5356 H   0  0  0  0  0  0  0  0  0  0  0  0
  153.1669  141.9662  157.4921 H   0  0  0  0  0  0  0  0  0  0  0  0
  152.5392  141.0338  158.8255 H   0  0  0  0  0  0  0  0  0  0  0  0
  149.9336  142.6470  156.8989 H   0  0  0  0  0  0  0  0  0  0  0  0
  151.1704  142.5753  155.6580 H   0  0  0  0  0  0  0  0  0  0  0  0
  148.7943  140.6485  155.9688 H   0  0  0  0  0  0  0  0  0  0  0  0
  148.9977  141.8577  154.7163 H   0  0  0  0  0  0  0  0  0  0  0  0
  150.2611  138.7683  156.0032 H   0  0  0  0  0  0  0  0  0  0  0  0
  151.9063  138.7753  153.4748 H   0  0  0  0  0  0  0  0  0  0  0  0
  152.5939  137.9444  154.8495 H   0  0  0  0  0  0  0  0  0  0  0  0
  150.1567  137.2343  153.3595 H   0  0  0  0  0  0  0  0  0  0  0  0
  149.3751  135.4222  153.5253 H   0  0  0  0  0  0  0  0  0  0  0  0
  150.5673  133.6168  156.8707 H   0  0  0  0  0  0  0  0  0  0  0  0
  148.4369  132.8893  153.1606 H   0  0  0  0  0  0  0  0  0  0  0  0
  152.7411  140.5332  155.6327 H   0  0  0  0  0  0  0  0  0  0  0  0
  152.5180  139.3157  156.8778 H   0  0  0  0  0  0  0  0  0  0  0  0
  150.6629  140.5195  157.6835 H   0  0  0  0  0  0  0  0  0  0  0  0
  1  2  1  0  0  0  0
  1 22  1  0  0  0  0
  1 23  1  0  0  0  0
  1 24  1  0  0  0  0
  2  3  1  0  0  0  0
  2  4  1  0  0  0  0
  2 25  1  0  0  0  0
  3 26  1  0  0  0  0
  3 27  1  0  0  0  0
  3 28  1  0  0  0  0
  4  5  1  0  0  0  0
  4 29  1  0  0  0  0
  4 30  1  0  0  0  0
  5 20  1  0  0  0  0
  5  6  1  0  0  0  0
  5 44  1  0  0  0  0
  6  7  1  0  0  0  0
  6 31  1  0  0  0  0
  6 32  1  0  0  0  0
  7  8  1  0  0  0  0
  7 33  1  0  0  0  0
  7 34  1  0  0  0  0
  8  9  1  0  0  0  0
  9 10  1  0  0  0  0
  9 20  1  0  0  0  0
  9 35  1  0  0  0  0
 10 11  1  0  0  0  0
 10 36  1  0  0  0  0
 10 37  1  0  0  0  0
 11 12  1  0  0  0  0
 11 38  1  0  0  0  0
 12 13  2  0  0  0  0
 12 14  1  0  0  0  0
 14 15  1  0  0  0  0
 14 39  1  0  0  0  0
 15 19  2  0  0  0  0
 15 16  1  0  0  0  0
 16 17  2  0  0  0  0
 16 40  1  0  0  0  0
 17 18  1  0  0  0  0
 18 21  1  0  0  0  0
 18 19  1  0  0  0  0
 19 41  1  0  0  0  0
 20 42  1  0  0  0  0
 20 43  1  0  0  0  0
M  CHG  1   5   1
M  END
> <s_m_source_file>
AV-unprocessed.smi

> <i_m_source_file_index>
3009

> <i_lp_mmshare_version>
43012

> <i_f3d_flags>
0

> <s_epik_input>
W0NIM11bQ0hdKFtDSDNdKVtDSDJdTjFbQ0gyXVtDSDJdT1tDQEhdKFtDSDJdMSlbQ0gyXVtOSF1DKD1PKVtOSF1jMltjSF1uW25IXVtjSF0y

> <s_epik_cmdline>
J2VwaWtfcHl0aG9uJywgJy1waCcsICc3LjAnLCAnLXRuJywgJzgnLCAnLW1hJywgJzIwMCcsICctbWV0YWxfYmluZGluZycsICctaW1hZScsICc8aW5maWxlLm1hZT4nLCAnLW9tYWUnLCAnPG91dGZpbGUubWFlPic=

> <r_lp_tautomer_probability>
0.5

> <r_epik_Ionization_Penalty>
0.0974064

> <r_epik_Ionization_Penalty_Charging>
0.0973651

> <r_epik_Ionization_Penalty_Neutral>
4.13573e-05

> <r_epik_State_Penalty>
0.0874853

> <r_epik_Charging_Adjusted_Penalty>
0.18485

> <i_epik_Tot_Q>
1

> <i_epik_Tot_abs_Q>
1

> <r_epik_Metal_State_Penalty>
0.0874855

> <b_epik_Metal_Only>
0

> <s_lp_Force_Field>
OPLS_2005

> <r_lp_Energy>
19.2351

> <b_lp_Chiralities_Consistent>
1

> <s_lp_Variant>
AV-unprocessed.smi:3009-1

> <Gold.Version>
5.8.1

> <Gold.Id.Protein>
6NUR|6NUR_protein|mol2

> <Gold.PLP.Fitness>
48.3093

> <Gold.PLP.PLP>
-39.4172

> <Gold.PLP.part.hbond>
-5.6086

> <Gold.PLP.part.metal>
0.0000

> <Gold.PLP.part.buried>
-4.1981

> <Gold.PLP.part.nonpolar>
-29.9932

> <Gold.PLP.part.repulsive>
0.3663

> <Gold.PLP.ligand.clash>
0.0000

> <Gold.PLP.ligand.torsion>
1.1292

> <Gold.PLP.Chemscore.Hbond>
3.7069

> <Gold.PLP.Chemscore.CHOScore>
0.0000

> <Gold.PLP.Chemscore.Metal>
0.0000

> <Gold.Chemscore.Hbonds>
donor molecule, donor type, donor heavy atom, donor atom, acceptor molecule, acceptor atom, score
      L1  H    11    38       P1  7948  0.63
      L1  H    14    39       P1  7948  0.95
      P1  H  7989  7998       L1     8  1.00
      P1  H 10752 10764       L1    13  0.90

> <Gold.PLP.Chemscore.Internal.Correction>
0.0297

> <Gold.Rescore>
     Score         DG    S(hbond)    S(metal)    S(lipo)     H(rot)  DE(clash)    DE(int)     intcor
     17.15     -20.17       2.51        0.00      93.29       1.80       0.90       2.12       ----

> <Gold.Chemscore.Fitness>
17.1543

> <Gold.Chemscore.DG>
-20.1653

> <Gold.Chemscore.ZeroCoef>
-5.4800

> <Gold.Chemscore.Hbond>
2.5055

> <Gold.Chemscore.Metal>
0.0000

> <Gold.Chemscore.Lipo>
93.2930

> <Gold.Chemscore.Internal_Hbond>
0.0000

> <Gold.Chemscore.DEClash>
0.8955

> <Gold.Chemscore.DEInternal>
2.1155

> <Gold.Chemscore.Rot>
1.7963

> <Gold.Chemscore.Internal.Correction>
   9.000000E+99

> <Gold.Chemscore.Hbonds>
donor molecule, donor type, donor heavy atom, donor atom, acceptor molecule, acceptor atom, score
      L1  H    11    38       P1  7948  0.10
      L1  H    14    39       P1  7948  0.21
      P1  H  7989  7998       L1     8  0.33
      P1  H 10752 10764       L1    13  0.18

> <Gold.Chemscore.Hbond.Weighted>
-8.3685

> <Gold.Chemscore.Metal.Weighted>
-0.0000

> <Gold.Chemscore.Lipo.Weighted>
-10.9153

> <Gold.Chemscore.Internal_Hbond.Weighted>
0.0000

> <Gold.Chemscore.DEClash.Weighted>
0.8955

> <Gold.Chemscore.DEInternal.Weighted>
2.1155

> <Gold.Chemscore.Rot.Weighted>
4.5985

> <Gold.Chemscore.Internal.Correction.Weighted>
   9.000000E+99

> <Gold.Protein.RotatedTorsions>
[ 6907 6896 6895 6894 ] final -117.00 input  -60.11 | X-H torsion
[ 7974 7965 7964 7962 ] final    9.05 input  175.53 | X-H torsion
[ 8008 7997 7996 7995 ] final  131.43 input   59.86 | X-H torsion
[ 10167 10162 10161 10158 ] final  123.90 input  -65.29 | X-H torsion
[ 10718 10713 10712 10709 ] final -129.12 input   66.30 | X-H torsion
[ 10763 10752 10751 10750 ] final  -41.74 input  -60.55 | X-H torsion
[ 11005 11000 10999 10996 ] final  -42.46 input  -57.11 | X-H torsion

> <Gold.Protein.ActiveResidues>
 VAL166  LYS551  ARG553  GLY616  TRP617  ASP618  TYR619  PRO620  LYS621  CYS622 
 ASP623  PHE694  ASN695  SER759  ASP760  ASP761  ALA762  ILE779  LEU786  VAL792 
 PHE793  MET794  SER795  GLU796  ALA797  LYS798  CYS799  TRP800  GLU811  SER814 

> <Gold.Protein.RotatedAtoms>
  150.8101  133.8437  159.3186 H   0  0  0  0  0  0  0  0  0  0  0  0  # atno 6907 bound_to 6896
  151.6225  135.1029  160.0114 H   0  0  0  0  0  0  0  0  0  0  0  0  # atno 6908 bound_to 6896
  152.4193  133.7049  159.6502 H   0  0  0  0  0  0  0  0  0  0  0  0  # atno 6909 bound_to 6896
  146.2408  139.9842  142.8433 H   0  0  0  0  0  0  0  0  0  0  0  0  # atno 7974 bound_to 7965
  156.2970  140.2571  156.2924 H   0  0  0  0  0  0  0  0  0  0  0  0  # atno 8008 bound_to 7997
  154.9497  140.0394  157.2156 H   0  0  0  0  0  0  0  0  0  0  0  0  # atno 8009 bound_to 7997
  154.8048  140.2834  155.5900 H   0  0  0  0  0  0  0  0  0  0  0  0  # atno 8010 bound_to 7997
  139.5772  144.6969  151.3622 H   0  0  0  0  0  0  0  0  0  0  0  0  # atno 10167 bound_to 10162
  156.2016  130.6861  151.0546 H   0  0  0  0  0  0  0  0  0  0  0  0  # atno 10718 bound_to 10713
  153.9676  135.6732  153.4746 H   0  0  0  0  0  0  0  0  0  0  0  0  # atno 10763 bound_to 10752
  153.0808  135.4924  154.8496 H   0  0  0  0  0  0  0  0  0  0  0  0  # atno 10764 bound_to 10752
  154.7237  135.3123  154.8966 H   0  0  0  0  0  0  0  0  0  0  0  0  # atno 10765 bound_to 10752
  141.0317  133.6817  156.2598 H   0  0  0  0  0  0  0  0  0  0  0  0  # atno 11005 bound_to 11000
  145.1563  140.9649  143.4403 LP  0  0  0  0  0  0  0  0  0  0  0  0  # atno 17320 bound_to 7965
  145.0158  139.3469  143.6097 LP  0  0  0  0  0  0  0  0  0  0  0  0  # atno 17321 bound_to 7965
  140.7054  143.7527  150.7473 LP  0  0  0  0  0  0  0  0  0  0  0  0  # atno 17342 bound_to 10162
  140.1050  143.4752  152.2403 LP  0  0  0  0  0  0  0  0  0  0  0  0  # atno 17343 bound_to 10162
  157.6989  131.0783  150.6883 LP  0  0  0  0  0  0  0  0  0  0  0  0  # atno 17370 bound_to 10713
  156.6941  130.4604  149.5591 LP  0  0  0  0  0  0  0  0  0  0  0  0  # atno 17371 bound_to 10713
  140.6395  134.5181  157.5568 LP  0  0  0  0  0  0  0  0  0  0  0  0  # atno 17394 bound_to 11000
  139.9212  134.8144  156.1205 LP  0  0  0  0  0  0  0  0  0  0  0  0  # atno 17395 bound_to 11000

$$$$
