AV-unprocessed.smi:810|AV-procd|sdf|3810|dock10
  -GOLD-   22720 1253D 1   1.00000     0.00000
 Structure written by MMmdl.
 34 35  0  0  0  0  0  0  0  0  1 V2000
  151.0829  141.1209  157.0042 O   0  0  0  0  0  0  0  0  0  0  0  0
  150.3800  142.0697  156.6578 C   0  0  0  0  0  0  0  0  0  0  0  0
  150.2896  143.2457  157.3021 N   0  0  0  0  0  0  0  0  0  0  0  0
  150.9146  143.6380  158.5164 C   0  0  0  0  0  0  0  0  0  0  0  0
  151.9608  142.8327  159.0119 C   0  0  0  0  0  0  0  0  0  0  0  0
  152.6111  143.2084  160.2026 C   0  0  0  0  0  0  0  0  0  0  0  0
  152.1938  144.3873  160.8499 C   0  0  0  0  0  0  0  0  0  0  0  0
  151.2055  145.1781  160.3818 N   0  0  0  0  0  0  0  0  0  0  0  0
  150.5841  144.8107  159.2403 C   0  0  0  0  0  0  0  0  0  0  0  0
  149.6123  142.0613  155.5588 N   0  0  0  0  0  0  0  0  0  0  0  0
  149.4757  140.9438  154.6278 C   0  0  1  0  0  0  0  0  0  0  0  0
  149.3989  139.6214  155.4157 C   0  0  0  0  0  0  0  0  0  0  0  0
  149.1357  138.3893  154.5336 C   0  0  0  0  0  0  0  0  0  0  0  0
  150.1073  138.3153  153.5130 O   0  0  0  0  0  0  0  0  0  0  0  0
  148.2813  141.0894  153.7000 C   0  0  0  0  0  0  0  0  0  0  0  0
  147.1585  142.0468  154.0226 C   0  0  0  0  0  0  0  0  0  0  0  0
  146.9209  140.5554  154.0818 C   0  0  0  0  0  0  0  0  0  0  0  0
  149.7423  143.9614  156.8467 H   0  0  0  0  0  0  0  0  0  0  0  0
  152.2608  141.9353  158.4905 H   0  0  0  0  0  0  0  0  0  0  0  0
  153.4114  142.6083  160.6096 H   0  0  0  0  0  0  0  0  0  0  0  0
  152.6706  144.7064  161.7649 H   0  0  0  0  0  0  0  0  0  0  0  0
  149.8222  145.4960  158.9031 H   0  0  0  0  0  0  0  0  0  0  0  0
  149.0765  142.8910  155.3500 H   0  0  0  0  0  0  0  0  0  0  0  0
  150.3723  140.8954  154.0062 H   0  0  0  0  0  0  0  0  0  0  0  0
  150.3214  139.4777  155.9802 H   0  0  0  0  0  0  0  0  0  0  0  0
  148.6007  139.6962  156.1558 H   0  0  0  0  0  0  0  0  0  0  0  0
  149.1769  137.4757  155.1274 H   0  0  0  0  0  0  0  0  0  0  0  0
  148.1485  138.4356  154.0733 H   0  0  0  0  0  0  0  0  0  0  0  0
  149.8792  137.6077  152.9296 H   0  0  0  0  0  0  0  0  0  0  0  0
  148.5401  141.0149  152.6453 H   0  0  0  0  0  0  0  0  0  0  0  0
  147.2058  142.5846  154.9674 H   0  0  0  0  0  0  0  0  0  0  0  0
  146.7137  142.5957  153.1949 H   0  0  0  0  0  0  0  0  0  0  0  0
  146.3179  140.1090  153.2939 H   0  0  0  0  0  0  0  0  0  0  0  0
  146.8088  140.1050  155.0659 H   0  0  0  0  0  0  0  0  0  0  0  0
  1  2  2  0  0  0  0
  2  3  1  0  0  0  0
  2 10  1  0  0  0  0
  3  4  1  0  0  0  0
  3 18  1  0  0  0  0
  4  9  1  0  0  0  0
  4  5  2  0  0  0  0
  5  6  1  0  0  0  0
  5 19  1  0  0  0  0
  6  7  2  0  0  0  0
  6 20  1  0  0  0  0
  7  8  1  0  0  0  0
  7 21  1  0  0  0  0
  8  9  2  0  0  0  0
  9 22  1  0  0  0  0
 10 11  1  0  0  0  0
 10 23  1  0  0  0  0
 11 12  1  0  0  0  0
 11 15  1  0  0  0  0
 11 24  1  0  0  0  0
 12 13  1  0  0  0  0
 12 25  1  0  0  0  0
 12 26  1  0  0  0  0
 13 14  1  0  0  0  0
 13 27  1  0  0  0  0
 13 28  1  0  0  0  0
 14 29  1  0  0  0  0
 15 17  1  0  0  0  0
 15 16  1  0  0  0  0
 15 30  1  0  0  0  0
 16 17  1  0  0  0  0
 16 31  1  0  0  0  0
 16 32  1  0  0  0  0
 17 33  1  0  0  0  0
 17 34  1  0  0  0  0
M  END
> <s_m_source_file>
AV-unprocessed.smi

> <i_m_source_file_index>
810

> <i_lp_mmshare_version>
43012

> <i_f3d_flags>
0

> <s_epik_input>
W09IXVtDSDJdW0NIMl1bQ0BIXShbQ0hdMVtDSDJdW0NIMl0xKVtOSF1DKD1PKVtOSF1jMltjSF1bY0hdW2NIXW5bY0hdMg==

> <s_epik_cmdline>
J2VwaWtfcHl0aG9uJywgJy1waCcsICc3LjAnLCAnLXRuJywgJzgnLCAnLW1hJywgJzIwMCcsICctbWV0YWxfYmluZGluZycsICctaW1hZScsICc8aW5maWxlLm1hZT4nLCAnLW9tYWUnLCAnPG91dGZpbGUubWFlPic=

> <r_epik_Ionization_Penalty>
0.00486911

> <r_epik_Ionization_Penalty_Charging>
0

> <r_epik_Ionization_Penalty_Neutral>
0.00486911

> <r_epik_State_Penalty>
0.00350304

> <r_epik_Charging_Adjusted_Penalty>
0.00350304

> <i_epik_Tot_Q>
0

> <i_epik_Tot_abs_Q>
0

> <r_epik_Metal_State_Penalty>
-0

> <b_epik_Metal_Only>
0

> <s_lp_Force_Field>
OPLS_2005

> <r_lp_Energy>
17.3052

> <b_lp_Chiralities_Consistent>
1

> <s_lp_Variant>
AV-unprocessed.smi:810-2

> <Gold.Version>
5.8.1

> <Gold.Id.Protein>
6NUR|6NUR_protein|mol2

> <Gold.PLP.Fitness>
46.6300

> <Gold.PLP.PLP>
-36.4357

> <Gold.PLP.part.hbond>
-4.2207

> <Gold.PLP.part.metal>
0.0000

> <Gold.PLP.part.buried>
-4.1700

> <Gold.PLP.part.nonpolar>
-28.2643

> <Gold.PLP.part.repulsive>
0.3966

> <Gold.PLP.ligand.clash>
0.0000

> <Gold.PLP.ligand.torsion>
1.2520

> <Gold.PLP.Chemscore.Hbond>
2.9280

> <Gold.PLP.Chemscore.CHOScore>
0.9420

> <Gold.PLP.Chemscore.Metal>
0.0000

> <Gold.Chemscore.Hbonds>
donor molecule, donor type, donor heavy atom, donor atom, acceptor molecule, acceptor atom, score
      L1  H     3    18       P1  8028  1.00
      L1  H    10    23       P1  8028  0.93
      L1  H    14    29       P1  7948  1.00
      L1  C     9    22       P1  8029  0.95

> <Gold.PLP.Chemscore.Internal.Correction>
1.0883

> <Gold.Rescore>
     Score         DG    S(hbond)    S(metal)    S(lipo)     H(rot)  DE(clash)    DE(int)     intcor
     16.11     -20.29       2.92        0.00      93.71       2.31       0.10       4.08       ----

> <Gold.Chemscore.Fitness>
16.1145

> <Gold.Chemscore.DG>
-20.2918

> <Gold.Chemscore.ZeroCoef>
-5.4800

> <Gold.Chemscore.Hbond>
2.9223

> <Gold.Chemscore.Metal>
0.0000

> <Gold.Chemscore.Lipo>
93.7088

> <Gold.Chemscore.Internal_Hbond>
0.0000

> <Gold.Chemscore.DEClash>
0.1013

> <Gold.Chemscore.DEInternal>
4.0759

> <Gold.Chemscore.Rot>
2.3097

> <Gold.Chemscore.Internal.Correction>
   9.000000E+99

> <Gold.Chemscore.Hbonds>
donor molecule, donor type, donor heavy atom, donor atom, acceptor molecule, acceptor atom, score
      L1  H     3    18       P1  8028  0.94
      L1  H    10    23       P1  8028  0.91
      L1  H    14    29       P1  7948  0.35

> <Gold.Chemscore.Hbond.Weighted>
-9.7605

> <Gold.Chemscore.Metal.Weighted>
-0.0000

> <Gold.Chemscore.Lipo.Weighted>
-10.9639

> <Gold.Chemscore.Internal_Hbond.Weighted>
0.0000

> <Gold.Chemscore.DEClash.Weighted>
0.1013

> <Gold.Chemscore.DEInternal.Weighted>
4.0759

> <Gold.Chemscore.Rot.Weighted>
5.9127

> <Gold.Chemscore.Internal.Correction.Weighted>
   9.000000E+99

> <Gold.Protein.RotatedTorsions>
[ 6907 6896 6895 6894 ] final   -3.73 input  -60.11 | X-H torsion
[ 7974 7965 7964 7962 ] final  -34.63 input  175.53 | X-H torsion
[ 8008 7997 7996 7995 ] final   78.49 input   59.86 | X-H torsion
[ 10167 10162 10161 10158 ] final   82.72 input  -65.29 | X-H torsion
[ 10718 10713 10712 10709 ] final  129.04 input   66.30 | X-H torsion
[ 10763 10752 10751 10750 ] final   45.45 input  -60.55 | X-H torsion
[ 11005 11000 10999 10996 ] final   70.94 input  -57.11 | X-H torsion

> <Gold.Protein.ActiveResidues>
 VAL166  LYS551  ARG553  GLY616  TRP617  ASP618  TYR619  PRO620  LYS621  CYS622 
 ASP623  PHE694  ASN695  SER759  ASP760  ASP761  ALA762  ILE779  LEU786  VAL792 
 PHE793  MET794  SER795  GLU796  ALA797  LYS798  CYS799  TRP800  GLU811  SER814 

> <Gold.Protein.RotatedAtoms>
  151.5090  135.1064  159.9848 H   0  0  0  0  0  0  0  0  0  0  0  0  # atno 6907 bound_to 6896
  152.4669  133.7940  159.6927 H   0  0  0  0  0  0  0  0  0  0  0  0  # atno 6908 bound_to 6896
  150.8658  133.7513  159.3003 H   0  0  0  0  0  0  0  0  0  0  0  0  # atno 6909 bound_to 6896
  146.0814  140.6062  142.8907 H   0  0  0  0  0  0  0  0  0  0  0  0  # atno 7974 bound_to 7965
  155.8565  140.3456  155.5727 H   0  0  0  0  0  0  0  0  0  0  0  0  # atno 8008 bound_to 7997
  155.7981  140.0881  157.1992 H   0  0  0  0  0  0  0  0  0  0  0  0  # atno 8009 bound_to 7997
  154.4010  140.1470  156.3229 H   0  0  0  0  0  0  0  0  0  0  0  0  # atno 8010 bound_to 7997
  139.9258  144.6183  150.8394 H   0  0  0  0  0  0  0  0  0  0  0  0  # atno 10167 bound_to 10162
  157.5190  131.1098  150.9182 H   0  0  0  0  0  0  0  0  0  0  0  0  # atno 10718 bound_to 10713
  152.9824  135.6039  154.3438 H   0  0  0  0  0  0  0  0  0  0  0  0  # atno 10763 bound_to 10752
  154.3133  135.2771  155.2557 H   0  0  0  0  0  0  0  0  0  0  0  0  # atno 10764 bound_to 10752
  154.4757  135.5930  153.6409 H   0  0  0  0  0  0  0  0  0  0  0  0  # atno 10765 bound_to 10752
  139.9570  134.7127  156.0730 H   0  0  0  0  0  0  0  0  0  0  0  0  # atno 11005 bound_to 11000
  144.7295  140.4630  143.6948 LP  0  0  0  0  0  0  0  0  0  0  0  0  # atno 17320 bound_to 7965
  145.6211  139.1524  143.3022 LP  0  0  0  0  0  0  0  0  0  0  0  0  # atno 17321 bound_to 7965
  140.7650  143.3264  151.2506 LP  0  0  0  0  0  0  0  0  0  0  0  0  # atno 17342 bound_to 10162
  139.6823  143.9833  152.2815 LP  0  0  0  0  0  0  0  0  0  0  0  0  # atno 17343 bound_to 10162
  156.9798  130.5523  149.5295 LP  0  0  0  0  0  0  0  0  0  0  0  0  # atno 17370 bound_to 10713
  156.0340  130.5429  150.8607 LP  0  0  0  0  0  0  0  0  0  0  0  0  # atno 17371 bound_to 10713
  141.1243  133.6604  156.3295 LP  0  0  0  0  0  0  0  0  0  0  0  0  # atno 17394 bound_to 11000
  140.5586  134.5956  157.5427 LP  0  0  0  0  0  0  0  0  0  0  0  0  # atno 17395 bound_to 11000

$$$$
