AV-unprocessed.smi:676|AV-procd|sdf|3309|dock8
  -GOLD-   22720 0273D 1   1.00000     0.00000
 Structure written by MMmdl.
 42 43  0  0  0  0  0  0  0  0  1 V2000
  150.9023  135.7578  156.8337 C   0  0  0  0  0  0  0  0  0  0  0  0
  151.2066  137.1262  156.5937 O   0  0  0  0  0  0  0  0  0  0  0  0
  150.5369  138.1019  157.4041 C   0  0  1  0  0  0  0  0  0  0  0  0
  149.0196  138.0287  157.1912 C   0  0  0  0  0  0  0  0  0  0  0  0
  151.1011  138.0801  158.8378 C   0  0  0  0  0  0  0  0  0  0  0  0
  152.2262  138.9791  158.3292 C   0  0  2  0  0  0  0  0  0  0  0  0
  152.6235  139.9902  159.3031 N   0  0  0  0  0  0  0  0  0  0  0  0
  153.8940  140.2826  159.6154 C   0  0  0  0  0  0  0  0  0  0  0  0
  154.8604  139.7236  159.0948 O   0  0  0  0  0  0  0  0  0  0  0  0
  154.0905  141.3922  160.6580 C   0  0  0  0  0  0  0  0  0  0  0  0
  153.3283  142.6161  160.3599 N   0  0  0  0  0  0  0  0  0  0  0  0
  153.1519  142.9469  159.0015 C   0  0  0  0  0  0  0  0  0  0  0  0
  152.4761  144.0420  158.6195 C   0  0  0  0  0  0  0  0  0  0  0  0
  151.9207  144.8935  159.6446 C   0  0  0  0  0  0  0  0  0  0  0  0
  152.0866  144.5882  160.9468 C   0  0  0  0  0  0  0  0  0  0  0  0
  152.8266  143.3933  161.3690 C   0  0  0  0  0  0  0  0  0  0  0  0
  152.9851  143.1083  162.5563 O   0  0  0  0  0  0  0  0  0  0  0  0
  151.2611  139.4765  157.2222 C   0  0  0  0  0  0  0  0  0  0  0  0
  151.8933  139.7422  155.8516 C   0  0  0  0  0  0  0  0  0  0  0  0
  150.4232  140.7282  157.5452 C   0  0  0  0  0  0  0  0  0  0  0  0
  151.5952  135.1355  156.2680 H   0  0  0  0  0  0  0  0  0  0  0  0
  149.8968  135.5053  156.4976 H   0  0  0  0  0  0  0  0  0  0  0  0
  150.9988  135.4875  157.8846 H   0  0  0  0  0  0  0  0  0  0  0  0
  148.4971  138.8241  157.7214 H   0  0  0  0  0  0  0  0  0  0  0  0
  148.5997  137.0940  157.5616 H   0  0  0  0  0  0  0  0  0  0  0  0
  148.7639  138.1167  156.1352 H   0  0  0  0  0  0  0  0  0  0  0  0
  150.4434  138.5683  159.5592 H   0  0  0  0  0  0  0  0  0  0  0  0
  151.4362  137.1122  159.2087 H   0  0  0  0  0  0  0  0  0  0  0  0
  153.0605  138.3938  157.9349 H   0  0  0  0  0  0  0  0  0  0  0  0
  151.8851  140.4964  159.7699 H   0  0  0  0  0  0  0  0  0  0  0  0
  153.8070  140.9941  161.6332 H   0  0  0  0  0  0  0  0  0  0  0  0
  155.1538  141.6244  160.7432 H   0  0  0  0  0  0  0  0  0  0  0  0
  153.6044  142.2629  158.2982 H   0  0  0  0  0  0  0  0  0  0  0  0
  152.3548  144.2822  157.5735 H   0  0  0  0  0  0  0  0  0  0  0  0
  151.3702  145.7801  159.3660 H   0  0  0  0  0  0  0  0  0  0  0  0
  151.6650  145.2376  161.6999 H   0  0  0  0  0  0  0  0  0  0  0  0
  152.4394  140.6861  155.8374 H   0  0  0  0  0  0  0  0  0  0  0  0
  151.1382  139.7854  155.0663 H   0  0  0  0  0  0  0  0  0  0  0  0
  152.6070  138.9665  155.5734 H   0  0  0  0  0  0  0  0  0  0  0  0
  151.0369  141.6294  157.5668 H   0  0  0  0  0  0  0  0  0  0  0  0
  149.9308  140.6563  158.5151 H   0  0  0  0  0  0  0  0  0  0  0  0
  149.6432  140.8895  156.8003 H   0  0  0  0  0  0  0  0  0  0  0  0
  1  2  1  0  0  0  0
  1 21  1  0  0  0  0
  1 22  1  0  0  0  0
  1 23  1  0  0  0  0
  2  3  1  0  0  0  0
  3 18  1  0  0  0  0
  3  4  1  0  0  0  0
  3  5  1  0  0  0  0
  4 24  1  0  0  0  0
  4 25  1  0  0  0  0
  4 26  1  0  0  0  0
  5  6  1  0  0  0  0
  5 27  1  0  0  0  0
  5 28  1  0  0  0  0
  6  7  1  0  0  0  0
  6 18  1  0  0  0  0
  6 29  1  0  0  0  0
  7  8  1  0  0  0  0
  7 30  1  0  0  0  0
  8  9  2  0  0  0  0
  8 10  1  0  0  0  0
 10 11  1  0  0  0  0
 10 31  1  0  0  0  0
 10 32  1  0  0  0  0
 11 16  1  0  0  0  0
 11 12  1  0  0  0  0
 12 13  2  0  0  0  0
 12 33  1  0  0  0  0
 13 14  1  0  0  0  0
 13 34  1  0  0  0  0
 14 15  2  0  0  0  0
 14 35  1  0  0  0  0
 15 16  1  0  0  0  0
 15 36  1  0  0  0  0
 16 17  2  0  0  0  0
 18 19  1  0  0  0  0
 18 20  1  0  0  0  0
 19 37  1  0  0  0  0
 19 38  1  0  0  0  0
 19 39  1  0  0  0  0
 20 40  1  0  0  0  0
 20 41  1  0  0  0  0
 20 42  1  0  0  0  0
M  END
> <s_m_source_file>
AV-unprocessed.smi

> <i_m_source_file_index>
676

> <i_lp_mmshare_version>
43012

> <i_f3d_flags>
0

> <s_epik_input>
W0NIM11PW0NAQF0xKFtDSDNdKVtDSDJdW0NASF0oQzEoW0NIM10pW0NIM10pW05IXUMoPU8pW0NIMl1uMltjSF1bY0hdW2NIXVtjSF1jMj1P

> <s_epik_cmdline>
J2VwaWtfcHl0aG9uJywgJy1waCcsICc3LjAnLCAnLXRuJywgJzgnLCAnLW1hJywgJzIwMCcsICctbWV0YWxfYmluZGluZycsICctaW1hZScsICc8aW5maWxlLm1hZT4nLCAnLW9tYWUnLCAnPG91dGZpbGUubWFlPic=

> <r_lp_tautomer_probability>
1

> <r_epik_Ionization_Penalty>
4.09771e-07

> <r_epik_Ionization_Penalty_Charging>
3.90712e-07

> <r_epik_Ionization_Penalty_Neutral>
1.90591e-08

> <r_epik_State_Penalty>
-0

> <r_epik_Charging_Adjusted_Penalty>
3.90712e-07

> <i_epik_Tot_Q>
0

> <i_epik_Tot_abs_Q>
0

> <r_epik_Metal_State_Penalty>
-0

> <b_epik_Metal_Only>
0

> <s_lp_Force_Field>
OPLS_2005

> <r_lp_Energy>
31.664

> <b_lp_Chiralities_Consistent>
1

> <s_lp_Variant>
AV-unprocessed.smi:676-3

> <Gold.Version>
5.8.1

> <Gold.Id.Protein>
6NUR|6NUR_protein|mol2

> <Gold.PLP.Fitness>
43.9968

> <Gold.PLP.PLP>
-41.9034

> <Gold.PLP.part.hbond>
-1.0000

> <Gold.PLP.part.metal>
0.0000

> <Gold.PLP.part.buried>
-6.5695

> <Gold.PLP.part.nonpolar>
-35.3857

> <Gold.PLP.part.repulsive>
0.2569

> <Gold.PLP.ligand.clash>
0.0000

> <Gold.PLP.ligand.torsion>
0.6409

> <Gold.PLP.Chemscore.Hbond>
1.0000

> <Gold.PLP.Chemscore.CHOScore>
0.0000

> <Gold.PLP.Chemscore.Metal>
0.0000

> <Gold.Chemscore.Hbonds>
donor molecule, donor type, donor heavy atom, donor atom, acceptor molecule, acceptor atom, score
      P1  H  7997  8010       L1     9  1.00

> <Gold.PLP.Chemscore.Internal.Correction>
0.3751

> <Gold.Rescore>
     Score         DG    S(hbond)    S(metal)    S(lipo)     H(rot)  DE(clash)    DE(int)     intcor
     14.98     -15.60       0.99        0.00      93.50       1.62       0.03       0.59       ----

> <Gold.Chemscore.Fitness>
14.9804

> <Gold.Chemscore.DG>
-15.5992

> <Gold.Chemscore.ZeroCoef>
-5.4800

> <Gold.Chemscore.Hbond>
0.9941

> <Gold.Chemscore.Metal>
0.0000

> <Gold.Chemscore.Lipo>
93.5022

> <Gold.Chemscore.Internal_Hbond>
0.0000

> <Gold.Chemscore.DEClash>
0.0274

> <Gold.Chemscore.DEInternal>
0.5913

> <Gold.Chemscore.Rot>
1.6175

> <Gold.Chemscore.Internal.Correction>
   9.000000E+99

> <Gold.Chemscore.Hbonds>
donor molecule, donor type, donor heavy atom, donor atom, acceptor molecule, acceptor atom, score
      P1  H  7997  8010       L1     9  0.94

> <Gold.Chemscore.Hbond.Weighted>
-3.3202

> <Gold.Chemscore.Metal.Weighted>
-0.0000

> <Gold.Chemscore.Lipo.Weighted>
-10.9398

> <Gold.Chemscore.Internal_Hbond.Weighted>
0.0000

> <Gold.Chemscore.DEClash.Weighted>
0.0274

> <Gold.Chemscore.DEInternal.Weighted>
0.5913

> <Gold.Chemscore.Rot.Weighted>
4.1408

> <Gold.Chemscore.Internal.Correction.Weighted>
   9.000000E+99

> <Gold.Protein.RotatedTorsions>
[ 6907 6896 6895 6894 ] final  -99.64 input  -60.11 | X-H torsion
[ 7974 7965 7964 7962 ] final   32.00 input  175.53 | X-H torsion
[ 8008 7997 7996 7995 ] final   -1.71 input   59.86 | X-H torsion
[ 10167 10162 10161 10158 ] final -113.95 input  -65.29 | X-H torsion
[ 10718 10713 10712 10709 ] final -164.16 input   66.30 | X-H torsion
[ 10763 10752 10751 10750 ] final  167.02 input  -60.55 | X-H torsion
[ 11005 11000 10999 10996 ] final -143.08 input  -57.11 | X-H torsion

> <Gold.Protein.ActiveResidues>
 VAL166  LYS551  ARG553  GLY616  TRP617  ASP618  TYR619  PRO620  LYS621  CYS622 
 ASP623  PHE694  ASN695  SER759  ASP760  ASP761  ALA762  ILE779  LEU786  VAL792 
 PHE793  MET794  SER795  GLU796  ALA797  LYS798  CYS799  TRP800  GLU811  SER814 

> <Gold.Protein.RotatedAtoms>
  150.7087  134.1009  159.3965 H   0  0  0  0  0  0  0  0  0  0  0  0  # atno 6907 bound_to 6896
  151.8995  135.0382  160.0514 H   0  0  0  0  0  0  0  0  0  0  0  0  # atno 6908 bound_to 6896
  152.2426  133.5112  159.5315 H   0  0  0  0  0  0  0  0  0  0  0  0  # atno 6909 bound_to 6896
  146.1514  139.6583  142.9096 H   0  0  0  0  0  0  0  0  0  0  0  0  # atno 7974 bound_to 7965
  154.6438  140.2552  155.7292 H   0  0  0  0  0  0  0  0  0  0  0  0  # atno 8008 bound_to 7997
  156.2542  140.2882  156.0763 H   0  0  0  0  0  0  0  0  0  0  0  0  # atno 8009 bound_to 7997
  155.1556  140.0383  157.2821 H   0  0  0  0  0  0  0  0  0  0  0  0  # atno 8010 bound_to 7997
  140.1062  143.4568  152.1781 H   0  0  0  0  0  0  0  0  0  0  0  0  # atno 10167 bound_to 10162
  156.6350  130.8945  151.2985 H   0  0  0  0  0  0  0  0  0  0  0  0  # atno 10718 bound_to 10713
  154.3476  135.2753  155.2389 H   0  0  0  0  0  0  0  0  0  0  0  0  # atno 10763 bound_to 10752
  154.4632  135.5901  153.6274 H   0  0  0  0  0  0  0  0  0  0  0  0  # atno 10764 bound_to 10752
  152.9852  135.6070  154.3683 H   0  0  0  0  0  0  0  0  0  0  0  0  # atno 10765 bound_to 10752
  140.8161  134.2687  157.4920 H   0  0  0  0  0  0  0  0  0  0  0  0  # atno 11005 bound_to 11000
  145.4813  141.0438  143.2644 LP  0  0  0  0  0  0  0  0  0  0  0  0  # atno 17320 bound_to 7965
  144.7909  139.6331  143.7114 LP  0  0  0  0  0  0  0  0  0  0  0  0  # atno 17321 bound_to 7965
  139.5644  144.7426  151.4064 LP  0  0  0  0  0  0  0  0  0  0  0  0  # atno 17342 bound_to 10162
  140.6951  143.7769  150.7314 LP  0  0  0  0  0  0  0  0  0  0  0  0  # atno 17343 bound_to 10162
  157.7188  130.9532  150.1358 LP  0  0  0  0  0  0  0  0  0  0  0  0  # atno 17370 bound_to 10713
  156.2204  130.3673  149.8563 LP  0  0  0  0  0  0  0  0  0  0  0  0  # atno 17371 bound_to 10713
  139.8711  134.9510  156.4071 LP  0  0  0  0  0  0  0  0  0  0  0  0  # atno 17394 bound_to 11000
  140.9147  133.7687  155.9834 LP  0  0  0  0  0  0  0  0  0  0  0  0  # atno 17395 bound_to 11000

$$$$
