AV-unprocessed.smi:2283|AV-procd|sdf|9199|dock3
  -GOLD-   2272012413D 1   1.00000     0.00000
 Structure written by MMmdl.
 37 38  0  0  0  0  0  0  0  0  1 V2000
  150.2762  137.7808  154.7462 C   0  0  0  0  0  0  0  0  0  0  0  0
  149.5076  139.0465  154.4074 C   0  0  0  0  0  0  0  0  0  0  0  0
  148.3239  138.9317  153.6464 C   0  0  0  0  0  0  0  0  0  0  0  0
  147.5851  140.0754  153.2939 C   0  0  0  0  0  0  0  0  0  0  0  0
  148.0281  141.3467  153.6976 C   0  0  0  0  0  0  0  0  0  0  0  0
  149.2056  141.4707  154.4578 C   0  0  0  0  0  0  0  0  0  0  0  0
  149.9532  140.3283  154.8284 C   0  0  0  0  0  0  0  0  0  0  0  0
  151.2287  140.5093  155.6523 C   0  0  2  0  0  0  0  0  0  0  0  0
  152.3613  140.0039  154.9707 O   0  0  0  0  0  0  0  0  0  0  0  0
  151.1111  139.7890  157.0145 C   0  0  0  0  0  0  0  0  0  0  0  0
  151.6487  140.5931  158.1265 N   0  0  0  0  0  0  0  0  0  0  0  0
  150.8938  141.7164  158.5033 C   0  0  0  0  0  0  0  0  0  0  0  0
  151.2660  142.4936  159.4672 N   0  0  0  0  0  0  0  0  0  0  0  0
  152.4456  142.2216  160.1661 C   0  0  0  0  0  0  0  0  0  0  0  0
  152.7868  143.1936  161.2814 C   0  0  0  0  0  0  0  0  0  0  0  0
  153.2214  141.1483  159.8524 C   0  0  0  0  0  0  0  0  0  0  0  0
  154.5141  140.8004  160.5802 C   0  0  0  0  0  0  0  0  0  0  0  0
  152.8118  140.2565  158.7556 C   0  0  0  0  0  0  0  0  0  0  0  0
  153.4665  139.2679  158.4205 O   0  0  0  0  0  0  0  0  0  0  0  0
  149.8319  136.9055  154.2713 H   0  0  0  0  0  0  0  0  0  0  0  0
  150.2785  137.6093  155.8228 H   0  0  0  0  0  0  0  0  0  0  0  0
  151.3063  137.8553  154.3994 H   0  0  0  0  0  0  0  0  0  0  0  0
  147.9764  137.9608  153.3246 H   0  0  0  0  0  0  0  0  0  0  0  0
  146.6816  139.9773  152.7102 H   0  0  0  0  0  0  0  0  0  0  0  0
  147.4660  142.2273  153.4235 H   0  0  0  0  0  0  0  0  0  0  0  0
  149.5346  142.4559  154.7546 H   0  0  0  0  0  0  0  0  0  0  0  0
  151.4190  141.5700  155.8073 H   0  0  0  0  0  0  0  0  0  0  0  0
  153.1240  140.4744  155.2707 H   0  0  0  0  0  0  0  0  0  0  0  0
  150.0585  139.5847  157.2202 H   0  0  0  0  0  0  0  0  0  0  0  0
  151.5716  138.8000  156.9621 H   0  0  0  0  0  0  0  0  0  0  0  0
  149.9786  141.8810  157.9320 H   0  0  0  0  0  0  0  0  0  0  0  0
  153.7460  143.6746  161.0891 H   0  0  0  0  0  0  0  0  0  0  0  0
  152.8425  142.6730  162.2377 H   0  0  0  0  0  0  0  0  0  0  0  0
  152.0327  143.9765  161.3715 H   0  0  0  0  0  0  0  0  0  0  0  0
  154.4387  139.8077  161.0254 H   0  0  0  0  0  0  0  0  0  0  0  0
  154.7598  141.4991  161.3781 H   0  0  0  0  0  0  0  0  0  0  0  0
  155.3503  140.7947  159.8801 H   0  0  0  0  0  0  0  0  0  0  0  0
  1  2  1  0  0  0  0
  1 20  1  0  0  0  0
  1 21  1  0  0  0  0
  1 22  1  0  0  0  0
  2  7  1  0  0  0  0
  2  3  2  0  0  0  0
  3  4  1  0  0  0  0
  3 23  1  0  0  0  0
  4  5  2  0  0  0  0
  4 24  1  0  0  0  0
  5  6  1  0  0  0  0
  5 25  1  0  0  0  0
  6  7  2  0  0  0  0
  6 26  1  0  0  0  0
  7  8  1  0  0  0  0
  8  9  1  0  0  0  0
  8 10  1  0  0  0  0
  8 27  1  0  0  0  0
  9 28  1  0  0  0  0
 10 11  1  0  0  0  0
 10 29  1  0  0  0  0
 10 30  1  0  0  0  0
 11 18  1  0  0  0  0
 11 12  1  0  0  0  0
 12 13  2  0  0  0  0
 12 31  1  0  0  0  0
 13 14  1  0  0  0  0
 14 15  1  0  0  0  0
 14 16  2  0  0  0  0
 15 32  1  0  0  0  0
 15 33  1  0  0  0  0
 15 34  1  0  0  0  0
 16 17  1  0  0  0  0
 16 18  1  0  0  0  0
 17 35  1  0  0  0  0
 17 36  1  0  0  0  0
 17 37  1  0  0  0  0
 18 19  2  0  0  0  0
M  END
> <s_m_source_file>
AV-unprocessed.smi

> <i_m_source_file_index>
2283

> <i_lp_mmshare_version>
43012

> <i_f3d_flags>
0

> <s_epik_input>
W0NIM11jMVtjSF1bY0hdW2NIXVtjSF1jMVtDQEhdKFtPSF0pW0NIMl1uMltjSF1uYyhbQ0gzXSljKFtDSDNdKWMyPU8=

> <s_epik_cmdline>
J2VwaWtfcHl0aG9uJywgJy1waCcsICc3LjAnLCAnLXRuJywgJzgnLCAnLW1hJywgJzIwMCcsICctbWV0YWxfYmluZGluZycsICctaW1hZScsICc8aW5maWxlLm1hZT4nLCAnLW9tYWUnLCAnPG91dGZpbGUubWFlPic=

> <r_lp_tautomer_probability>
1

> <r_epik_Ionization_Penalty>
5.07259e-05

> <r_epik_Ionization_Penalty_Charging>
7.56727e-08

> <r_epik_Ionization_Penalty_Neutral>
5.06502e-05

> <r_epik_State_Penalty>
-0

> <r_epik_Charging_Adjusted_Penalty>
7.56727e-08

> <i_epik_Tot_Q>
0

> <i_epik_Tot_abs_Q>
0

> <r_epik_Metal_State_Penalty>
-0

> <b_epik_Metal_Only>
0

> <s_lp_Force_Field>
OPLS_2005

> <r_lp_Energy>
20.4761

> <b_lp_Chiralities_Consistent>
1

> <s_lp_Variant>
AV-unprocessed.smi:2283-1

> <Gold.Version>
5.8.1

> <Gold.Id.Protein>
6NUR|6NUR_protein|mol2

> <Gold.PLP.Fitness>
45.2297

> <Gold.PLP.PLP>
-41.5111

> <Gold.PLP.part.hbond>
-2.4586

> <Gold.PLP.part.metal>
0.0000

> <Gold.PLP.part.buried>
-3.7847

> <Gold.PLP.part.nonpolar>
-35.5545

> <Gold.PLP.part.repulsive>
0.0000

> <Gold.PLP.ligand.clash>
0.0000

> <Gold.PLP.ligand.torsion>
0.6932

> <Gold.PLP.Chemscore.Hbond>
1.6992

> <Gold.PLP.Chemscore.CHOScore>
0.0000

> <Gold.PLP.Chemscore.Metal>
0.0000

> <Gold.Chemscore.Hbonds>
donor molecule, donor type, donor heavy atom, donor atom, acceptor molecule, acceptor atom, score
      P1  H  7989  7998       L1     9  0.19
      P1  H  7997  8009       L1    19  1.00

> <Gold.PLP.Chemscore.Internal.Correction>
0.0073

> <Gold.Rescore>
     Score         DG    S(hbond)    S(metal)    S(lipo)     H(rot)  DE(clash)    DE(int)     intcor
     13.80     -15.14       0.92        0.00      97.95       1.91       0.13       1.21       ----

> <Gold.Chemscore.Fitness>
13.7996

> <Gold.Chemscore.DG>
-15.1428

> <Gold.Chemscore.ZeroCoef>
-5.4800

> <Gold.Chemscore.Hbond>
0.9229

> <Gold.Chemscore.Metal>
0.0000

> <Gold.Chemscore.Lipo>
97.9482

> <Gold.Chemscore.Internal_Hbond>
0.0000

> <Gold.Chemscore.DEClash>
0.1341

> <Gold.Chemscore.DEInternal>
1.2091

> <Gold.Chemscore.Rot>
1.9061

> <Gold.Chemscore.Internal.Correction>
   9.000000E+99

> <Gold.Chemscore.Hbonds>
donor molecule, donor type, donor heavy atom, donor atom, acceptor molecule, acceptor atom, score
      P1  H  7997  8009       L1    19  0.30

> <Gold.Chemscore.Hbond.Weighted>
-3.0826

> <Gold.Chemscore.Metal.Weighted>
-0.0000

> <Gold.Chemscore.Lipo.Weighted>
-11.4599

> <Gold.Chemscore.Internal_Hbond.Weighted>
0.0000

> <Gold.Chemscore.DEClash.Weighted>
0.1341

> <Gold.Chemscore.DEInternal.Weighted>
1.2091

> <Gold.Chemscore.Rot.Weighted>
4.8797

> <Gold.Chemscore.Internal.Correction.Weighted>
   9.000000E+99

> <Gold.Protein.RotatedTorsions>
[ 6907 6896 6895 6894 ] final  -11.84 input  -60.11 | X-H torsion
[ 7974 7965 7964 7962 ] final   35.69 input  175.53 | X-H torsion
[ 8008 7997 7996 7995 ] final  155.12 input   59.86 | X-H torsion
[ 10167 10162 10161 10158 ] final   33.01 input  -65.29 | X-H torsion
[ 10718 10713 10712 10709 ] final   -0.60 input   66.30 | X-H torsion
[ 10763 10752 10751 10750 ] final   13.52 input  -60.55 | X-H torsion
[ 11005 11000 10999 10996 ] final  -75.45 input  -57.11 | X-H torsion

> <Gold.Protein.ActiveResidues>
 VAL166  LYS551  ARG553  GLY616  TRP617  ASP618  TYR619  PRO620  LYS621  CYS622 
 ASP623  PHE694  ASN695  SER759  ASP760  ASP761  ALA762  ILE779  LEU786  VAL792 
 PHE793  MET794  SER795  GLU796  ALA797  LYS798  CYS799  TRP800  GLU811  SER814 

> <Gold.Protein.RotatedAtoms>
  151.3799  135.0938  159.9492 H   0  0  0  0  0  0  0  0  0  0  0  0  # atno 6907 bound_to 6896
  152.5111  133.9082  159.7485 H   0  0  0  0  0  0  0  0  0  0  0  0  # atno 6908 bound_to 6896
  150.9513  133.6491  159.2800 H   0  0  0  0  0  0  0  0  0  0  0  0  # atno 6909 bound_to 6896
  146.1265  139.6110  142.9255 H   0  0  0  0  0  0  0  0  0  0  0  0  # atno 7974 bound_to 7965
  156.2495  140.1948  156.6752 H   0  0  0  0  0  0  0  0  0  0  0  0  # atno 8008 bound_to 7997
  154.6363  140.0589  156.9818 H   0  0  0  0  0  0  0  0  0  0  0  0  # atno 8009 bound_to 7997
  155.1633  140.3261  155.4410 H   0  0  0  0  0  0  0  0  0  0  0  0  # atno 8010 bound_to 7997
  140.4446  144.1137  150.6180 H   0  0  0  0  0  0  0  0  0  0  0  0  # atno 10167 bound_to 10162
  156.8180  130.5447  149.5700 H   0  0  0  0  0  0  0  0  0  0  0  0  # atno 10718 bound_to 10713
  153.1713  135.6813  153.8604 H   0  0  0  0  0  0  0  0  0  0  0  0  # atno 10763 bound_to 10752
  153.7967  135.3161  155.3386 H   0  0  0  0  0  0  0  0  0  0  0  0  # atno 10764 bound_to 10752
  154.8000  135.4784  154.0344 H   0  0  0  0  0  0  0  0  0  0  0  0  # atno 10765 bound_to 10752
  141.1645  133.6947  156.7519 H   0  0  0  0  0  0  0  0  0  0  0  0  # atno 11005 bound_to 11000
  145.5355  141.0424  143.2359 LP  0  0  0  0  0  0  0  0  0  0  0  0  # atno 17320 bound_to 7965
  144.7647  139.6873  143.7220 LP  0  0  0  0  0  0  0  0  0  0  0  0  # atno 17321 bound_to 7965
  140.4278  143.2582  151.9634 LP  0  0  0  0  0  0  0  0  0  0  0  0  # atno 17342 bound_to 10162
  139.4792  144.5772  151.7993 LP  0  0  0  0  0  0  0  0  0  0  0  0  # atno 17343 bound_to 10162
  156.1005  130.5965  150.9886 LP  0  0  0  0  0  0  0  0  0  0  0  0  # atno 17370 bound_to 10713
  157.6471  131.0902  150.8129 LP  0  0  0  0  0  0  0  0  0  0  0  0  # atno 17371 bound_to 10713
  140.2597  134.8476  157.3747 LP  0  0  0  0  0  0  0  0  0  0  0  0  # atno 17394 bound_to 11000
  140.1622  134.4714  155.7887 LP  0  0  0  0  0  0  0  0  0  0  0  0  # atno 17395 bound_to 11000

$$$$
