AV-unprocessed.smi:1102|AV-procd|sdf|4768|dock4
  -GOLD-   22720 3303D 1   1.00000     0.00000
 Structure written by MMmdl.
 40 41  0  0  0  0  0  0  0  0  2 V2000
  151.7146  144.2657  157.4752 C   0  0  0  0  0  0  0  0  0  0  0  0
  151.5105  142.8764  157.8704 N   0  0  0  0  0  0  0  0  0  0  0  0
  151.8891  142.4273  159.2037 C   0  0  0  0  0  0  0  0  0  0  0  0
  150.9568  141.9599  156.9505 C   0  0  0  0  0  0  0  0  0  0  0  0
  151.2136  140.5675  156.9920 C   0  0  0  0  0  0  0  0  0  0  0  0
  150.6219  139.7162  156.0365 C   0  0  0  0  0  0  0  0  0  0  0  0
  149.7702  140.2522  155.0481 C   0  0  0  0  0  0  0  0  0  0  0  0
  149.2087  139.3544  154.0993 N   0  0  0  0  0  0  0  0  0  0  0  0
  148.0750  139.4837  153.3886 C   0  0  0  0  0  0  0  0  0  0  0  0
  147.2911  140.4290  153.4653 O   0  0  0  0  0  0  0  0  0  0  0  0
  147.8861  138.4281  152.5844 N   0  0  0  0  0  0  0  0  0  0  0  0
  146.7488  138.2379  151.6892 C   0  0  0  0  0  0  0  0  0  0  0  0
  145.9202  136.9995  152.0708 C   0  0  1  0  0  0  0  0  0  0  0  0
  144.4253  137.2525  152.2701 C   0  0  0  0  0  0  0  0  0  0  0  0
  143.8503  135.8778  152.0190 C   0  0  0  0  0  0  0  0  0  0  0  0
  144.7284  135.3779  150.8755 C   0  0  0  0  0  0  0  0  0  0  0  0
  145.9902  136.0230  151.0351 O   0  0  0  0  0  0  0  0  0  0  0  0
  149.5528  141.6506  155.0418 C   0  0  0  0  0  0  0  0  0  0  0  0
  150.1412  142.4295  155.9753 N   0  3  0  0  0  0  0  0  0  0  0  0
  152.3818  144.3246  156.6146 H   0  0  0  0  0  0  0  0  0  0  0  0
  152.1600  144.8475  158.2824 H   0  0  0  0  0  0  0  0  0  0  0  0
  150.7651  144.7328  157.2116 H   0  0  0  0  0  0  0  0  0  0  0  0
  152.6636  141.6619  159.1451 H   0  0  0  0  0  0  0  0  0  0  0  0
  151.0275  142.0135  159.7285 H   0  0  0  0  0  0  0  0  0  0  0  0
  152.2785  143.2503  159.8032 H   0  0  0  0  0  0  0  0  0  0  0  0
  151.8589  140.1354  157.7422 H   0  0  0  0  0  0  0  0  0  0  0  0
  150.8212  138.6549  156.0687 H   0  0  0  0  0  0  0  0  0  0  0  0
  149.7102  138.4871  153.9741 H   0  0  0  0  0  0  0  0  0  0  0  0
  148.5808  137.6954  152.5907 H   0  0  0  0  0  0  0  0  0  0  0  0
  146.1170  139.1273  151.6590 H   0  0  0  0  0  0  0  0  0  0  0  0
  147.1419  138.1116  150.6804 H   0  0  0  0  0  0  0  0  0  0  0  0
  146.3290  136.5425  152.9736 H   0  0  0  0  0  0  0  0  0  0  0  0
  144.1858  137.6435  153.2593 H   0  0  0  0  0  0  0  0  0  0  0  0
  144.0501  137.9543  151.5238 H   0  0  0  0  0  0  0  0  0  0  0  0
  143.9851  135.2493  152.9003 H   0  0  0  0  0  0  0  0  0  0  0  0
  142.7895  135.8934  151.7677 H   0  0  0  0  0  0  0  0  0  0  0  0
  144.8327  134.2927  150.8774 H   0  0  0  0  0  0  0  0  0  0  0  0
  144.3080  135.6755  149.9141 H   0  0  0  0  0  0  0  0  0  0  0  0
  148.9455  142.1851  154.3275 H   0  0  0  0  0  0  0  0  0  0  0  0
  149.9613  143.4331  155.9415 H   0  0  0  0  0  0  0  0  0  0  0  0
  1  2  1  0  0  0  0
  1 20  1  0  0  0  0
  1 21  1  0  0  0  0
  1 22  1  0  0  0  0
  2  3  1  0  0  0  0
  2  4  1  0  0  0  0
  3 23  1  0  0  0  0
  3 24  1  0  0  0  0
  3 25  1  0  0  0  0
  4 19  1  0  0  0  0
  4  5  2  0  0  0  0
  5  6  1  0  0  0  0
  5 26  1  0  0  0  0
  6  7  2  0  0  0  0
  6 27  1  0  0  0  0
  7  8  1  0  0  0  0
  7 18  1  0  0  0  0
  8  9  1  0  0  0  0
  8 28  1  0  0  0  0
  9 10  2  0  0  0  0
  9 11  1  0  0  0  0
 11 12  1  0  0  0  0
 11 29  1  0  0  0  0
 12 13  1  0  0  0  0
 12 30  1  0  0  0  0
 12 31  1  0  0  0  0
 13 17  1  0  0  0  0
 13 14  1  0  0  0  0
 13 32  1  0  0  0  0
 14 15  1  0  0  0  0
 14 33  1  0  0  0  0
 14 34  1  0  0  0  0
 15 16  1  0  0  0  0
 15 35  1  0  0  0  0
 15 36  1  0  0  0  0
 16 17  1  0  0  0  0
 16 37  1  0  0  0  0
 16 38  1  0  0  0  0
 18 19  2  0  0  0  0
 18 39  1  0  0  0  0
 19 40  1  0  0  0  0
M  CHG  1  19   1
M  END
> <s_m_source_file>
AV-unprocessed.smi

> <i_m_source_file_index>
1102

> <i_lp_mmshare_version>
43012

> <i_f3d_flags>
0

> <s_epik_input>
W0NIM11OKFtDSDNdKWMxW2NIXVtjSF1jKFtjSF1uMSlbTkhdQyg9TylbTkhdW0NIMl1bQ0BASF0yW0NIMl1bQ0gyXVtDSDJdTzI=

> <s_epik_cmdline>
J2VwaWtfcHl0aG9uJywgJy1waCcsICc3LjAnLCAnLXRuJywgJzgnLCAnLW1hJywgJzIwMCcsICctbWV0YWxfYmluZGluZycsICctaW1hZScsICc8aW5maWxlLm1hZT4nLCAnLW9tYWUnLCAnPG91dGZpbGUubWFlPic=

> <r_lp_tautomer_probability>
0.999994

> <r_epik_Ionization_Penalty>
0.265123

> <r_epik_Ionization_Penalty_Charging>
0.265104

> <r_epik_Ionization_Penalty_Neutral>
1.89079e-05

> <r_epik_State_Penalty>
0.257001

> <r_epik_Charging_Adjusted_Penalty>
0.522106

> <i_epik_Tot_Q>
1

> <i_epik_Tot_abs_Q>
1

> <r_epik_Metal_State_Penalty>
0.543599

> <b_epik_Metal_Only>
0

> <s_lp_Force_Field>
OPLS_2005

> <r_lp_Energy>
27.717

> <b_lp_Chiralities_Consistent>
1

> <s_lp_Variant>
AV-unprocessed.smi:1102-2

> <Gold.Version>
5.8.1

> <Gold.Id.Protein>
6NUR|6NUR_protein|mol2

> <Gold.PLP.Fitness>
45.0647

> <Gold.PLP.PLP>
-38.6813

> <Gold.PLP.part.hbond>
-4.0000

> <Gold.PLP.part.metal>
0.0000

> <Gold.PLP.part.buried>
0.2561

> <Gold.PLP.part.nonpolar>
-35.6504

> <Gold.PLP.part.repulsive>
0.7311

> <Gold.PLP.ligand.clash>
0.0000

> <Gold.PLP.ligand.torsion>
1.1809

> <Gold.PLP.Chemscore.Hbond>
2.9120

> <Gold.PLP.Chemscore.CHOScore>
0.0000

> <Gold.PLP.Chemscore.Metal>
0.0000

> <Gold.Chemscore.Hbonds>
donor molecule, donor type, donor heavy atom, donor atom, acceptor molecule, acceptor atom, score
      L1  H    11    29       P1  7948  0.83
      L1  H    19    40       P1  8028  2.00

> <Gold.PLP.Chemscore.Internal.Correction>
0.0092

> <Gold.Rescore>
     Score         DG    S(hbond)    S(metal)    S(lipo)     H(rot)  DE(clash)    DE(int)     intcor
     16.18     -17.61       1.92        0.00      75.61       1.23       0.04       1.39       ----

> <Gold.Chemscore.Fitness>
16.1815

> <Gold.Chemscore.DG>
-17.6059

> <Gold.Chemscore.ZeroCoef>
-5.4800

> <Gold.Chemscore.Hbond>
1.9222

> <Gold.Chemscore.Metal>
0.0000

> <Gold.Chemscore.Lipo>
75.6094

> <Gold.Chemscore.Internal_Hbond>
0.0000

> <Gold.Chemscore.DEClash>
0.0369

> <Gold.Chemscore.DEInternal>
1.3875

> <Gold.Chemscore.Rot>
1.2268

> <Gold.Chemscore.Internal.Correction>
   9.000000E+99

> <Gold.Chemscore.Hbonds>
donor molecule, donor type, donor heavy atom, donor atom, acceptor molecule, acceptor atom, score
      L1  H    11    29       P1  7948  0.83
      L1  H    19    40       P1  8028  0.94

> <Gold.Chemscore.Hbond.Weighted>
-6.4202

> <Gold.Chemscore.Metal.Weighted>
-0.0000

> <Gold.Chemscore.Lipo.Weighted>
-8.8463

> <Gold.Chemscore.Internal_Hbond.Weighted>
0.0000

> <Gold.Chemscore.DEClash.Weighted>
0.0369

> <Gold.Chemscore.DEInternal.Weighted>
1.3875

> <Gold.Chemscore.Rot.Weighted>
3.1406

> <Gold.Chemscore.Internal.Correction.Weighted>
   9.000000E+99

> <Gold.Protein.RotatedTorsions>
[ 6907 6896 6895 6894 ] final   16.36 input  -60.11 | X-H torsion
[ 7974 7965 7964 7962 ] final -128.72 input  175.53 | X-H torsion
[ 8008 7997 7996 7995 ] final   18.77 input   59.86 | X-H torsion
[ 10167 10162 10161 10158 ] final   86.86 input  -65.29 | X-H torsion
[ 10718 10713 10712 10709 ] final  109.98 input   66.30 | X-H torsion
[ 10763 10752 10751 10750 ] final -173.32 input  -60.55 | X-H torsion
[ 11005 11000 10999 10996 ] final   78.51 input  -57.11 | X-H torsion

> <Gold.Protein.ActiveResidues>
 VAL166  LYS551  ARG553  GLY616  TRP617  ASP618  TYR619  PRO620  LYS621  CYS622 
 ASP623  PHE694  ASN695  SER759  ASP760  ASP761  ALA762  ILE779  LEU786  VAL792 
 PHE793  MET794  SER795  GLU796  ALA797  LYS798  CYS799  TRP800  GLU811  SER814 

> <Gold.Protein.RotatedAtoms>
  151.8327  135.0616  160.0438 H   0  0  0  0  0  0  0  0  0  0  0  0  # atno 6907 bound_to 6896
  152.2868  133.5519  159.5541 H   0  0  0  0  0  0  0  0  0  0  0  0  # atno 6908 bound_to 6896
  150.7213  134.0401  159.3805 H   0  0  0  0  0  0  0  0  0  0  0  0  # atno 6909 bound_to 6896
  144.9642  140.7479  143.4710 H   0  0  0  0  0  0  0  0  0  0  0  0  # atno 7974 bound_to 7965
  154.9109  140.3014  155.5267 H   0  0  0  0  0  0  0  0  0  0  0  0  # atno 8008 bound_to 7997
  156.3015  140.2389  156.4083 H   0  0  0  0  0  0  0  0  0  0  0  0  # atno 8009 bound_to 7997
  154.8427  140.0413  157.1541 H   0  0  0  0  0  0  0  0  0  0  0  0  # atno 8010 bound_to 7997
  139.8832  144.6428  150.8820 H   0  0  0  0  0  0  0  0  0  0  0  0  # atno 10167 bound_to 10162
  157.6516  131.0924  150.6534 H   0  0  0  0  0  0  0  0  0  0  0  0  # atno 10718 bound_to 10713
  154.6092  135.2862  155.0451 H   0  0  0  0  0  0  0  0  0  0  0  0  # atno 10763 bound_to 10752
  154.1688  135.6476  153.5008 H   0  0  0  0  0  0  0  0  0  0  0  0  # atno 10764 bound_to 10752
  153.0188  135.5396  154.6839 H   0  0  0  0  0  0  0  0  0  0  0  0  # atno 10765 bound_to 10752
  139.9209  134.7769  156.1659 H   0  0  0  0  0  0  0  0  0  0  0  0  # atno 11005 bound_to 11000
  145.2654  139.1975  143.4870 LP  0  0  0  0  0  0  0  0  0  0  0  0  # atno 17320 bound_to 7965
  146.3362  140.2591  142.8601 LP  0  0  0  0  0  0  0  0  0  0  0  0  # atno 17321 bound_to 7965
  140.7740  143.3569  151.1904 LP  0  0  0  0  0  0  0  0  0  0  0  0  # atno 17342 bound_to 10162
  139.7177  143.9274  152.2973 LP  0  0  0  0  0  0  0  0  0  0  0  0  # atno 17343 bound_to 10162
  156.6844  130.4576  149.5618 LP  0  0  0  0  0  0  0  0  0  0  0  0  # atno 17370 bound_to 10713
  156.1906  130.6557  151.1057 LP  0  0  0  0  0  0  0  0  0  0  0  0  # atno 17371 bound_to 10713
  141.0729  133.6788  156.2178 LP  0  0  0  0  0  0  0  0  0  0  0  0  # atno 17394 bound_to 11000
  140.6476  134.5100  157.5575 LP  0  0  0  0  0  0  0  0  0  0  0  0  # atno 17395 bound_to 11000

$$$$
