AV-unprocessed.smi:72|AV-procd|sdf|752|dock1
  -GOLD-   2262017 83D 1   1.00000     0.00000
 Structure written by MMmdl.
 29 30  0  0  0  0  0  0  0  0  1 V2000
  148.2596  136.1566  160.5928 N   0  0  0  0  0  0  0  0  0  0  0  0
  148.5478  136.3477  159.2581 C   0  0  0  0  0  0  0  0  0  0  0  0
  147.7183  137.2377  158.5633 N   0  0  0  0  0  0  0  0  0  0  0  0
  147.9944  137.4324  157.3129 C   0  0  0  0  0  0  0  0  0  0  0  0
  149.1283  136.7797  156.6756 N   0  0  0  0  0  0  0  0  0  0  0  0
  149.4649  136.9645  155.2028 C   0  0  1  0  0  0  0  0  0  0  0  0
  148.5985  137.8899  154.6169 O   0  0  0  0  0  0  0  0  0  0  0  0
  149.1839  139.1854  154.6596 C   0  0  2  0  0  0  0  0  0  0  0  0
  148.5048  140.1018  153.6311 C   0  0  0  0  0  0  0  0  0  0  0  0
  149.2211  141.3131  153.5185 O   0  0  0  0  0  0  0  0  0  0  0  0
  150.6492  138.8827  154.3427 C   0  0  1  0  0  0  0  0  0  0  0  0
  151.4871  139.8741  154.9019 O   0  0  0  0  0  0  0  0  0  0  0  0
  150.8905  137.5311  155.0138 C   0  0  2  0  0  0  0  0  0  0  0  0
  151.6710  136.7047  154.1745 O   0  0  0  0  0  0  0  0  0  0  0  0
  149.8927  135.8469  157.4321 C   0  0  0  0  0  0  0  0  0  0  0  0
  150.8101  135.2229  156.8988 O   0  0  0  0  0  0  0  0  0  0  0  0
  149.5575  135.6794  158.7806 N   0  0  0  0  0  0  0  0  0  0  0  0
  149.3069  135.9791  154.7605 H   0  0  0  0  0  0  0  0  0  0  0  0
  149.1033  139.6008  155.6661 H   0  0  0  0  0  0  0  0  0  0  0  0
  150.7972  138.8199  153.2631 H   0  0  0  0  0  0  0  0  0  0  0  0
  151.3820  137.6485  155.9810 H   0  0  0  0  0  0  0  0  0  0  0  0
  148.7867  135.5375  161.1915 H   0  0  0  0  0  0  0  0  0  0  0  0
  147.4978  136.6173  161.0687 H   0  0  0  0  0  0  0  0  0  0  0  0
  147.3972  138.0861  156.6773 H   0  0  0  0  0  0  0  0  0  0  0  0
  148.5066  139.6284  152.6487 H   0  0  0  0  0  0  0  0  0  0  0  0
  147.4654  140.2966  153.8961 H   0  0  0  0  0  0  0  0  0  0  0  0
  149.7614  141.4158  154.2869 H   0  0  0  0  0  0  0  0  0  0  0  0
  151.0562  140.2352  155.6617 H   0  0  0  0  0  0  0  0  0  0  0  0
  151.1886  136.5456  153.3776 H   0  0  0  0  0  0  0  0  0  0  0  0
  1  2  1  0  0  0  0
  1 22  1  0  0  0  0
  1 23  1  0  0  0  0
  2 17  2  0  0  0  0
  2  3  1  0  0  0  0
  3  4  2  0  0  0  0
  4  5  1  0  0  0  0
  4 24  1  0  0  0  0
  5  6  1  0  0  0  0
  5 15  1  0  0  0  0
  6 18  1  0  0  0  0
  6 13  1  0  0  0  0
  6  7  1  0  0  0  0
  7  8  1  0  0  0  0
  8 19  1  0  0  0  0
  8  9  1  0  0  0  0
  8 11  1  0  0  0  0
  9 10  1  0  0  0  0
  9 25  1  0  0  0  0
  9 26  1  0  0  0  0
 10 27  1  0  0  0  0
 11 20  1  0  0  0  0
 11 12  1  0  0  0  0
 11 13  1  0  0  0  0
 12 28  1  0  0  0  0
 13 21  1  0  0  0  0
 13 14  1  0  0  0  0
 14 29  1  0  0  0  0
 15 16  2  0  0  0  0
 15 17  1  0  0  0  0
M  END
> <s_m_source_file>
AV-unprocessed.smi

> <i_m_source_file_index>
72

> <i_lp_mmshare_version>
43012

> <i_f3d_flags>
0

> <s_epik_input>
W05IMl1jMW5bY0hdbihjKD1PKW4xKVtDQEBIXTJPW0NASF0oW0NIMl1bT0hdKVtDQEBIXShbT0hdKVtDQEhdMltPSF0=

> <s_epik_cmdline>
J2VwaWtfcHl0aG9uJywgJy1waCcsICc3LjAnLCAnLXRuJywgJzgnLCAnLW1hJywgJzIwMCcsICctbWV0YWxfYmluZGluZycsICctaW1hZScsICc8aW5maWxlLm1hZT4nLCAnLW9tYWUnLCAnPG91dGZpbGUubWFlPic=

> <r_lp_tautomer_probability>
4.77166e-05

> <r_epik_Ionization_Penalty>
1.3546

> <r_epik_Ionization_Penalty_Charging>
1.46833e-10

> <r_epik_Ionization_Penalty_Neutral>
1.3546

> <r_epik_State_Penalty>
3.51908

> <r_epik_Charging_Adjusted_Penalty>
3.51908

> <i_epik_Tot_Q>
0

> <i_epik_Tot_abs_Q>
0

> <r_epik_Metal_State_Penalty>
3.44088

> <b_epik_Metal_Only>
1

> <s_epik_Chemistry_Notes>
This compound contains an acetal/aminal-like group ( X-CH(R)-Y where X, Y are N, S, or O) that may be acid/base labile, releasing an aldehyde.

> <s_lp_Force_Field>
OPLS_2005

> <r_lp_Energy>
23.1081

> <b_lp_Chiralities_Consistent>
1

> <s_lp_Variant>
AV-unprocessed.smi:72-90

> <Gold.Version>
5.8.1

> <Gold.Id.Protein>
6NUR|6NUR_protein|mol2

> <Gold.PLP.Fitness>
35.9890

> <Gold.PLP.PLP>
-21.1976

> <Gold.PLP.part.hbond>
-7.4654

> <Gold.PLP.part.metal>
0.0000

> <Gold.PLP.part.buried>
-2.9509

> <Gold.PLP.part.nonpolar>
-11.9014

> <Gold.PLP.part.repulsive>
0.3631

> <Gold.PLP.ligand.clash>
0.0000

> <Gold.PLP.ligand.torsion>
0.0409

> <Gold.PLP.Chemscore.Hbond>
4.9435

> <Gold.PLP.Chemscore.CHOScore>
0.0000

> <Gold.PLP.Chemscore.Metal>
0.0000

> <Gold.Chemscore.Hbonds>
donor molecule, donor type, donor heavy atom, donor atom, acceptor molecule, acceptor atom, score
      L1  H    14    29       P1  7949  0.99
      P1  H  6896  6907       L1    17  1.00
      P1  H  7989  7998       L1    12  0.90
      P1  H  8011  8017       L1    10  0.94
      P1  H 10752 10764       L1    14  1.00

> <Gold.PLP.Chemscore.Internal.Correction>
0.0428

> <Gold.Rescore>
     Score         DG    S(hbond)    S(metal)    S(lipo)     H(rot)  DE(clash)    DE(int)     intcor
      6.45      -9.08       3.15        0.00      29.66       4.06       1.54       1.08       ----

> <Gold.Chemscore.Fitness>
6.4534

> <Gold.Chemscore.DG>
-9.0768

> <Gold.Chemscore.ZeroCoef>
-5.4800

> <Gold.Chemscore.Hbond>
3.1496

> <Gold.Chemscore.Metal>
0.0000

> <Gold.Chemscore.Lipo>
29.6646

> <Gold.Chemscore.Internal_Hbond>
0.0000

> <Gold.Chemscore.DEClash>
1.5447

> <Gold.Chemscore.DEInternal>
1.0787

> <Gold.Chemscore.Rot>
4.0600

> <Gold.Chemscore.Internal.Correction>
   9.000000E+99

> <Gold.Chemscore.Hbonds>
donor molecule, donor type, donor heavy atom, donor atom, acceptor molecule, acceptor atom, score
      L1  H    14    29       P1  7949  0.46
      P1  H  6896  6907       L1    17  0.70
      P1  H  7989  7998       L1    12  0.17
      P1  H  8011  8017       L1    10  0.59
      P1  H 10752 10764       L1    14  0.50

> <Gold.Chemscore.Hbond.Weighted>
-10.5196

> <Gold.Chemscore.Metal.Weighted>
-0.0000

> <Gold.Chemscore.Lipo.Weighted>
-3.4708

> <Gold.Chemscore.Internal_Hbond.Weighted>
0.0000

> <Gold.Chemscore.DEClash.Weighted>
1.5447

> <Gold.Chemscore.DEInternal.Weighted>
1.0787

> <Gold.Chemscore.Rot.Weighted>
10.3936

> <Gold.Chemscore.Internal.Correction.Weighted>
   9.000000E+99

> <Gold.Protein.RotatedTorsions>
[ 6907 6896 6895 6894 ] final  -75.70 input  -60.11 | X-H torsion
[ 7974 7965 7964 7962 ] final   63.90 input  175.53 | X-H torsion
[ 8008 7997 7996 7995 ] final   62.13 input   59.86 | X-H torsion
[ 10167 10162 10161 10158 ] final -130.81 input  -65.29 | X-H torsion
[ 10718 10713 10712 10709 ] final  -29.06 input   66.30 | X-H torsion
[ 10763 10752 10751 10750 ] final  -91.04 input  -60.55 | X-H torsion
[ 11005 11000 10999 10996 ] final -113.64 input  -57.11 | X-H torsion

> <Gold.Protein.ActiveResidues>
 VAL166  LYS551  ARG553  GLY616  TRP617  ASP618  TYR619  PRO620  LYS621  CYS622 
 ASP623  PHE694  ASN695  SER759  ASP760  ASP761  ALA762  ILE779  LEU786  VAL792 
 PHE793  MET794  SER795  GLU796  ALA797  LYS798  CYS799  TRP800  GLU811  SER814 

> <Gold.Protein.RotatedAtoms>
  150.7050  134.4681  159.5412 H   0  0  0  0  0  0  0  0  0  0  0  0  # atno 6907 bound_to 6896
  152.2343  134.8289  160.0478 H   0  0  0  0  0  0  0  0  0  0  0  0  # atno 6908 bound_to 6896
  151.9093  133.3522  159.3895 H   0  0  0  0  0  0  0  0  0  0  0  0  # atno 6909 bound_to 6896
  145.8564  139.3287  143.0845 H   0  0  0  0  0  0  0  0  0  0  0  0  # atno 7974 bound_to 7965
  155.6094  140.3495  155.4618 H   0  0  0  0  0  0  0  0  0  0  0  0  # atno 8008 bound_to 7997
  156.0166  140.1244  157.0425 H   0  0  0  0  0  0  0  0  0  0  0  0  # atno 8009 bound_to 7997
  154.4300  140.1071  156.5890 H   0  0  0  0  0  0  0  0  0  0  0  0  # atno 8010 bound_to 7997
  139.9255  143.6333  152.2543 H   0  0  0  0  0  0  0  0  0  0  0  0  # atno 10167 bound_to 10162
  156.4173  130.4419  149.7209 H   0  0  0  0  0  0  0  0  0  0  0  0  # atno 10718 bound_to 10713
  154.6719  135.5282  153.8150 H   0  0  0  0  0  0  0  0  0  0  0  0  # atno 10763 bound_to 10752
  153.0507  135.6531  154.0711 H   0  0  0  0  0  0  0  0  0  0  0  0  # atno 10764 bound_to 10752
  154.0609  135.2962  155.3305 H   0  0  0  0  0  0  0  0  0  0  0  0  # atno 10765 bound_to 10752
  141.0602  133.9548  157.2681 H   0  0  0  0  0  0  0  0  0  0  0  0  # atno 11005 bound_to 11000
  145.9298  140.9056  143.0362 LP  0  0  0  0  0  0  0  0  0  0  0  0  # atno 17320 bound_to 7965
  144.6727  140.1403  143.7437 LP  0  0  0  0  0  0  0  0  0  0  0  0  # atno 17321 bound_to 7965
  139.6826  144.7654  151.1581 LP  0  0  0  0  0  0  0  0  0  0  0  0  # atno 17342 bound_to 10162
  140.7651  143.5703  150.9003 LP  0  0  0  0  0  0  0  0  0  0  0  0  # atno 17343 bound_to 10162
  156.4164  130.7747  151.2763 LP  0  0  0  0  0  0  0  0  0  0  0  0  # atno 17370 bound_to 10713
  157.7508  131.0196  150.3673 LP  0  0  0  0  0  0  0  0  0  0  0  0  # atno 17371 bound_to 10713
  139.9426  135.0189  156.8754 LP  0  0  0  0  0  0  0  0  0  0  0  0  # atno 17394 bound_to 11000
  140.5884  134.0285  155.7490 LP  0  0  0  0  0  0  0  0  0  0  0  0  # atno 17395 bound_to 11000

$$$$
