AV-unprocessed.smi:1730|AV-procd|sdf|6973|dock1
  -GOLD-   22720 8183D 1   1.00000     0.00000
 Structure written by MMmdl.
 38 39  0  0  0  0  0  0  0  0  1 V2000
  151.5528  138.1565  154.7146 C   0  0  0  0  0  0  0  0  0  0  0  0
  150.2397  138.1185  154.1660 O   0  0  0  0  0  0  0  0  0  0  0  0
  149.4528  139.2507  154.2595 C   0  0  0  0  0  0  0  0  0  0  0  0
  150.0254  140.4002  154.6977 N   0  0  0  0  0  0  0  0  0  0  0  0
  149.2601  141.5075  154.7835 C   0  0  0  0  0  0  0  0  0  0  0  0
  147.8972  141.5312  154.4356 C   0  0  0  0  0  0  0  0  0  0  0  0
  147.3003  140.3401  153.9828 C   0  0  0  0  0  0  0  0  0  0  0  0
  148.0874  139.1659  153.8998 C   0  0  0  0  0  0  0  0  0  0  0  0
  147.5903  137.9183  153.4325 N   0  0  0  0  0  0  0  0  0  0  0  0
  146.3277  137.4598  153.4535 C   0  0  0  0  0  0  0  0  0  0  0  0
  145.3630  138.0566  153.9309 O   0  0  0  0  0  0  0  0  0  0  0  0
  146.2511  136.2391  152.9036 N   0  0  0  0  0  0  0  0  0  0  0  0
  145.0401  135.4314  152.7687 C   0  0  1  0  0  0  0  0  0  0  0  0
  144.0489  136.1734  151.8604 C   0  0  0  0  0  0  0  0  0  0  0  0
  145.3883  134.0346  152.2170 C   0  0  1  0  0  0  0  0  0  0  0  0
  144.1989  133.2314  151.6889 C   0  0  0  0  0  0  0  0  0  0  0  0
  144.8365  132.2581  150.7109 C   0  0  0  0  0  0  0  0  0  0  0  0
  146.2131  132.8655  150.4251 C   0  0  0  0  0  0  0  0  0  0  0  0
  146.2037  134.1368  151.0605 O   0  0  0  0  0  0  0  0  0  0  0  0
  152.0356  137.1917  154.5607 H   0  0  0  0  0  0  0  0  0  0  0  0
  151.5305  138.3468  155.7886 H   0  0  0  0  0  0  0  0  0  0  0  0
  152.1676  138.9153  154.2283 H   0  0  0  0  0  0  0  0  0  0  0  0
  149.7511  142.4037  155.1328 H   0  0  0  0  0  0  0  0  0  0  0  0
  147.3240  142.4436  154.5091 H   0  0  0  0  0  0  0  0  0  0  0  0
  146.2608  140.3544  153.6938 H   0  0  0  0  0  0  0  0  0  0  0  0
  148.2917  137.2738  153.0976 H   0  0  0  0  0  0  0  0  0  0  0  0
  147.1027  135.8310  152.5469 H   0  0  0  0  0  0  0  0  0  0  0  0
  144.5632  135.3082  153.7428 H   0  0  0  0  0  0  0  0  0  0  0  0
  143.1151  135.6193  151.7621 H   0  0  0  0  0  0  0  0  0  0  0  0
  144.4569  136.3173  150.8592 H   0  0  0  0  0  0  0  0  0  0  0  0
  143.8049  137.1557  152.2661 H   0  0  0  0  0  0  0  0  0  0  0  0
  145.9202  133.4507  152.9711 H   0  0  0  0  0  0  0  0  0  0  0  0
  143.6398  132.7315  152.4805 H   0  0  0  0  0  0  0  0  0  0  0  0
  143.5107  133.8878  151.1543 H   0  0  0  0  0  0  0  0  0  0  0  0
  144.9422  131.2665  151.1521 H   0  0  0  0  0  0  0  0  0  0  0  0
  144.2368  132.1611  149.8052 H   0  0  0  0  0  0  0  0  0  0  0  0
  147.0014  132.2516  150.8632 H   0  0  0  0  0  0  0  0  0  0  0  0
  146.4129  132.9653  149.3581 H   0  0  0  0  0  0  0  0  0  0  0  0
  1  2  1  0  0  0  0
  1 20  1  0  0  0  0
  1 21  1  0  0  0  0
  1 22  1  0  0  0  0
  2  3  1  0  0  0  0
  3  8  1  0  0  0  0
  3  4  2  0  0  0  0
  4  5  1  0  0  0  0
  5  6  2  0  0  0  0
  5 23  1  0  0  0  0
  6  7  1  0  0  0  0
  6 24  1  0  0  0  0
  7  8  2  0  0  0  0
  7 25  1  0  0  0  0
  8  9  1  0  0  0  0
  9 10  1  0  0  0  0
  9 26  1  0  0  0  0
 10 11  2  0  0  0  0
 10 12  1  0  0  0  0
 12 13  1  0  0  0  0
 12 27  1  0  0  0  0
 13 14  1  0  0  0  0
 13 15  1  0  0  0  0
 13 28  1  0  0  0  0
 14 29  1  0  0  0  0
 14 30  1  0  0  0  0
 14 31  1  0  0  0  0
 15 19  1  0  0  0  0
 15 16  1  0  0  0  0
 15 32  1  0  0  0  0
 16 17  1  0  0  0  0
 16 33  1  0  0  0  0
 16 34  1  0  0  0  0
 17 18  1  0  0  0  0
 17 35  1  0  0  0  0
 17 36  1  0  0  0  0
 18 19  1  0  0  0  0
 18 37  1  0  0  0  0
 18 38  1  0  0  0  0
M  END
> <s_m_source_file>
AV-unprocessed.smi

> <i_m_source_file_index>
1730

> <i_lp_mmshare_version>
43012

> <i_f3d_flags>
0

> <s_epik_input>
W0NIM11PYzFuW2NIXVtjSF1bY0hdYzFbTkhdQyg9TylbTkhdW0NASF0oW0NIM10pW0NAQEhdMltDSDJdW0NIMl1bQ0gyXU8y

> <s_epik_cmdline>
J2VwaWtfcHl0aG9uJywgJy1waCcsICc3LjAnLCAnLXRuJywgJzgnLCAnLW1hJywgJzIwMCcsICctbWV0YWxfYmluZGluZycsICctaW1hZScsICc8aW5maWxlLm1hZT4nLCAnLW9tYWUnLCAnPG91dGZpbGUubWFlPic=

> <r_lp_tautomer_probability>
1

> <r_epik_Ionization_Penalty>
9.187e-05

> <r_epik_Ionization_Penalty_Charging>
0

> <r_epik_Ionization_Penalty_Neutral>
9.187e-05

> <r_epik_State_Penalty>
-0

> <r_epik_Charging_Adjusted_Penalty>
0

> <i_epik_Tot_Q>
0

> <i_epik_Tot_abs_Q>
0

> <r_epik_Metal_State_Penalty>
-0

> <b_epik_Metal_Only>
0

> <s_lp_Force_Field>
OPLS_2005

> <r_lp_Energy>
20.9295

> <b_lp_Chiralities_Consistent>
1

> <s_lp_Variant>
AV-unprocessed.smi:1730-4

> <Gold.Version>
5.8.1

> <Gold.Id.Protein>
6NUR|6NUR_protein|mol2

> <Gold.PLP.Fitness>
41.3416

> <Gold.PLP.PLP>
-30.5756

> <Gold.PLP.part.hbond>
-3.0000

> <Gold.PLP.part.metal>
0.0000

> <Gold.PLP.part.buried>
-4.1648

> <Gold.PLP.part.nonpolar>
-24.6542

> <Gold.PLP.part.repulsive>
0.7276

> <Gold.PLP.ligand.clash>
0.0000

> <Gold.PLP.ligand.torsion>
0.4155

> <Gold.PLP.Chemscore.Hbond>
2.8560

> <Gold.PLP.Chemscore.CHOScore>
0.9960

> <Gold.PLP.Chemscore.Metal>
0.0000

> <Gold.Chemscore.Hbonds>
donor molecule, donor type, donor heavy atom, donor atom, acceptor molecule, acceptor atom, score
      L1  H     9    26       P1  7948  1.00
      L1  H    12    27       P1  7948  0.91
      P1  H  7989  7998       L1     4  0.89
      L1  C     5    23       P1  8028  1.00

> <Gold.PLP.Chemscore.Internal.Correction>
0.0411

> <Gold.Rescore>
     Score         DG    S(hbond)    S(metal)    S(lipo)     H(rot)  DE(clash)    DE(int)     intcor
     16.43     -17.98       2.35        0.00      71.80       1.47       0.15       1.40       ----

> <Gold.Chemscore.Fitness>
16.4323

> <Gold.Chemscore.DG>
-17.9846

> <Gold.Chemscore.ZeroCoef>
-5.4800

> <Gold.Chemscore.Hbond>
2.3550

> <Gold.Chemscore.Metal>
0.0000

> <Gold.Chemscore.Lipo>
71.7969

> <Gold.Chemscore.Internal_Hbond>
0.0000

> <Gold.Chemscore.DEClash>
0.1547

> <Gold.Chemscore.DEInternal>
1.3976

> <Gold.Chemscore.Rot>
1.4693

> <Gold.Chemscore.Internal.Correction>
   9.000000E+99

> <Gold.Chemscore.Hbonds>
donor molecule, donor type, donor heavy atom, donor atom, acceptor molecule, acceptor atom, score
      L1  H     9    26       P1  7948  0.96
      L1  H    12    27       P1  7948  0.85
      P1  H  7989  7998       L1     4  0.34

> <Gold.Chemscore.Hbond.Weighted>
-7.8657

> <Gold.Chemscore.Metal.Weighted>
-0.0000

> <Gold.Chemscore.Lipo.Weighted>
-8.4002

> <Gold.Chemscore.Internal_Hbond.Weighted>
0.0000

> <Gold.Chemscore.DEClash.Weighted>
0.1547

> <Gold.Chemscore.DEInternal.Weighted>
1.3976

> <Gold.Chemscore.Rot.Weighted>
3.7613

> <Gold.Chemscore.Internal.Correction.Weighted>
   9.000000E+99

> <Gold.Protein.RotatedTorsions>
[ 6907 6896 6895 6894 ] final  140.01 input  -60.11 | X-H torsion
[ 7974 7965 7964 7962 ] final   -5.54 input  175.53 | X-H torsion
[ 8008 7997 7996 7995 ] final  175.36 input   59.86 | X-H torsion
[ 10167 10162 10161 10158 ] final  174.96 input  -65.29 | X-H torsion
[ 10718 10713 10712 10709 ] final  -41.53 input   66.30 | X-H torsion
[ 10763 10752 10751 10750 ] final -170.63 input  -60.55 | X-H torsion
[ 11005 11000 10999 10996 ] final   12.55 input  -57.11 | X-H torsion

> <Gold.Protein.ActiveResidues>
 VAL166  LYS551  ARG553  GLY616  TRP617  ASP618  TYR619  PRO620  LYS621  CYS622 
 ASP623  PHE694  ASN695  SER759  ASP760  ASP761  ALA762  ILE779  LEU786  VAL792 
 PHE793  MET794  SER795  GLU796  ALA797  LYS798  CYS799  TRP800  GLU811  SER814 

> <Gold.Protein.RotatedAtoms>
  152.2481  133.5192  159.5309 H   0  0  0  0  0  0  0  0  0  0  0  0  # atno 6907 bound_to 6896
  150.7085  134.0997  159.3970 H   0  0  0  0  0  0  0  0  0  0  0  0  # atno 6908 bound_to 6896
  151.8917  135.0414  160.0549 H   0  0  0  0  0  0  0  0  0  0  0  0  # atno 6909 bound_to 6896
  146.2350  140.2037  142.8334 H   0  0  0  0  0  0  0  0  0  0  0  0  # atno 7974 bound_to 7965
  156.0878  140.1411  156.9630 H   0  0  0  0  0  0  0  0  0  0  0  0  # atno 8008 bound_to 7997
  154.4623  140.0938  156.6975 H   0  0  0  0  0  0  0  0  0  0  0  0  # atno 8009 bound_to 7997
  155.4969  140.3450  155.4366 H   0  0  0  0  0  0  0  0  0  0  0  0  # atno 8010 bound_to 7997
  139.5160  144.3086  152.0312 H   0  0  0  0  0  0  0  0  0  0  0  0  # atno 10167 bound_to 10162
  156.2694  130.4205  149.8454 H   0  0  0  0  0  0  0  0  0  0  0  0  # atno 10718 bound_to 10713
  154.6394  135.2896  155.0121 H   0  0  0  0  0  0  0  0  0  0  0  0  # atno 10763 bound_to 10752
  154.1253  135.6542  153.4915 H   0  0  0  0  0  0  0  0  0  0  0  0  # atno 10764 bound_to 10752
  153.0319  135.5297  154.7255 H   0  0  0  0  0  0  0  0  0  0  0  0  # atno 10765 bound_to 10752
  140.4907  134.0843  155.7771 H   0  0  0  0  0  0  0  0  0  0  0  0  # atno 11005 bound_to 11000
  144.9762  140.8415  143.5425 LP  0  0  0  0  0  0  0  0  0  0  0  0  # atno 17320 bound_to 7965
  145.2024  139.2245  143.5186 LP  0  0  0  0  0  0  0  0  0  0  0  0  # atno 17321 bound_to 7965
  140.2531  144.4147  150.6214 LP  0  0  0  0  0  0  0  0  0  0  0  0  # atno 17342 bound_to 10162
  140.6210  143.2176  151.6694 LP  0  0  0  0  0  0  0  0  0  0  0  0  # atno 17343 bound_to 10162
  156.5941  130.8519  151.3415 LP  0  0  0  0  0  0  0  0  0  0  0  0  # atno 17370 bound_to 10713
  157.7278  130.9649  150.1717 LP  0  0  0  0  0  0  0  0  0  0  0  0  # atno 17371 bound_to 10713
  141.1485  133.9011  157.2156 LP  0  0  0  0  0  0  0  0  0  0  0  0  # atno 17394 bound_to 11000
  139.9771  135.0110  156.9657 LP  0  0  0  0  0  0  0  0  0  0  0  0  # atno 17395 bound_to 11000

$$$$
