AV-unprocessed.smi:480|AV-procd|sdf|2677|dock9
  -GOLD-   2262023103D 1   1.00000     0.00000
 Structure written by MMmdl.
 46 48  0  0  0  0  0  0  0  0  1 V2000
  152.8463  138.7484  154.6397 C   0  0  0  0  0  0  0  0  0  0  0  0
  151.8555  138.5336  155.7895 C   0  0  0  0  0  0  0  0  0  0  0  0
  151.7017  139.7492  156.6534 C   0  0  0  0  0  0  0  0  0  0  0  0
  152.7091  140.2097  157.3961 N   0  0  0  0  0  0  0  0  0  0  0  0
  152.1591  141.3236  157.9995 C   0  0  0  0  0  0  0  0  0  0  0  0
  152.7202  142.2460  158.9116 C   0  0  0  0  0  0  0  0  0  0  0  0
  151.9542  143.3265  159.3960 C   0  0  0  0  0  0  0  0  0  0  0  0
  150.6194  143.5001  158.9762 C   0  0  0  0  0  0  0  0  0  0  0  0
  150.0411  142.5922  158.0683 C   0  0  0  0  0  0  0  0  0  0  0  0
  150.8098  141.5146  157.5889 C   0  0  0  0  0  0  0  0  0  0  0  0
  150.5510  140.4683  156.7095 N   0  0  0  0  0  0  0  0  0  0  0  0
  149.2945  140.2387  156.0081 C   0  0  0  0  0  0  0  0  0  0  0  0
  149.1511  141.0977  154.7347 C   0  0  1  0  0  0  0  0  0  0  0  0
  150.1249  140.6457  153.8166 O   0  0  0  0  0  0  0  0  0  0  0  0
  147.7699  140.9979  154.0629 C   0  0  0  0  0  0  0  0  0  0  0  0
  147.3763  142.2961  153.6391 O   0  0  0  0  0  0  0  0  0  0  0  0
  146.2402  142.8467  154.1921 C   0  0  0  0  0  0  0  0  0  0  0  0
  145.6399  143.9124  153.4906 C   0  0  0  0  0  0  0  0  0  0  0  0
  144.4741  144.5322  153.9792 C   0  0  0  0  0  0  0  0  0  0  0  0
  143.8925  144.0921  155.1838 C   0  0  0  0  0  0  0  0  0  0  0  0
  142.6348  144.7544  155.7063 C   0  0  0  0  0  0  0  0  0  0  0  0
  141.4786  144.5053  154.8322 C   0  0  0  0  0  0  0  0  0  0  0  0
  140.5689  144.3096  154.1445 N   0  0  0  0  0  0  0  0  0  0  0  0
  144.4848  143.0304  155.8954 C   0  0  0  0  0  0  0  0  0  0  0  0
  145.6508  142.4103  155.4056 C   0  0  0  0  0  0  0  0  0  0  0  0
  152.9439  137.8455  154.0369 H   0  0  0  0  0  0  0  0  0  0  0  0
  153.8363  139.0056  155.0177 H   0  0  0  0  0  0  0  0  0  0  0  0
  152.5196  139.5541  153.9819 H   0  0  0  0  0  0  0  0  0  0  0  0
  150.8850  138.2230  155.4040 H   0  0  0  0  0  0  0  0  0  0  0  0
  152.2024  137.7086  156.4129 H   0  0  0  0  0  0  0  0  0  0  0  0
  153.7422  142.1226  159.2384 H   0  0  0  0  0  0  0  0  0  0  0  0
  152.3934  144.0261  160.0920 H   0  0  0  0  0  0  0  0  0  0  0  0
  150.0398  144.3311  159.3506 H   0  0  0  0  0  0  0  0  0  0  0  0
  149.0194  142.7225  157.7442 H   0  0  0  0  0  0  0  0  0  0  0  0
  149.2507  139.1807  155.7457 H   0  0  0  0  0  0  0  0  0  0  0  0
  148.4571  140.4101  156.6836 H   0  0  0  0  0  0  0  0  0  0  0  0
  149.3616  142.1390  154.9823 H   0  0  0  0  0  0  0  0  0  0  0  0
  149.7334  140.6185  152.9566 H   0  0  0  0  0  0  0  0  0  0  0  0
  147.7961  140.2910  153.2315 H   0  0  0  0  0  0  0  0  0  0  0  0
  147.0295  140.6436  154.7803 H   0  0  0  0  0  0  0  0  0  0  0  0
  146.0769  144.2567  152.5647 H   0  0  0  0  0  0  0  0  0  0  0  0
  144.0255  145.3443  153.4260 H   0  0  0  0  0  0  0  0  0  0  0  0
  142.3988  144.3853  156.7047 H   0  0  0  0  0  0  0  0  0  0  0  0
  142.7854  145.8314  155.7816 H   0  0  0  0  0  0  0  0  0  0  0  0
  144.0445  142.6859  156.8197 H   0  0  0  0  0  0  0  0  0  0  0  0
  146.0733  141.6005  155.9808 H   0  0  0  0  0  0  0  0  0  0  0  0
  1  2  1  0  0  0  0
  1 26  1  0  0  0  0
  1 27  1  0  0  0  0
  1 28  1  0  0  0  0
  2  3  1  0  0  0  0
  2 29  1  0  0  0  0
  2 30  1  0  0  0  0
  3 11  1  0  0  0  0
  3  4  2  0  0  0  0
  4  5  1  0  0  0  0
  5 10  2  0  0  0  0
  5  6  1  0  0  0  0
  6  7  2  0  0  0  0
  6 31  1  0  0  0  0
  7  8  1  0  0  0  0
  7 32  1  0  0  0  0
  8  9  2  0  0  0  0
  8 33  1  0  0  0  0
  9 10  1  0  0  0  0
  9 34  1  0  0  0  0
 10 11  1  0  0  0  0
 11 12  1  0  0  0  0
 12 13  1  0  0  0  0
 12 35  1  0  0  0  0
 12 36  1  0  0  0  0
 13 14  1  0  0  0  0
 13 15  1  0  0  0  0
 13 37  1  0  0  0  0
 14 38  1  0  0  0  0
 15 16  1  0  0  0  0
 15 39  1  0  0  0  0
 15 40  1  0  0  0  0
 16 17  1  0  0  0  0
 17 25  1  0  0  0  0
 17 18  2  0  0  0  0
 18 19  1  0  0  0  0
 18 41  1  0  0  0  0
 19 20  2  0  0  0  0
 19 42  1  0  0  0  0
 20 21  1  0  0  0  0
 20 24  1  0  0  0  0
 21 22  1  0  0  0  0
 21 43  1  0  0  0  0
 21 44  1  0  0  0  0
 22 23  3  0  0  0  0
 24 25  2  0  0  0  0
 24 45  1  0  0  0  0
 25 46  1  0  0  0  0
M  END
> <s_m_source_file>
AV-unprocessed.smi

> <i_m_source_file_index>
480

> <i_lp_mmshare_version>
43012

> <i_f3d_flags>
0

> <s_epik_input>
W2NIXTFbY0hdW2NIXVtjSF1jKGMxMiluKGMobjIpW0NIMl1bQ0gzXSlbQ0gyXVtDQEhdKFtPSF0pW0NIMl1PYzNbY0hdW2NIXWMoW0NIMl1DI04pW2NIXVtjSF0z

> <s_epik_cmdline>
J2VwaWtfcHl0aG9uJywgJy1waCcsICc3LjAnLCAnLXRuJywgJzgnLCAnLW1hJywgJzIwMCcsICctbWV0YWxfYmluZGluZycsICctaW1hZScsICc8aW5maWxlLm1hZT4nLCAnLW9tYWUnLCAnPG91dGZpbGUubWFlPic=

> <r_lp_tautomer_probability>
1

> <r_epik_Ionization_Penalty>
0.114213

> <r_epik_Ionization_Penalty_Charging>
0

> <r_epik_Ionization_Penalty_Neutral>
0.114213

> <r_epik_State_Penalty>
0.103875

> <r_epik_Charging_Adjusted_Penalty>
0.103875

> <i_epik_Tot_Q>
0

> <i_epik_Tot_abs_Q>
0

> <r_epik_Metal_State_Penalty>
0.000113526

> <b_epik_Metal_Only>
0

> <s_lp_Force_Field>
OPLS_2005

> <r_lp_Energy>
15.7981

> <b_lp_Chiralities_Consistent>
1

> <s_lp_Variant>
AV-unprocessed.smi:480-2

> <Gold.Version>
5.8.1

> <Gold.Id.Protein>
6NUR|6NUR_protein|mol2

> <Gold.PLP.Fitness>
53.3806

> <Gold.PLP.PLP>
-45.6647

> <Gold.PLP.part.hbond>
-3.8201

> <Gold.PLP.part.metal>
0.0000

> <Gold.PLP.part.buried>
-3.4311

> <Gold.PLP.part.nonpolar>
-37.4976

> <Gold.PLP.part.repulsive>
0.2604

> <Gold.PLP.ligand.clash>
0.0000

> <Gold.PLP.ligand.torsion>
1.6589

> <Gold.PLP.Chemscore.Hbond>
3.6320

> <Gold.PLP.Chemscore.CHOScore>
0.0000

> <Gold.PLP.Chemscore.Metal>
0.0000

> <Gold.Chemscore.Hbonds>
donor molecule, donor type, donor heavy atom, donor atom, acceptor molecule, acceptor atom, score
      L1  H    14    38       P1  7957  1.00
      P1  H  7989  7998       L1    14  0.61
      P1  H  7997  8009       L1     4  1.00
      P1  H 10162 10167       L1    23  0.98

> <Gold.PLP.Chemscore.Internal.Correction>
0.1377

> <Gold.Rescore>
     Score         DG    S(hbond)    S(metal)    S(lipo)     H(rot)  DE(clash)    DE(int)     intcor
     19.96     -23.00       3.06        0.00     118.76       2.58       1.39       1.65       ----

> <Gold.Chemscore.Fitness>
19.9591

> <Gold.Chemscore.DG>
-22.9965

> <Gold.Chemscore.ZeroCoef>
-5.4800

> <Gold.Chemscore.Hbond>
3.0586

> <Gold.Chemscore.Metal>
0.0000

> <Gold.Chemscore.Lipo>
118.7629

> <Gold.Chemscore.Internal_Hbond>
0.0000

> <Gold.Chemscore.DEClash>
1.3875

> <Gold.Chemscore.DEInternal>
1.6499

> <Gold.Chemscore.Rot>
2.5759

> <Gold.Chemscore.Internal.Correction>
   9.000000E+99

> <Gold.Chemscore.Hbonds>
donor molecule, donor type, donor heavy atom, donor atom, acceptor molecule, acceptor atom, score
      L1  H    14    38       P1  7957  0.97
      P1  H  7989  7998       L1    14  0.17
      P1  H  7997  8009       L1     4  0.91
      P1  H 10162 10167       L1    23  0.87

> <Gold.Chemscore.Hbond.Weighted>
-10.2156

> <Gold.Chemscore.Metal.Weighted>
-0.0000

> <Gold.Chemscore.Lipo.Weighted>
-13.8953

> <Gold.Chemscore.Internal_Hbond.Weighted>
0.0000

> <Gold.Chemscore.DEClash.Weighted>
1.3875

> <Gold.Chemscore.DEInternal.Weighted>
1.6499

> <Gold.Chemscore.Rot.Weighted>
6.5943

> <Gold.Chemscore.Internal.Correction.Weighted>
   9.000000E+99

> <Gold.Protein.RotatedTorsions>
[ 6907 6896 6895 6894 ] final   63.00 input  -60.11 | X-H torsion
[ 7974 7965 7964 7962 ] final   81.97 input  175.53 | X-H torsion
[ 8008 7997 7996 7995 ] final  176.08 input   59.86 | X-H torsion
[ 10167 10162 10161 10158 ] final -140.32 input  -65.29 | X-H torsion
[ 10718 10713 10712 10709 ] final  -31.89 input   66.30 | X-H torsion
[ 10763 10752 10751 10750 ] final  -56.04 input  -60.55 | X-H torsion
[ 11005 11000 10999 10996 ] final -159.60 input  -57.11 | X-H torsion

> <Gold.Protein.ActiveResidues>
 VAL166  LYS551  ARG553  GLY616  TRP617  ASP618  TYR619  PRO620  LYS621  CYS622 
 ASP623  PHE694  ASN695  SER759  ASP760  ASP761  ALA762  ILE779  LEU786  VAL792 
 PHE793  MET794  SER795  GLU796  ALA797  LYS798  CYS799  TRP800  GLU811  SER814 

> <Gold.Protein.RotatedAtoms>
  152.4218  134.5942  159.9982 H   0  0  0  0  0  0  0  0  0  0  0  0  # atno 6907 bound_to 6896
  151.6089  133.3343  159.3071 H   0  0  0  0  0  0  0  0  0  0  0  0  # atno 6908 bound_to 6896
  150.8106  134.7296  159.6750 H   0  0  0  0  0  0  0  0  0  0  0  0  # atno 6909 bound_to 6896
  145.6312  139.2405  143.2083 H   0  0  0  0  0  0  0  0  0  0  0  0  # atno 7974 bound_to 7965
  156.0803  140.1392  156.9721 H   0  0  0  0  0  0  0  0  0  0  0  0  # atno 8008 bound_to 7997
  154.4581  140.0953  156.6865 H   0  0  0  0  0  0  0  0  0  0  0  0  # atno 8009 bound_to 7997
  155.5087  140.3453  155.4386 H   0  0  0  0  0  0  0  0  0  0  0  0  # atno 8010 bound_to 7997
  139.8293  143.7468  152.2666 H   0  0  0  0  0  0  0  0  0  0  0  0  # atno 10167 bound_to 10162
  156.3817  130.4357  149.7464 H   0  0  0  0  0  0  0  0  0  0  0  0  # atno 10718 bound_to 10713
  154.2003  135.6412  153.5085 H   0  0  0  0  0  0  0  0  0  0  0  0  # atno 10763 bound_to 10752
  153.0013  135.5449  154.6322 H   0  0  0  0  0  0  0  0  0  0  0  0  # atno 10764 bound_to 10752
  154.5734  135.2919  155.0778 H   0  0  0  0  0  0  0  0  0  0  0  0  # atno 10765 bound_to 10752
  140.6408  134.4553  157.5233 H   0  0  0  0  0  0  0  0  0  0  0  0  # atno 11005 bound_to 11000
  146.1355  140.7129  142.9392 LP  0  0  0  0  0  0  0  0  0  0  0  0  # atno 17320 bound_to 7965
  144.7193  140.4317  143.7020 LP  0  0  0  0  0  0  0  0  0  0  0  0  # atno 17321 bound_to 7965
  139.7671  144.7488  151.0279 LP  0  0  0  0  0  0  0  0  0  0  0  0  # atno 17342 bound_to 10162
  140.7808  143.4686  151.0177 LP  0  0  0  0  0  0  0  0  0  0  0  0  # atno 17343 bound_to 10162
  156.4552  130.7925  151.2946 LP  0  0  0  0  0  0  0  0  0  0  0  0  # atno 17370 bound_to 10713
  157.7493  131.0083  150.3223 LP  0  0  0  0  0  0  0  0  0  0  0  0  # atno 17371 bound_to 10713
  139.9081  134.8405  156.1630 LP  0  0  0  0  0  0  0  0  0  0  0  0  # atno 17394 bound_to 11000
  141.0608  133.6843  156.1949 LP  0  0  0  0  0  0  0  0  0  0  0  0  # atno 17395 bound_to 11000

$$$$
