AV-unprocessed.smi:2577|AV-procd|sdf|10120|dock9
  -GOLD-   2272014143D 1   1.00000     0.00000
 Structure written by MMmdl.
 27 28  0  0  0  0  0  0  0  0  1 V2000
  148.1939  139.8887  154.0775 C   0  0  0  0  0  0  0  0  0  0  0  0
  149.5341  140.4196  154.6044 C   0  0  0  0  0  0  0  0  0  0  0  0
  149.3910  141.3263  155.8398 C   0  0  2  0  0  0  0  0  0  0  0  0
  148.3459  142.2542  155.6173 O   0  0  0  0  0  0  0  0  0  0  0  0
  150.6956  142.0863  156.1494 C   0  0  0  0  0  0  0  0  0  0  0  0
  151.5869  141.3351  157.0163 N   0  0  0  0  0  0  0  0  0  0  0  0
  152.0919  140.1448  156.5852 N   0  0  0  0  0  0  0  0  0  0  0  0
  152.8530  139.6537  157.5171 N   0  0  0  0  0  0  0  0  0  0  0  0
  152.8484  140.5367  158.5841 C   0  0  0  0  0  0  0  0  0  0  0  0
  153.4933  140.4998  159.8405 C   0  0  0  0  0  0  0  0  0  0  0  0
  153.3136  141.5510  160.7663 C   0  0  0  0  0  0  0  0  0  0  0  0
  154.1195  141.4698  162.2926 Cl  0  0  0  0  0  0  0  0  0  0  0  0
  152.4844  142.6528  160.4445 C   0  0  0  0  0  0  0  0  0  0  0  0
  152.2535  143.9469  161.5657 Cl  0  0  0  0  0  0  0  0  0  0  0  0
  151.8349  142.7024  159.1950 C   0  0  0  0  0  0  0  0  0  0  0  0
  152.0285  141.6471  158.2877 C   0  0  0  0  0  0  0  0  0  0  0  0
  148.3492  139.2225  153.2289 H   0  0  0  0  0  0  0  0  0  0  0  0
  147.5466  140.7007  153.7455 H   0  0  0  0  0  0  0  0  0  0  0  0
  147.6620  139.3286  154.8472 H   0  0  0  0  0  0  0  0  0  0  0  0
  150.1627  139.5657  154.8596 H   0  0  0  0  0  0  0  0  0  0  0  0
  150.0560  140.9523  153.8082 H   0  0  0  0  0  0  0  0  0  0  0  0
  149.1225  140.7143  156.7020 H   0  0  0  0  0  0  0  0  0  0  0  0
  148.7274  143.0858  155.3803 H   0  0  0  0  0  0  0  0  0  0  0  0
  151.2277  142.3154  155.2249 H   0  0  0  0  0  0  0  0  0  0  0  0
  150.4754  143.0436  156.6237 H   0  0  0  0  0  0  0  0  0  0  0  0
  154.1260  139.6614  160.0924 H   0  0  0  0  0  0  0  0  0  0  0  0
  151.1979  143.5361  158.9380 H   0  0  0  0  0  0  0  0  0  0  0  0
  1  2  1  0  0  0  0
  1 17  1  0  0  0  0
  1 18  1  0  0  0  0
  1 19  1  0  0  0  0
  2  3  1  0  0  0  0
  2 20  1  0  0  0  0
  2 21  1  0  0  0  0
  3  4  1  0  0  0  0
  3  5  1  0  0  0  0
  3 22  1  0  0  0  0
  4 23  1  0  0  0  0
  5  6  1  0  0  0  0
  5 24  1  0  0  0  0
  5 25  1  0  0  0  0
  6 16  1  0  0  0  0
  6  7  1  0  0  0  0
  7  8  2  0  0  0  0
  8  9  1  0  0  0  0
  9 16  2  0  0  0  0
  9 10  1  0  0  0  0
 10 11  2  0  0  0  0
 10 26  1  0  0  0  0
 11 12  1  0  0  0  0
 11 13  1  0  0  0  0
 13 14  1  0  0  0  0
 13 15  2  0  0  0  0
 15 16  1  0  0  0  0
 15 27  1  0  0  0  0
M  END
> <s_m_source_file>
AV-unprocessed.smi

> <i_m_source_file_index>
2577

> <i_lp_mmshare_version>
43012

> <i_f3d_flags>
0

> <s_epik_input>
W0NIM11bQ0gyXVtDQEhdKFtPSF0pW0NIMl1uKG5uMSljKGMxMilbY0hdYyhDbCljKENsKVtjSF0y

> <s_epik_cmdline>
J2VwaWtfcHl0aG9uJywgJy1waCcsICc3LjAnLCAnLXRuJywgJzgnLCAnLW1hJywgJzIwMCcsICctbWV0YWxfYmluZGluZycsICctaW1hZScsICc8aW5maWxlLm1hZT4nLCAnLW9tYWUnLCAnPG91dGZpbGUubWFlPic=

> <r_lp_tautomer_probability>
1

> <r_epik_Ionization_Penalty>
1.50913e-07

> <r_epik_Ionization_Penalty_Charging>
0

> <r_epik_Ionization_Penalty_Neutral>
1.50913e-07

> <r_epik_State_Penalty>
-0

> <r_epik_Charging_Adjusted_Penalty>
0

> <i_epik_Tot_Q>
0

> <i_epik_Tot_abs_Q>
0

> <r_epik_Metal_State_Penalty>
-0

> <b_epik_Metal_Only>
0

> <s_lp_Force_Field>
OPLS_2005

> <r_lp_Energy>
7.05244

> <b_lp_Chiralities_Consistent>
1

> <s_lp_Variant>
AV-unprocessed.smi:2577-1

> <Gold.Version>
5.8.1

> <Gold.Id.Protein>
6NUR|6NUR_protein|mol2

> <Gold.PLP.Fitness>
40.7042

> <Gold.PLP.PLP>
-35.6036

> <Gold.PLP.part.hbond>
-2.4815

> <Gold.PLP.part.metal>
0.0000

> <Gold.PLP.part.buried>
-1.9437

> <Gold.PLP.part.nonpolar>
-29.8300

> <Gold.PLP.part.repulsive>
0.0000

> <Gold.PLP.ligand.clash>
0.0000

> <Gold.PLP.ligand.torsion>
0.4507

> <Gold.PLP.Chemscore.Hbond>
2.0000

> <Gold.PLP.Chemscore.CHOScore>
0.0000

> <Gold.PLP.Chemscore.Metal>
0.0000

> <Gold.Chemscore.Hbonds>
donor molecule, donor type, donor heavy atom, donor atom, acceptor molecule, acceptor atom, score
      L1  H     4    23       P1  8028  0.99
      P1  H  7997  8010       L1     8  0.95

> <Gold.PLP.Chemscore.Internal.Correction>
0.0020

> <Gold.Rescore>
     Score         DG    S(hbond)    S(metal)    S(lipo)     H(rot)  DE(clash)    DE(int)     intcor
     16.39     -17.27       1.29        0.00     103.25       1.79       0.43       0.45       ----

> <Gold.Chemscore.Fitness>
16.3928

> <Gold.Chemscore.DG>
-17.2687

> <Gold.Chemscore.ZeroCoef>
-5.4800

> <Gold.Chemscore.Hbond>
1.2863

> <Gold.Chemscore.Metal>
0.0000

> <Gold.Chemscore.Lipo>
103.2548

> <Gold.Chemscore.Internal_Hbond>
0.0000

> <Gold.Chemscore.DEClash>
0.4255

> <Gold.Chemscore.DEInternal>
0.4503

> <Gold.Chemscore.Rot>
1.7924

> <Gold.Chemscore.Internal.Correction>
   9.000000E+99

> <Gold.Chemscore.Hbonds>
donor molecule, donor type, donor heavy atom, donor atom, acceptor molecule, acceptor atom, score
      L1  H     4    23       P1  8028  0.93
      P1  H  7997  8010       L1     8  0.06

> <Gold.Chemscore.Hbond.Weighted>
-4.2963

> <Gold.Chemscore.Metal.Weighted>
-0.0000

> <Gold.Chemscore.Lipo.Weighted>
-12.0808

> <Gold.Chemscore.Internal_Hbond.Weighted>
0.0000

> <Gold.Chemscore.DEClash.Weighted>
0.4255

> <Gold.Chemscore.DEInternal.Weighted>
0.4503

> <Gold.Chemscore.Rot.Weighted>
4.5884

> <Gold.Chemscore.Internal.Correction.Weighted>
   9.000000E+99

> <Gold.Protein.RotatedTorsions>
[ 6907 6896 6895 6894 ] final   21.38 input  -60.11 | X-H torsion
[ 7974 7965 7964 7962 ] final  141.96 input  175.53 | X-H torsion
[ 8008 7997 7996 7995 ] final   47.72 input   59.86 | X-H torsion
[ 10167 10162 10161 10158 ] final  -64.54 input  -65.29 | X-H torsion
[ 10718 10713 10712 10709 ] final  148.14 input   66.30 | X-H torsion
[ 10763 10752 10751 10750 ] final   69.30 input  -60.55 | X-H torsion
[ 11005 11000 10999 10996 ] final  143.88 input  -57.11 | X-H torsion

> <Gold.Protein.ActiveResidues>
 VAL166  LYS551  ARG553  GLY616  TRP617  ASP618  TYR619  PRO620  LYS621  CYS622 
 ASP623  PHE694  ASN695  SER759  ASP760  ASP761  ALA762  ILE779  LEU786  VAL792 
 PHE793  MET794  SER795  GLU796  ALA797  LYS798  CYS799  TRP800  GLU811  SER814 

> <Gold.Protein.RotatedAtoms>
  151.9110  135.0339  160.0514 H   0  0  0  0  0  0  0  0  0  0  0  0  # atno 6907 bound_to 6896
  152.2280  133.5031  159.5208 H   0  0  0  0  0  0  0  0  0  0  0  0  # atno 6908 bound_to 6896
  150.7017  134.1171  159.4064 H   0  0  0  0  0  0  0  0  0  0  0  0  # atno 6909 bound_to 6896
  144.9050  139.5370  143.5736 H   0  0  0  0  0  0  0  0  0  0  0  0  # atno 7974 bound_to 7965
  155.3737  140.3425  155.4244 H   0  0  0  0  0  0  0  0  0  0  0  0  # atno 8008 bound_to 7997
  156.1649  140.1612  156.8583 H   0  0  0  0  0  0  0  0  0  0  0  0  # atno 8009 bound_to 7997
  154.5175  140.0775  156.8091 H   0  0  0  0  0  0  0  0  0  0  0  0  # atno 8010 bound_to 7997
  140.5793  143.2325  151.6375 H   0  0  0  0  0  0  0  0  0  0  0  0  # atno 10167 bound_to 10162
  157.3122  131.0890  151.1307 H   0  0  0  0  0  0  0  0  0  0  0  0  # atno 10718 bound_to 10713
  153.0280  135.5215  154.7268 H   0  0  0  0  0  0  0  0  0  0  0  0  # atno 10763 bound_to 10752
  154.6307  135.2900  155.0222 H   0  0  0  0  0  0  0  0  0  0  0  0  # atno 10764 bound_to 10752
  154.1175  135.6612  153.4949 H   0  0  0  0  0  0  0  0  0  0  0  0  # atno 10765 bound_to 10752
  140.0588  134.9216  157.1148 H   0  0  0  0  0  0  0  0  0  0  0  0  # atno 11005 bound_to 11000
  146.3129  139.7811  142.9006 LP  0  0  0  0  0  0  0  0  0  0  0  0  # atno 17320 bound_to 7965
  145.3551  141.0315  143.3316 LP  0  0  0  0  0  0  0  0  0  0  0  0  # atno 17321 bound_to 7965
  139.5161  144.3359  152.0785 LP  0  0  0  0  0  0  0  0  0  0  0  0  # atno 17342 bound_to 10162
  140.2506  144.4172  150.6223 LP  0  0  0  0  0  0  0  0  0  0  0  0  # atno 17343 bound_to 10162
  157.2624  130.6665  149.5981 LP  0  0  0  0  0  0  0  0  0  0  0  0  # atno 17370 bound_to 10713
  155.9679  130.4504  150.5697 LP  0  0  0  0  0  0  0  0  0  0  0  0  # atno 17371 bound_to 10713
  140.3802  134.2295  155.7171 LP  0  0  0  0  0  0  0  0  0  0  0  0  # atno 17394 bound_to 11000
  141.1964  133.8083  157.0674 LP  0  0  0  0  0  0  0  0  0  0  0  0  # atno 17395 bound_to 11000

$$$$
