AV-unprocessed.smi:249|AV-procd|sdf|1908|dock9
  -GOLD-   2262020593D 1   1.00000     0.00000
 Structure written by MMmdl.
 64 67  0  0  0  0  0  0  0  0  2 V2000
  148.1757  127.6468  152.4398 C   0  0  0  0  0  0  0  0  0  0  0  0
  147.1571  128.7924  152.5581 C   0  0  0  0  0  0  0  0  0  0  0  0
  147.7832  130.1449  152.6250 N   0  3  2  0  0  0  0  0  0  0  0  0
  148.5877  130.3209  153.8683 C   0  0  0  0  0  0  0  0  0  0  0  0
  149.2990  131.6822  153.9142 C   0  0  0  0  0  0  0  0  0  0  0  0
  148.2967  132.8500  153.8051 C   0  0  2  0  0  0  0  0  0  0  0  0
  147.3944  132.9727  154.9624 N   0  0  0  0  0  0  0  0  0  0  0  0
  146.1617  133.7314  154.7778 C   0  0  0  0  0  0  0  0  0  0  0  0
  147.9763  133.2957  156.1389 C   0  0  0  0  0  0  0  0  0  0  0  0
  148.9562  134.2319  156.1090 N   0  0  0  0  0  0  0  0  0  0  0  0
  149.5524  134.6083  157.2443 C   0  0  0  0  0  0  0  0  0  0  0  0
  149.3192  134.1868  158.4892 N   0  0  0  0  0  0  0  0  0  0  0  0
  148.3394  133.2383  158.5182 C   0  0  0  0  0  0  0  0  0  0  0  0
  147.6282  132.7288  157.3967 C   0  0  0  0  0  0  0  0  0  0  0  0
  146.7174  131.7638  157.8085 N   0  0  0  0  0  0  0  0  0  0  0  0
  146.8710  131.7154  159.1038 C   0  0  0  0  0  0  0  0  0  0  0  0
  147.8037  132.5894  159.6164 N   0  0  0  0  0  0  0  0  0  0  0  0
  148.1614  132.7555  161.0133 C   0  0  0  0  0  0  0  0  0  0  0  0
  147.0297  133.3285  161.9129 C   0  0  2  0  0  0  0  0  0  0  0  0
  145.7915  132.4037  161.8171 C   0  0  0  0  0  0  0  0  0  0  0  0
  146.0503  131.1343  162.3810 O   0  0  0  0  0  0  0  0  0  0  0  0
  146.6688  134.8093  161.5814 C   0  0  1  0  0  0  0  0  0  0  0  0
  145.9039  135.5485  162.6699 C   0  0  0  0  0  0  0  0  0  0  0  0
  146.1098  137.0056  162.2831 C   0  0  0  0  0  0  0  0  0  0  0  0
  147.4484  137.0604  161.8178 O   0  0  0  0  0  0  0  0  0  0  0  0
  147.8621  135.7645  161.3944 C   0  0  0  0  0  0  0  0  0  0  0  0
  147.5282  132.6389  152.4879 C   0  0  0  0  0  0  0  0  0  0  0  0
  146.8107  131.2698  152.4255 C   0  0  1  0  0  0  0  0  0  0  0  0
  146.0458  131.1774  151.0888 C   0  0  0  0  0  0  0  0  0  0  0  0
  147.6661  126.7066  152.2276 H   0  0  0  0  0  0  0  0  0  0  0  0
  148.7395  127.4961  153.3599 H   0  0  0  0  0  0  0  0  0  0  0  0
  148.8826  127.8264  151.6294 H   0  0  0  0  0  0  0  0  0  0  0  0
  146.5209  128.7138  151.6796 H   0  0  0  0  0  0  0  0  0  0  0  0
  146.5119  128.6384  153.4240 H   0  0  0  0  0  0  0  0  0  0  0  0
  147.9427  130.1997  154.7396 H   0  0  0  0  0  0  0  0  0  0  0  0
  149.3545  129.5514  153.9381 H   0  0  0  0  0  0  0  0  0  0  0  0
  149.9091  131.7568  154.8146 H   0  0  0  0  0  0  0  0  0  0  0  0
  150.0063  131.7398  153.0856 H   0  0  0  0  0  0  0  0  0  0  0  0
  148.8562  133.7822  153.7226 H   0  0  0  0  0  0  0  0  0  0  0  0
  145.6956  133.9954  155.7288 H   0  0  0  0  0  0  0  0  0  0  0  0
  145.4372  133.1424  154.2157 H   0  0  0  0  0  0  0  0  0  0  0  0
  146.3556  134.6532  154.2283 H   0  0  0  0  0  0  0  0  0  0  0  0
  150.3224  135.3589  157.1421 H   0  0  0  0  0  0  0  0  0  0  0  0
  146.2901  131.0504  159.7263 H   0  0  0  0  0  0  0  0  0  0  0  0
  148.4881  131.7903  161.4020 H   0  0  0  0  0  0  0  0  0  0  0  0
  149.0369  133.4047  161.0387 H   0  0  0  0  0  0  0  0  0  0  0  0
  147.3648  133.2986  162.9506 H   0  0  0  0  0  0  0  0  0  0  0  0
  144.9429  132.8129  162.3632 H   0  0  0  0  0  0  0  0  0  0  0  0
  145.4775  132.2813  160.7800 H   0  0  0  0  0  0  0  0  0  0  0  0
  145.2901  130.5873  162.2538 H   0  0  0  0  0  0  0  0  0  0  0  0
  146.0597  134.8330  160.6762 H   0  0  0  0  0  0  0  0  0  0  0  0
  144.8473  135.2827  162.7110 H   0  0  0  0  0  0  0  0  0  0  0  0
  146.3472  135.3569  163.6483 H   0  0  0  0  0  0  0  0  0  0  0  0
  145.4389  137.2845  161.4695 H   0  0  0  0  0  0  0  0  0  0  0  0
  145.9446  137.6910  163.1146 H   0  0  0  0  0  0  0  0  0  0  0  0
  148.7093  135.4670  162.0130 H   0  0  0  0  0  0  0  0  0  0  0  0
  148.1982  135.8086  160.3595 H   0  0  0  0  0  0  0  0  0  0  0  0
  146.8166  133.4496  152.3301 H   0  0  0  0  0  0  0  0  0  0  0  0
  148.2302  132.7102  151.6555 H   0  0  0  0  0  0  0  0  0  0  0  0
  146.0782  131.2276  153.2333 H   0  0  0  0  0  0  0  0  0  0  0  0
  145.4714  132.0861  150.9056 H   0  0  0  0  0  0  0  0  0  0  0  0
  145.3243  130.3613  151.0773 H   0  0  0  0  0  0  0  0  0  0  0  0
  146.7272  131.0462  150.2476 H   0  0  0  0  0  0  0  0  0  0  0  0
  148.4331  130.1970  151.8535 H   0  0  0  0  0  0  0  0  0  0  0  0
  1  2  1  0  0  0  0
  1 30  1  0  0  0  0
  1 31  1  0  0  0  0
  1 32  1  0  0  0  0
  2  3  1  0  0  0  0
  2 33  1  0  0  0  0
  2 34  1  0  0  0  0
  3 28  1  0  0  0  0
  3  4  1  0  0  0  0
  3 64  1  0  0  0  0
  4  5  1  0  0  0  0
  4 35  1  0  0  0  0
  4 36  1  0  0  0  0
  5  6  1  0  0  0  0
  5 37  1  0  0  0  0
  5 38  1  0  0  0  0
  6  7  1  0  0  0  0
  6 27  1  0  0  0  0
  6 39  1  0  0  0  0
  7  8  1  0  0  0  0
  7  9  1  0  0  0  0
  8 40  1  0  0  0  0
  8 41  1  0  0  0  0
  8 42  1  0  0  0  0
  9 14  1  0  0  0  0
  9 10  2  0  0  0  0
 10 11  1  0  0  0  0
 11 12  2  0  0  0  0
 11 43  1  0  0  0  0
 12 13  1  0  0  0  0
 13 17  1  0  0  0  0
 13 14  2  0  0  0  0
 14 15  1  0  0  0  0
 15 16  2  0  0  0  0
 16 17  1  0  0  0  0
 16 44  1  0  0  0  0
 17 18  1  0  0  0  0
 18 19  1  0  0  0  0
 18 45  1  0  0  0  0
 18 46  1  0  0  0  0
 19 20  1  0  0  0  0
 19 22  1  0  0  0  0
 19 47  1  0  0  0  0
 20 21  1  0  0  0  0
 20 48  1  0  0  0  0
 20 49  1  0  0  0  0
 21 50  1  0  0  0  0
 22 26  1  0  0  0  0
 22 23  1  0  0  0  0
 22 51  1  0  0  0  0
 23 24  1  0  0  0  0
 23 52  1  0  0  0  0
 23 53  1  0  0  0  0
 24 25  1  0  0  0  0
 24 54  1  0  0  0  0
 24 55  1  0  0  0  0
 25 26  1  0  0  0  0
 26 56  1  0  0  0  0
 26 57  1  0  0  0  0
 27 28  1  0  0  0  0
 27 58  1  0  0  0  0
 27 59  1  0  0  0  0
 28 29  1  0  0  0  0
 28 60  1  0  0  0  0
 29 61  1  0  0  0  0
 29 62  1  0  0  0  0
 29 63  1  0  0  0  0
M  CHG  1   3   1
M  END
> <s_m_source_file>
AV-unprocessed.smi

> <i_m_source_file_index>
249

> <i_lp_mmshare_version>
43012

> <i_f3d_flags>
0

> <s_epik_input>
W0NIM11bQ0gyXU4xW0NIMl1bQ0gyXVtDQEhdKFtDSDJdW0NASF0xW0NIM10pTihbQ0gzXSljKG5bY0hdbjIpYyhjMjMpbltjSF1uM1tDSDJdW0NASF0oW0NIMl1bT0hdKVtDQEBIXTRbQ0gyXVtDSDJdT1tDSDJdNA==

> <s_epik_cmdline>
J2VwaWtfcHl0aG9uJywgJy1waCcsICc3LjAnLCAnLXRuJywgJzgnLCAnLW1hJywgJzIwMCcsICctbWV0YWxfYmluZGluZycsICctaW1hZScsICc8aW5maWxlLm1hZT4nLCAnLW9tYWUnLCAnPG91dGZpbGUubWFlPic=

> <r_lp_tautomer_probability>
1

> <r_epik_Ionization_Penalty>
0.00294688

> <r_epik_Ionization_Penalty_Charging>
0.00169971

> <r_epik_Ionization_Penalty_Neutral>
0.00124717

> <r_epik_State_Penalty>
-0

> <r_epik_Charging_Adjusted_Penalty>
0.00169971

> <i_epik_Tot_Q>
1

> <i_epik_Tot_abs_Q>
1

> <r_epik_Metal_State_Penalty>
-0

> <b_epik_Metal_Only>
0

> <s_lp_Force_Field>
OPLS_2005

> <r_lp_Energy>
57.0978

> <b_lp_Chiralities_Consistent>
1

> <s_lp_Variant>
AV-unprocessed.smi:249-11

> <Gold.Version>
5.8.1

> <Gold.Id.Protein>
6NUR|6NUR_protein|mol2

> <Gold.PLP.Fitness>
50.2074

> <Gold.PLP.PLP>
-43.0050

> <Gold.PLP.part.hbond>
-4.5491

> <Gold.PLP.part.metal>
0.0000

> <Gold.PLP.part.buried>
-5.0057

> <Gold.PLP.part.nonpolar>
-32.8929

> <Gold.PLP.part.repulsive>
0.1170

> <Gold.PLP.ligand.clash>
0.0000

> <Gold.PLP.ligand.torsion>
1.1604

> <Gold.PLP.Chemscore.Hbond>
3.0000

> <Gold.PLP.Chemscore.CHOScore>
0.0000

> <Gold.PLP.Chemscore.Metal>
0.0000

> <Gold.Chemscore.Hbonds>
donor molecule, donor type, donor heavy atom, donor atom, acceptor molecule, acceptor atom, score
      L1  H     3    64       P1 10747  1.00
      P1  H  6896  6907       L1    12  1.00
      P1  H  6931  6943       L1    25  0.99
      P1  H  6934  6947       L1    25  0.34

> <Gold.PLP.Chemscore.Internal.Correction>
0.5231

> <Gold.Rescore>
     Score         DG    S(hbond)    S(metal)    S(lipo)     H(rot)  DE(clash)    DE(int)     intcor
     19.09     -20.01       2.95        0.00     103.39       2.90       0.12       0.79       ----

> <Gold.Chemscore.Fitness>
19.0885

> <Gold.Chemscore.DG>
-20.0065

> <Gold.Chemscore.ZeroCoef>
-5.4800

> <Gold.Chemscore.Hbond>
2.9509

> <Gold.Chemscore.Metal>
0.0000

> <Gold.Chemscore.Lipo>
103.3861

> <Gold.Chemscore.Internal_Hbond>
0.0000

> <Gold.Chemscore.DEClash>
0.1238

> <Gold.Chemscore.DEInternal>
0.7942

> <Gold.Chemscore.Rot>
2.9006

> <Gold.Chemscore.Internal.Correction>
   9.000000E+99

> <Gold.Chemscore.Hbonds>
donor molecule, donor type, donor heavy atom, donor atom, acceptor molecule, acceptor atom, score
      L1  H     3    64       P1 10747  0.73
      P1  H  6896  6907       L1    12  0.80
      P1  H  6931  6943       L1    25  0.69
      P1  H  6934  6947       L1    25  0.03

> <Gold.Chemscore.Hbond.Weighted>
-9.8560

> <Gold.Chemscore.Metal.Weighted>
-0.0000

> <Gold.Chemscore.Lipo.Weighted>
-12.0962

> <Gold.Chemscore.Internal_Hbond.Weighted>
0.0000

> <Gold.Chemscore.DEClash.Weighted>
0.1238

> <Gold.Chemscore.DEInternal.Weighted>
0.7942

> <Gold.Chemscore.Rot.Weighted>
7.4256

> <Gold.Chemscore.Internal.Correction.Weighted>
   9.000000E+99

> <Gold.Protein.RotatedTorsions>
[ 6907 6896 6895 6894 ] final -106.70 input  -60.11 | X-H torsion
[ 7974 7965 7964 7962 ] final  -83.04 input  175.53 | X-H torsion
[ 8008 7997 7996 7995 ] final  143.82 input   59.86 | X-H torsion
[ 10167 10162 10161 10158 ] final -149.56 input  -65.29 | X-H torsion
[ 10718 10713 10712 10709 ] final   18.76 input   66.30 | X-H torsion
[ 10763 10752 10751 10750 ] final -100.54 input  -60.55 | X-H torsion
[ 11005 11000 10999 10996 ] final   96.13 input  -57.11 | X-H torsion

> <Gold.Protein.ActiveResidues>
 VAL166  LYS551  ARG553  GLY616  TRP617  ASP618  TYR619  PRO620  LYS621  CYS622 
 ASP623  PHE694  ASN695  SER759  ASP760  ASP761  ALA762  ILE779  LEU786  VAL792 
 PHE793  MET794  SER795  GLU796  ALA797  LYS798  CYS799  TRP800  GLU811  SER814 

> <Gold.Protein.RotatedAtoms>
  150.7403  133.9937  159.3615 H   0  0  0  0  0  0  0  0  0  0  0  0  # atno 6907 bound_to 6896
  151.7887  135.0740  160.0393 H   0  0  0  0  0  0  0  0  0  0  0  0  # atno 6908 bound_to 6896
  152.3223  133.5831  159.5789 H   0  0  0  0  0  0  0  0  0  0  0  0  # atno 6909 bound_to 6896
  145.5252  140.9527  143.1633 H   0  0  0  0  0  0  0  0  0  0  0  0  # atno 7974 bound_to 7965
  156.2922  140.2252  156.4952 H   0  0  0  0  0  0  0  0  0  0  0  0  # atno 8008 bound_to 7997
  154.7736  140.0465  157.1093 H   0  0  0  0  0  0  0  0  0  0  0  0  # atno 8009 bound_to 7997
  154.9843  140.3082  155.4936 H   0  0  0  0  0  0  0  0  0  0  0  0  # atno 8010 bound_to 7997
  139.7432  143.8630  152.2568 H   0  0  0  0  0  0  0  0  0  0  0  0  # atno 10167 bound_to 10162
  157.1009  130.6467  149.5872 H   0  0  0  0  0  0  0  0  0  0  0  0  # atno 10718 bound_to 10713
  154.7587  135.4931  153.9424 H   0  0  0  0  0  0  0  0  0  0  0  0  # atno 10763 bound_to 10752
  153.1226  135.6735  153.9318 H   0  0  0  0  0  0  0  0  0  0  0  0  # atno 10764 bound_to 10752
  153.9045  135.3106  155.3427 H   0  0  0  0  0  0  0  0  0  0  0  0  # atno 10765 bound_to 10752
  139.8784  134.8935  156.4113 H   0  0  0  0  0  0  0  0  0  0  0  0  # atno 11005 bound_to 11000
  144.7655  139.6856  143.7217 LP  0  0  0  0  0  0  0  0  0  0  0  0  # atno 17320 bound_to 7965
  146.2080  139.5417  142.9700 LP  0  0  0  0  0  0  0  0  0  0  0  0  # atno 17321 bound_to 7965
  139.8587  144.7128  150.9126 LP  0  0  0  0  0  0  0  0  0  0  0  0  # atno 17342 bound_to 10162
  140.7788  143.3836  151.1433 LP  0  0  0  0  0  0  0  0  0  0  0  0  # atno 17343 bound_to 10162
  155.9874  130.4913  150.7123 LP  0  0  0  0  0  0  0  0  0  0  0  0  # atno 17370 bound_to 10713
  157.4642  131.0886  151.0713 LP  0  0  0  0  0  0  0  0  0  0  0  0  # atno 17371 bound_to 10713
  140.9198  133.7653  155.9892 LP  0  0  0  0  0  0  0  0  0  0  0  0  # atno 17394 bound_to 11000
  140.8452  134.3019  157.5297 LP  0  0  0  0  0  0  0  0  0  0  0  0  # atno 17395 bound_to 11000

$$$$
