AV-unprocessed.smi:22|AV-procd|sdf|170|dock4
  -GOLD-   2262015423D 1   1.00000     0.00000
 Structure written by MMmdl.
 56 59  0  0  0  0  0  0  0  0  2 V2000
  146.0952  130.6558  151.7085 C   0  0  0  0  0  0  0  0  0  0  0  0
  145.9090  132.0989  151.4091 N   0  3  1  0  0  0  0  0  0  0  0  0
  144.4856  132.3987  151.0903 C   0  0  0  0  0  0  0  0  0  0  0  0
  144.2313  132.4222  149.5744 C   0  0  0  0  0  0  0  0  0  0  0  0
  142.8831  132.0998  149.3071 O   0  0  0  0  0  0  0  0  0  0  0  0
  146.4892  133.0364  152.4220 C   0  0  0  0  0  0  0  0  0  0  0  0
  147.8963  132.5599  152.8574 C   0  0  0  0  0  0  0  0  0  0  0  0
  148.5236  133.5053  153.8937 C   0  0  0  0  0  0  0  0  0  0  0  0
  147.6433  133.6668  155.0493 N   0  0  0  0  0  0  0  0  0  0  0  0
  148.1719  134.2167  156.1723 C   0  0  0  0  0  0  0  0  0  0  0  0
  149.3280  134.9298  156.1010 N   0  0  0  0  0  0  0  0  0  0  0  0
  149.8491  135.4826  157.2004 C   0  0  0  0  0  0  0  0  0  0  0  0
  149.3889  135.4438  158.4519 N   0  0  0  0  0  0  0  0  0  0  0  0
  148.2339  134.7233  158.5324 C   0  0  0  0  0  0  0  0  0  0  0  0
  147.5624  134.0844  157.4517 C   0  0  0  0  0  0  0  0  0  0  0  0
  146.4221  133.4404  157.9181 N   0  0  0  0  0  0  0  0  0  0  0  0
  146.4165  133.6906  159.1991 C   0  0  0  0  0  0  0  0  0  0  0  0
  147.4715  134.4488  159.6543 N   0  0  0  0  0  0  0  0  0  0  0  0
  147.7146  134.8667  161.0265 C   0  0  0  0  0  0  0  0  0  0  0  0
  146.7773  134.1846  162.0497 C   0  0  1  0  0  0  0  0  0  0  0  0
  147.1612  134.5786  163.3559 O   0  0  0  0  0  0  0  0  0  0  0  0
  145.2991  134.5109  161.8581 C   0  0  0  0  0  0  0  0  0  0  0  0
  144.6079  133.2451  162.3443 C   0  0  0  0  0  0  0  0  0  0  0  0
  145.4522  132.2219  161.8450 O   0  0  0  0  0  0  0  0  0  0  0  0
  146.8061  132.6448  161.9773 C   0  0  0  0  0  0  0  0  0  0  0  0
  146.2936  134.1234  154.7288 C   0  0  0  0  0  0  0  0  0  0  0  0
  145.6264  133.1952  153.7007 C   0  0  0  0  0  0  0  0  0  0  0  0
  145.6856  130.4034  152.6877 H   0  0  0  0  0  0  0  0  0  0  0  0
  147.1481  130.3753  151.6862 H   0  0  0  0  0  0  0  0  0  0  0  0
  145.5959  130.0311  150.9682 H   0  0  0  0  0  0  0  0  0  0  0  0
  143.8442  131.6547  151.5657 H   0  0  0  0  0  0  0  0  0  0  0  0
  144.1685  133.3534  151.5087 H   0  0  0  0  0  0  0  0  0  0  0  0
  144.4711  133.3901  149.1346 H   0  0  0  0  0  0  0  0  0  0  0  0
  144.8631  131.6830  149.0816 H   0  0  0  0  0  0  0  0  0  0  0  0
  142.3684  132.8918  149.3518 H   0  0  0  0  0  0  0  0  0  0  0  0
  146.5715  134.0210  151.9581 H   0  0  0  0  0  0  0  0  0  0  0  0
  147.8260  131.5575  153.2828 H   0  0  0  0  0  0  0  0  0  0  0  0
  148.5753  132.4795  152.0100 H   0  0  0  0  0  0  0  0  0  0  0  0
  149.4867  133.1039  154.2125 H   0  0  0  0  0  0  0  0  0  0  0  0
  148.7132  134.4803  153.4423 H   0  0  0  0  0  0  0  0  0  0  0  0
  150.7654  136.0359  157.0564 H   0  0  0  0  0  0  0  0  0  0  0  0
  145.6413  133.3198  159.8542 H   0  0  0  0  0  0  0  0  0  0  0  0
  148.7555  134.6492  161.2693 H   0  0  0  0  0  0  0  0  0  0  0  0
  147.6096  135.9514  161.0796 H   0  0  0  0  0  0  0  0  0  0  0  0
  147.4352  133.8093  163.8319 H   0  0  0  0  0  0  0  0  0  0  0  0
  144.9730  135.4110  162.3809 H   0  0  0  0  0  0  0  0  0  0  0  0
  145.0762  134.6425  160.7989 H   0  0  0  0  0  0  0  0  0  0  0  0
  144.5817  133.2042  163.4344 H   0  0  0  0  0  0  0  0  0  0  0  0
  143.5893  133.1477  161.9683 H   0  0  0  0  0  0  0  0  0  0  0  0
  147.3747  132.2808  161.1210 H   0  0  0  0  0  0  0  0  0  0  0  0
  147.2438  132.1980  162.8716 H   0  0  0  0  0  0  0  0  0  0  0  0
  145.6703  134.1758  155.6210 H   0  0  0  0  0  0  0  0  0  0  0  0
  146.3523  135.1374  154.3311 H   0  0  0  0  0  0  0  0  0  0  0  0
  144.6475  133.6129  153.4655 H   0  0  0  0  0  0  0  0  0  0  0  0
  145.4533  132.2197  154.1578 H   0  0  0  0  0  0  0  0  0  0  0  0
  146.4253  132.2743  150.5584 H   0  0  0  0  0  0  0  0  0  0  0  0
  1  2  1  0  0  0  0
  1 28  1  0  0  0  0
  1 29  1  0  0  0  0
  1 30  1  0  0  0  0
  2  3  1  0  0  0  0
  2  6  1  0  0  0  0
  2 56  1  0  0  0  0
  3  4  1  0  0  0  0
  3 31  1  0  0  0  0
  3 32  1  0  0  0  0
  4  5  1  0  0  0  0
  4 33  1  0  0  0  0
  4 34  1  0  0  0  0
  5 35  1  0  0  0  0
  6 27  1  0  0  0  0
  6  7  1  0  0  0  0
  6 36  1  0  0  0  0
  7  8  1  0  0  0  0
  7 37  1  0  0  0  0
  7 38  1  0  0  0  0
  8  9  1  0  0  0  0
  8 39  1  0  0  0  0
  8 40  1  0  0  0  0
  9 10  1  0  0  0  0
  9 26  1  0  0  0  0
 10 15  1  0  0  0  0
 10 11  2  0  0  0  0
 11 12  1  0  0  0  0
 12 13  2  0  0  0  0
 12 41  1  0  0  0  0
 13 14  1  0  0  0  0
 14 18  1  0  0  0  0
 14 15  2  0  0  0  0
 15 16  1  0  0  0  0
 16 17  2  0  0  0  0
 17 18  1  0  0  0  0
 17 42  1  0  0  0  0
 18 19  1  0  0  0  0
 19 20  1  0  0  0  0
 19 43  1  0  0  0  0
 19 44  1  0  0  0  0
 20 25  1  0  0  0  0
 20 21  1  0  0  0  0
 20 22  1  0  0  0  0
 21 45  1  0  0  0  0
 22 23  1  0  0  0  0
 22 46  1  0  0  0  0
 22 47  1  0  0  0  0
 23 24  1  0  0  0  0
 23 48  1  0  0  0  0
 23 49  1  0  0  0  0
 24 25  1  0  0  0  0
 25 50  1  0  0  0  0
 25 51  1  0  0  0  0
 26 27  1  0  0  0  0
 26 52  1  0  0  0  0
 26 53  1  0  0  0  0
 27 54  1  0  0  0  0
 27 55  1  0  0  0  0
M  CHG  1   2   1
M  END
> <s_m_source_file>
AV-unprocessed.smi

> <i_m_source_file_index>
22

> <i_lp_mmshare_version>
43012

> <i_f3d_flags>
0

> <s_epik_input>
W09IXVtDSDJdW0NIMl1OKFtDSDNdKVtDSF0xW0NIMl1bQ0gyXU4oW0NIMl1bQ0gyXTEpYyhuW2NIXW4yKWMoYzIzKW5bY0hdbjNbQ0gyXVtDQEBdNChbT0hdKVtDSDJdW0NIMl1PW0NIMl00

> <s_epik_cmdline>
J2VwaWtfcHl0aG9uJywgJy1waCcsICc3LjAnLCAnLXRuJywgJzgnLCAnLW1hJywgJzIwMCcsICctbWV0YWxfYmluZGluZycsICctaW1hZScsICc8aW5maWxlLm1hZT4nLCAnLW9tYWUnLCAnPG91dGZpbGUubWFlPic=

> <r_lp_tautomer_probability>
1

> <r_epik_Ionization_Penalty>
0.00317524

> <r_epik_Ionization_Penalty_Charging>
0.00191487

> <r_epik_Ionization_Penalty_Neutral>
0.00126037

> <r_epik_State_Penalty>
-0

> <r_epik_Charging_Adjusted_Penalty>
0.00191487

> <i_epik_Tot_Q>
1

> <i_epik_Tot_abs_Q>
1

> <r_epik_Metal_State_Penalty>
-0

> <b_epik_Metal_Only>
0

> <s_lp_Force_Field>
OPLS_2005

> <r_lp_Energy>
47.7053

> <b_lp_Chiralities_Consistent>
1

> <s_lp_Variant>
AV-unprocessed.smi:22-2

> <Gold.Version>
5.8.1

> <Gold.Id.Protein>
6NUR|6NUR_protein|mol2

> <Gold.PLP.Fitness>
45.8426

> <Gold.PLP.PLP>
-39.8776

> <Gold.PLP.part.hbond>
-4.5426

> <Gold.PLP.part.metal>
0.0000

> <Gold.PLP.part.buried>
-6.7747

> <Gold.PLP.part.nonpolar>
-28.1947

> <Gold.PLP.part.repulsive>
0.1466

> <Gold.PLP.ligand.clash>
0.2488

> <Gold.PLP.ligand.torsion>
1.2790

> <Gold.PLP.Chemscore.Hbond>
2.7290

> <Gold.PLP.Chemscore.CHOScore>
0.0000

> <Gold.PLP.Chemscore.Metal>
0.0000

> <Gold.Chemscore.Hbonds>
donor molecule, donor type, donor heavy atom, donor atom, acceptor molecule, acceptor atom, score
      L1  H     5    35       P1 10186  0.96
      P1  H  6896  6909       L1    13  1.00
      P1  H 10785 10796       L1     5  0.79

> <Gold.PLP.Chemscore.Internal.Correction>
0.5847

> <Gold.Rescore>
     Score         DG    S(hbond)    S(metal)    S(lipo)     H(rot)  DE(clash)    DE(int)     intcor
      8.91     -11.53       1.68        0.00      86.06       3.76       0.00       2.62       ----

> <Gold.Chemscore.Fitness>
8.9091

> <Gold.Chemscore.DG>
-11.5290

> <Gold.Chemscore.ZeroCoef>
-5.4800

> <Gold.Chemscore.Hbond>
1.6769

> <Gold.Chemscore.Metal>
0.0000

> <Gold.Chemscore.Lipo>
86.0624

> <Gold.Chemscore.Internal_Hbond>
0.0000

> <Gold.Chemscore.DEClash>
0.0029

> <Gold.Chemscore.DEInternal>
2.6170

> <Gold.Chemscore.Rot>
3.7583

> <Gold.Chemscore.Internal.Correction>
   9.000000E+99

> <Gold.Chemscore.Hbonds>
donor molecule, donor type, donor heavy atom, donor atom, acceptor molecule, acceptor atom, score
      L1  H     5    35       P1 10186  0.90
      P1  H  6896  6909       L1    13  0.60
      P1  H 10785 10796       L1     5  0.13

> <Gold.Chemscore.Hbond.Weighted>
-5.6010

> <Gold.Chemscore.Metal.Weighted>
-0.0000

> <Gold.Chemscore.Lipo.Weighted>
-10.0693

> <Gold.Chemscore.Internal_Hbond.Weighted>
0.0000

> <Gold.Chemscore.DEClash.Weighted>
0.0029

> <Gold.Chemscore.DEInternal.Weighted>
2.6170

> <Gold.Chemscore.Rot.Weighted>
9.6213

> <Gold.Chemscore.Internal.Correction.Weighted>
   9.000000E+99

> <Gold.Protein.RotatedTorsions>
[ 6907 6896 6895 6894 ] final   62.31 input  -60.11 | X-H torsion
[ 7974 7965 7964 7962 ] final  -41.98 input  175.53 | X-H torsion
[ 8008 7997 7996 7995 ] final   63.82 input   59.86 | X-H torsion
[ 10167 10162 10161 10158 ] final  -92.57 input  -65.29 | X-H torsion
[ 10718 10713 10712 10709 ] final -118.54 input   66.30 | X-H torsion
[ 10763 10752 10751 10750 ] final   -7.96 input  -60.55 | X-H torsion
[ 11005 11000 10999 10996 ] final  166.72 input  -57.11 | X-H torsion

> <Gold.Protein.ActiveResidues>
 VAL166  LYS551  ARG553  GLY616  TRP617  ASP618  TYR619  PRO620  LYS621  CYS622 
 ASP623  PHE694  ASN695  SER759  ASP760  ASP761  ALA762  ILE779  LEU786  VAL792 
 PHE793  MET794  SER795  GLU796  ALA797  LYS798  CYS799  TRP800  GLU811  SER814 

> <Gold.Protein.RotatedAtoms>
  152.4161  134.6038  160.0007 H   0  0  0  0  0  0  0  0  0  0  0  0  # atno 6907 bound_to 6896
  151.6202  133.3334  159.3094 H   0  0  0  0  0  0  0  0  0  0  0  0  # atno 6908 bound_to 6896
  150.8050  134.7208  159.6702 H   0  0  0  0  0  0  0  0  0  0  0  0  # atno 6909 bound_to 6896
  146.0159  140.6908  142.9202 H   0  0  0  0  0  0  0  0  0  0  0  0  # atno 7974 bound_to 7965
  155.6363  140.3496  155.4699 H   0  0  0  0  0  0  0  0  0  0  0  0  # atno 8008 bound_to 7997
  155.9962  140.1204  157.0614 H   0  0  0  0  0  0  0  0  0  0  0  0  # atno 8009 bound_to 7997
  154.4234  140.1109  156.5620 H   0  0  0  0  0  0  0  0  0  0  0  0  # atno 8010 bound_to 7997
  140.3334  143.2982  151.9916 H   0  0  0  0  0  0  0  0  0  0  0  0  # atno 10167 bound_to 10162
  156.1114  130.6252  150.9304 H   0  0  0  0  0  0  0  0  0  0  0  0  # atno 10718 bound_to 10713
  153.4338  135.7012  153.6213 H   0  0  0  0  0  0  0  0  0  0  0  0  # atno 10763 bound_to 10752
  153.4617  135.3735  155.2342 H   0  0  0  0  0  0  0  0  0  0  0  0  # atno 10764 bound_to 10752
  154.8726  135.4021  154.3726 H   0  0  0  0  0  0  0  0  0  0  0  0  # atno 10765 bound_to 10752
  140.2693  134.7839  157.3661 H   0  0  0  0  0  0  0  0  0  0  0  0  # atno 11005 bound_to 11000
  144.6971  140.3480  143.7187 LP  0  0  0  0  0  0  0  0  0  0  0  0  # atno 17320 bound_to 7965
  145.7269  139.1725  143.2452 LP  0  0  0  0  0  0  0  0  0  0  0  0  # atno 17321 bound_to 7965
  139.4852  144.6216  151.7244 LP  0  0  0  0  0  0  0  0  0  0  0  0  # atno 17342 bound_to 10162
  140.5376  144.0631  150.6076 LP  0  0  0  0  0  0  0  0  0  0  0  0  # atno 17343 bound_to 10162
  157.6295  131.0922  150.8468 LP  0  0  0  0  0  0  0  0  0  0  0  0  # atno 17370 bound_to 10713
  156.8578  130.5103  149.5306 LP  0  0  0  0  0  0  0  0  0  0  0  0  # atno 17371 bound_to 10713
  140.1388  134.4999  155.8047 LP  0  0  0  0  0  0  0  0  0  0  0  0  # atno 17394 bound_to 11000
  141.2179  133.6817  156.7173 LP  0  0  0  0  0  0  0  0  0  0  0  0  # atno 17395 bound_to 11000

$$$$
