AV-unprocessed.smi:2600|AV-procd|sdf|10181|dock7
  -GOLD-   2272014193D 1   1.00000     0.00000
 Structure written by MMmdl.
 44 45  0  0  0  0  0  0  0  0  1 V2000
  157.7045  145.6954  169.8794 C   0  0  0  0  0  0  0  0  0  0  0  0
  156.6416  144.6142  170.1352 C   0  0  0  0  0  0  0  0  0  0  0  0
  155.6746  144.3379  168.9594 C   0  0  1  0  0  0  0  0  0  0  0  0
  155.0690  145.6867  168.5052 C   0  0  0  0  0  0  0  0  0  0  0  0
  156.3861  143.6067  167.7893 C   0  0  0  0  0  0  0  0  0  0  0  0
  155.3920  143.1934  166.7882 N   0  0  0  0  0  0  0  0  0  0  0  0
  155.2372  143.6896  165.5355 C   0  0  0  0  0  0  0  0  0  0  0  0
  156.1138  144.3250  164.9478 O   0  0  0  0  0  0  0  0  0  0  0  0
  154.0429  143.4337  164.9753 N   0  0  0  0  0  0  0  0  0  0  0  0
  153.6482  143.8182  163.6258 C   0  0  0  0  0  0  0  0  0  0  0  0
  152.8832  142.6852  162.9215 C   0  0  0  0  0  0  0  0  0  0  0  0
  152.8750  142.8146  161.4314 C   0  0  0  0  0  0  0  0  0  0  0  0
  152.4747  143.8589  160.6457 C   0  0  0  0  0  0  0  0  0  0  0  0
  152.7062  143.4033  159.3188 C   0  0  0  0  0  0  0  0  0  0  0  0
  153.2076  142.1809  159.2823 N   0  0  0  0  0  0  0  0  0  0  0  0
  153.3100  141.8146  160.5778 N   0  0  0  0  0  0  0  0  0  0  0  0
  153.8396  140.5015  160.8953 C   0  0  0  0  0  0  0  0  0  0  0  0
  154.4450  142.2533  167.3897 C   0  0  0  0  0  0  0  0  0  0  0  0
  153.7041  142.9770  168.5260 C   0  0  0  0  0  0  0  0  0  0  0  0
  154.6359  143.4956  169.4782 O   0  0  0  0  0  0  0  0  0  0  0  0
  158.4008  145.7497  170.7163 H   0  0  0  0  0  0  0  0  0  0  0  0
  157.2614  146.6844  169.7688 H   0  0  0  0  0  0  0  0  0  0  0  0
  158.2866  145.4819  168.9827 H   0  0  0  0  0  0  0  0  0  0  0  0
  157.1603  143.6889  170.3901 H   0  0  0  0  0  0  0  0  0  0  0  0
  156.0698  144.8885  171.0228 H   0  0  0  0  0  0  0  0  0  0  0  0
  155.8496  146.3717  168.1731 H   0  0  0  0  0  0  0  0  0  0  0  0
  154.5333  146.1708  169.3220 H   0  0  0  0  0  0  0  0  0  0  0  0
  154.3681  145.5817  167.6780 H   0  0  0  0  0  0  0  0  0  0  0  0
  157.1834  144.2338  167.3903 H   0  0  0  0  0  0  0  0  0  0  0  0
  156.8847  142.7038  168.1409 H   0  0  0  0  0  0  0  0  0  0  0  0
  153.3680  142.9152  165.5183 H   0  0  0  0  0  0  0  0  0  0  0  0
  153.0165  144.7040  163.6965 H   0  0  0  0  0  0  0  0  0  0  0  0
  154.5279  144.1106  163.0509 H   0  0  0  0  0  0  0  0  0  0  0  0
  153.3055  141.7187  163.1981 H   0  0  0  0  0  0  0  0  0  0  0  0
  151.8543  142.6693  163.2828 H   0  0  0  0  0  0  0  0  0  0  0  0
  152.0766  144.8084  160.9717 H   0  0  0  0  0  0  0  0  0  0  0  0
  152.5263  143.9208  158.3883 H   0  0  0  0  0  0  0  0  0  0  0  0
  153.3348  140.0913  161.7698 H   0  0  0  0  0  0  0  0  0  0  0  0
  154.9070  140.5784  161.1028 H   0  0  0  0  0  0  0  0  0  0  0  0
  153.6900  139.8187  160.0580 H   0  0  0  0  0  0  0  0  0  0  0  0
  153.7266  141.8555  166.6717 H   0  0  0  0  0  0  0  0  0  0  0  0
  154.9858  141.3908  167.7823 H   0  0  0  0  0  0  0  0  0  0  0  0
  153.0740  143.7745  168.1322 H   0  0  0  0  0  0  0  0  0  0  0  0
  153.0377  142.2830  169.0382 H   0  0  0  0  0  0  0  0  0  0  0  0
  1  2  1  0  0  0  0
  1 21  1  0  0  0  0
  1 22  1  0  0  0  0
  1 23  1  0  0  0  0
  2  3  1  0  0  0  0
  2 24  1  0  0  0  0
  2 25  1  0  0  0  0
  3 20  1  0  0  0  0
  3  4  1  0  0  0  0
  3  5  1  0  0  0  0
  4 26  1  0  0  0  0
  4 27  1  0  0  0  0
  4 28  1  0  0  0  0
  5  6  1  0  0  0  0
  5 29  1  0  0  0  0
  5 30  1  0  0  0  0
  6  7  1  0  0  0  0
  6 18  1  0  0  0  0
  7  8  2  0  0  0  0
  7  9  1  0  0  0  0
  9 10  1  0  0  0  0
  9 31  1  0  0  0  0
 10 11  1  0  0  0  0
 10 32  1  0  0  0  0
 10 33  1  0  0  0  0
 11 12  1  0  0  0  0
 11 34  1  0  0  0  0
 11 35  1  0  0  0  0
 12 16  1  0  0  0  0
 12 13  2  0  0  0  0
 13 14  1  0  0  0  0
 13 36  1  0  0  0  0
 14 15  2  0  0  0  0
 14 37  1  0  0  0  0
 15 16  1  0  0  0  0
 16 17  1  0  0  0  0
 17 38  1  0  0  0  0
 17 39  1  0  0  0  0
 17 40  1  0  0  0  0
 18 19  1  0  0  0  0
 18 41  1  0  0  0  0
 18 42  1  0  0  0  0
 19 20  1  0  0  0  0
 19 43  1  0  0  0  0
 19 44  1  0  0  0  0
M  END
> <s_m_source_file>
AV-unprocessed.smi

> <i_m_source_file_index>
2600

> <i_lp_mmshare_version>
43012

> <i_f3d_flags>
0

> <s_epik_input>
W0NIM11bQ0gyXVtDQEBdMShbQ0gzXSlbQ0gyXU4oW0NIMl1bQ0gyXU8xKUMoPU8pW05IXVtDSDJdW0NIMl1jMltjSF1bY0hdbm4yW0NIM10=

> <s_epik_cmdline>
J2VwaWtfcHl0aG9uJywgJy1waCcsICc3LjAnLCAnLXRuJywgJzgnLCAnLW1hJywgJzIwMCcsICctbWV0YWxfYmluZGluZycsICctaW1hZScsICc8aW5maWxlLm1hZT4nLCAnLW9tYWUnLCAnPG91dGZpbGUubWFlPic=

> <r_lp_tautomer_probability>
1

> <r_epik_Ionization_Penalty>
0.00252014

> <r_epik_Ionization_Penalty_Charging>
0

> <r_epik_Ionization_Penalty_Neutral>
0.00252014

> <r_epik_State_Penalty>
0.00172506

> <r_epik_Charging_Adjusted_Penalty>
0.00172506

> <i_epik_Tot_Q>
0

> <i_epik_Tot_abs_Q>
0

> <r_epik_Metal_State_Penalty>
-0

> <b_epik_Metal_Only>
0

> <s_lp_Force_Field>
OPLS_2005

> <r_lp_Energy>
28.913

> <b_lp_Chiralities_Consistent>
1

> <s_lp_Variant>
AV-unprocessed.smi:2600-1

> <Gold.Version>
5.8.1

> <Gold.Id.Protein>
6NUR|6NUR_protein|mol2

> <Gold.PLP.Fitness>
45.4169

> <Gold.PLP.PLP>
-47.4005

> <Gold.PLP.part.hbond>
-1.8265

> <Gold.PLP.part.metal>
0.0000

> <Gold.PLP.part.buried>
-7.2378

> <Gold.PLP.part.nonpolar>
-38.1754

> <Gold.PLP.part.repulsive>
0.2820

> <Gold.PLP.ligand.clash>
1.1757

> <Gold.PLP.ligand.torsion>
0.4165

> <Gold.PLP.Chemscore.Hbond>
0.0000

> <Gold.PLP.Chemscore.CHOScore>
0.0000

> <Gold.PLP.Chemscore.Metal>
0.0000

> <Gold.PLP.Chemscore.Internal.Correction>
0.0251

> <Gold.Rescore>
     Score         DG    S(hbond)    S(metal)    S(lipo)     H(rot)  DE(clash)    DE(int)     intcor
     11.31     -13.61       0.00        0.00     101.73       1.47       1.70       0.60       ----

> <Gold.Chemscore.Fitness>
11.3072

> <Gold.Chemscore.DG>
-13.6107

> <Gold.Chemscore.ZeroCoef>
-5.4800

> <Gold.Chemscore.Hbond>
0.0000

> <Gold.Chemscore.Metal>
0.0000

> <Gold.Chemscore.Lipo>
101.7331

> <Gold.Chemscore.Internal_Hbond>
0.0000

> <Gold.Chemscore.DEClash>
1.7035

> <Gold.Chemscore.DEInternal>
0.6000

> <Gold.Chemscore.Rot>
1.4735

> <Gold.Chemscore.Internal.Correction>
   9.000000E+99

> <Gold.Chemscore.Hbond.Weighted>
-0.0000

> <Gold.Chemscore.Metal.Weighted>
-0.0000

> <Gold.Chemscore.Lipo.Weighted>
-11.9028

> <Gold.Chemscore.Internal_Hbond.Weighted>
0.0000

> <Gold.Chemscore.DEClash.Weighted>
1.7035

> <Gold.Chemscore.DEInternal.Weighted>
0.6000

> <Gold.Chemscore.Rot.Weighted>
3.7721

> <Gold.Chemscore.Internal.Correction.Weighted>
   9.000000E+99

> <Gold.Protein.RotatedTorsions>
[ 6907 6896 6895 6894 ] final  130.09 input  -60.11 | X-H torsion
[ 7974 7965 7964 7962 ] final  -53.78 input  175.53 | X-H torsion
[ 8008 7997 7996 7995 ] final -110.94 input   59.86 | X-H torsion
[ 10167 10162 10161 10158 ] final  -58.46 input  -65.29 | X-H torsion
[ 10718 10713 10712 10709 ] final  -54.80 input   66.30 | X-H torsion
[ 10763 10752 10751 10750 ] final  -51.86 input  -60.55 | X-H torsion
[ 11005 11000 10999 10996 ] final  -84.03 input  -57.11 | X-H torsion

> <Gold.Protein.ActiveResidues>
 VAL166  LYS551  ARG553  GLY616  TRP617  ASP618  TYR619  PRO620  LYS621  CYS622 
 ASP623  PHE694  ASN695  SER759  ASP760  ASP761  ALA762  ILE779  LEU786  VAL792 
 PHE793  MET794  SER795  GLU796  ALA797  LYS798  CYS799  TRP800  GLU811  SER814 

> <Gold.Protein.RotatedAtoms>
  152.3560  133.6237  159.5979 H   0  0  0  0  0  0  0  0  0  0  0  0  # atno 6907 bound_to 6896
  150.7569  133.9499  159.3491 H   0  0  0  0  0  0  0  0  0  0  0  0  # atno 6908 bound_to 6896
  151.7344  135.0869  160.0356 H   0  0  0  0  0  0  0  0  0  0  0  0  # atno 6909 bound_to 6896
  145.8929  140.8056  142.9782 H   0  0  0  0  0  0  0  0  0  0  0  0  # atno 7974 bound_to 7965
  154.9822  140.0396  157.2282 H   0  0  0  0  0  0  0  0  0  0  0  0  # atno 8008 bound_to 7997
  154.7704  140.2801  155.6120 H   0  0  0  0  0  0  0  0  0  0  0  0  # atno 8009 bound_to 7997
  156.2920  140.2611  156.2505 H   0  0  0  0  0  0  0  0  0  0  0  0  # atno 8010 bound_to 7997
  140.6196  143.2414  151.5513 H   0  0  0  0  0  0  0  0  0  0  0  0  # atno 10167 bound_to 10162
  156.1421  130.4154  150.0086 H   0  0  0  0  0  0  0  0  0  0  0  0  # atno 10718 bound_to 10713
  154.1334  135.6516  153.4927 H   0  0  0  0  0  0  0  0  0  0  0  0  # atno 10763 bound_to 10752
  153.0188  135.5298  154.6978 H   0  0  0  0  0  0  0  0  0  0  0  0  # atno 10764 bound_to 10752
  154.6219  135.2965  155.0287 H   0  0  0  0  0  0  0  0  0  0  0  0  # atno 10765 bound_to 10752
  141.1653  133.7325  156.8808 H   0  0  0  0  0  0  0  0  0  0  0  0  # atno 11005 bound_to 11000
  144.6731  140.1558  143.7426 LP  0  0  0  0  0  0  0  0  0  0  0  0  # atno 17320 bound_to 7965
  145.8885  139.2362  143.1563 LP  0  0  0  0  0  0  0  0  0  0  0  0  # atno 17321 bound_to 7965
  139.5427  144.2603  152.1383 LP  0  0  0  0  0  0  0  0  0  0  0  0  # atno 17342 bound_to 10162
  140.1820  144.4835  150.6523 LP  0  0  0  0  0  0  0  0  0  0  0  0  # atno 17343 bound_to 10162
  156.7968  130.9276  151.3646 LP  0  0  0  0  0  0  0  0  0  0  0  0  # atno 17370 bound_to 10713
  157.6585  130.8945  149.9779 LP  0  0  0  0  0  0  0  0  0  0  0  0  # atno 17371 bound_to 10713
  140.1716  134.9096  157.2840 LP  0  0  0  0  0  0  0  0  0  0  0  0  # atno 17394 bound_to 11000
  140.2495  134.3699  155.7448 LP  0  0  0  0  0  0  0  0  0  0  0  0  # atno 17395 bound_to 11000

$$$$
