AV-unprocessed.smi:3183|AV-procd|sdf|12155|dock3
  -GOLD-   2272017593D 1   1.00000     0.00000
 Structure written by MMmdl.
 43 44  0  0  0  0  0  0  0  0  2 V2000
  152.1960  144.1548  161.9742 C   0  0  0  0  0  0  0  0  0  0  0  0
  152.4790  144.0503  160.4649 C   0  0  2  0  0  0  0  0  0  0  0  0
  151.5151  144.9705  159.6890 C   0  0  0  0  0  0  0  0  0  0  0  0
  151.7607  144.9213  158.1730 C   0  0  0  0  0  0  0  0  0  0  0  0
  151.6846  143.4876  157.6230 C   0  0  2  0  0  0  0  0  0  0  0  0
  150.2923  142.9842  157.6478 N   0  3  0  0  0  0  0  0  0  0  0  0
  150.1173  141.6086  157.1413 C   0  0  0  0  0  0  0  0  0  0  0  0
  151.1668  141.2786  156.0698 C   0  0  0  0  0  0  0  0  0  0  0  0
  150.8218  140.0987  155.2120 C   0  0  0  0  0  0  0  0  0  0  0  0
  151.5024  138.9355  154.9735 C   0  0  0  0  0  0  0  0  0  0  0  0
  150.6650  138.2172  154.0769 C   0  0  0  0  0  0  0  0  0  0  0  0
  149.5582  138.8749  153.7821 N   0  0  0  0  0  0  0  0  0  0  0  0
  149.6503  140.0287  154.4756 N   0  0  0  0  0  0  0  0  0  0  0  0
  148.5684  140.9885  154.3622 C   0  0  0  0  0  0  0  0  0  0  0  0
  152.6222  142.5507  158.4060 C   0  0  0  0  0  0  0  0  0  0  0  0
  152.3948  142.5945  159.9339 C   0  0  1  0  0  0  0  0  0  0  0  0
  153.3852  141.6459  160.6331 C   0  0  0  0  0  0  0  0  0  0  0  0
  151.2211  143.7353  162.2255 H   0  0  0  0  0  0  0  0  0  0  0  0
  152.2030  145.1943  162.3030 H   0  0  0  0  0  0  0  0  0  0  0  0
  152.9486  143.6336  162.5651 H   0  0  0  0  0  0  0  0  0  0  0  0
  153.4931  144.4157  160.2958 H   0  0  0  0  0  0  0  0  0  0  0  0
  150.4832  144.6892  159.9038 H   0  0  0  0  0  0  0  0  0  0  0  0
  151.6264  145.9989  160.0350 H   0  0  0  0  0  0  0  0  0  0  0  0
  151.0477  145.5647  157.6556 H   0  0  0  0  0  0  0  0  0  0  0  0
  152.7483  145.3336  157.9618 H   0  0  0  0  0  0  0  0  0  0  0  0
  152.0266  143.5112  156.5870 H   0  0  0  0  0  0  0  0  0  0  0  0
  149.9612  143.0186  158.6014 H   0  0  0  0  0  0  0  0  0  0  0  0
  150.2005  140.9094  157.9748 H   0  0  0  0  0  0  0  0  0  0  0  0
  149.1135  141.5070  156.7264 H   0  0  0  0  0  0  0  0  0  0  0  0
  151.3096  142.1512  155.4309 H   0  0  0  0  0  0  0  0  0  0  0  0
  152.1261  141.0947  156.5554 H   0  0  0  0  0  0  0  0  0  0  0  0
  152.4583  138.6366  155.3772 H   0  0  0  0  0  0  0  0  0  0  0  0
  150.8271  137.2452  153.6349 H   0  0  0  0  0  0  0  0  0  0  0  0
  148.7633  141.8707  154.9710 H   0  0  0  0  0  0  0  0  0  0  0  0
  147.6362  140.5318  154.6958 H   0  0  0  0  0  0  0  0  0  0  0  0
  148.4597  141.2977  153.3222 H   0  0  0  0  0  0  0  0  0  0  0  0
  152.5097  141.5295  158.0387 H   0  0  0  0  0  0  0  0  0  0  0  0
  153.6549  142.8320  158.1937 H   0  0  0  0  0  0  0  0  0  0  0  0
  151.3903  142.2187  160.1343 H   0  0  0  0  0  0  0  0  0  0  0  0
  154.4106  142.0068  160.5450 H   0  0  0  0  0  0  0  0  0  0  0  0
  153.3478  140.6480  160.1957 H   0  0  0  0  0  0  0  0  0  0  0  0
  153.1593  141.5334  161.6933 H   0  0  0  0  0  0  0  0  0  0  0  0
  149.7226  143.6045  157.0902 H   0  0  0  0  0  0  0  0  0  0  0  0
  1  2  1  0  0  0  0
  1 18  1  0  0  0  0
  1 19  1  0  0  0  0
  1 20  1  0  0  0  0
  2 16  1  0  0  0  0
  2  3  1  0  0  0  0
  2 21  1  0  0  0  0
  3  4  1  0  0  0  0
  3 22  1  0  0  0  0
  3 23  1  0  0  0  0
  4  5  1  0  0  0  0
  4 24  1  0  0  0  0
  4 25  1  0  0  0  0
  5  6  1  0  0  0  0
  5 15  1  0  0  0  0
  5 26  1  0  0  0  0
  6  7  1  0  0  0  0
  6 27  1  0  0  0  0
  6 43  1  0  0  0  0
  7  8  1  0  0  0  0
  7 28  1  0  0  0  0
  7 29  1  0  0  0  0
  8  9  1  0  0  0  0
  8 30  1  0  0  0  0
  8 31  1  0  0  0  0
  9 13  1  0  0  0  0
  9 10  2  0  0  0  0
 10 11  1  0  0  0  0
 10 32  1  0  0  0  0
 11 12  2  0  0  0  0
 11 33  1  0  0  0  0
 12 13  1  0  0  0  0
 13 14  1  0  0  0  0
 14 34  1  0  0  0  0
 14 35  1  0  0  0  0
 14 36  1  0  0  0  0
 15 16  1  0  0  0  0
 15 37  1  0  0  0  0
 15 38  1  0  0  0  0
 16 17  1  0  0  0  0
 16 39  1  0  0  0  0
 17 40  1  0  0  0  0
 17 41  1  0  0  0  0
 17 42  1  0  0  0  0
M  CHG  1   6   1
M  END
> <s_m_source_file>
AV-unprocessed.smi

> <i_m_source_file_index>
3183

> <i_lp_mmshare_version>
43012

> <i_f3d_flags>
0

> <s_epik_input>
W0NIM11bQ0BASF0xW0NIMl1bQ0gyXVtDQEhdKFtDSDJdW0NASF0xW0NIM10pW05IXVtDSDJdW0NIMl1jMltjSF1bY0hdbm4yW0NIM10=

> <s_epik_cmdline>
J2VwaWtfcHl0aG9uJywgJy1waCcsICc3LjAnLCAnLXRuJywgJzgnLCAnLW1hJywgJzIwMCcsICctbWV0YWxfYmluZGluZycsICctaW1hZScsICc8aW5maWxlLm1hZT4nLCAnLW9tYWUnLCAnPG91dGZpbGUubWFlPic=

> <r_lp_tautomer_probability>
1

> <r_epik_Ionization_Penalty>
0.000327718

> <r_epik_Ionization_Penalty_Charging>
0.000294043

> <r_epik_Ionization_Penalty_Neutral>
3.36755e-05

> <r_epik_State_Penalty>
-0

> <r_epik_Charging_Adjusted_Penalty>
0.000294043

> <i_epik_Tot_Q>
1

> <i_epik_Tot_abs_Q>
1

> <r_epik_Metal_State_Penalty>
-0

> <b_epik_Metal_Only>
0

> <s_lp_Force_Field>
OPLS_2005

> <r_lp_Energy>
17.888

> <b_lp_Chiralities_Consistent>
1

> <s_lp_Variant>
AV-unprocessed.smi:3183-3

> <Gold.Version>
5.8.1

> <Gold.Id.Protein>
6NUR|6NUR_protein|mol2

> <Gold.PLP.Fitness>
52.6215

> <Gold.PLP.PLP>
-44.0002

> <Gold.PLP.part.hbond>
-1.0000

> <Gold.PLP.part.metal>
0.0000

> <Gold.PLP.part.buried>
-3.6454

> <Gold.PLP.part.nonpolar>
-39.2367

> <Gold.PLP.part.repulsive>
1.3645

> <Gold.PLP.ligand.clash>
0.0156

> <Gold.PLP.ligand.torsion>
0.2755

> <Gold.PLP.Chemscore.Hbond>
2.0000

> <Gold.PLP.Chemscore.CHOScore>
1.0570

> <Gold.PLP.Chemscore.Metal>
0.0000

> <Gold.Chemscore.Hbonds>
donor molecule, donor type, donor heavy atom, donor atom, acceptor molecule, acceptor atom, score
      L1  H     6    43       P1  8028  2.00
      L1  C    11    33       P1  7948  0.17
      L1  C    11    33       P1  7949  0.88

> <Gold.PLP.Chemscore.Internal.Correction>
0.0170

> <Gold.Rescore>
     Score         DG    S(hbond)    S(metal)    S(lipo)     H(rot)  DE(clash)    DE(int)     intcor
     19.38     -21.35       0.97        0.00     138.05       1.38       1.74       0.23       ----

> <Gold.Chemscore.Fitness>
19.3809

> <Gold.Chemscore.DG>
-21.3509

> <Gold.Chemscore.ZeroCoef>
-5.4800

> <Gold.Chemscore.Hbond>
0.9713

> <Gold.Chemscore.Metal>
0.0000

> <Gold.Chemscore.Lipo>
138.0461

> <Gold.Chemscore.Internal_Hbond>
0.0000

> <Gold.Chemscore.DEClash>
1.7399

> <Gold.Chemscore.DEInternal>
0.2302

> <Gold.Chemscore.Rot>
1.3768

> <Gold.Chemscore.Internal.Correction>
   9.000000E+99

> <Gold.Chemscore.Hbonds>
donor molecule, donor type, donor heavy atom, donor atom, acceptor molecule, acceptor atom, score
      L1  H     6    43       P1  8028  0.92

> <Gold.Chemscore.Hbond.Weighted>
-3.2442

> <Gold.Chemscore.Metal.Weighted>
-0.0000

> <Gold.Chemscore.Lipo.Weighted>
-16.1514

> <Gold.Chemscore.Internal_Hbond.Weighted>
0.0000

> <Gold.Chemscore.DEClash.Weighted>
1.7399

> <Gold.Chemscore.DEInternal.Weighted>
0.2302

> <Gold.Chemscore.Rot.Weighted>
3.5247

> <Gold.Chemscore.Internal.Correction.Weighted>
   9.000000E+99

> <Gold.Protein.RotatedTorsions>
[ 6907 6896 6895 6894 ] final   45.35 input  -60.11 | X-H torsion
[ 7974 7965 7964 7962 ] final   92.37 input  175.53 | X-H torsion
[ 8008 7997 7996 7995 ] final   -7.02 input   59.86 | X-H torsion
[ 10167 10162 10161 10158 ] final  141.02 input  -65.29 | X-H torsion
[ 10718 10713 10712 10709 ] final    6.43 input   66.30 | X-H torsion
[ 10763 10752 10751 10750 ] final -144.71 input  -60.55 | X-H torsion
[ 11005 11000 10999 10996 ] final  161.18 input  -57.11 | X-H torsion

> <Gold.Protein.ActiveResidues>
 VAL166  LYS551  ARG553  GLY616  TRP617  ASP618  TYR619  PRO620  LYS621  CYS622 
 ASP623  PHE694  ASN695  SER759  ASP760  ASP761  ALA762  ILE779  LEU786  VAL792 
 PHE793  MET794  SER795  GLU796  ALA797  LYS798  CYS799  TRP800  GLU811  SER814 

> <Gold.Protein.RotatedAtoms>
  152.2435  134.8204  160.0456 H   0  0  0  0  0  0  0  0  0  0  0  0  # atno 6907 bound_to 6896
  151.8910  133.3511  159.3806 H   0  0  0  0  0  0  0  0  0  0  0  0  # atno 6908 bound_to 6896
  150.7061  134.4850  159.5532 H   0  0  0  0  0  0  0  0  0  0  0  0  # atno 6909 bound_to 6896
  145.4932  139.2276  143.2818 H   0  0  0  0  0  0  0  0  0  0  0  0  # atno 7974 bound_to 7965
  154.5879  140.2417  155.7961 H   0  0  0  0  0  0  0  0  0  0  0  0  # atno 8008 bound_to 7997
  156.2226  140.2992  155.9944 H   0  0  0  0  0  0  0  0  0  0  0  0  # atno 8009 bound_to 7997
  155.2425  140.0407  157.2967 H   0  0  0  0  0  0  0  0  0  0  0  0  # atno 8010 bound_to 7997
  139.5032  144.6198  151.6079 H   0  0  0  0  0  0  0  0  0  0  0  0  # atno 10167 bound_to 10162
  156.9220  130.5794  149.5648 H   0  0  0  0  0  0  0  0  0  0  0  0  # atno 10718 bound_to 10713
  154.8416  135.3433  154.6390 H   0  0  0  0  0  0  0  0  0  0  0  0  # atno 10763 bound_to 10752
  153.7000  135.6970  153.5070 H   0  0  0  0  0  0  0  0  0  0  0  0  # atno 10764 bound_to 10752
  153.2530  135.4347  155.0771 H   0  0  0  0  0  0  0  0  0  0  0  0  # atno 10765 bound_to 10752
  140.2132  134.8252  157.3143 H   0  0  0  0  0  0  0  0  0  0  0  0  # atno 11005 bound_to 11000
  146.2271  140.5728  142.8991 LP  0  0  0  0  0  0  0  0  0  0  0  0  # atno 17320 bound_to 7965
  144.7822  140.5863  143.6598 LP  0  0  0  0  0  0  0  0  0  0  0  0  # atno 17321 bound_to 7965
  140.5896  143.9803  150.6316 LP  0  0  0  0  0  0  0  0  0  0  0  0  # atno 17342 bound_to 10162
  140.2979  143.3280  152.1000 LP  0  0  0  0  0  0  0  0  0  0  0  0  # atno 17343 bound_to 10162
  156.0486  130.5559  150.8939 LP  0  0  0  0  0  0  0  0  0  0  0  0  # atno 17370 bound_to 10713
  157.5902  131.0944  150.9132 LP  0  0  0  0  0  0  0  0  0  0  0  0  # atno 17371 bound_to 10713
  140.1928  134.4350  155.7706 LP  0  0  0  0  0  0  0  0  0  0  0  0  # atno 17394 bound_to 11000
  141.2225  133.7035  156.8056 LP  0  0  0  0  0  0  0  0  0  0  0  0  # atno 17395 bound_to 11000

$$$$
