AV-unprocessed.smi:1072|AV-procd|sdf|4686|dock4
  -GOLD-   22720 3203D 1   1.00000     0.00000
 Structure written by MMmdl.
 46 47  0  0  0  0  0  0  0  0  1 V2000
  149.3285  133.0884  153.6689 C   0  0  0  0  0  0  0  0  0  0  0  0
  149.3729  134.0436  154.8416 C   0  0  0  0  0  0  0  0  0  0  0  0
  149.3499  135.3786  154.4733 N   0  0  0  0  0  0  0  0  0  0  0  0
  149.3877  136.3282  155.4789 C   0  0  0  0  0  0  0  0  0  0  0  0
  149.3602  137.7662  154.9904 C   0  0  0  0  0  0  0  0  0  0  0  0
  149.4406  135.9659  156.7857 C   0  0  0  0  0  0  0  0  0  0  0  0
  149.4798  136.9851  157.9236 C   0  0  0  0  0  0  0  0  0  0  0  0
  150.6039  138.0214  157.8505 C   0  0  0  0  0  0  0  0  0  0  0  0
  151.7785  137.6546  157.8294 O   0  0  0  0  0  0  0  0  0  0  0  0
  150.2139  139.3088  157.8212 N   0  0  0  0  0  0  0  0  0  0  0  0
  151.0307  140.5301  157.7796 C   0  0  1  0  0  0  0  0  0  0  0  0
  151.8967  140.3982  156.5082 C   0  0  0  0  0  0  0  0  0  0  0  0
  150.1204  141.7855  157.6802 C   0  0  0  0  0  0  0  0  0  0  0  0
  150.8981  143.1088  157.7965 C   0  0  0  0  0  0  0  0  0  0  0  0
  151.7443  143.1607  159.0811 C   0  0  2  0  0  0  0  0  0  0  0  0
  152.5077  144.4877  159.1969 C   0  0  0  0  0  0  0  0  0  0  0  0
  152.6983  141.9544  159.1426 C   0  0  0  0  0  0  0  0  0  0  0  0
  151.9371  140.6205  159.0387 C   0  0  0  0  0  0  0  0  0  0  0  0
  149.4536  134.5216  157.1182 C   0  0  0  0  0  0  0  0  0  0  0  0
  149.4852  134.1288  158.2836 O   0  0  0  0  0  0  0  0  0  0  0  0
  149.4225  133.5985  156.0604 N   0  0  0  0  0  0  0  0  0  0  0  0
  149.3060  135.6914  153.5141 H   0  0  0  0  0  0  0  0  0  0  0  0
  149.5293  132.0658  153.9912 H   0  0  0  0  0  0  0  0  0  0  0  0
  150.0758  133.3620  152.9233 H   0  0  0  0  0  0  0  0  0  0  0  0
  148.3444  133.1124  153.2002 H   0  0  0  0  0  0  0  0  0  0  0  0
  150.2652  138.2905  155.2975 H   0  0  0  0  0  0  0  0  0  0  0  0
  148.4989  138.2926  155.4026 H   0  0  0  0  0  0  0  0  0  0  0  0
  149.2954  137.8202  153.9030 H   0  0  0  0  0  0  0  0  0  0  0  0
  149.5691  136.4394  158.8637 H   0  0  0  0  0  0  0  0  0  0  0  0
  148.5311  137.5166  158.0013 H   0  0  0  0  0  0  0  0  0  0  0  0
  149.2168  139.4664  157.8405 H   0  0  0  0  0  0  0  0  0  0  0  0
  152.5575  141.2512  156.3604 H   0  0  0  0  0  0  0  0  0  0  0  0
  151.2760  140.3159  155.6150 H   0  0  0  0  0  0  0  0  0  0  0  0
  152.5268  139.5088  156.5497 H   0  0  0  0  0  0  0  0  0  0  0  0
  149.5588  141.7705  156.7455 H   0  0  0  0  0  0  0  0  0  0  0  0
  149.3735  141.7799  158.4735 H   0  0  0  0  0  0  0  0  0  0  0  0
  151.5368  143.2467  156.9239 H   0  0  0  0  0  0  0  0  0  0  0  0
  150.1932  143.9408  157.7862 H   0  0  0  0  0  0  0  0  0  0  0  0
  151.0662  143.0967  159.9334 H   0  0  0  0  0  0  0  0  0  0  0  0
  153.2074  144.6160  158.3703 H   0  0  0  0  0  0  0  0  0  0  0  0
  153.0770  144.5338  160.1257 H   0  0  0  0  0  0  0  0  0  0  0  0
  151.8230  145.3361  159.1883 H   0  0  0  0  0  0  0  0  0  0  0  0
  153.4398  142.0253  158.3467 H   0  0  0  0  0  0  0  0  0  0  0  0
  153.2590  141.9751  160.0777 H   0  0  0  0  0  0  0  0  0  0  0  0
  151.3427  140.5173  159.9458 H   0  0  0  0  0  0  0  0  0  0  0  0
  152.6451  139.7909  159.0537 H   0  0  0  0  0  0  0  0  0  0  0  0
  1 23  1  0  0  0  0
  1 24  1  0  0  0  0
  1 25  1  0  0  0  0
  1  2  1  0  0  0  0
  2  3  1  0  0  0  0
  2 21  2  0  0  0  0
  3  4  1  0  0  0  0
  3 22  1  0  0  0  0
  4  6  2  0  0  0  0
  4  5  1  0  0  0  0
  5 26  1  0  0  0  0
  5 27  1  0  0  0  0
  5 28  1  0  0  0  0
  6 19  1  0  0  0  0
  6  7  1  0  0  0  0
  7  8  1  0  0  0  0
  7 29  1  0  0  0  0
  7 30  1  0  0  0  0
  8  9  2  0  0  0  0
  8 10  1  0  0  0  0
 10 11  1  0  0  0  0
 10 31  1  0  0  0  0
 11 18  1  0  0  0  0
 11 12  1  0  0  0  0
 11 13  1  0  0  0  0
 12 32  1  0  0  0  0
 12 33  1  0  0  0  0
 12 34  1  0  0  0  0
 13 14  1  0  0  0  0
 13 35  1  0  0  0  0
 13 36  1  0  0  0  0
 14 15  1  0  0  0  0
 14 37  1  0  0  0  0
 14 38  1  0  0  0  0
 15 16  1  0  0  0  0
 15 17  1  0  0  0  0
 15 39  1  0  0  0  0
 16 40  1  0  0  0  0
 16 41  1  0  0  0  0
 16 42  1  0  0  0  0
 17 18  1  0  0  0  0
 17 43  1  0  0  0  0
 17 44  1  0  0  0  0
 18 45  1  0  0  0  0
 18 46  1  0  0  0  0
 19 20  2  0  0  0  0
 19 21  1  0  0  0  0
M  END
> <s_m_source_file>
AV-unprocessed.smi

> <i_m_source_file_index>
1072

> <i_lp_mmshare_version>
43012

> <i_f3d_flags>
0

> <s_epik_input>
W0NIM11jMW5jKFtDSDNdKWMoYyg9TylbbkhdMSlbQ0gyXUMoPU8pW05IXVtDQEBdMihbQ0gzXSlbQ0gyXVtDSDJdW0NAQEhdKFtDSDNdKVtDSDJdW0NIMl0y

> <s_epik_cmdline>
J2VwaWtfcHl0aG9uJywgJy1waCcsICc3LjAnLCAnLXRuJywgJzgnLCAnLW1hJywgJzIwMCcsICctbWV0YWxfYmluZGluZycsICctaW1hZScsICc8aW5maWxlLm1hZT4nLCAnLW9tYWUnLCAnPG91dGZpbGUubWFlPic=

> <r_lp_tautomer_probability>
0.156392

> <r_epik_Ionization_Penalty>
0.0131066

> <r_epik_Ionization_Penalty_Charging>
0.0129643

> <r_epik_Ionization_Penalty_Neutral>
0.000142248

> <r_epik_State_Penalty>
1.15342

> <r_epik_Charging_Adjusted_Penalty>
1.16638

> <i_epik_Tot_Q>
0

> <i_epik_Tot_abs_Q>
0

> <r_epik_Metal_State_Penalty>
1.30766

> <b_epik_Metal_Only>
0

> <s_lp_Force_Field>
OPLS_2005

> <r_lp_Energy>
18.066

> <b_lp_Chiralities_Consistent>
1

> <s_lp_Variant>
AV-unprocessed.smi:1072-4

> <Gold.Version>
5.8.1

> <Gold.Id.Protein>
6NUR|6NUR_protein|mol2

> <Gold.PLP.Fitness>
37.7118

> <Gold.PLP.PLP>
-31.7747

> <Gold.PLP.part.hbond>
-2.0000

> <Gold.PLP.part.metal>
0.0000

> <Gold.PLP.part.buried>
-5.2555

> <Gold.PLP.part.nonpolar>
-25.1796

> <Gold.PLP.part.repulsive>
0.1222

> <Gold.PLP.ligand.clash>
0.0000

> <Gold.PLP.ligand.torsion>
0.0349

> <Gold.PLP.Chemscore.Hbond>
2.0000

> <Gold.PLP.Chemscore.CHOScore>
0.0000

> <Gold.PLP.Chemscore.Metal>
0.0000

> <Gold.Chemscore.Hbonds>
donor molecule, donor type, donor heavy atom, donor atom, acceptor molecule, acceptor atom, score
      L1  H     3    22       P1  7948  1.00
      P1  H  6896  6909       L1    20  1.00

> <Gold.PLP.Chemscore.Internal.Correction>
0.0071

> <Gold.Rescore>
     Score         DG    S(hbond)    S(metal)    S(lipo)     H(rot)  DE(clash)    DE(int)     intcor
     18.13     -18.15       1.99        0.00      83.72       1.47       0.01       0.01       ----

> <Gold.Chemscore.Fitness>
18.1329

> <Gold.Chemscore.DG>
-18.1546

> <Gold.Chemscore.ZeroCoef>
-5.4800

> <Gold.Chemscore.Hbond>
1.9879

> <Gold.Chemscore.Metal>
0.0000

> <Gold.Chemscore.Lipo>
83.7237

> <Gold.Chemscore.Internal_Hbond>
0.0000

> <Gold.Chemscore.DEClash>
0.0126

> <Gold.Chemscore.DEInternal>
0.0091

> <Gold.Chemscore.Rot>
1.4690

> <Gold.Chemscore.Internal.Correction>
   9.000000E+99

> <Gold.Chemscore.Hbonds>
donor molecule, donor type, donor heavy atom, donor atom, acceptor molecule, acceptor atom, score
      L1  H     3    22       P1  7948  0.45
      P1  H  6896  6909       L1    20  0.98

> <Gold.Chemscore.Hbond.Weighted>
-6.6396

> <Gold.Chemscore.Metal.Weighted>
-0.0000

> <Gold.Chemscore.Lipo.Weighted>
-9.7957

> <Gold.Chemscore.Internal_Hbond.Weighted>
0.0000

> <Gold.Chemscore.DEClash.Weighted>
0.0126

> <Gold.Chemscore.DEInternal.Weighted>
0.0091

> <Gold.Chemscore.Rot.Weighted>
3.7607

> <Gold.Chemscore.Internal.Correction.Weighted>
   9.000000E+99

> <Gold.Protein.RotatedTorsions>
[ 6907 6896 6895 6894 ] final   17.98 input  -60.11 | X-H torsion
[ 7974 7965 7964 7962 ] final   14.70 input  175.53 | X-H torsion
[ 8008 7997 7996 7995 ] final  171.35 input   59.86 | X-H torsion
[ 10167 10162 10161 10158 ] final  -64.15 input  -65.29 | X-H torsion
[ 10718 10713 10712 10709 ] final -128.85 input   66.30 | X-H torsion
[ 10763 10752 10751 10750 ] final  130.25 input  -60.55 | X-H torsion
[ 11005 11000 10999 10996 ] final   77.81 input  -57.11 | X-H torsion

> <Gold.Protein.ActiveResidues>
 VAL166  LYS551  ARG553  GLY616  TRP617  ASP618  TYR619  PRO620  LYS621  CYS622 
 ASP623  PHE694  ASN695  SER759  ASP760  ASP761  ALA762  ILE779  LEU786  VAL792 
 PHE793  MET794  SER795  GLU796  ALA797  LYS798  CYS799  TRP800  GLU811  SER814 

> <Gold.Protein.RotatedAtoms>
  151.8581  135.0534  160.0466 H   0  0  0  0  0  0  0  0  0  0  0  0  # atno 6907 bound_to 6896
  152.2685  133.5356  159.5433 H   0  0  0  0  0  0  0  0  0  0  0  0  # atno 6908 bound_to 6896
  150.7142  134.0648  159.3886 H   0  0  0  0  0  0  0  0  0  0  0  0  # atno 6909 bound_to 6896
  146.2298  139.9002  142.8540 H   0  0  0  0  0  0  0  0  0  0  0  0  # atno 7974 bound_to 7965
  156.1280  140.1514  156.9108 H   0  0  0  0  0  0  0  0  0  0  0  0  # atno 8008 bound_to 7997
  154.4886  140.0858  156.7584 H   0  0  0  0  0  0  0  0  0  0  0  0  # atno 8009 bound_to 7997
  155.4309  140.3427  155.4282 H   0  0  0  0  0  0  0  0  0  0  0  0  # atno 8010 bound_to 7997
  140.5821  143.2328  151.6320 H   0  0  0  0  0  0  0  0  0  0  0  0  # atno 10167 bound_to 10162
  156.1990  130.6845  151.0517 H   0  0  0  0  0  0  0  0  0  0  0  0  # atno 10718 bound_to 10713
  153.7549  135.3204  155.3327 H   0  0  0  0  0  0  0  0  0  0  0  0  # atno 10763 bound_to 10752
  154.8250  135.4576  154.0895 H   0  0  0  0  0  0  0  0  0  0  0  0  # atno 10764 bound_to 10752
  153.2109  135.6935  153.8198 H   0  0  0  0  0  0  0  0  0  0  0  0  # atno 10765 bound_to 10752
  139.9239  134.7713  156.1570 H   0  0  0  0  0  0  0  0  0  0  0  0  # atno 11005 bound_to 11000
  145.2330  140.9980  143.3979 LP  0  0  0  0  0  0  0  0  0  0  0  0  # atno 17320 bound_to 7965
  144.9514  139.4078  143.6400 LP  0  0  0  0  0  0  0  0  0  0  0  0  # atno 17321 bound_to 7965
  139.5176  144.3311  152.0826 LP  0  0  0  0  0  0  0  0  0  0  0  0  # atno 17342 bound_to 10162
  140.2462  144.4217  150.6240 LP  0  0  0  0  0  0  0  0  0  0  0  0  # atno 17343 bound_to 10162
  157.6975  131.0788  150.6925 LP  0  0  0  0  0  0  0  0  0  0  0  0  # atno 17370 bound_to 10713
  156.6982  130.4615  149.5580 LP  0  0  0  0  0  0  0  0  0  0  0  0  # atno 17371 bound_to 10713
  141.0781  133.6766  156.2278 LP  0  0  0  0  0  0  0  0  0  0  0  0  # atno 17394 bound_to 11000
  140.6394  134.5181  157.5568 LP  0  0  0  0  0  0  0  0  0  0  0  0  # atno 17395 bound_to 11000

$$$$
