AV-unprocessed.smi:1222|AV-procd|sdf|5124|dock5
  -GOLD-   22720 4183D 1   1.00000     0.00000
 Structure written by MMmdl.
 36 38  0  0  0  0  0  0  0  0  3 V2000
  149.5308  136.1651  159.5377 O   0  0  0  0  0  0  0  0  0  0  0  0
  148.5346  136.8888  159.6040 C   0  0  0  0  0  0  0  0  0  0  0  0
  147.9195  137.3018  160.7347 N   0  5  0  0  0  0  0  0  0  0  0  0
  147.2378  136.4224  161.4868 C   0  0  0  0  0  0  0  0  0  0  0  0
  147.7642  135.2730  161.9253 N   0  0  0  0  0  0  0  0  0  0  0  0
  146.8783  134.5142  162.6923 C   0  0  0  0  0  0  0  0  0  0  0  0
  145.6529  135.1052  162.8515 C   0  0  0  0  0  0  0  0  0  0  0  0
  145.5730  136.6394  162.0338 S   0  0  0  0  0  0  0  0  0  0  0  0
  147.9554  137.3444  158.4835 N   0  0  0  0  0  0  0  0  0  0  0  0
  148.3812  137.0818  157.1112 C   0  0  2  0  0  0  0  0  0  0  0  0
  148.7200  138.4050  156.4053 C   0  0  0  0  0  0  0  0  0  0  0  0
  149.0585  138.1728  154.9210 C   0  0  0  0  0  0  0  0  0  0  0  0
  147.9778  137.4447  154.2070 N   0  3  2  0  0  0  0  0  0  0  0  0
  146.7932  138.2867  153.9188 C   0  0  0  0  0  0  0  0  0  0  0  0
  146.5034  138.4399  152.4437 C   0  0  0  0  0  0  0  0  0  0  0  0
  147.1266  139.5817  153.2152 C   0  0  0  0  0  0  0  0  0  0  0  0
  147.6379  136.1583  154.8679 C   0  0  0  0  0  0  0  0  0  0  0  0
  147.2652  136.3486  156.3498 C   0  0  0  0  0  0  0  0  0  0  0  0
  147.2053  133.5644  163.0885 H   0  0  0  0  0  0  0  0  0  0  0  0
  144.7975  134.7350  163.3959 H   0  0  0  0  0  0  0  0  0  0  0  0
  147.1431  137.9323  158.6007 H   0  0  0  0  0  0  0  0  0  0  0  0
  149.2704  136.4493  157.0964 H   0  0  0  0  0  0  0  0  0  0  0  0
  147.8827  139.0991  156.4896 H   0  0  0  0  0  0  0  0  0  0  0  0
  149.5639  138.8848  156.9024 H   0  0  0  0  0  0  0  0  0  0  0  0
  149.2607  139.1223  154.4237 H   0  0  0  0  0  0  0  0  0  0  0  0
  149.9752  137.5863  154.8458 H   0  0  0  0  0  0  0  0  0  0  0  0
  145.9759  138.2478  154.6365 H   0  0  0  0  0  0  0  0  0  0  0  0
  147.1361  137.9078  151.7355 H   0  0  0  0  0  0  0  0  0  0  0  0
  145.4629  138.5503  152.1450 H   0  0  0  0  0  0  0  0  0  0  0  0
  146.4965  140.4431  153.4265 H   0  0  0  0  0  0  0  0  0  0  0  0
  148.1729  139.8085  153.0179 H   0  0  0  0  0  0  0  0  0  0  0  0
  146.8259  135.6665  154.3313 H   0  0  0  0  0  0  0  0  0  0  0  0
  148.5010  135.4955  154.7934 H   0  0  0  0  0  0  0  0  0  0  0  0
  147.0801  135.3765  156.8086 H   0  0  0  0  0  0  0  0  0  0  0  0
  146.3305  136.9052  156.4284 H   0  0  0  0  0  0  0  0  0  0  0  0
  148.3560  137.2023  153.3024 H   0  0  0  0  0  0  0  0  0  0  0  0
  1  2  2  0  0  0  0
  2  3  1  0  0  0  0
  2  9  1  0  0  0  0
  3  4  1  0  0  0  0
  4  8  1  0  0  0  0
  4  5  2  0  0  0  0
  5  6  1  0  0  0  0
  6  7  2  0  0  0  0
  6 19  1  0  0  0  0
  7  8  1  0  0  0  0
  7 20  1  0  0  0  0
  9 10  1  0  0  0  0
  9 21  1  0  0  0  0
 10 18  1  0  0  0  0
 10 11  1  0  0  0  0
 10 22  1  0  0  0  0
 11 12  1  0  0  0  0
 11 23  1  0  0  0  0
 11 24  1  0  0  0  0
 12 13  1  0  0  0  0
 12 25  1  0  0  0  0
 12 26  1  0  0  0  0
 13 14  1  0  0  0  0
 13 17  1  0  0  0  0
 13 36  1  0  0  0  0
 14 16  1  0  0  0  0
 14 15  1  0  0  0  0
 14 27  1  0  0  0  0
 15 16  1  0  0  0  0
 15 28  1  0  0  0  0
 15 29  1  0  0  0  0
 16 30  1  0  0  0  0
 16 31  1  0  0  0  0
 17 18  1  0  0  0  0
 17 32  1  0  0  0  0
 17 33  1  0  0  0  0
 18 34  1  0  0  0  0
 18 35  1  0  0  0  0
M  CHG  1   3  -1
M  CHG  1  13   1
M  END
> <s_m_source_file>
AV-unprocessed.smi

> <i_m_source_file_index>
1222

> <i_lp_mmshare_version>
43012

> <i_f3d_flags>
0

> <s_epik_input>
czFbY0hdW2NIXW5jMVtOSF1DKD1PKVtOSF1bQ0hdMltDSDJdW0NIMl1OKFtDSDJdW0NIMl0yKVtDSF0zW0NIMl1bQ0gyXTM=

> <s_epik_cmdline>
J2VwaWtfcHl0aG9uJywgJy1waCcsICc3LjAnLCAnLXRuJywgJzgnLCAnLW1hJywgJzIwMCcsICctbWV0YWxfYmluZGluZycsICctaW1hZScsICc8aW5maWxlLm1hZT4nLCAnLW9tYWUnLCAnPG91dGZpbGUubWFlPic=

> <r_lp_tautomer_probability>
0.999

> <r_epik_Ionization_Penalty>
6.4609

> <r_epik_Ionization_Penalty_Charging>
5.58663

> <r_epik_Ionization_Penalty_Neutral>
0.874262

> <r_epik_State_Penalty>
5.57752

> <r_epik_Charging_Adjusted_Penalty>
11.1642

> <i_epik_Tot_Q>
0

> <i_epik_Tot_abs_Q>
2

> <r_epik_Metal_State_Penalty>
1.58738

> <b_epik_Metal_Only>
1

> <s_lp_Force_Field>
OPLS_2005

> <r_lp_Energy>
18.4685

> <b_lp_Chiralities_Consistent>
1

> <s_lp_Variant>
AV-unprocessed.smi:1222-5

> <Gold.Version>
5.8.1

> <Gold.Id.Protein>
6NUR|6NUR_protein|mol2

> <Gold.PLP.Fitness>
41.7028

> <Gold.PLP.PLP>
-25.1155

> <Gold.PLP.part.hbond>
-4.0000

> <Gold.PLP.part.metal>
0.0000

> <Gold.PLP.part.buried>
-3.2871

> <Gold.PLP.part.nonpolar>
-18.3072

> <Gold.PLP.part.repulsive>
0.0973

> <Gold.PLP.ligand.clash>
0.0000

> <Gold.PLP.ligand.torsion>
1.8814

> <Gold.PLP.Chemscore.Hbond>
6.3600

> <Gold.PLP.Chemscore.CHOScore>
0.0000

> <Gold.PLP.Chemscore.Metal>
0.0000

> <Gold.Chemscore.Hbonds>
donor molecule, donor type, donor heavy atom, donor atom, acceptor molecule, acceptor atom, score
      L1  H    13    36       P1  7948  2.00
      P1  H  6896  6907       L1     1  1.00
      P1  H  6931  6943       L1     3  1.57
      P1  H  6934  6947       L1     3  1.57

> <Gold.PLP.Chemscore.Internal.Correction>
1.2701

> <Gold.Rescore>
     Score         DG    S(hbond)    S(metal)    S(lipo)     H(rot)  DE(clash)    DE(int)     intcor
     16.75     -18.68       3.27        0.00      46.82       1.25       0.02       1.91       ----

> <Gold.Chemscore.Fitness>
16.7503

> <Gold.Chemscore.DG>
-18.6757

> <Gold.Chemscore.ZeroCoef>
-5.4800

> <Gold.Chemscore.Hbond>
3.2664

> <Gold.Chemscore.Metal>
0.0000

> <Gold.Chemscore.Lipo>
46.8232

> <Gold.Chemscore.Internal_Hbond>
0.0000

> <Gold.Chemscore.DEClash>
0.0202

> <Gold.Chemscore.DEInternal>
1.9052

> <Gold.Chemscore.Rot>
1.2470

> <Gold.Chemscore.Internal.Correction>
   9.000000E+99

> <Gold.Chemscore.Hbonds>
donor molecule, donor type, donor heavy atom, donor atom, acceptor molecule, acceptor atom, score
      L1  H    13    36       P1  7948  1.00
      P1  H  6896  6907       L1     1  1.00
      P1  H  6931  6943       L1     3  0.41
      P1  H  6934  6947       L1     3  0.60

> <Gold.Chemscore.Hbond.Weighted>
-10.9098

> <Gold.Chemscore.Metal.Weighted>
-0.0000

> <Gold.Chemscore.Lipo.Weighted>
-5.4783

> <Gold.Chemscore.Internal_Hbond.Weighted>
0.0000

> <Gold.Chemscore.DEClash.Weighted>
0.0202

> <Gold.Chemscore.DEInternal.Weighted>
1.9052

> <Gold.Chemscore.Rot.Weighted>
3.1924

> <Gold.Chemscore.Internal.Correction.Weighted>
   9.000000E+99

> <Gold.Protein.RotatedTorsions>
[ 6907 6896 6895 6894 ] final  -54.39 input  -60.11 | X-H torsion
[ 7974 7965 7964 7962 ] final -134.94 input  175.53 | X-H torsion
[ 8008 7997 7996 7995 ] final  -53.68 input   59.86 | X-H torsion
[ 10167 10162 10161 10158 ] final  -37.02 input  -65.29 | X-H torsion
[ 10718 10713 10712 10709 ] final  -40.92 input   66.30 | X-H torsion
[ 10763 10752 10751 10750 ] final   92.54 input  -60.55 | X-H torsion
[ 11005 11000 10999 10996 ] final   81.60 input  -57.11 | X-H torsion

> <Gold.Protein.ActiveResidues>
 VAL166  LYS551  ARG553  GLY616  TRP617  ASP618  TYR619  PRO620  LYS621  CYS622 
 ASP623  PHE694  ASN695  SER759  ASP760  ASP761  ALA762  ILE779  LEU786  VAL792 
 PHE793  MET794  SER795  GLU796  ALA797  LYS798  CYS799  TRP800  GLU811  SER814 

> <Gold.Protein.RotatedAtoms>
  150.8342  134.7608  159.6878 H   0  0  0  0  0  0  0  0  0  0  0  0  # atno 6907 bound_to 6896
  152.4442  134.5526  159.9881 H   0  0  0  0  0  0  0  0  0  0  0  0  # atno 6908 bound_to 6896
  151.5680  133.3356  159.3020 H   0  0  0  0  0  0  0  0  0  0  0  0  # atno 6909 bound_to 6896
  144.9058  140.6831  143.5056 H   0  0  0  0  0  0  0  0  0  0  0  0  # atno 7974 bound_to 7965
  154.4140  140.1194  156.5193 H   0  0  0  0  0  0  0  0  0  0  0  0  # atno 8008 bound_to 7997
  155.6719  140.3496  155.4802 H   0  0  0  0  0  0  0  0  0  0  0  0  # atno 8009 bound_to 7997
  155.9625  140.1126  157.0873 H   0  0  0  0  0  0  0  0  0  0  0  0  # atno 8010 bound_to 7997
  140.7128  143.3369  151.2442 H   0  0  0  0  0  0  0  0  0  0  0  0  # atno 10167 bound_to 10162
  156.2761  130.4212  149.8387 H   0  0  0  0  0  0  0  0  0  0  0  0  # atno 10718 bound_to 10713
  153.2203  135.4357  155.0482 H   0  0  0  0  0  0  0  0  0  0  0  0  # atno 10763 bound_to 10752
  154.8246  135.3354  154.6937 H   0  0  0  0  0  0  0  0  0  0  0  0  # atno 10764 bound_to 10752
  153.7369  135.7007  153.5032 H   0  0  0  0  0  0  0  0  0  0  0  0  # atno 10765 bound_to 10752
  139.9092  134.8009  156.2063 H   0  0  0  0  0  0  0  0  0  0  0  0  # atno 11005 bound_to 11000
  145.3539  139.1699  143.4420 LP  0  0  0  0  0  0  0  0  0  0  0  0  # atno 17320 bound_to 7965
  146.3133  140.3593  142.8663 LP  0  0  0  0  0  0  0  0  0  0  0  0  # atno 17321 bound_to 7965
  139.6867  143.9762  152.2838 LP  0  0  0  0  0  0  0  0  0  0  0  0  # atno 17342 bound_to 10162
  139.9409  144.6682  150.8267 LP  0  0  0  0  0  0  0  0  0  0  0  0  # atno 17343 bound_to 10162
  156.5851  130.8482  151.3393 LP  0  0  0  0  0  0  0  0  0  0  0  0  # atno 17370 bound_to 10713
  157.7299  130.9678  150.1810 LP  0  0  0  0  0  0  0  0  0  0  0  0  # atno 17371 bound_to 10713
  141.0493  133.6897  156.1743 LP  0  0  0  0  0  0  0  0  0  0  0  0  # atno 17394 bound_to 11000
  140.6834  134.4742  157.5589 LP  0  0  0  0  0  0  0  0  0  0  0  0  # atno 17395 bound_to 11000

$$$$
