AV-unprocessed.smi:1260|AV-procd|sdf|5295|dock8
  -GOLD-   22720 4413D 1   1.00000     0.00000
 Structure written by MMmdl.
 37 39  0  0  0  0  0  0  0  0  2 V2000
  149.9449  140.4436  156.8370 O   0  0  0  0  0  0  0  0  0  0  0  0
  149.9426  141.5237  156.2477 C   0  0  0  0  0  0  0  0  0  0  0  0
  149.5857  141.5811  154.7607 C   0  0  0  0  0  0  0  0  0  0  0  0
  148.2871  140.9875  154.5006 N   0  0  0  0  0  0  0  0  0  0  0  0
  147.9290  139.9739  153.7095 C   0  0  0  0  0  0  0  0  0  0  0  0
  146.6231  139.7595  153.7504 N   0  0  0  0  0  0  0  0  0  0  0  0
  146.1741  140.7215  154.6397 N   0  0  0  0  0  0  0  0  0  0  0  0
  147.1569  141.4533  155.0882 N   0  0  0  0  0  0  0  0  0  0  0  0
  150.2552  142.6873  156.8399 N   0  0  0  0  0  0  0  0  0  0  0  0
  150.6170  142.8478  158.2448 C   0  0  2  0  0  0  0  0  0  0  0  0
  150.9384  144.3063  158.6165 C   0  0  0  0  0  0  0  0  0  0  0  0
  152.1189  144.2269  159.6049 C   0  0  0  0  0  0  0  0  0  0  0  0
  152.3399  142.7866  159.8349 N   0  3  2  0  0  0  0  0  0  0  0  0
  153.6905  142.3745  160.2756 C   0  0  0  0  0  0  0  0  0  0  0  0
  153.6979  140.8554  160.5402 C   0  0  0  0  0  0  0  0  0  0  0  0
  153.1731  140.0599  159.3274 C   0  0  0  0  0  0  0  0  0  0  0  0
  151.8073  140.5968  158.8579 C   0  0  0  0  0  0  0  0  0  0  0  0
  151.9097  142.1099  158.6018 C   0  0  1  0  0  0  0  0  0  0  0  0
  149.5745  142.6190  154.4255 H   0  0  0  0  0  0  0  0  0  0  0  0
  150.3403  141.0592  154.1701 H   0  0  0  0  0  0  0  0  0  0  0  0
  148.6179  139.4033  153.1044 H   0  0  0  0  0  0  0  0  0  0  0  0
  150.2289  143.5258  156.2776 H   0  0  0  0  0  0  0  0  0  0  0  0
  149.8083  142.5004  158.8916 H   0  0  0  0  0  0  0  0  0  0  0  0
  151.2305  144.8877  157.7405 H   0  0  0  0  0  0  0  0  0  0  0  0
  150.0712  144.7972  159.0594 H   0  0  0  0  0  0  0  0  0  0  0  0
  153.0081  144.6770  159.1606 H   0  0  0  0  0  0  0  0  0  0  0  0
  151.9121  144.7417  160.5435 H   0  0  0  0  0  0  0  0  0  0  0  0
  154.4259  142.6331  159.5123 H   0  0  0  0  0  0  0  0  0  0  0  0
  153.9613  142.9161  161.1825 H   0  0  0  0  0  0  0  0  0  0  0  0
  154.7054  140.5256  160.7959 H   0  0  0  0  0  0  0  0  0  0  0  0
  153.0739  140.6380  161.4079 H   0  0  0  0  0  0  0  0  0  0  0  0
  153.8908  140.1322  158.5091 H   0  0  0  0  0  0  0  0  0  0  0  0
  153.0955  139.0012  159.5774 H   0  0  0  0  0  0  0  0  0  0  0  0
  151.4970  140.0767  157.9513 H   0  0  0  0  0  0  0  0  0  0  0  0
  151.0470  140.3929  159.6130 H   0  0  0  0  0  0  0  0  0  0  0  0
  152.6550  142.2968  157.8248 H   0  0  0  0  0  0  0  0  0  0  0  0
  151.6892  142.5071  160.5554 H   0  0  0  0  0  0  0  0  0  0  0  0
  1  2  2  0  0  0  0
  2  3  1  0  0  0  0
  2  9  1  0  0  0  0
  3  4  1  0  0  0  0
  3 19  1  0  0  0  0
  3 20  1  0  0  0  0
  4  8  1  0  0  0  0
  4  5  1  0  0  0  0
  5  6  2  0  0  0  0
  5 21  1  0  0  0  0
  6  7  1  0  0  0  0
  7  8  2  0  0  0  0
  9 10  1  0  0  0  0
  9 22  1  0  0  0  0
 10 18  1  0  0  0  0
 10 11  1  0  0  0  0
 10 23  1  0  0  0  0
 11 12  1  0  0  0  0
 11 24  1  0  0  0  0
 11 25  1  0  0  0  0
 12 13  1  0  0  0  0
 12 26  1  0  0  0  0
 12 27  1  0  0  0  0
 13 18  1  0  0  0  0
 13 14  1  0  0  0  0
 13 37  1  0  0  0  0
 14 15  1  0  0  0  0
 14 28  1  0  0  0  0
 14 29  1  0  0  0  0
 15 16  1  0  0  0  0
 15 30  1  0  0  0  0
 15 31  1  0  0  0  0
 16 17  1  0  0  0  0
 16 32  1  0  0  0  0
 16 33  1  0  0  0  0
 17 18  1  0  0  0  0
 17 34  1  0  0  0  0
 17 35  1  0  0  0  0
 18 36  1  0  0  0  0
M  CHG  1  13   1
M  END
> <s_m_source_file>
AV-unprocessed.smi

> <i_m_source_file_index>
1260

> <i_lp_mmshare_version>
43012

> <i_f3d_flags>
0

> <s_epik_input>
bjFubltjSF1uMVtDSDJdQyg9TylbTkhdW0NASF0oW0NIMl1bQ0gyXTIpW0NAQEhdKE4yMylbQ0gyXVtDSDJdW0NIMl1bQ0gyXTM=

> <s_epik_cmdline>
J2VwaWtfcHl0aG9uJywgJy1waCcsICc3LjAnLCAnLXRuJywgJzgnLCAnLW1hJywgJzIwMCcsICctbWV0YWxfYmluZGluZycsICctaW1hZScsICc8aW5maWxlLm1hZT4nLCAnLW9tYWUnLCAnPG91dGZpbGUubWFlPic=

> <r_lp_tautomer_probability>
1

> <r_epik_Ionization_Penalty>
0.00234324

> <r_epik_Ionization_Penalty_Charging>
0.00233897

> <r_epik_Ionization_Penalty_Neutral>
4.26861e-06

> <r_epik_State_Penalty>
0.00161477

> <r_epik_Charging_Adjusted_Penalty>
0.00395374

> <i_epik_Tot_Q>
1

> <i_epik_Tot_abs_Q>
1

> <r_epik_Metal_State_Penalty>
-0

> <b_epik_Metal_Only>
0

> <s_lp_Force_Field>
OPLS_2005

> <r_lp_Energy>
37.0555

> <b_lp_Chiralities_Consistent>
1

> <s_lp_Variant>
AV-unprocessed.smi:1260-3

> <Gold.Version>
5.8.1

> <Gold.Id.Protein>
6NUR|6NUR_protein|mol2

> <Gold.PLP.Fitness>
37.4821

> <Gold.PLP.PLP>
-32.3252

> <Gold.PLP.part.hbond>
-1.0000

> <Gold.PLP.part.metal>
0.0000

> <Gold.PLP.part.buried>
-3.9744

> <Gold.PLP.part.nonpolar>
-27.6298

> <Gold.PLP.part.repulsive>
0.4839

> <Gold.PLP.ligand.clash>
0.0000

> <Gold.PLP.ligand.torsion>
0.0309

> <Gold.PLP.Chemscore.Hbond>
0.7360

> <Gold.PLP.Chemscore.CHOScore>
1.0000

> <Gold.PLP.Chemscore.Metal>
0.0000

> <Gold.Chemscore.Hbonds>
donor molecule, donor type, donor heavy atom, donor atom, acceptor molecule, acceptor atom, score
      L1  H     9    22       P1  8028  0.74
      L1  C     5    21       P1  7957  0.96

> <Gold.PLP.Chemscore.Internal.Correction>
0.0107

> <Gold.Rescore>
     Score         DG    S(hbond)    S(metal)    S(lipo)     H(rot)  DE(clash)    DE(int)     intcor
     11.83     -13.31       0.98        0.00      82.12       1.98       0.03       1.44       ----

> <Gold.Chemscore.Fitness>
11.8269

> <Gold.Chemscore.DG>
-13.3051

> <Gold.Chemscore.ZeroCoef>
-5.4800

> <Gold.Chemscore.Hbond>
0.9804

> <Gold.Chemscore.Metal>
0.0000

> <Gold.Chemscore.Lipo>
82.1210

> <Gold.Chemscore.Internal_Hbond>
0.0000

> <Gold.Chemscore.DEClash>
0.0339

> <Gold.Chemscore.DEInternal>
1.4443

> <Gold.Chemscore.Rot>
1.9757

> <Gold.Chemscore.Internal.Correction>
   9.000000E+99

> <Gold.Chemscore.Hbonds>
donor molecule, donor type, donor heavy atom, donor atom, acceptor molecule, acceptor atom, score
      L1  H     9    22       P1  8028  0.74

> <Gold.Chemscore.Hbond.Weighted>
-3.2747

> <Gold.Chemscore.Metal.Weighted>
-0.0000

> <Gold.Chemscore.Lipo.Weighted>
-9.6082

> <Gold.Chemscore.Internal_Hbond.Weighted>
0.0000

> <Gold.Chemscore.DEClash.Weighted>
0.0339

> <Gold.Chemscore.DEInternal.Weighted>
1.4443

> <Gold.Chemscore.Rot.Weighted>
5.0578

> <Gold.Chemscore.Internal.Correction.Weighted>
   9.000000E+99

> <Gold.Protein.RotatedTorsions>
[ 6907 6896 6895 6894 ] final   98.67 input  -60.11 | X-H torsion
[ 7974 7965 7964 7962 ] final -175.28 input  175.53 | X-H torsion
[ 8008 7997 7996 7995 ] final  130.90 input   59.86 | X-H torsion
[ 10167 10162 10161 10158 ] final  -24.80 input  -65.29 | X-H torsion
[ 10718 10713 10712 10709 ] final -157.20 input   66.30 | X-H torsion
[ 10763 10752 10751 10750 ] final  -38.13 input  -60.55 | X-H torsion
[ 11005 11000 10999 10996 ] final  -58.24 input  -57.11 | X-H torsion

> <Gold.Protein.ActiveResidues>
 VAL166  LYS551  ARG553  GLY616  TRP617  ASP618  TYR619  PRO620  LYS621  CYS622 
 ASP623  PHE694  ASN695  SER759  ASP760  ASP761  ALA762  ILE779  LEU786  VAL792 
 PHE793  MET794  SER795  GLU796  ALA797  LYS798  CYS799  TRP800  GLU811  SER814 

> <Gold.Protein.RotatedAtoms>
  152.5405  134.0545  159.8124 H   0  0  0  0  0  0  0  0  0  0  0  0  # atno 6907 bound_to 6896
  151.0682  133.5481  159.2636 H   0  0  0  0  0  0  0  0  0  0  0  0  # atno 6908 bound_to 6896
  151.2354  135.0578  159.9058 H   0  0  0  0  0  0  0  0  0  0  0  0  # atno 6909 bound_to 6896
  144.7128  140.1345  143.6396 H   0  0  0  0  0  0  0  0  0  0  0  0  # atno 7974 bound_to 7965
  156.2962  140.2584  156.2837 H   0  0  0  0  0  0  0  0  0  0  0  0  # atno 8008 bound_to 7997
  154.9577  140.0393  157.2193 H   0  0  0  0  0  0  0  0  0  0  0  0  # atno 8009 bound_to 7997
  154.7976  140.2822  155.5949 H   0  0  0  0  0  0  0  0  0  0  0  0  # atno 8010 bound_to 7997
  140.7287  143.4321  151.0785 H   0  0  0  0  0  0  0  0  0  0  0  0  # atno 10167 bound_to 10162
  156.5370  130.8546  151.2736 H   0  0  0  0  0  0  0  0  0  0  0  0  # atno 10718 bound_to 10713
  153.9077  135.6796  153.4752 H   0  0  0  0  0  0  0  0  0  0  0  0  # atno 10763 bound_to 10752
  153.1095  135.4790  154.9008 H   0  0  0  0  0  0  0  0  0  0  0  0  # atno 10764 bound_to 10752
  154.7543  135.3193  154.8454 H   0  0  0  0  0  0  0  0  0  0  0  0  # atno 10765 bound_to 10752
  141.1199  133.6612  156.4891 H   0  0  0  0  0  0  0  0  0  0  0  0  # atno 11005 bound_to 11000
  145.9257  139.2574  143.1355 LP  0  0  0  0  0  0  0  0  0  0  0  0  # atno 17320 bound_to 7965
  145.9575  140.8861  143.0228 LP  0  0  0  0  0  0  0  0  0  0  0  0  # atno 17321 bound_to 7965
  139.7979  143.8125  152.3159 LP  0  0  0  0  0  0  0  0  0  0  0  0  # atno 17342 bound_to 10162
  139.8131  144.7327  150.9670 LP  0  0  0  0  0  0  0  0  0  0  0  0  # atno 17343 bound_to 10162
  157.7412  130.9865  150.2428 LP  0  0  0  0  0  0  0  0  0  0  0  0  # atno 17370 bound_to 10713
  156.3006  130.3758  149.7754 LP  0  0  0  0  0  0  0  0  0  0  0  0  # atno 17371 bound_to 10713
  140.4538  134.6904  157.5052 LP  0  0  0  0  0  0  0  0  0  0  0  0  # atno 17394 bound_to 11000
  140.0148  134.6636  155.9326 LP  0  0  0  0  0  0  0  0  0  0  0  0  # atno 17395 bound_to 11000

$$$$
