AV-unprocessed.smi:699|AV-procd|sdf|3403|dock10
  -GOLD-   22720 0383D 1   1.00000     0.00000
 Structure written by MMmdl.
 35 36  0  0  0  0  0  0  0  0  2 V2000
  150.2331  137.9560  153.2987 N   0  0  0  0  0  0  0  0  0  0  0  0
  150.4224  138.9772  154.1377 C   0  0  0  0  0  0  0  0  0  0  0  0
  151.5454  139.3342  154.4886 O   0  0  0  0  0  0  0  0  0  0  0  0
  149.1685  139.6975  154.6573 C   0  0  2  0  0  0  0  0  0  0  0  0
  147.8661  139.0570  154.1485 C   0  0  0  0  0  0  0  0  0  0  0  0
  146.8631  140.2050  154.0957 C   0  0  0  0  0  0  0  0  0  0  0  0
  147.6909  141.4024  153.6363 C   0  0  0  0  0  0  0  0  0  0  0  0
  149.0987  141.1858  154.2176 C   0  0  1  0  0  0  0  0  0  0  0  0
  149.3408  142.0972  155.3352 N   0  0  0  0  0  0  0  0  0  0  0  0
  150.2353  141.9009  156.3144 C   0  0  0  0  0  0  0  0  0  0  0  0
  150.9486  140.9011  156.3921 O   0  0  0  0  0  0  0  0  0  0  0  0
  150.2280  142.9188  157.1926 N   0  0  0  0  0  0  0  0  0  0  0  0
  151.0410  143.0998  158.3447 C   0  0  0  0  0  0  0  0  0  0  0  0
  151.2196  144.4185  158.8192 C   0  0  0  0  0  0  0  0  0  0  0  0
  152.0318  144.6481  159.9485 C   0  0  0  0  0  0  0  0  0  0  0  0
  152.6398  143.6100  160.5617 N   0  3  0  0  0  0  0  0  0  0  0  0
  152.5109  142.3347  160.1373 C   0  0  0  0  0  0  0  0  0  0  0  0
  151.7121  142.0436  159.0128 C   0  0  0  0  0  0  0  0  0  0  0  0
  151.0299  137.4529  152.9361 H   0  0  0  0  0  0  0  0  0  0  0  0
  149.2974  137.6872  153.0317 H   0  0  0  0  0  0  0  0  0  0  0  0
  149.1536  139.6442  155.7479 H   0  0  0  0  0  0  0  0  0  0  0  0
  147.9916  138.6414  153.1473 H   0  0  0  0  0  0  0  0  0  0  0  0
  147.5236  138.2502  154.7972 H   0  0  0  0  0  0  0  0  0  0  0  0
  146.0214  139.9976  153.4343 H   0  0  0  0  0  0  0  0  0  0  0  0
  146.4662  140.3929  155.0941 H   0  0  0  0  0  0  0  0  0  0  0  0
  147.7489  141.3966  152.5469 H   0  0  0  0  0  0  0  0  0  0  0  0
  147.2408  142.3526  153.9270 H   0  0  0  0  0  0  0  0  0  0  0  0
  149.8242  141.4121  153.4329 H   0  0  0  0  0  0  0  0  0  0  0  0
  148.7914  142.9439  155.3534 H   0  0  0  0  0  0  0  0  0  0  0  0
  149.5239  143.6267  157.0429 H   0  0  0  0  0  0  0  0  0  0  0  0
  150.7354  145.2498  158.3270 H   0  0  0  0  0  0  0  0  0  0  0  0
  152.2142  145.6240  160.3744 H   0  0  0  0  0  0  0  0  0  0  0  0
  153.0528  141.5897  160.7017 H   0  0  0  0  0  0  0  0  0  0  0  0
  151.6412  141.0198  158.6788 H   0  0  0  0  0  0  0  0  0  0  0  0
  153.2253  143.7973  161.3763 H   0  0  0  0  0  0  0  0  0  0  0  0
  1  2  1  0  0  0  0
  1 19  1  0  0  0  0
  1 20  1  0  0  0  0
  2  3  2  0  0  0  0
  2  4  1  0  0  0  0
  4  8  1  0  0  0  0
  4  5  1  0  0  0  0
  4 21  1  0  0  0  0
  5  6  1  0  0  0  0
  5 22  1  0  0  0  0
  5 23  1  0  0  0  0
  6  7  1  0  0  0  0
  6 24  1  0  0  0  0
  6 25  1  0  0  0  0
  7  8  1  0  0  0  0
  7 26  1  0  0  0  0
  7 27  1  0  0  0  0
  8  9  1  0  0  0  0
  8 28  1  0  0  0  0
  9 10  1  0  0  0  0
  9 29  1  0  0  0  0
 10 11  2  0  0  0  0
 10 12  1  0  0  0  0
 12 13  1  0  0  0  0
 12 30  1  0  0  0  0
 13 18  1  0  0  0  0
 13 14  2  0  0  0  0
 14 15  1  0  0  0  0
 14 31  1  0  0  0  0
 15 16  2  0  0  0  0
 15 32  1  0  0  0  0
 16 17  1  0  0  0  0
 16 35  1  0  0  0  0
 17 18  2  0  0  0  0
 17 33  1  0  0  0  0
 18 34  1  0  0  0  0
M  CHG  1  16   1
M  END
> <s_m_source_file>
AV-unprocessed.smi

> <i_m_source_file_index>
699

> <i_lp_mmshare_version>
43012

> <i_f3d_flags>
0

> <s_epik_input>
W05IMl1DKD1PKVtDQEBIXTFbQ0gyXVtDSDJdW0NIMl1bQ0BIXTFbTkhdQyg9TylbTkhdYzJbY0hdW2NIXW5bY0hdW2NIXTI=

> <s_epik_cmdline>
J2VwaWtfcHl0aG9uJywgJy1waCcsICc3LjAnLCAnLXRuJywgJzgnLCAnLW1hJywgJzIwMCcsICctbWV0YWxfYmluZGluZycsICctaW1hZScsICc8aW5maWxlLm1hZT4nLCAnLW9tYWUnLCAnPG91dGZpbGUubWFlPic=

> <r_epik_Ionization_Penalty>
1.0332

> <r_epik_Ionization_Penalty_Charging>
1.03318

> <r_epik_Ionization_Penalty_Neutral>
1.91967e-05

> <r_epik_State_Penalty>
1.08452

> <r_epik_Charging_Adjusted_Penalty>
2.11769

> <i_epik_Tot_Q>
1

> <i_epik_Tot_abs_Q>
1

> <r_epik_Metal_State_Penalty>
1.18144

> <b_epik_Metal_Only>
0

> <s_lp_Force_Field>
OPLS_2005

> <r_lp_Energy>
26.3794

> <b_lp_Chiralities_Consistent>
1

> <s_lp_Variant>
AV-unprocessed.smi:699-5

> <Gold.Version>
5.8.1

> <Gold.Id.Protein>
6NUR|6NUR_protein|mol2

> <Gold.PLP.Fitness>
47.0208

> <Gold.PLP.PLP>
-36.7207

> <Gold.PLP.part.hbond>
-5.7867

> <Gold.PLP.part.metal>
0.0000

> <Gold.PLP.part.buried>
-0.9501

> <Gold.PLP.part.nonpolar>
-29.3402

> <Gold.PLP.part.repulsive>
0.4617

> <Gold.PLP.ligand.clash>
0.1678

> <Gold.PLP.ligand.torsion>
0.4421

> <Gold.PLP.Chemscore.Hbond>
3.7832

> <Gold.PLP.Chemscore.CHOScore>
0.0000

> <Gold.PLP.Chemscore.Metal>
0.0000

> <Gold.Chemscore.Hbonds>
donor molecule, donor type, donor heavy atom, donor atom, acceptor molecule, acceptor atom, score
      L1  H     1    19       P1  7949  0.58
      L1  H     1    20       P1  7948  0.42
      L1  H     9    29       P1  8028  0.88
      L1  H    12    30       P1  8028  0.80
      P1  H  7989  7998       L1     3  0.90

> <Gold.PLP.Chemscore.Internal.Correction>
0.0024

> <Gold.Rescore>
     Score         DG    S(hbond)    S(metal)    S(lipo)     H(rot)  DE(clash)    DE(int)     intcor
     14.50     -20.35       2.70        0.00      82.78       1.50       0.08       5.77       ----

> <Gold.Chemscore.Fitness>
14.5015

> <Gold.Chemscore.DG>
-20.3481

> <Gold.Chemscore.ZeroCoef>
-5.4800

> <Gold.Chemscore.Hbond>
2.7045

> <Gold.Chemscore.Metal>
0.0000

> <Gold.Chemscore.Lipo>
82.7755

> <Gold.Chemscore.Internal_Hbond>
0.0000

> <Gold.Chemscore.DEClash>
0.0787

> <Gold.Chemscore.DEInternal>
5.7679

> <Gold.Chemscore.Rot>
1.5038

> <Gold.Chemscore.Internal.Correction>
   9.000000E+99

> <Gold.Chemscore.Hbonds>
donor molecule, donor type, donor heavy atom, donor atom, acceptor molecule, acceptor atom, score
      L1  H     1    19       P1  7949  0.16
      L1  H     1    20       P1  7948  0.41
      L1  H     9    29       P1  8028  0.87
      L1  H    12    30       P1  8028  0.72
      P1  H  7989  7998       L1     3  0.18

> <Gold.Chemscore.Hbond.Weighted>
-9.0330

> <Gold.Chemscore.Metal.Weighted>
-0.0000

> <Gold.Chemscore.Lipo.Weighted>
-9.6847

> <Gold.Chemscore.Internal_Hbond.Weighted>
0.0000

> <Gold.Chemscore.DEClash.Weighted>
0.0787

> <Gold.Chemscore.DEInternal.Weighted>
5.7679

> <Gold.Chemscore.Rot.Weighted>
3.8496

> <Gold.Chemscore.Internal.Correction.Weighted>
   9.000000E+99

> <Gold.Protein.RotatedTorsions>
[ 6907 6896 6895 6894 ] final -112.60 input  -60.11 | X-H torsion
[ 7974 7965 7964 7962 ] final  175.92 input  175.53 | X-H torsion
[ 8008 7997 7996 7995 ] final  133.15 input   59.86 | X-H torsion
[ 10167 10162 10161 10158 ] final  -97.97 input  -65.29 | X-H torsion
[ 10718 10713 10712 10709 ] final -169.61 input   66.30 | X-H torsion
[ 10763 10752 10751 10750 ] final  -62.92 input  -60.55 | X-H torsion
[ 11005 11000 10999 10996 ] final  133.63 input  -57.11 | X-H torsion

> <Gold.Protein.ActiveResidues>
 VAL166  LYS551  ARG553  GLY616  TRP617  ASP618  TYR619  PRO620  LYS621  CYS622 
 ASP623  PHE694  ASN695  SER759  ASP760  ASP761  ALA762  ILE779  LEU786  VAL792 
 PHE793  MET794  SER795  GLU796  ALA797  LYS798  CYS799  TRP800  GLU811  SER814 

> <Gold.Protein.RotatedAtoms>
  150.7769  133.9067  159.3356 H   0  0  0  0  0  0  0  0  0  0  0  0  # atno 6907 bound_to 6896
  151.6939  135.0940  160.0248 H   0  0  0  0  0  0  0  0  0  0  0  0  # atno 6908 bound_to 6896
  152.3808  133.6506  159.6195 H   0  0  0  0  0  0  0  0  0  0  0  0  # atno 6909 bound_to 6896
  144.7193  140.0018  143.6440 H   0  0  0  0  0  0  0  0  0  0  0  0  # atno 7974 bound_to 7965
  156.2989  140.2528  156.3206 H   0  0  0  0  0  0  0  0  0  0  0  0  # atno 8008 bound_to 7997
  154.9238  140.0400  157.2031 H   0  0  0  0  0  0  0  0  0  0  0  0  # atno 8009 bound_to 7997
  154.8284  140.2871  155.5743 H   0  0  0  0  0  0  0  0  0  0  0  0  # atno 8010 bound_to 7997
  140.2779  143.3301  152.0470 H   0  0  0  0  0  0  0  0  0  0  0  0  # atno 10167 bound_to 10162
  156.7140  130.9244  151.3092 H   0  0  0  0  0  0  0  0  0  0  0  0  # atno 10718 bound_to 10713
  154.3072  135.6223  153.5450 H   0  0  0  0  0  0  0  0  0  0  0  0  # atno 10763 bound_to 10752
  152.9833  135.5692  154.5217 H   0  0  0  0  0  0  0  0  0  0  0  0  # atno 10764 bound_to 10752
  154.4860  135.2865  155.1510 H   0  0  0  0  0  0  0  0  0  0  0  0  # atno 10765 bound_to 10752
  139.9864  134.9531  156.9752 H   0  0  0  0  0  0  0  0  0  0  0  0  # atno 11005 bound_to 11000
  146.0329  139.3351  143.0744 LP  0  0  0  0  0  0  0  0  0  0  0  0  # atno 17320 bound_to 7965
  145.8430  140.9570  143.0789 LP  0  0  0  0  0  0  0  0  0  0  0  0  # atno 17321 bound_to 7965
  139.4970  144.6612  151.6461 LP  0  0  0  0  0  0  0  0  0  0  0  0  # atno 17342 bound_to 10162
  140.5836  143.9903  150.6282 LP  0  0  0  0  0  0  0  0  0  0  0  0  # atno 17343 bound_to 10162
  157.6925  130.9247  150.0552 LP  0  0  0  0  0  0  0  0  0  0  0  0  # atno 17370 bound_to 10713
  156.1641  130.3644  149.9257 LP  0  0  0  0  0  0  0  0  0  0  0  0  # atno 17371 bound_to 10713
  140.4995  134.1112  155.7247 LP  0  0  0  0  0  0  0  0  0  0  0  0  # atno 17394 bound_to 11000
  141.1528  133.8938  157.2055 LP  0  0  0  0  0  0  0  0  0  0  0  0  # atno 17395 bound_to 11000

$$$$
