AV-unprocessed.smi:1836|AV-procd|sdf|7478|dock3
  -GOLD-   22720 9173D 1   1.00000     0.00000
 Structure written by MMmdl.
 33 34  0  0  0  0  0  0  0  0  1 V2000
  147.4024  141.6867  154.1186 C   0  0  0  0  0  0  0  0  0  0  0  0
  148.2146  141.3968  155.3882 C   0  0  1  0  0  0  0  0  0  0  0  0
  149.7329  141.4492  155.0986 C   0  0  0  0  0  0  0  0  0  0  0  0
  150.5333  140.8783  156.1810 N   0  0  0  0  0  0  0  0  0  0  0  0
  150.4648  141.4272  157.5253 C   0  0  0  0  0  0  0  0  0  0  0  0
  151.1831  140.3967  158.4067 C   0  0  0  0  0  0  0  0  0  0  0  0
  151.9932  139.5248  157.4412 C   0  0  0  0  0  0  0  0  0  0  0  0
  151.3902  139.8542  156.0863 C   0  0  0  0  0  0  0  0  0  0  0  0
  151.6697  139.2340  155.0614 O   0  0  0  0  0  0  0  0  0  0  0  0
  147.8498  142.3830  156.4044 N   0  0  0  0  0  0  0  0  0  0  0  0
  147.2635  142.1099  157.5800 C   0  0  0  0  0  0  0  0  0  0  0  0
  146.9466  140.9744  157.9353 O   0  0  0  0  0  0  0  0  0  0  0  0
  147.0816  143.2280  158.3040 N   0  0  0  0  0  0  0  0  0  0  0  0
  146.5623  143.3472  159.6202 C   0  0  0  0  0  0  0  0  0  0  0  0
  145.9345  142.3518  160.2657 N   0  0  0  0  0  0  0  0  0  0  0  0
  145.5352  142.7300  161.5411 N   0  0  0  0  0  0  0  0  0  0  0  0
  145.8788  143.9933  161.8075 C   0  0  0  0  0  0  0  0  0  0  0  0
  146.7267  144.8435  160.5276 S   0  0  0  0  0  0  0  0  0  0  0  0
  147.6113  140.9484  153.3438 H   0  0  0  0  0  0  0  0  0  0  0  0
  147.6354  142.6711  153.7112 H   0  0  0  0  0  0  0  0  0  0  0  0
  146.3312  141.6537  154.3206 H   0  0  0  0  0  0  0  0  0  0  0  0
  147.9348  140.3966  155.7235 H   0  0  0  0  0  0  0  0  0  0  0  0
  149.9542  140.8873  154.1897 H   0  0  0  0  0  0  0  0  0  0  0  0
  150.0489  142.4746  154.9009 H   0  0  0  0  0  0  0  0  0  0  0  0
  150.9823  142.3873  157.5461 H   0  0  0  0  0  0  0  0  0  0  0  0
  149.4350  141.5870  157.8468 H   0  0  0  0  0  0  0  0  0  0  0  0
  151.8116  140.8731  159.1595 H   0  0  0  0  0  0  0  0  0  0  0  0
  150.4503  139.7810  158.9306 H   0  0  0  0  0  0  0  0  0  0  0  0
  153.0483  139.7993  157.4447 H   0  0  0  0  0  0  0  0  0  0  0  0
  151.9037  138.4625  157.6708 H   0  0  0  0  0  0  0  0  0  0  0  0
  148.0711  143.3459  156.1978 H   0  0  0  0  0  0  0  0  0  0  0  0
  147.3645  144.0942  157.8702 H   0  0  0  0  0  0  0  0  0  0  0  0
  145.6328  144.4267  162.7656 H   0  0  0  0  0  0  0  0  0  0  0  0
  1  2  1  0  0  0  0
  1 19  1  0  0  0  0
  1 20  1  0  0  0  0
  1 21  1  0  0  0  0
  2  3  1  0  0  0  0
  2 10  1  0  0  0  0
  2 22  1  0  0  0  0
  3  4  1  0  0  0  0
  3 23  1  0  0  0  0
  3 24  1  0  0  0  0
  4  8  1  0  0  0  0
  4  5  1  0  0  0  0
  5  6  1  0  0  0  0
  5 25  1  0  0  0  0
  5 26  1  0  0  0  0
  6  7  1  0  0  0  0
  6 27  1  0  0  0  0
  6 28  1  0  0  0  0
  7  8  1  0  0  0  0
  7 29  1  0  0  0  0
  7 30  1  0  0  0  0
  8  9  2  0  0  0  0
 10 11  1  0  0  0  0
 10 31  1  0  0  0  0
 11 12  2  0  0  0  0
 11 13  1  0  0  0  0
 13 14  1  0  0  0  0
 13 32  1  0  0  0  0
 14 18  1  0  0  0  0
 14 15  2  0  0  0  0
 15 16  1  0  0  0  0
 16 17  2  0  0  0  0
 17 18  1  0  0  0  0
 17 33  1  0  0  0  0
M  END
> <s_m_source_file>
AV-unprocessed.smi

> <i_m_source_file_index>
1836

> <i_lp_mmshare_version>
43012

> <i_f3d_flags>
0

> <s_epik_input>
Tz1DMVtDSDJdW0NIMl1bQ0gyXU4xW0NIMl1bQ0BASF0oW0NIM10pW05IXUMoPU8pW05IXWMybm5bY0hdczI=

> <s_epik_cmdline>
J2VwaWtfcHl0aG9uJywgJy1waCcsICc3LjAnLCAnLXRuJywgJzgnLCAnLW1hJywgJzIwMCcsICctbWV0YWxfYmluZGluZycsICctaW1hZScsICc8aW5maWxlLm1hZT4nLCAnLW9tYWUnLCAnPG91dGZpbGUubWFlPic=

> <r_lp_tautomer_probability>
1

> <r_epik_Ionization_Penalty>
0.00192022

> <r_epik_Ionization_Penalty_Charging>
0

> <r_epik_Ionization_Penalty_Neutral>
0.00192022

> <r_epik_State_Penalty>
-0

> <r_epik_Charging_Adjusted_Penalty>
0

> <i_epik_Tot_Q>
0

> <i_epik_Tot_abs_Q>
0

> <r_epik_Metal_State_Penalty>
0.336618

> <b_epik_Metal_Only>
0

> <s_lp_Force_Field>
OPLS_2005

> <r_lp_Energy>
17.3914

> <b_lp_Chiralities_Consistent>
1

> <s_lp_Variant>
AV-unprocessed.smi:1836-2

> <Gold.Version>
5.8.1

> <Gold.Id.Protein>
6NUR|6NUR_protein|mol2

> <Gold.PLP.Fitness>
44.0967

> <Gold.PLP.PLP>
-33.2496

> <Gold.PLP.part.hbond>
-5.6376

> <Gold.PLP.part.metal>
0.0000

> <Gold.PLP.part.buried>
-4.5534

> <Gold.PLP.part.nonpolar>
-23.7370

> <Gold.PLP.part.repulsive>
0.1599

> <Gold.PLP.ligand.clash>
0.0000

> <Gold.PLP.ligand.torsion>
0.1336

> <Gold.PLP.Chemscore.Hbond>
3.7000

> <Gold.PLP.Chemscore.CHOScore>
0.0000

> <Gold.PLP.Chemscore.Metal>
0.0000

> <Gold.Chemscore.Hbonds>
donor molecule, donor type, donor heavy atom, donor atom, acceptor molecule, acceptor atom, score
      L1  H    10    31       P1  8028  1.00
      L1  H    13    32       P1  8029  0.80
      P1  H  6934  6946       L1    15  0.90
      P1  H  7989  7998       L1     9  0.44

> <Gold.PLP.Chemscore.Internal.Correction>
0.0143

> <Gold.Rescore>
     Score         DG    S(hbond)    S(metal)    S(lipo)     H(rot)  DE(clash)    DE(int)     intcor
     11.77     -13.76       2.12        0.00      48.59       1.76       0.41       1.58       ----

> <Gold.Chemscore.Fitness>
11.7663

> <Gold.Chemscore.DG>
-13.7576

> <Gold.Chemscore.ZeroCoef>
-5.4800

> <Gold.Chemscore.Hbond>
2.1231

> <Gold.Chemscore.Metal>
0.0000

> <Gold.Chemscore.Lipo>
48.5875

> <Gold.Chemscore.Internal_Hbond>
0.0000

> <Gold.Chemscore.DEClash>
0.4067

> <Gold.Chemscore.DEInternal>
1.5846

> <Gold.Chemscore.Rot>
1.7571

> <Gold.Chemscore.Internal.Correction>
   9.000000E+99

> <Gold.Chemscore.Hbonds>
donor molecule, donor type, donor heavy atom, donor atom, acceptor molecule, acceptor atom, score
      L1  H    10    31       P1  8028  0.30
      L1  H    13    32       P1  8029  0.11
      P1  H  6934  6946       L1    15  0.17
      P1  H  7989  7998       L1     9  0.15

> <Gold.Chemscore.Hbond.Weighted>
-7.0911

> <Gold.Chemscore.Metal.Weighted>
-0.0000

> <Gold.Chemscore.Lipo.Weighted>
-5.6847

> <Gold.Chemscore.Internal_Hbond.Weighted>
0.0000

> <Gold.Chemscore.DEClash.Weighted>
0.4067

> <Gold.Chemscore.DEInternal.Weighted>
1.5846

> <Gold.Chemscore.Rot.Weighted>
4.4983

> <Gold.Chemscore.Internal.Correction.Weighted>
   9.000000E+99

> <Gold.Protein.RotatedTorsions>
[ 6907 6896 6895 6894 ] final  -46.88 input  -60.11 | X-H torsion
[ 7974 7965 7964 7962 ] final  102.54 input  175.53 | X-H torsion
[ 8008 7997 7996 7995 ] final  -78.17 input   59.86 | X-H torsion
[ 10167 10162 10161 10158 ] final   45.37 input  -65.29 | X-H torsion
[ 10718 10713 10712 10709 ] final  -15.43 input   66.30 | X-H torsion
[ 10763 10752 10751 10750 ] final -119.07 input  -60.55 | X-H torsion
[ 11005 11000 10999 10996 ] final  -71.39 input  -57.11 | X-H torsion

> <Gold.Protein.ActiveResidues>
 VAL166  LYS551  ARG553  GLY616  TRP617  ASP618  TYR619  PRO620  LYS621  CYS622 
 ASP623  PHE694  ASN695  SER759  ASP760  ASP761  ALA762  ILE779  LEU786  VAL792 
 PHE793  MET794  SER795  GLU796  ALA797  LYS798  CYS799  TRP800  GLU811  SER814 

> <Gold.Protein.RotatedAtoms>
  150.9066  134.8481  159.7396 H   0  0  0  0  0  0  0  0  0  0  0  0  # atno 6907 bound_to 6896
  152.4922  134.4422  159.9557 H   0  0  0  0  0  0  0  0  0  0  0  0  # atno 6908 bound_to 6896
  151.4468  133.3589  159.2825 H   0  0  0  0  0  0  0  0  0  0  0  0  # atno 6909 bound_to 6896
  145.3578  139.2425  143.3523 H   0  0  0  0  0  0  0  0  0  0  0  0  # atno 7974 bound_to 7965
  154.5664  140.0698  156.8898 H   0  0  0  0  0  0  0  0  0  0  0  0  # atno 8008 bound_to 7997
  155.2715  140.3365  155.4246 H   0  0  0  0  0  0  0  0  0  0  0  0  # atno 8009 bound_to 7997
  156.2084  140.1749  156.7735 H   0  0  0  0  0  0  0  0  0  0  0  0  # atno 8010 bound_to 7997
  140.3249  144.2660  150.6177 H   0  0  0  0  0  0  0  0  0  0  0  0  # atno 10167 bound_to 10162
  156.6018  130.4826  149.6237 H   0  0  0  0  0  0  0  0  0  0  0  0  # atno 10718 bound_to 10713
  154.8606  135.4251  154.2240 H   0  0  0  0  0  0  0  0  0  0  0  0  # atno 10763 bound_to 10752
  153.3239  135.6984  153.7012 H   0  0  0  0  0  0  0  0  0  0  0  0  # atno 10764 bound_to 10752
  153.6056  135.3529  155.2934 H   0  0  0  0  0  0  0  0  0  0  0  0  # atno 10765 bound_to 10752
  141.1591  133.6816  156.6899 H   0  0  0  0  0  0  0  0  0  0  0  0  # atno 11005 bound_to 11000
  146.2940  140.4206  142.8728 LP  0  0  0  0  0  0  0  0  0  0  0  0  # atno 17320 bound_to 7965
  144.8669  140.7219  143.6071 LP  0  0  0  0  0  0  0  0  0  0  0  0  # atno 17321 bound_to 7965
  140.5450  143.2216  151.8022 LP  0  0  0  0  0  0  0  0  0  0  0  0  # atno 17342 bound_to 10162
  139.4867  144.4551  151.9608 LP  0  0  0  0  0  0  0  0  0  0  0  0  # atno 17343 bound_to 10162
  156.2463  130.6881  151.1603 LP  0  0  0  0  0  0  0  0  0  0  0  0  # atno 17370 bound_to 10713
  157.7277  131.0637  150.5851 LP  0  0  0  0  0  0  0  0  0  0  0  0  # atno 17371 bound_to 10713
  140.3038  134.8142  157.4120 LP  0  0  0  0  0  0  0  0  0  0  0  0  # atno 17394 bound_to 11000
  140.1238  134.5184  155.8161 LP  0  0  0  0  0  0  0  0  0  0  0  0  # atno 17395 bound_to 11000

$$$$
