AV-unprocessed.smi:2059|AV-procd|sdf|8348|dock5
  -GOLD-   2272011 13D 1   1.00000     0.00000
 Structure written by MMmdl.
 30 31  0  0  0  0  0  0  0  0  1 V2000
  147.1679  129.7972  152.8197 C   0  0  0  0  0  0  0  0  0  0  0  0
  147.8214  131.0024  153.4039 C   0  0  0  0  0  0  0  0  0  0  0  0
  147.9011  132.3053  152.9998 C   0  0  0  0  0  0  0  0  0  0  0  0
  148.6729  132.9162  154.0239 C   0  0  0  0  0  0  0  0  0  0  0  0
  148.9822  134.3048  153.9587 N   0  0  0  0  0  0  0  0  0  0  0  0
  149.5555  135.1274  154.8622 C   0  0  0  0  0  0  0  0  0  0  0  0
  149.9120  134.7114  155.9633 O   0  0  0  0  0  0  0  0  0  0  0  0
  149.7097  136.4076  154.4859 N   0  0  0  0  0  0  0  0  0  0  0  0
  150.3042  137.4611  155.3011 C   0  0  2  0  0  0  0  0  0  0  0  0
  149.9061  138.8686  154.8118 C   0  0  0  0  0  0  0  0  0  0  0  0
  150.8451  139.8979  155.4531 C   0  0  0  0  0  0  0  0  0  0  0  0
  152.4422  139.0381  155.7185 S   0  0  0  0  0  0  0  0  0  0  0  0
  153.4167  139.4822  154.7105 O   0  0  0  0  0  0  0  0  0  0  0  0
  152.7674  139.0724  157.1525 O   0  0  0  0  0  0  0  0  0  0  0  0
  151.8354  137.3682  155.2718 C   0  0  0  0  0  0  0  0  0  0  0  0
  149.0338  132.0578  154.9671 N   0  0  0  0  0  0  0  0  0  0  0  0
  148.4907  130.8288  154.5753 O   0  0  0  0  0  0  0  0  0  0  0  0
  146.4070  130.0813  152.0928 H   0  0  0  0  0  0  0  0  0  0  0  0
  146.6863  129.2018  153.5955 H   0  0  0  0  0  0  0  0  0  0  0  0
  147.9006  129.1676  152.3150 H   0  0  0  0  0  0  0  0  0  0  0  0
  147.4730  132.7476  152.1122 H   0  0  0  0  0  0  0  0  0  0  0  0
  148.7387  134.7467  153.0841 H   0  0  0  0  0  0  0  0  0  0  0  0
  149.3901  136.6683  153.5635 H   0  0  0  0  0  0  0  0  0  0  0  0
  149.9800  137.3488  156.3375 H   0  0  0  0  0  0  0  0  0  0  0  0
  150.0244  138.9175  153.7284 H   0  0  0  0  0  0  0  0  0  0  0  0
  148.8615  139.0952  155.0272 H   0  0  0  0  0  0  0  0  0  0  0  0
  150.9911  140.7831  154.8340 H   0  0  0  0  0  0  0  0  0  0  0  0
  150.4669  140.2115  156.4262 H   0  0  0  0  0  0  0  0  0  0  0  0
  152.2335  136.6251  155.9631 H   0  0  0  0  0  0  0  0  0  0  0  0
  152.1993  137.1416  154.2686 H   0  0  0  0  0  0  0  0  0  0  0  0
  1  2  1  0  0  0  0
  1 18  1  0  0  0  0
  1 19  1  0  0  0  0
  1 20  1  0  0  0  0
  2 17  1  0  0  0  0
  2  3  2  0  0  0  0
  3  4  1  0  0  0  0
  3 21  1  0  0  0  0
  4  5  1  0  0  0  0
  4 16  2  0  0  0  0
  5  6  1  0  0  0  0
  5 22  1  0  0  0  0
  6  7  2  0  0  0  0
  6  8  1  0  0  0  0
  8  9  1  0  0  0  0
  8 23  1  0  0  0  0
  9 15  1  0  0  0  0
  9 10  1  0  0  0  0
  9 24  1  0  0  0  0
 10 11  1  0  0  0  0
 10 25  1  0  0  0  0
 10 26  1  0  0  0  0
 11 12  1  0  0  0  0
 11 27  1  0  0  0  0
 11 28  1  0  0  0  0
 12 13  2  0  0  0  0
 12 14  2  0  0  0  0
 12 15  1  0  0  0  0
 15 29  1  0  0  0  0
 15 30  1  0  0  0  0
 16 17  1  0  0  0  0
M  END
> <s_m_source_file>
AV-unprocessed.smi

> <i_m_source_file_index>
2059

> <i_lp_mmshare_version>
43012

> <i_f3d_flags>
0

> <s_epik_input>
W0NIM11jMVtjSF1jKG5vMSlbTkhdQyg9TylbTkhdW0NAQEhdKFtDSDJdMilbQ0gyXVtDSDJdUzIoPU8pPU8=

> <s_epik_cmdline>
J2VwaWtfcHl0aG9uJywgJy1waCcsICc3LjAnLCAnLXRuJywgJzgnLCAnLW1hJywgJzIwMCcsICctbWV0YWxfYmluZGluZycsICctaW1hZScsICc8aW5maWxlLm1hZT4nLCAnLW9tYWUnLCAnPG91dGZpbGUubWFlPic=

> <r_lp_tautomer_probability>
1

> <r_epik_Ionization_Penalty>
3.88767e-05

> <r_epik_Ionization_Penalty_Charging>
0

> <r_epik_Ionization_Penalty_Neutral>
3.88767e-05

> <r_epik_State_Penalty>
-0

> <r_epik_Charging_Adjusted_Penalty>
0

> <i_epik_Tot_Q>
0

> <i_epik_Tot_abs_Q>
0

> <r_epik_Metal_State_Penalty>
0.0251347

> <b_epik_Metal_Only>
0

> <s_lp_Force_Field>
OPLS_2005

> <r_lp_Energy>
4.38419

> <b_lp_Chiralities_Consistent>
1

> <s_lp_Variant>
AV-unprocessed.smi:2059-1

> <Gold.Version>
5.8.1

> <Gold.Id.Protein>
6NUR|6NUR_protein|mol2

> <Gold.PLP.Fitness>
34.0933

> <Gold.PLP.PLP>
-25.7703

> <Gold.PLP.part.hbond>
-4.6904

> <Gold.PLP.part.metal>
0.0000

> <Gold.PLP.part.buried>
-1.7650

> <Gold.PLP.part.nonpolar>
-19.7777

> <Gold.PLP.part.repulsive>
0.1114

> <Gold.PLP.ligand.clash>
0.0000

> <Gold.PLP.ligand.torsion>
0.2897

> <Gold.PLP.Chemscore.Hbond>
2.9674

> <Gold.PLP.Chemscore.CHOScore>
0.0000

> <Gold.PLP.Chemscore.Metal>
0.0000

> <Gold.Chemscore.Hbonds>
donor molecule, donor type, donor heavy atom, donor atom, acceptor molecule, acceptor atom, score
      L1  H     5    22       P1  7948  0.98
      L1  H     8    23       P1  7948  1.00
      P1  H  7997  8008       L1    13  1.00

> <Gold.PLP.Chemscore.Internal.Correction>
0.0002

> <Gold.Rescore>
     Score         DG    S(hbond)    S(metal)    S(lipo)     H(rot)  DE(clash)    DE(int)     intcor
     14.83     -16.14       2.55        0.00      40.04       1.00       0.00       1.31       ----

> <Gold.Chemscore.Fitness>
14.8293

> <Gold.Chemscore.DG>
-16.1381

> <Gold.Chemscore.ZeroCoef>
-5.4800

> <Gold.Chemscore.Hbond>
2.5548

> <Gold.Chemscore.Metal>
0.0000

> <Gold.Chemscore.Lipo>
40.0421

> <Gold.Chemscore.Internal_Hbond>
0.0000

> <Gold.Chemscore.DEClash>
0.0009

> <Gold.Chemscore.DEInternal>
1.3079

> <Gold.Chemscore.Rot>
1.0000

> <Gold.Chemscore.Internal.Correction>
   9.000000E+99

> <Gold.Chemscore.Hbonds>
donor molecule, donor type, donor heavy atom, donor atom, acceptor molecule, acceptor atom, score
      L1  H     5    22       P1  7948  0.24
      L1  H     8    23       P1  7948  0.86
      P1  H  7997  8008       L1    13  0.26

> <Gold.Chemscore.Hbond.Weighted>
-8.5332

> <Gold.Chemscore.Metal.Weighted>
-0.0000

> <Gold.Chemscore.Lipo.Weighted>
-4.6849

> <Gold.Chemscore.Internal_Hbond.Weighted>
0.0000

> <Gold.Chemscore.DEClash.Weighted>
0.0009

> <Gold.Chemscore.DEInternal.Weighted>
1.3079

> <Gold.Chemscore.Rot.Weighted>
2.5600

> <Gold.Chemscore.Internal.Correction.Weighted>
   9.000000E+99

> <Gold.Protein.RotatedTorsions>
[ 6907 6896 6895 6894 ] final   91.59 input  -60.11 | X-H torsion
[ 7974 7965 7964 7962 ] final  133.70 input  175.53 | X-H torsion
[ 8008 7997 7996 7995 ] final   -5.04 input   59.86 | X-H torsion
[ 10167 10162 10161 10158 ] final  -55.49 input  -65.29 | X-H torsion
[ 10718 10713 10712 10709 ] final  -26.27 input   66.30 | X-H torsion
[ 10763 10752 10751 10750 ] final  113.55 input  -60.55 | X-H torsion
[ 11005 11000 10999 10996 ] final   34.92 input  -57.11 | X-H torsion

> <Gold.Protein.ActiveResidues>
 VAL166  LYS551  ARG553  GLY616  TRP617  ASP618  TYR619  PRO620  LYS621  CYS622 
 ASP623  PHE694  ASN695  SER759  ASP760  ASP761  ALA762  ILE779  LEU786  VAL792 
 PHE793  MET794  SER795  GLU796  ALA797  LYS798  CYS799  TRP800  GLU811  SER814 

> <Gold.Protein.RotatedAtoms>
  152.5450  134.1633  159.8566 H   0  0  0  0  0  0  0  0  0  0  0  0  # atno 6907 bound_to 6896
  151.1649  133.4814  159.2601 H   0  0  0  0  0  0  0  0  0  0  0  0  # atno 6908 bound_to 6896
  151.1334  135.0153  159.8648 H   0  0  0  0  0  0  0  0  0  0  0  0  # atno 6909 bound_to 6896
  144.9838  139.4477  143.5373 H   0  0  0  0  0  0  0  0  0  0  0  0  # atno 7974 bound_to 7965
  154.6080  140.2468  155.7706 H   0  0  0  0  0  0  0  0  0  0  0  0  # atno 8008 bound_to 7997
  156.2353  140.2952  156.0246 H   0  0  0  0  0  0  0  0  0  0  0  0  # atno 8009 bound_to 7997
  155.2100  140.0397  157.2922 H   0  0  0  0  0  0  0  0  0  0  0  0  # atno 8010 bound_to 7997
  140.6372  143.2488  151.5087 H   0  0  0  0  0  0  0  0  0  0  0  0  # atno 10167 bound_to 10162
  156.4534  130.4488  149.6975 H   0  0  0  0  0  0  0  0  0  0  0  0  # atno 10718 bound_to 10713
  153.4942  135.3652  155.2507 H   0  0  0  0  0  0  0  0  0  0  0  0  # atno 10763 bound_to 10752
  154.8751  135.3984  154.3554 H   0  0  0  0  0  0  0  0  0  0  0  0  # atno 10764 bound_to 10752
  153.4178  135.7079  153.6380 H   0  0  0  0  0  0  0  0  0  0  0  0  # atno 10765 bound_to 10752
  140.2479  134.3337  155.7901 H   0  0  0  0  0  0  0  0  0  0  0  0  # atno 11005 bound_to 11000
  146.3415  139.9127  142.8778 LP  0  0  0  0  0  0  0  0  0  0  0  0  # atno 17320 bound_to 7965
  145.2383  140.9999  143.3951 LP  0  0  0  0  0  0  0  0  0  0  0  0  # atno 17321 bound_to 7965
  139.5581  144.2223  152.1647 LP  0  0  0  0  0  0  0  0  0  0  0  0  # atno 17342 bound_to 10162
  140.1483  144.5138  150.6702 LP  0  0  0  0  0  0  0  0  0  0  0  0  # atno 17343 bound_to 10162
  156.3792  130.7570  151.2561 LP  0  0  0  0  0  0  0  0  0  0  0  0  # atno 17370 bound_to 10713
  157.7502  131.0300  150.4120 LP  0  0  0  0  0  0  0  0  0  0  0  0  # atno 17371 bound_to 10713
  141.2204  133.7336  156.8991 LP  0  0  0  0  0  0  0  0  0  0  0  0  # atno 17394 bound_to 11000
  140.1587  134.9180  157.2687 LP  0  0  0  0  0  0  0  0  0  0  0  0  # atno 17395 bound_to 11000

$$$$
