AV-unprocessed.smi:2411|AV-procd|sdf|9530|dock7
  -GOLD-   2272013163D 1   1.00000     0.00000
 Structure written by MMmdl.
 41 43  0  0  0  0  0  0  0  0  1 V2000
  145.1788  147.1795  159.1818 C   0  0  0  0  0  0  0  0  0  0  0  0
  144.5204  145.8843  159.0771 N   0  0  0  0  0  0  0  0  0  0  0  0
  144.7132  145.1675  157.8225 C   0  0  0  0  0  0  0  0  0  0  0  0
  144.6025  145.1162  160.2566 C   0  0  0  0  0  0  0  0  0  0  0  0
  143.4538  144.8582  160.9284 N   0  0  0  0  0  0  0  0  0  0  0  0
  143.5366  144.1130  162.0316 C   0  0  0  0  0  0  0  0  0  0  0  0
  144.6434  143.5901  162.5587 N   0  0  0  0  0  0  0  0  0  0  0  0
  145.7997  143.8356  161.9084 C   0  0  0  0  0  0  0  0  0  0  0  0
  145.8432  144.6038  160.7192 C   0  0  0  0  0  0  0  0  0  0  0  0
  147.0535  144.9210  160.0435 N   0  0  0  0  0  0  0  0  0  0  0  0
  148.3051  144.8343  160.5206 C   0  0  0  0  0  0  0  0  0  0  0  0
  148.6044  144.5024  161.6676 O   0  0  0  0  0  0  0  0  0  0  0  0
  149.2043  145.1268  159.5712 N   0  0  0  0  0  0  0  0  0  0  0  0
  150.6554  145.0687  159.7303 C   0  0  0  0  0  0  0  0  0  0  0  0
  151.4245  144.0940  158.8388 C   0  0  0  0  0  0  0  0  0  0  0  0
  150.6269  142.8417  158.4901 C   0  0  0  0  0  0  0  0  0  0  0  0
  151.2568  141.4783  158.6490 C   0  0  0  0  0  0  0  0  0  0  0  0
  150.8756  141.9737  157.2734 C   0  0  0  0  0  0  0  0  0  0  0  0
  152.3428  144.6285  157.7534 C   0  0  0  0  0  0  0  0  0  0  0  0
  152.9383  144.0275  158.9986 C   0  0  0  0  0  0  0  0  0  0  0  0
  144.8033  147.7601  160.0239 H   0  0  0  0  0  0  0  0  0  0  0  0
  145.0136  147.7640  158.2764 H   0  0  0  0  0  0  0  0  0  0  0  0
  146.2542  147.0503  159.3100 H   0  0  0  0  0  0  0  0  0  0  0  0
  144.1438  144.2375  157.8132 H   0  0  0  0  0  0  0  0  0  0  0  0
  145.7668  144.9322  157.6664 H   0  0  0  0  0  0  0  0  0  0  0  0
  144.3730  145.7759  156.9844 H   0  0  0  0  0  0  0  0  0  0  0  0
  142.6120  143.9166  162.5535 H   0  0  0  0  0  0  0  0  0  0  0  0
  146.6892  143.4327  162.3679 H   0  0  0  0  0  0  0  0  0  0  0  0
  146.9615  145.1171  159.0573 H   0  0  0  0  0  0  0  0  0  0  0  0
  148.8605  145.3863  158.6581 H   0  0  0  0  0  0  0  0  0  0  0  0
  151.0354  146.0710  159.5321 H   0  0  0  0  0  0  0  0  0  0  0  0
  150.9100  144.8603  160.7709 H   0  0  0  0  0  0  0  0  0  0  0  0
  149.5799  142.9014  158.7814 H   0  0  0  0  0  0  0  0  0  0  0  0
  152.3175  141.4354  158.8890 H   0  0  0  0  0  0  0  0  0  0  0  0
  150.6465  140.6929  159.0901 H   0  0  0  0  0  0  0  0  0  0  0  0
  150.0073  141.5165  156.8035 H   0  0  0  0  0  0  0  0  0  0  0  0
  151.6816  142.2263  156.5902 H   0  0  0  0  0  0  0  0  0  0  0  0
  152.4287  144.0517  156.8347 H   0  0  0  0  0  0  0  0  0  0  0  0
  152.4312  145.7047  157.6250 H   0  0  0  0  0  0  0  0  0  0  0  0
  153.4170  144.7117  159.6959 H   0  0  0  0  0  0  0  0  0  0  0  0
  153.4418  143.0700  158.9003 H   0  0  0  0  0  0  0  0  0  0  0  0
  1  2  1  0  0  0  0
  1 21  1  0  0  0  0
  1 22  1  0  0  0  0
  1 23  1  0  0  0  0
  2  3  1  0  0  0  0
  2  4  1  0  0  0  0
  3 24  1  0  0  0  0
  3 25  1  0  0  0  0
  3 26  1  0  0  0  0
  4  9  1  0  0  0  0
  4  5  2  0  0  0  0
  5  6  1  0  0  0  0
  6  7  2  0  0  0  0
  6 27  1  0  0  0  0
  7  8  1  0  0  0  0
  8  9  2  0  0  0  0
  8 28  1  0  0  0  0
  9 10  1  0  0  0  0
 10 11  1  0  0  0  0
 10 29  1  0  0  0  0
 11 12  2  0  0  0  0
 11 13  1  0  0  0  0
 13 14  1  0  0  0  0
 13 30  1  0  0  0  0
 14 15  1  0  0  0  0
 14 31  1  0  0  0  0
 14 32  1  0  0  0  0
 15 20  1  0  0  0  0
 15 16  1  0  0  0  0
 15 19  1  0  0  0  0
 16 18  1  0  0  0  0
 16 17  1  0  0  0  0
 16 33  1  0  0  0  0
 17 18  1  0  0  0  0
 17 34  1  0  0  0  0
 17 35  1  0  0  0  0
 18 36  1  0  0  0  0
 18 37  1  0  0  0  0
 19 20  1  0  0  0  0
 19 38  1  0  0  0  0
 19 39  1  0  0  0  0
 20 40  1  0  0  0  0
 20 41  1  0  0  0  0
M  END
> <s_m_source_file>
AV-unprocessed.smi

> <i_m_source_file_index>
2411

> <i_lp_mmshare_version>
43012

> <i_f3d_flags>
0

> <s_epik_input>
W0NIM11OKFtDSDNdKWMxbltjSF1uW2NIXWMxW05IXUMoPU8pW05IXVtDSDJdQzIoW0NIMl1bQ0gyXTIpW0NIXTNbQ0gyXVtDSDJdMw==

> <s_epik_cmdline>
J2VwaWtfcHl0aG9uJywgJy1waCcsICc3LjAnLCAnLXRuJywgJzgnLCAnLW1hJywgJzIwMCcsICctbWV0YWxfYmluZGluZycsICctaW1hZScsICc8aW5maWxlLm1hZT4nLCAnLW9tYWUnLCAnPG91dGZpbGUubWFlPic=

> <r_lp_tautomer_probability>
1

> <r_epik_Ionization_Penalty>
0.0183431

> <r_epik_Ionization_Penalty_Charging>
0

> <r_epik_Ionization_Penalty_Neutral>
0.0183431

> <r_epik_State_Penalty>
0.013978

> <r_epik_Charging_Adjusted_Penalty>
0.013978

> <i_epik_Tot_Q>
0

> <i_epik_Tot_abs_Q>
0

> <r_epik_Metal_State_Penalty>
0.0135734

> <b_epik_Metal_Only>
0

> <s_lp_Force_Field>
OPLS_2005

> <r_lp_Energy>
29.7017

> <b_lp_Chiralities_Consistent>
1

> <s_lp_Variant>
AV-unprocessed.smi:2411-1

> <Gold.Version>
5.8.1

> <Gold.Id.Protein>
6NUR|6NUR_protein|mol2

> <Gold.PLP.Fitness>
47.4775

> <Gold.PLP.PLP>
-41.0749

> <Gold.PLP.part.hbond>
-3.0000

> <Gold.PLP.part.metal>
0.0000

> <Gold.PLP.part.buried>
-8.6777

> <Gold.PLP.part.nonpolar>
-30.3748

> <Gold.PLP.part.repulsive>
0.7993

> <Gold.PLP.ligand.clash>
0.0000

> <Gold.PLP.ligand.torsion>
2.0255

> <Gold.PLP.Chemscore.Hbond>
2.5328

> <Gold.PLP.Chemscore.CHOScore>
0.0000

> <Gold.PLP.Chemscore.Metal>
0.0000

> <Gold.Chemscore.Hbonds>
donor molecule, donor type, donor heavy atom, donor atom, acceptor molecule, acceptor atom, score
      L1  H    10    29       P1  8029  0.64
      L1  H    13    30       P1  8029  1.00
      P1  H  6933  6944       L1    12  0.54

> <Gold.PLP.Chemscore.Internal.Correction>
2.8553

> <Gold.Rescore>
     Score         DG    S(hbond)    S(metal)    S(lipo)     H(rot)  DE(clash)    DE(int)     intcor
     17.58     -21.00       2.85        0.00      87.88       1.68       0.21       3.21       ----

> <Gold.Chemscore.Fitness>
17.5768

> <Gold.Chemscore.DG>
-21.0034

> <Gold.Chemscore.ZeroCoef>
-5.4800

> <Gold.Chemscore.Hbond>
2.8536

> <Gold.Chemscore.Metal>
0.0000

> <Gold.Chemscore.Lipo>
87.8804

> <Gold.Chemscore.Internal_Hbond>
0.0000

> <Gold.Chemscore.DEClash>
0.2126

> <Gold.Chemscore.DEInternal>
3.2140

> <Gold.Chemscore.Rot>
1.6757

> <Gold.Chemscore.Internal.Correction>
   9.000000E+99

> <Gold.Chemscore.Hbonds>
donor molecule, donor type, donor heavy atom, donor atom, acceptor molecule, acceptor atom, score
      L1  H    10    29       P1  8029  0.63
      L1  H    13    30       P1  8029  1.00
      P1  H  6933  6944       L1    12  0.14

> <Gold.Chemscore.Hbond.Weighted>
-9.5311

> <Gold.Chemscore.Metal.Weighted>
-0.0000

> <Gold.Chemscore.Lipo.Weighted>
-10.2820

> <Gold.Chemscore.Internal_Hbond.Weighted>
0.0000

> <Gold.Chemscore.DEClash.Weighted>
0.2126

> <Gold.Chemscore.DEInternal.Weighted>
3.2140

> <Gold.Chemscore.Rot.Weighted>
4.2897

> <Gold.Chemscore.Internal.Correction.Weighted>
   9.000000E+99

> <Gold.Protein.RotatedTorsions>
[ 6907 6896 6895 6894 ] final  -28.57 input  -60.11 | X-H torsion
[ 7974 7965 7964 7962 ] final   40.05 input  175.53 | X-H torsion
[ 8008 7997 7996 7995 ] final   54.59 input   59.86 | X-H torsion
[ 10167 10162 10161 10158 ] final  -10.30 input  -65.29 | X-H torsion
[ 10718 10713 10712 10709 ] final -137.92 input   66.30 | X-H torsion
[ 10763 10752 10751 10750 ] final   79.85 input  -60.55 | X-H torsion
[ 11005 11000 10999 10996 ] final  -87.12 input  -57.11 | X-H torsion

> <Gold.Protein.ActiveResidues>
 VAL166  LYS551  ARG553  GLY616  TRP617  ASP618  TYR619  PRO620  LYS621  CYS622 
 ASP623  PHE694  ASN695  SER759  ASP760  ASP761  ALA762  ILE779  LEU786  VAL792 
 PHE793  MET794  SER795  GLU796  ALA797  LYS798  CYS799  TRP800  GLU811  SER814 

> <Gold.Protein.RotatedAtoms>
  151.1311  135.0131  159.8582 H   0  0  0  0  0  0  0  0  0  0  0  0  # atno 6907 bound_to 6896
  152.5451  134.1609  159.8567 H   0  0  0  0  0  0  0  0  0  0  0  0  # atno 6908 bound_to 6896
  151.1676  133.4760  159.2627 H   0  0  0  0  0  0  0  0  0  0  0  0  # atno 6909 bound_to 6896
  146.0936  139.5579  142.9460 H   0  0  0  0  0  0  0  0  0  0  0  0  # atno 7974 bound_to 7965
  155.4871  140.3470  155.4349 H   0  0  0  0  0  0  0  0  0  0  0  0  # atno 8008 bound_to 7997
  156.1001  140.1433  156.9507 H   0  0  0  0  0  0  0  0  0  0  0  0  # atno 8009 bound_to 7997
  154.4688  140.0908  156.7069 H   0  0  0  0  0  0  0  0  0  0  0  0  # atno 8010 bound_to 7997
  140.7110  143.5763  150.9039 H   0  0  0  0  0  0  0  0  0  0  0  0  # atno 10167 bound_to 10162
  156.2935  130.7388  151.1421 H   0  0  0  0  0  0  0  0  0  0  0  0  # atno 10718 bound_to 10713
  153.0986  135.4824  154.8825 H   0  0  0  0  0  0  0  0  0  0  0  0  # atno 10763 bound_to 10752
  154.7353  135.3069  154.8825 H   0  0  0  0  0  0  0  0  0  0  0  0  # atno 10764 bound_to 10752
  153.9448  135.6830  153.4797 H   0  0  0  0  0  0  0  0  0  0  0  0  # atno 10765 bound_to 10752
  141.1621  133.7493  156.9260 H   0  0  0  0  0  0  0  0  0  0  0  0  # atno 11005 bound_to 11000
  145.5992  141.0358  143.2028 LP  0  0  0  0  0  0  0  0  0  0  0  0  # atno 17320 bound_to 7965
  144.7378  139.7534  143.7322 LP  0  0  0  0  0  0  0  0  0  0  0  0  # atno 17321 bound_to 7965
  139.9489  143.6295  152.3034 LP  0  0  0  0  0  0  0  0  0  0  0  0  # atno 17342 bound_to 10162
  139.6806  144.7655  151.1615 LP  0  0  0  0  0  0  0  0  0  0  0  0  # atno 17343 bound_to 10162
  157.7349  131.0577  150.5500 LP  0  0  0  0  0  0  0  0  0  0  0  0  # atno 17370 bound_to 10713
  156.5619  130.4257  149.6059 LP  0  0  0  0  0  0  0  0  0  0  0  0  # atno 17371 bound_to 10713
  140.1418  134.9288  157.2477 LP  0  0  0  0  0  0  0  0  0  0  0  0  # atno 17394 bound_to 11000
  140.2827  134.3331  155.7338 LP  0  0  0  0  0  0  0  0  0  0  0  0  # atno 17395 bound_to 11000

$$$$
