AV-unprocessed.smi:1836|AV-procd|sdf|7479|dock7
  -GOLD-   22720 9173D 1   1.00000     0.00000
 Structure written by MMmdl.
 32 33  0  0  0  0  0  0  0  0  2 V2000
  150.1086  140.7265  155.4414 C   0  0  0  0  0  0  0  0  0  0  0  0
  150.4585  141.6299  156.6319 C   0  0  2  0  0  0  0  0  0  0  0  0
  150.9292  140.7940  157.8447 C   0  0  0  0  0  0  0  0  0  0  0  0
  151.8369  141.5349  158.7197 N   0  0  0  0  0  0  0  0  0  0  0  0
  151.4566  142.8305  159.2592 C   0  0  0  0  0  0  0  0  0  0  0  0
  152.7572  143.4153  159.8251 C   0  0  0  0  0  0  0  0  0  0  0  0
  153.7147  142.2270  159.9628 C   0  0  0  0  0  0  0  0  0  0  0  0
  153.0574  141.1515  159.1139 C   0  0  0  0  0  0  0  0  0  0  0  0
  153.6095  140.0871  158.8388 O   0  0  0  0  0  0  0  0  0  0  0  0
  149.2747  142.4152  156.9816 N   0  0  0  0  0  0  0  0  0  0  0  0
  148.1918  141.9733  157.6391 C   0  0  0  0  0  0  0  0  0  0  0  0
  148.1508  140.8125  158.0536 O   0  0  0  0  0  0  0  0  0  0  0  0
  147.2116  142.8971  157.7558 N   0  5  0  0  0  0  0  0  0  0  0  0
  146.7889  143.2701  158.9750 C   0  0  0  0  0  0  0  0  0  0  0  0
  147.2403  142.6940  160.1004 N   0  0  0  0  0  0  0  0  0  0  0  0
  146.6755  143.2280  161.2510 N   0  0  0  0  0  0  0  0  0  0  0  0
  145.8144  144.2032  160.9620 C   0  0  0  0  0  0  0  0  0  0  0  0
  145.6169  144.5607  159.2595 S   0  0  0  0  0  0  0  0  0  0  0  0
  150.9726  140.1408  155.1270 H   0  0  0  0  0  0  0  0  0  0  0  0
  149.7824  141.3161  154.5840 H   0  0  0  0  0  0  0  0  0  0  0  0
  149.3075  140.0302  155.6920 H   0  0  0  0  0  0  0  0  0  0  0  0
  151.2642  142.2890  156.3044 H   0  0  0  0  0  0  0  0  0  0  0  0
  150.0706  140.4394  158.4174 H   0  0  0  0  0  0  0  0  0  0  0  0
  151.4491  139.8996  157.4980 H   0  0  0  0  0  0  0  0  0  0  0  0
  151.0209  143.4771  158.4964 H   0  0  0  0  0  0  0  0  0  0  0  0
  150.7167  142.6861  160.0473 H   0  0  0  0  0  0  0  0  0  0  0  0
  153.1716  144.1415  159.1240 H   0  0  0  0  0  0  0  0  0  0  0  0
  152.5940  143.9276  160.7737 H   0  0  0  0  0  0  0  0  0  0  0  0
  154.7176  142.4617  159.6052 H   0  0  0  0  0  0  0  0  0  0  0  0
  153.7791  141.8840  160.9957 H   0  0  0  0  0  0  0  0  0  0  0  0
  149.2598  143.3746  156.6679 H   0  0  0  0  0  0  0  0  0  0  0  0
  145.2943  144.7174  161.7565 H   0  0  0  0  0  0  0  0  0  0  0  0
  1  2  1  0  0  0  0
  1 19  1  0  0  0  0
  1 20  1  0  0  0  0
  1 21  1  0  0  0  0
  2  3  1  0  0  0  0
  2 10  1  0  0  0  0
  2 22  1  0  0  0  0
  3  4  1  0  0  0  0
  3 23  1  0  0  0  0
  3 24  1  0  0  0  0
  4  8  1  0  0  0  0
  4  5  1  0  0  0  0
  5  6  1  0  0  0  0
  5 25  1  0  0  0  0
  5 26  1  0  0  0  0
  6  7  1  0  0  0  0
  6 27  1  0  0  0  0
  6 28  1  0  0  0  0
  7  8  1  0  0  0  0
  7 29  1  0  0  0  0
  7 30  1  0  0  0  0
  8  9  2  0  0  0  0
 10 11  1  0  0  0  0
 10 31  1  0  0  0  0
 11 12  2  0  0  0  0
 11 13  1  0  0  0  0
 13 14  1  0  0  0  0
 14 18  1  0  0  0  0
 14 15  2  0  0  0  0
 15 16  1  0  0  0  0
 16 17  2  0  0  0  0
 17 18  1  0  0  0  0
 17 32  1  0  0  0  0
M  CHG  1  13  -1
M  END
> <s_m_source_file>
AV-unprocessed.smi

> <i_m_source_file_index>
1836

> <i_lp_mmshare_version>
43012

> <i_f3d_flags>
0

> <s_epik_input>
Tz1DMVtDSDJdW0NIMl1bQ0gyXU4xW0NIMl1bQ0BASF0oW0NIM10pW05IXUMoPU8pW05IXWMybm5bY0hdczI=

> <s_epik_cmdline>
J2VwaWtfcHl0aG9uJywgJy1waCcsICc3LjAnLCAnLXRuJywgJzgnLCAnLW1hJywgJzIwMCcsICctbWV0YWxfYmluZGluZycsICctaW1hZScsICc8aW5maWxlLm1hZT4nLCAnLW9tYWUnLCAnPG91dGZpbGUubWFlPic=

> <r_lp_tautomer_probability>
1

> <r_epik_Ionization_Penalty>
3.44722

> <r_epik_Ionization_Penalty_Charging>
3.40341

> <r_epik_Ionization_Penalty_Neutral>
0.0438099

> <r_epik_State_Penalty>
3.40151

> <r_epik_Charging_Adjusted_Penalty>
6.80491

> <i_epik_Tot_Q>
-1

> <i_epik_Tot_abs_Q>
1

> <r_epik_Metal_State_Penalty>
0.49534

> <b_epik_Metal_Only>
1

> <s_lp_Force_Field>
OPLS_2005

> <r_lp_Energy>
15.5322

> <b_lp_Chiralities_Consistent>
1

> <s_lp_Variant>
AV-unprocessed.smi:1836-3

> <Gold.Version>
5.8.1

> <Gold.Id.Protein>
6NUR|6NUR_protein|mol2

> <Gold.PLP.Fitness>
37.1672

> <Gold.PLP.PLP>
-31.9000

> <Gold.PLP.part.hbond>
-6.0524

> <Gold.PLP.part.metal>
0.0000

> <Gold.PLP.part.buried>
-3.4891

> <Gold.PLP.part.nonpolar>
-22.7660

> <Gold.PLP.part.repulsive>
0.2753

> <Gold.PLP.ligand.clash>
0.0000

> <Gold.PLP.ligand.torsion>
1.1024

> <Gold.PLP.Chemscore.Hbond>
2.4512

> <Gold.PLP.Chemscore.CHOScore>
0.0000

> <Gold.PLP.Chemscore.Metal>
0.0000

> <Gold.Chemscore.Hbonds>
donor molecule, donor type, donor heavy atom, donor atom, acceptor molecule, acceptor atom, score
      L1  H    10    31       P1  8028  1.00
      P1  H  6934  6946       L1    15  0.44
      P1  H  7997  8009       L1     9  1.00

> <Gold.PLP.Chemscore.Internal.Correction>
0.1184

> <Gold.Rescore>
     Score         DG    S(hbond)    S(metal)    S(lipo)     H(rot)  DE(clash)    DE(int)     intcor
     10.76     -14.37       1.94        0.00      58.59       1.73       0.00       3.60       ----

> <Gold.Chemscore.Fitness>
10.7630

> <Gold.Chemscore.DG>
-14.3716

> <Gold.Chemscore.ZeroCoef>
-5.4800

> <Gold.Chemscore.Hbond>
1.9360

> <Gold.Chemscore.Metal>
0.0000

> <Gold.Chemscore.Lipo>
58.5867

> <Gold.Chemscore.Internal_Hbond>
0.0000

> <Gold.Chemscore.DEClash>
0.0047

> <Gold.Chemscore.DEInternal>
3.6039

> <Gold.Chemscore.Rot>
1.7302

> <Gold.Chemscore.Internal.Correction>
   9.000000E+99

> <Gold.Chemscore.Hbonds>
donor molecule, donor type, donor heavy atom, donor atom, acceptor molecule, acceptor atom, score
      L1  H    10    31       P1  8028  0.98
      P1  H  6934  6946       L1    15  0.03
      P1  H  7997  8009       L1     9  0.84

> <Gold.Chemscore.Hbond.Weighted>
-6.4663

> <Gold.Chemscore.Metal.Weighted>
-0.0000

> <Gold.Chemscore.Lipo.Weighted>
-6.8546

> <Gold.Chemscore.Internal_Hbond.Weighted>
0.0000

> <Gold.Chemscore.DEClash.Weighted>
0.0047

> <Gold.Chemscore.DEInternal.Weighted>
3.6039

> <Gold.Chemscore.Rot.Weighted>
4.4294

> <Gold.Chemscore.Internal.Correction.Weighted>
   9.000000E+99

> <Gold.Protein.RotatedTorsions>
[ 6907 6896 6895 6894 ] final  148.49 input  -60.11 | X-H torsion
[ 7974 7965 7964 7962 ] final -151.67 input  175.53 | X-H torsion
[ 8008 7997 7996 7995 ] final  140.09 input   59.86 | X-H torsion
[ 10167 10162 10161 10158 ] final   10.24 input  -65.29 | X-H torsion
[ 10718 10713 10712 10709 ] final -166.45 input   66.30 | X-H torsion
[ 10763 10752 10751 10750 ] final  160.20 input  -60.55 | X-H torsion
[ 11005 11000 10999 10996 ] final  -84.39 input  -57.11 | X-H torsion

> <Gold.Protein.ActiveResidues>
 VAL166  LYS551  ARG553  GLY616  TRP617  ASP618  TYR619  PRO620  LYS621  CYS622 
 ASP623  PHE694  ASN695  SER759  ASP760  ASP761  ALA762  ILE779  LEU786  VAL792 
 PHE793  MET794  SER795  GLU796  ALA797  LYS798  CYS799  TRP800  GLU811  SER814 

> <Gold.Protein.RotatedAtoms>
  152.1408  133.4462  159.4765 H   0  0  0  0  0  0  0  0  0  0  0  0  # atno 6907 bound_to 6896
  150.6886  134.2308  159.4443 H   0  0  0  0  0  0  0  0  0  0  0  0  # atno 6908 bound_to 6896
  152.0198  134.9828  160.0621 H   0  0  0  0  0  0  0  0  0  0  0  0  # atno 6909 bound_to 6896
  144.7837  140.4766  143.5821 H   0  0  0  0  0  0  0  0  0  0  0  0  # atno 7974 bound_to 7965
  156.2983  140.2350  156.4344 H   0  0  0  0  0  0  0  0  0  0  0  0  # atno 8008 bound_to 7997
  154.8241  140.0436  157.1452 H   0  0  0  0  0  0  0  0  0  0  0  0  # atno 8009 bound_to 7997
  154.9281  140.3013  155.5185 H   0  0  0  0  0  0  0  0  0  0  0  0  # atno 8010 bound_to 7997
  140.6206  143.8212  150.7171 H   0  0  0  0  0  0  0  0  0  0  0  0  # atno 10167 bound_to 10162
  156.6680  130.9073  151.3039 H   0  0  0  0  0  0  0  0  0  0  0  0  # atno 10718 bound_to 10713
  154.2437  135.2774  155.2844 H   0  0  0  0  0  0  0  0  0  0  0  0  # atno 10763 bound_to 10752
  154.5523  135.5671  153.6937 H   0  0  0  0  0  0  0  0  0  0  0  0  # atno 10764 bound_to 10752
  152.9994  135.6277  154.2582 H   0  0  0  0  0  0  0  0  0  0  0  0  # atno 10765 bound_to 10752
  141.1651  133.7343  156.8860 H   0  0  0  0  0  0  0  0  0  0  0  0  # atno 11005 bound_to 11000
  145.5981  139.1501  143.3145 LP  0  0  0  0  0  0  0  0  0  0  0  0  # atno 17320 bound_to 7965
  146.2058  140.6103  142.9082 LP  0  0  0  0  0  0  0  0  0  0  0  0  # atno 17321 bound_to 7965
  140.1801  143.4122  152.1939 LP  0  0  0  0  0  0  0  0  0  0  0  0  # atno 17342 bound_to 10162
  139.5436  144.7278  151.4655 LP  0  0  0  0  0  0  0  0  0  0  0  0  # atno 17343 bound_to 10162
  157.7087  130.9414  150.1015 LP  0  0  0  0  0  0  0  0  0  0  0  0  # atno 17370 bound_to 10713
  156.1960  130.3657  149.8849 LP  0  0  0  0  0  0  0  0  0  0  0  0  # atno 17371 bound_to 10713
  140.1681  134.9119  157.2799 LP  0  0  0  0  0  0  0  0  0  0  0  0  # atno 17394 bound_to 11000
  140.2533  134.3657  155.7434 LP  0  0  0  0  0  0  0  0  0  0  0  0  # atno 17395 bound_to 11000

$$$$
