AV-unprocessed.smi:1155|AV-procd|sdf|4904|dock7
  -GOLD-   22720 3483D 1   1.00000     0.00000
 Structure written by MMmdl.
 38 40  0  0  0  0  0  0  0  0  1 V2000
  150.9247  130.4514  155.6093 C   0  0  0  0  0  0  0  0  0  0  0  0
  150.5100  131.8563  155.5746 N   0  0  0  0  0  0  0  0  0  0  0  0
  149.6993  132.2757  154.5019 C   0  0  0  0  0  0  0  0  0  0  0  0
  149.2668  133.5501  154.3793 C   0  0  0  0  0  0  0  0  0  0  0  0
  148.4461  134.0348  153.3499 N   0  0  0  0  0  0  0  0  0  0  0  0
  147.3291  133.4953  152.8267 C   0  0  0  0  0  0  0  0  0  0  0  0
  146.8396  132.4105  153.1398 O   0  0  0  0  0  0  0  0  0  0  0  0
  146.8094  134.2981  151.8849 N   0  0  0  0  0  0  0  0  0  0  0  0
  145.6182  134.0428  151.0770 C   0  0  0  0  0  0  0  0  0  0  0  0
  144.3637  134.7361  151.5885 C   0  0  0  0  0  0  0  0  0  0  0  0
  144.4305  136.0993  152.2348 C   0  0  0  0  0  0  0  0  0  0  0  0
  144.0984  134.8811  153.0674 C   0  0  0  0  0  0  0  0  0  0  0  0
  145.3574  132.5656  150.8228 C   0  0  0  0  0  0  0  0  0  0  0  0
  145.7759  131.9107  149.5290 C   0  0  0  0  0  0  0  0  0  0  0  0
  144.3085  132.1137  149.8345 C   0  0  0  0  0  0  0  0  0  0  0  0
  149.6659  134.4786  155.4156 C   0  0  0  0  0  0  0  0  0  0  0  0
  150.4371  134.0844  156.4474 C   0  0  0  0  0  0  0  0  0  0  0  0
  150.9048  132.7019  156.5699 C   0  0  0  0  0  0  0  0  0  0  0  0
  151.6069  132.3266  157.5093 O   0  0  0  0  0  0  0  0  0  0  0  0
  150.6019  129.8925  154.7302 H   0  0  0  0  0  0  0  0  0  0  0  0
  150.5073  129.9529  156.4853 H   0  0  0  0  0  0  0  0  0  0  0  0
  152.0116  130.3716  155.6589 H   0  0  0  0  0  0  0  0  0  0  0  0
  149.4545  131.4839  153.8122 H   0  0  0  0  0  0  0  0  0  0  0  0
  148.7471  134.9108  152.9486 H   0  0  0  0  0  0  0  0  0  0  0  0
  147.2894  135.1669  151.7008 H   0  0  0  0  0  0  0  0  0  0  0  0
  145.8490  134.4904  150.1093 H   0  0  0  0  0  0  0  0  0  0  0  0
  143.4860  134.5642  150.9682 H   0  0  0  0  0  0  0  0  0  0  0  0
  145.4105  136.5499  152.3772 H   0  0  0  0  0  0  0  0  0  0  0  0
  143.6237  136.7966  152.0177 H   0  0  0  0  0  0  0  0  0  0  0  0
  143.0706  134.7666  153.4056 H   0  0  0  0  0  0  0  0  0  0  0  0
  144.8594  134.5223  153.7573 H   0  0  0  0  0  0  0  0  0  0  0  0
  145.4526  131.9465  151.7129 H   0  0  0  0  0  0  0  0  0  0  0  0
  146.2219  132.5414  148.7626 H   0  0  0  0  0  0  0  0  0  0  0  0
  146.1675  130.8972  149.5855 H   0  0  0  0  0  0  0  0  0  0  0  0
  143.7217  131.2344  150.0922 H   0  0  0  0  0  0  0  0  0  0  0  0
  143.7810  132.8761  149.2646 H   0  0  0  0  0  0  0  0  0  0  0  0
  149.3444  135.5086  155.3631 H   0  0  0  0  0  0  0  0  0  0  0  0
  150.7188  134.8031  157.2027 H   0  0  0  0  0  0  0  0  0  0  0  0
  1  2  1  0  0  0  0
  1 20  1  0  0  0  0
  1 21  1  0  0  0  0
  1 22  1  0  0  0  0
  2 18  1  0  0  0  0
  2  3  1  0  0  0  0
  3  4  2  0  0  0  0
  3 23  1  0  0  0  0
  4  5  1  0  0  0  0
  4 16  1  0  0  0  0
  5  6  1  0  0  0  0
  5 24  1  0  0  0  0
  6  7  2  0  0  0  0
  6  8  1  0  0  0  0
  8  9  1  0  0  0  0
  8 25  1  0  0  0  0
  9 10  1  0  0  0  0
  9 13  1  0  0  0  0
  9 26  1  0  0  0  0
 10 12  1  0  0  0  0
 10 11  1  0  0  0  0
 10 27  1  0  0  0  0
 11 12  1  0  0  0  0
 11 28  1  0  0  0  0
 11 29  1  0  0  0  0
 12 30  1  0  0  0  0
 12 31  1  0  0  0  0
 13 15  1  0  0  0  0
 13 14  1  0  0  0  0
 13 32  1  0  0  0  0
 14 15  1  0  0  0  0
 14 33  1  0  0  0  0
 14 34  1  0  0  0  0
 15 35  1  0  0  0  0
 15 36  1  0  0  0  0
 16 17  2  0  0  0  0
 16 37  1  0  0  0  0
 17 18  1  0  0  0  0
 17 38  1  0  0  0  0
 18 19  2  0  0  0  0
M  END
> <s_m_source_file>
AV-unprocessed.smi

> <i_m_source_file_index>
1155

> <i_lp_mmshare_version>
43012

> <i_f3d_flags>
0

> <s_epik_input>
Tz1jMVtjSF1bY0hdYyhbY0hdbjFbQ0gzXSlbTkhdQyg9TylbTkhdW0NIXShbQ0hdMltDSDJdW0NIMl0yKVtDSF0zW0NIMl1bQ0gyXTM=

> <s_epik_cmdline>
J2VwaWtfcHl0aG9uJywgJy1waCcsICc3LjAnLCAnLXRuJywgJzgnLCAnLW1hJywgJzIwMCcsICctbWV0YWxfYmluZGluZycsICctaW1hZScsICc8aW5maWxlLm1hZT4nLCAnLW9tYWUnLCAnPG91dGZpbGUubWFlPic=

> <r_lp_tautomer_probability>
1

> <r_epik_Ionization_Penalty>
2.79104e-05

> <r_epik_Ionization_Penalty_Charging>
6.05378e-06

> <r_epik_Ionization_Penalty_Neutral>
2.18566e-05

> <r_epik_State_Penalty>
-0

> <r_epik_Charging_Adjusted_Penalty>
6.05378e-06

> <i_epik_Tot_Q>
0

> <i_epik_Tot_abs_Q>
0

> <r_epik_Metal_State_Penalty>
-0

> <b_epik_Metal_Only>
0

> <s_lp_Force_Field>
OPLS_2005

> <r_lp_Energy>
36.9075

> <b_lp_Chiralities_Consistent>
1

> <s_lp_Variant>
AV-unprocessed.smi:1155-1

> <Gold.Version>
5.8.1

> <Gold.Id.Protein>
6NUR|6NUR_protein|mol2

> <Gold.PLP.Fitness>
43.8480

> <Gold.PLP.PLP>
-36.6457

> <Gold.PLP.part.hbond>
-3.0000

> <Gold.PLP.part.metal>
0.0000

> <Gold.PLP.part.buried>
-4.3084

> <Gold.PLP.part.nonpolar>
-30.0601

> <Gold.PLP.part.repulsive>
0.1499

> <Gold.PLP.ligand.clash>
0.0000

> <Gold.PLP.ligand.torsion>
1.8978

> <Gold.PLP.Chemscore.Hbond>
2.9440

> <Gold.PLP.Chemscore.CHOScore>
0.0000

> <Gold.PLP.Chemscore.Metal>
0.0000

> <Gold.Chemscore.Hbonds>
donor molecule, donor type, donor heavy atom, donor atom, acceptor molecule, acceptor atom, score
      L1  H     5    24       P1  7948  1.00
      L1  H     8    25       P1  7948  0.96
      P1  H  6896  6908       L1    19  1.00

> <Gold.PLP.Chemscore.Internal.Correction>
2.1660

> <Gold.Rescore>
     Score         DG    S(hbond)    S(metal)    S(lipo)     H(rot)  DE(clash)    DE(int)     intcor
     15.65     -18.92       2.48        0.00      73.51       1.35       0.01       3.25       ----

> <Gold.Chemscore.Fitness>
15.6536

> <Gold.Chemscore.DG>
-18.9205

> <Gold.Chemscore.ZeroCoef>
-5.4800

> <Gold.Chemscore.Hbond>
2.4837

> <Gold.Chemscore.Metal>
0.0000

> <Gold.Chemscore.Lipo>
73.5119

> <Gold.Chemscore.Internal_Hbond>
0.0000

> <Gold.Chemscore.DEClash>
0.0149

> <Gold.Chemscore.DEInternal>
3.2520

> <Gold.Chemscore.Rot>
1.3500

> <Gold.Chemscore.Internal.Correction>
   9.000000E+99

> <Gold.Chemscore.Hbonds>
donor molecule, donor type, donor heavy atom, donor atom, acceptor molecule, acceptor atom, score
      L1  H     5    24       P1  7948  0.25
      L1  H     8    25       P1  7948  0.85
      P1  H  6896  6908       L1    19  0.94

> <Gold.Chemscore.Hbond.Weighted>
-8.2956

> <Gold.Chemscore.Metal.Weighted>
-0.0000

> <Gold.Chemscore.Lipo.Weighted>
-8.6009

> <Gold.Chemscore.Internal_Hbond.Weighted>
0.0000

> <Gold.Chemscore.DEClash.Weighted>
0.0149

> <Gold.Chemscore.DEInternal.Weighted>
3.2520

> <Gold.Chemscore.Rot.Weighted>
3.4560

> <Gold.Chemscore.Internal.Correction.Weighted>
   9.000000E+99

> <Gold.Protein.RotatedTorsions>
[ 6907 6896 6895 6894 ] final   60.38 input  -60.11 | X-H torsion
[ 7974 7965 7964 7962 ] final   -2.19 input  175.53 | X-H torsion
[ 8008 7997 7996 7995 ] final   23.08 input   59.86 | X-H torsion
[ 10167 10162 10161 10158 ] final  133.11 input  -65.29 | X-H torsion
[ 10718 10713 10712 10709 ] final -173.53 input   66.30 | X-H torsion
[ 10763 10752 10751 10750 ] final -114.38 input  -60.55 | X-H torsion
[ 11005 11000 10999 10996 ] final  -22.20 input  -57.11 | X-H torsion

> <Gold.Protein.ActiveResidues>
 VAL166  LYS551  ARG553  GLY616  TRP617  ASP618  TYR619  PRO620  LYS621  CYS622 
 ASP623  PHE694  ASN695  SER759  ASP760  ASP761  ALA762  ILE779  LEU786  VAL792 
 PHE793  MET794  SER795  GLU796  ALA797  LYS798  CYS799  TRP800  GLU811  SER814 

> <Gold.Protein.RotatedAtoms>
  152.3997  134.6306  160.0074 H   0  0  0  0  0  0  0  0  0  0  0  0  # atno 6907 bound_to 6896
  151.6515  133.3315  159.3161 H   0  0  0  0  0  0  0  0  0  0  0  0  # atno 6908 bound_to 6896
  150.7900  134.6958  159.6567 H   0  0  0  0  0  0  0  0  0  0  0  0  # atno 6909 bound_to 6896
  146.2407  140.1534  142.8333 H   0  0  0  0  0  0  0  0  0  0  0  0  # atno 7974 bound_to 7965
  154.9755  140.3095  155.4969 H   0  0  0  0  0  0  0  0  0  0  0  0  # atno 8008 bound_to 7997
  156.2960  140.2276  156.4790 H   0  0  0  0  0  0  0  0  0  0  0  0  # atno 8009 bound_to 7997
  154.7837  140.0444  157.1136 H   0  0  0  0  0  0  0  0  0  0  0  0  # atno 8010 bound_to 7997
  139.5311  144.6631  151.4949 H   0  0  0  0  0  0  0  0  0  0  0  0  # atno 10167 bound_to 10162
  156.7716  130.9451  151.3120 H   0  0  0  0  0  0  0  0  0  0  0  0  # atno 10718 bound_to 10713
  154.8437  135.4420  154.1497 H   0  0  0  0  0  0  0  0  0  0  0  0  # atno 10763 bound_to 10752
  153.2661  135.6941  153.7535 H   0  0  0  0  0  0  0  0  0  0  0  0  # atno 10764 bound_to 10752
  153.6793  135.3405  155.3149 H   0  0  0  0  0  0  0  0  0  0  0  0  # atno 10765 bound_to 10752
  140.8635  133.7771  156.0102 H   0  0  0  0  0  0  0  0  0  0  0  0  # atno 11005 bound_to 11000
  145.0149  140.8745  143.5202 LP  0  0  0  0  0  0  0  0  0  0  0  0  # atno 17320 bound_to 7965
  145.1573  139.2479  143.5410 LP  0  0  0  0  0  0  0  0  0  0  0  0  # atno 17321 bound_to 7965
  140.6489  143.8738  150.6765 LP  0  0  0  0  0  0  0  0  0  0  0  0  # atno 17342 bound_to 10162
  140.2096  143.3894  152.1728 LP  0  0  0  0  0  0  0  0  0  0  0  0  # atno 17343 bound_to 10162
  157.6688  130.9032  149.9993 LP  0  0  0  0  0  0  0  0  0  0  0  0  # atno 17370 bound_to 10713
  156.1274  130.3644  149.9787 LP  0  0  0  0  0  0  0  0  0  0  0  0  # atno 17371 bound_to 10713
  140.8656  134.2788  157.5214 LP  0  0  0  0  0  0  0  0  0  0  0  0  # atno 17394 bound_to 11000
  139.8708  134.9541  156.4164 LP  0  0  0  0  0  0  0  0  0  0  0  0  # atno 17395 bound_to 11000

$$$$
