#       Name:                AV-unprocessed.smi:1758
#       Creating user name   scv26
#       Creation time:       Fri Mar 27 08:30:19 2020


#       File generated by GOLD software.
#

@<TRIPOS>MOLECULE
AV-unprocessed.smi:1758
    47    49     1
SMALL
NO_CHARGES


@<TRIPOS>ATOM
      1 ****        -6.4603   0.5165   2.9956 C.3            1 S1                 0.0000
      2 ****        -5.9714  -0.8474   2.4944 C.3            1 S1                 0.0000
      3 ****        -4.5241  -0.9375   2.5007 N.pl3          1 S1                 0.0000
      4 ****        -3.6554  -0.7974   1.4366 C.2            1 S1                 0.0000
      5 ****        -2.4037  -0.9756   1.9551 C.2            1 S1                 0.0000
      6 ****        -1.1458  -0.9484   1.3007 N.am           1 S1                 0.0000
      7 ****        -0.9084  -0.6925   0.0036 C.2            1 S1                 0.0000
      8 ****        -1.7678  -0.3960  -0.8261 O.2            1 S1                 0.0000
      9 ****         0.3981  -0.7940  -0.2813 N.am           1 S1                 0.0000
     10 ****         1.0062  -0.5739  -1.5938 C.3            1 S1                 0.0000
     11 ****         1.7970  -1.7937  -2.1057 C.3            1 S1                 0.0000
     12 ****         3.0726  -1.2018  -2.7148 C.3            1 S1                 0.0000
     13 ****         3.3239  -0.0268  -1.8720 N.4            1 S1                 1.0000
     14 ****         4.3435   0.9498  -2.3058 C.3            1 S1                 0.0000
     15 ****         4.5402   1.9843  -1.1762 C.3            1 S1                 0.0000
     16 ****         3.2048   2.6142  -0.7169 C.3            1 S1                 0.0000
     17 ****         2.1423   1.5392  -0.4000 C.3            1 S1                 0.0000
     18 ****         2.0152   0.5957  -1.6086 C.3            1 S1                 0.0000
     19 ****        -2.5903  -1.2189   3.3408 C.2            1 S1                 0.0000
     20 ****        -3.8744  -1.1924   3.6634 N.2            1 S1                 0.0000
     21 ****        -7.5490   0.5685   2.9735 H              1 S1                 0.0000
     22 ****        -6.0755   1.3257   2.3743 H              1 S1                 0.0000
     23 ****        -6.1397   0.6993   4.0217 H              1 S1                 0.0000
     24 ****        -6.3762  -1.6472   3.1161 H              1 S1                 0.0000
     25 ****        -6.3274  -1.0254   1.4789 H              1 S1                 0.0000
     26 ****        -4.0042  -0.5925   0.4351 H              1 S1                 0.0000
     27 ****        -0.3460  -1.1573   1.8801 H              1 S1                 0.0000
     28 ****         1.0230  -1.0447   0.4710 H              1 S1                 0.0000
     29 ****         0.2323  -0.3467  -2.3294 H              1 S1                 0.0000
     30 ****         2.0654  -2.4482  -1.2748 H              1 S1                 0.0000
     31 ****         1.2314  -2.3892  -2.8233 H              1 S1                 0.0000
     32 ****         3.9093  -1.9009  -2.7033 H              1 S1                 0.0000
     33 ****         2.8964  -0.8868  -3.7447 H              1 S1                 0.0000
     34 ****         5.2824   0.4352  -2.5126 H              1 S1                 0.0000
     35 ****         4.0297   1.4367  -3.2304 H              1 S1                 0.0000
     36 ****         5.0126   1.4951  -0.3232 H              1 S1                 0.0000
     37 ****         5.2293   2.7647  -1.5002 H              1 S1                 0.0000
     38 ****         3.3696   3.2475   0.1552 H              1 S1                 0.0000
     39 ****         2.8295   3.2693  -1.5042 H              1 S1                 0.0000
     40 ****         2.4312   0.9816   0.4919 H              1 S1                 0.0000
     41 ****         1.1843   2.0136  -0.1837 H              1 S1                 0.0000
     42 ****         1.7631   1.2045  -2.4801 H              1 S1                 0.0000
     43 ****        -1.8539  -1.4111   4.1070 H              1 S1                 0.0000
     44 ****         3.6401  -0.3955  -0.9865 H              1 S1                 0.0000
     45 ****        -2.7270  -0.3309  -0.5510 LP             1 S1                 0.0000
     46 ****        -1.5068  -0.2202  -1.7753 LP             1 S1                 0.0000
     47 ****        -4.2775  -1.3304   4.5681 LP             1 S1                 0.0000
@<TRIPOS>BOND
    1    1    2 1     
    2    1   21 1     
    3    1   22 1     
    4    1   23 1     
    5    2    3 1     
    6    2   24 1     
    7    2   25 1     
    8    3   20 1     
    9    3    4 1     
   10    4    5 2     
   11    4   26 1     
   12    5    6 1     
   13    5   19 1     
   14    6    7 am    
   15    6   27 1     
   16    7    8 2     
   17    7    9 am    
   18    9   10 1     
   19    9   28 1     
   20   10   18 1     
   21   10   11 1     
   22   10   29 1     
   23   11   12 1     
   24   11   30 1     
   25   11   31 1     
   26   12   13 1     
   27   12   32 1     
   28   12   33 1     
   29   13   18 1     
   30   13   14 1     
   31   13   44 1     
   32   14   15 1     
   33   14   34 1     
   34   14   35 1     
   35   15   16 1     
   36   15   36 1     
   37   15   37 1     
   38   16   17 1     
   39   16   38 1     
   40   16   39 1     
   41   17   18 1     
   42   17   40 1     
   43   17   41 1     
   44   18   42 1     
   45   19   20 2     
   46   19   43 1     
   47    8   45 1     
   48    8   46 1     
   49   20   47 1     
@<TRIPOS>SUBSTRUCTURE
      1 S1             1
@<TRIPOS>SET
LONE_PAIRS      STATIC     ATOMS    <user>   **** ""
3 45 46 47
DONOR_HYDROGENS      STATIC     ATOMS    <user>   **** ""
3 27 28 44
ATOM$BLUE        STATIC     ATOMS    COLORGROUP SYSTEM
3 45 46 47
ATOM$RED        STATIC     ATOMS    COLORGROUP SYSTEM
3 27 28 44
