AV-unprocessed.smi:2565|AV-procd|sdf|10070|dock2
  -GOLD-   2272014103D 1   1.00000     0.00000
 Structure written by MMmdl.
 24 25  0  0  0  0  0  0  0  0  1 V2000
  153.8064  141.6604  161.7636 C   0  0  0  0  0  0  0  0  0  0  0  0
  153.6302  141.0338  160.4688 N   0  0  0  0  0  0  0  0  0  0  0  0
  154.2351  139.9417  159.9783 C   0  0  0  0  0  0  0  0  0  0  0  0
  153.8589  139.5929  158.7490 N   0  0  0  0  0  0  0  0  0  0  0  0
  152.9194  140.5398  158.3922 N   0  0  0  0  0  0  0  0  0  0  0  0
  152.8280  141.3725  159.4383 C   0  0  0  0  0  0  0  0  0  0  0  0
  151.9028  142.5527  159.4951 C   0  0  2  0  0  0  0  0  0  0  0  0
  151.1532  142.7718  158.1665 C   0  0  0  0  0  0  0  0  0  0  0  0
  150.3289  143.9769  158.2429 N   0  0  0  0  0  0  0  0  0  0  0  0
  151.1283  145.1416  158.6203 C   0  0  0  0  0  0  0  0  0  0  0  0
  151.8924  144.8677  159.9284 C   0  0  0  0  0  0  0  0  0  0  0  0
  152.6969  143.7026  159.7777 O   0  0  0  0  0  0  0  0  0  0  0  0
  154.4514  141.0464  162.3929 H   0  0  0  0  0  0  0  0  0  0  0  0
  152.8394  141.7742  162.2542 H   0  0  0  0  0  0  0  0  0  0  0  0
  154.2640  142.6419  161.6382 H   0  0  0  0  0  0  0  0  0  0  0  0
  154.9705  139.3820  160.5377 H   0  0  0  0  0  0  0  0  0  0  0  0
  151.1920  142.4081  160.3104 H   0  0  0  0  0  0  0  0  0  0  0  0
  151.8699  142.8659  157.3496 H   0  0  0  0  0  0  0  0  0  0  0  0
  150.5298  141.9067  157.9394 H   0  0  0  0  0  0  0  0  0  0  0  0
  149.8881  144.1446  157.3440 H   0  0  0  0  0  0  0  0  0  0  0  0
  151.8366  145.3788  157.8256 H   0  0  0  0  0  0  0  0  0  0  0  0
  150.4858  146.0145  158.7379 H   0  0  0  0  0  0  0  0  0  0  0  0
  152.5370  145.7129  160.1693 H   0  0  0  0  0  0  0  0  0  0  0  0
  151.2030  144.7454  160.7654 H   0  0  0  0  0  0  0  0  0  0  0  0
  1  2  1  0  0  0  0
  1 13  1  0  0  0  0
  1 14  1  0  0  0  0
  1 15  1  0  0  0  0
  2  6  1  0  0  0  0
  2  3  1  0  0  0  0
  3  4  2  0  0  0  0
  3 16  1  0  0  0  0
  4  5  1  0  0  0  0
  5  6  2  0  0  0  0
  6  7  1  0  0  0  0
  7 12  1  0  0  0  0
  7  8  1  0  0  0  0
  7 17  1  0  0  0  0
  8  9  1  0  0  0  0
  8 18  1  0  0  0  0
  8 19  1  0  0  0  0
  9 10  1  0  0  0  0
  9 20  1  0  0  0  0
 10 11  1  0  0  0  0
 10 21  1  0  0  0  0
 10 22  1  0  0  0  0
 11 12  1  0  0  0  0
 11 23  1  0  0  0  0
 11 24  1  0  0  0  0
M  END
> <s_m_source_file>
AV-unprocessed.smi

> <i_m_source_file_index>
2565

> <i_lp_mmshare_version>
43012

> <i_f3d_flags>
0

> <s_epik_input>
W0NIM11uMVtjSF1ubmMxW0NAQEhdMltDSDJdW05IXVtDSDJdW0NIMl1PMg==

> <s_epik_cmdline>
J2VwaWtfcHl0aG9uJywgJy1waCcsICc3LjAnLCAnLXRuJywgJzgnLCAnLW1hJywgJzIwMCcsICctbWV0YWxfYmluZGluZycsICctaW1hZScsICc8aW5maWxlLm1hZT4nLCAnLW9tYWUnLCAnPG91dGZpbGUubWFlPic=

> <r_lp_tautomer_probability>
1

> <r_epik_Ionization_Penalty>
0.980774

> <r_epik_Ionization_Penalty_Charging>
0

> <r_epik_Ionization_Penalty_Neutral>
0.980774

> <r_epik_State_Penalty>
1.0271

> <r_epik_Charging_Adjusted_Penalty>
1.0271

> <i_epik_Tot_Q>
0

> <i_epik_Tot_abs_Q>
0

> <r_epik_Metal_State_Penalty>
1.02688

> <b_epik_Metal_Only>
0

> <s_lp_Force_Field>
OPLS_2005

> <r_lp_Energy>
14.243

> <b_lp_Chiralities_Consistent>
1

> <s_lp_Variant>
AV-unprocessed.smi:2565-3

> <Gold.Version>
5.8.1

> <Gold.Id.Protein>
6NUR|6NUR_protein|mol2

> <Gold.PLP.Fitness>
32.7222

> <Gold.PLP.PLP>
-27.5806

> <Gold.PLP.part.hbond>
-3.1848

> <Gold.PLP.part.metal>
0.0000

> <Gold.PLP.part.buried>
-3.6155

> <Gold.PLP.part.nonpolar>
-21.5516

> <Gold.PLP.part.repulsive>
0.0000

> <Gold.PLP.ligand.clash>
0.0000

> <Gold.PLP.ligand.torsion>
0.0323

> <Gold.PLP.Chemscore.Hbond>
1.7344

> <Gold.PLP.Chemscore.CHOScore>
0.0000

> <Gold.PLP.Chemscore.Metal>
0.0000

> <Gold.Chemscore.Hbonds>
donor molecule, donor type, donor heavy atom, donor atom, acceptor molecule, acceptor atom, score
      L1  H     9    20       P1  8028  1.00
      P1  H  7997  8010       L1     4  0.68

> <Gold.PLP.Chemscore.Internal.Correction>
0.0030

> <Gold.Rescore>
     Score         DG    S(hbond)    S(metal)    S(lipo)     H(rot)  DE(clash)    DE(int)     intcor
     12.17     -12.75       0.96        0.00      56.50       1.00       0.57       0.00       ----

> <Gold.Chemscore.Fitness>
12.1739

> <Gold.Chemscore.DG>
-12.7475

> <Gold.Chemscore.ZeroCoef>
-5.4800

> <Gold.Chemscore.Hbond>
0.9633

> <Gold.Chemscore.Metal>
0.0000

> <Gold.Chemscore.Lipo>
56.4970

> <Gold.Chemscore.Internal_Hbond>
0.0000

> <Gold.Chemscore.DEClash>
0.5711

> <Gold.Chemscore.DEInternal>
0.0025

> <Gold.Chemscore.Rot>
1.0000

> <Gold.Chemscore.Internal.Correction>
   9.000000E+99

> <Gold.Chemscore.Hbonds>
donor molecule, donor type, donor heavy atom, donor atom, acceptor molecule, acceptor atom, score
      L1  H     9    20       P1  8028  0.52
      P1  H  7997  8010       L1     4  0.10

> <Gold.Chemscore.Hbond.Weighted>
-3.2174

> <Gold.Chemscore.Metal.Weighted>
-0.0000

> <Gold.Chemscore.Lipo.Weighted>
-6.6102

> <Gold.Chemscore.Internal_Hbond.Weighted>
0.0000

> <Gold.Chemscore.DEClash.Weighted>
0.5711

> <Gold.Chemscore.DEInternal.Weighted>
0.0025

> <Gold.Chemscore.Rot.Weighted>
2.5600

> <Gold.Chemscore.Internal.Correction.Weighted>
   9.000000E+99

> <Gold.Protein.RotatedTorsions>
[ 6907 6896 6895 6894 ] final -161.02 input  -60.11 | X-H torsion
[ 7974 7965 7964 7962 ] final  -13.58 input  175.53 | X-H torsion
[ 8008 7997 7996 7995 ] final   -7.81 input   59.86 | X-H torsion
[ 10167 10162 10161 10158 ] final  114.59 input  -65.29 | X-H torsion
[ 10718 10713 10712 10709 ] final   49.34 input   66.30 | X-H torsion
[ 10763 10752 10751 10750 ] final  162.64 input  -60.55 | X-H torsion
[ 11005 11000 10999 10996 ] final  -26.06 input  -57.11 | X-H torsion

> <Gold.Protein.ActiveResidues>
 VAL166  LYS551  ARG553  GLY616  TRP617  ASP618  TYR619  PRO620  LYS621  CYS622 
 ASP623  PHE694  ASN695  SER759  ASP760  ASP761  ALA762  ILE779  LEU786  VAL792 
 PHE793  MET794  SER795  GLU796  ALA797  LYS798  CYS799  TRP800  GLU811  SER814 

> <Gold.Protein.RotatedAtoms>
  151.3582  133.3899  159.2686 H   0  0  0  0  0  0  0  0  0  0  0  0  # atno 6907 bound_to 6896
  150.9747  134.9114  159.7819 H   0  0  0  0  0  0  0  0  0  0  0  0  # atno 6908 bound_to 6896
  152.5197  134.3544  159.9315 H   0  0  0  0  0  0  0  0  0  0  0  0  # atno 6909 bound_to 6896
  146.2108  140.3224  142.8391 H   0  0  0  0  0  0  0  0  0  0  0  0  # atno 7974 bound_to 7965
  154.5801  140.2397  155.8065 H   0  0  0  0  0  0  0  0  0  0  0  0  # atno 8008 bound_to 7997
  156.2173  140.3008  155.9825 H   0  0  0  0  0  0  0  0  0  0  0  0  # atno 8009 bound_to 7997
  155.2556  140.0412  157.2982 H   0  0  0  0  0  0  0  0  0  0  0  0  # atno 8010 bound_to 7997
  139.6378  144.7121  151.2299 H   0  0  0  0  0  0  0  0  0  0  0  0  # atno 10167 bound_to 10162
  157.4777  130.8295  149.8058 H   0  0  0  0  0  0  0  0  0  0  0  0  # atno 10718 bound_to 10713
  154.2816  135.2763  155.2695 H   0  0  0  0  0  0  0  0  0  0  0  0  # atno 10763 bound_to 10752
  154.5213  135.5755  153.6687 H   0  0  0  0  0  0  0  0  0  0  0  0  # atno 10764 bound_to 10752
  152.9928  135.6205  154.2975 H   0  0  0  0  0  0  0  0  0  0  0  0  # atno 10765 bound_to 10752
  140.8994  133.7534  156.0524 H   0  0  0  0  0  0  0  0  0  0  0  0  # atno 11005 bound_to 11000
  144.8910  140.7524  143.5926 LP  0  0  0  0  0  0  0  0  0  0  0  0  # atno 17320 bound_to 7965
  145.3146  139.1807  143.4620 LP  0  0  0  0  0  0  0  0  0  0  0  0  # atno 17321 bound_to 7965
  140.7474  143.6366  150.8374 LP  0  0  0  0  0  0  0  0  0  0  0  0  # atno 17342 bound_to 10162
  139.9999  143.5755  152.2879 LP  0  0  0  0  0  0  0  0  0  0  0  0  # atno 17343 bound_to 10162
  156.0105  130.3835  150.2280 LP  0  0  0  0  0  0  0  0  0  0  0  0  # atno 17370 bound_to 10713
  157.0465  131.0050  151.3267 LP  0  0  0  0  0  0  0  0  0  0  0  0  # atno 17371 bound_to 10713
  140.8248  134.3247  157.5369 LP  0  0  0  0  0  0  0  0  0  0  0  0  # atno 17394 bound_to 11000
  139.8740  134.9330  156.3568 LP  0  0  0  0  0  0  0  0  0  0  0  0  # atno 17395 bound_to 11000

$$$$
