AV-unprocessed.smi:1761|AV-procd|sdf|7095|dock2
  -GOLD-   22720 8313D 1   1.00000     0.00000
 Structure written by MMmdl.
 34 35  0  0  0  0  0  0  0  0  1 V2000
  148.2552  144.2675  161.5137 O   0  0  0  0  0  0  0  0  0  0  0  0
  148.0869  144.6796  160.3656 C   0  0  0  0  0  0  0  0  0  0  0  0
  149.0399  144.7575  159.4203 N   0  0  0  0  0  0  0  0  0  0  0  0
  150.4044  144.3743  159.5148 C   0  0  0  0  0  0  0  0  0  0  0  0
  151.1949  144.6968  158.3884 C   0  0  0  0  0  0  0  0  0  0  0  0
  152.5615  144.3570  158.3808 C   0  0  0  0  0  0  0  0  0  0  0  0
  153.1031  143.7016  159.5009 C   0  0  0  0  0  0  0  0  0  0  0  0
  152.2473  143.4168  160.5808 C   0  0  0  0  0  0  0  0  0  0  0  0
  150.9374  143.7419  160.5904 N   0  0  0  0  0  0  0  0  0  0  0  0
  146.9082  145.1177  159.8995 N   0  0  0  0  0  0  0  0  0  0  0  0
  145.6636  145.1820  160.6632 C   0  0  2  0  0  0  0  0  0  0  0  0
  145.5330  143.8723  161.4680 C   0  0  0  0  0  0  0  0  0  0  0  0
  144.1847  143.7697  162.1952 C   0  0  0  0  0  0  0  0  0  0  0  0
  143.0181  143.9095  161.2084 C   0  0  0  0  0  0  0  0  0  0  0  0
  143.1147  145.2340  160.4396 C   0  0  0  0  0  0  0  0  0  0  0  0
  144.4624  145.3718  159.7051 C   0  0  1  0  0  0  0  0  0  0  0  0
  144.5019  146.6640  159.1332 O   0  0  0  0  0  0  0  0  0  0  0  0
  148.7552  145.1310  158.5271 H   0  0  0  0  0  0  0  0  0  0  0  0
  150.7622  145.2003  157.5359 H   0  0  0  0  0  0  0  0  0  0  0  0
  153.1820  144.5959  157.5297 H   0  0  0  0  0  0  0  0  0  0  0  0
  154.1464  143.4244  159.5317 H   0  0  0  0  0  0  0  0  0  0  0  0
  152.6234  142.9148  161.4599 H   0  0  0  0  0  0  0  0  0  0  0  0
  146.8676  145.4413  158.9443 H   0  0  0  0  0  0  0  0  0  0  0  0
  145.6860  146.0092  161.3757 H   0  0  0  0  0  0  0  0  0  0  0  0
  145.6396  143.0162  160.7998 H   0  0  0  0  0  0  0  0  0  0  0  0
  146.3456  143.7981  162.1918 H   0  0  0  0  0  0  0  0  0  0  0  0
  144.1165  142.8158  162.7189 H   0  0  0  0  0  0  0  0  0  0  0  0
  144.1187  144.5471  162.9575 H   0  0  0  0  0  0  0  0  0  0  0  0
  143.0260  143.0748  160.5064 H   0  0  0  0  0  0  0  0  0  0  0  0
  142.0693  143.8577  161.7430 H   0  0  0  0  0  0  0  0  0  0  0  0
  142.2919  145.3065  159.7274 H   0  0  0  0  0  0  0  0  0  0  0  0
  142.9891  146.0608  161.1406 H   0  0  0  0  0  0  0  0  0  0  0  0
  144.5083  144.6348  158.9016 H   0  0  0  0  0  0  0  0  0  0  0  0
  143.8178  146.7268  158.4840 H   0  0  0  0  0  0  0  0  0  0  0  0
  1  2  2  0  0  0  0
  2  3  1  0  0  0  0
  2 10  1  0  0  0  0
  3  4  1  0  0  0  0
  3 18  1  0  0  0  0
  4  9  1  0  0  0  0
  4  5  2  0  0  0  0
  5  6  1  0  0  0  0
  5 19  1  0  0  0  0
  6  7  2  0  0  0  0
  6 20  1  0  0  0  0
  7  8  1  0  0  0  0
  7 21  1  0  0  0  0
  8  9  2  0  0  0  0
  8 22  1  0  0  0  0
 10 11  1  0  0  0  0
 10 23  1  0  0  0  0
 11 16  1  0  0  0  0
 11 12  1  0  0  0  0
 11 24  1  0  0  0  0
 12 13  1  0  0  0  0
 12 25  1  0  0  0  0
 12 26  1  0  0  0  0
 13 14  1  0  0  0  0
 13 27  1  0  0  0  0
 13 28  1  0  0  0  0
 14 15  1  0  0  0  0
 14 29  1  0  0  0  0
 14 30  1  0  0  0  0
 15 16  1  0  0  0  0
 15 31  1  0  0  0  0
 15 32  1  0  0  0  0
 16 17  1  0  0  0  0
 16 33  1  0  0  0  0
 17 34  1  0  0  0  0
M  END
> <s_m_source_file>
AV-unprocessed.smi

> <i_m_source_file_index>
1761

> <i_lp_mmshare_version>
43012

> <i_f3d_flags>
0

> <s_epik_input>
bjFbY0hdW2NIXVtjSF1bY0hdYzFbTkhdQyg9TylbTkhdW0NAQEhdMltDSDJdW0NIMl1bQ0gyXVtDSDJdW0NASF0yW09IXQ==

> <s_epik_cmdline>
J2VwaWtfcHl0aG9uJywgJy1waCcsICc3LjAnLCAnLXRuJywgJzgnLCAnLW1hJywgJzIwMCcsICctbWV0YWxfYmluZGluZycsICctaW1hZScsICc8aW5maWxlLm1hZT4nLCAnLW9tYWUnLCAnPG91dGZpbGUubWFlPic=

> <r_lp_tautomer_probability>
1

> <r_epik_Ionization_Penalty>
4.92589e-05

> <r_epik_Ionization_Penalty_Charging>
0

> <r_epik_Ionization_Penalty_Neutral>
4.92589e-05

> <r_epik_State_Penalty>
-0

> <r_epik_Charging_Adjusted_Penalty>
0

> <i_epik_Tot_Q>
0

> <i_epik_Tot_abs_Q>
0

> <r_epik_Metal_State_Penalty>
-0

> <b_epik_Metal_Only>
0

> <s_lp_Force_Field>
OPLS_2005

> <r_lp_Energy>
12.6575

> <b_lp_Chiralities_Consistent>
1

> <s_lp_Variant>
AV-unprocessed.smi:1761-1

> <Gold.Version>
5.8.1

> <Gold.Id.Protein>
6NUR|6NUR_protein|mol2

> <Gold.PLP.Fitness>
45.8894

> <Gold.PLP.PLP>
-37.6024

> <Gold.PLP.part.hbond>
-3.9582

> <Gold.PLP.part.metal>
0.0000

> <Gold.PLP.part.buried>
-6.0265

> <Gold.PLP.part.nonpolar>
-28.7256

> <Gold.PLP.part.repulsive>
0.5795

> <Gold.PLP.ligand.clash>
0.0000

> <Gold.PLP.ligand.torsion>
0.2131

> <Gold.PLP.Chemscore.Hbond>
2.9040

> <Gold.PLP.Chemscore.CHOScore>
0.0000

> <Gold.PLP.Chemscore.Metal>
0.0000

> <Gold.Chemscore.Hbonds>
donor molecule, donor type, donor heavy atom, donor atom, acceptor molecule, acceptor atom, score
      L1  H     3    18       P1  8029  1.00
      L1  H    10    23       P1  8029  0.98
      P1  H  6933  6944       L1     1  0.93

> <Gold.PLP.Chemscore.Internal.Correction>
0.0011

> <Gold.Rescore>
     Score         DG    S(hbond)    S(metal)    S(lipo)     H(rot)  DE(clash)    DE(int)     intcor
     18.35     -21.40       2.83        0.00      87.44       1.47       0.00       3.05       ----

> <Gold.Chemscore.Fitness>
18.3487

> <Gold.Chemscore.DG>
-21.4017

> <Gold.Chemscore.ZeroCoef>
-5.4800

> <Gold.Chemscore.Hbond>
2.8271

> <Gold.Chemscore.Metal>
0.0000

> <Gold.Chemscore.Lipo>
87.4395

> <Gold.Chemscore.Internal_Hbond>
0.0000

> <Gold.Chemscore.DEClash>
0.0009

> <Gold.Chemscore.DEInternal>
3.0522

> <Gold.Chemscore.Rot>
1.4653

> <Gold.Chemscore.Internal.Correction>
   9.000000E+99

> <Gold.Chemscore.Hbonds>
donor molecule, donor type, donor heavy atom, donor atom, acceptor molecule, acceptor atom, score
      L1  H     3    18       P1  8029  0.98
      L1  H    10    23       P1  8029  0.90
      P1  H  6933  6944       L1     1  0.63

> <Gold.Chemscore.Hbond.Weighted>
-9.4424

> <Gold.Chemscore.Metal.Weighted>
-0.0000

> <Gold.Chemscore.Lipo.Weighted>
-10.2304

> <Gold.Chemscore.Internal_Hbond.Weighted>
0.0000

> <Gold.Chemscore.DEClash.Weighted>
0.0009

> <Gold.Chemscore.DEInternal.Weighted>
3.0522

> <Gold.Chemscore.Rot.Weighted>
3.7511

> <Gold.Chemscore.Internal.Correction.Weighted>
   9.000000E+99

> <Gold.Protein.RotatedTorsions>
[ 6907 6896 6895 6894 ] final    3.91 input  -60.11 | X-H torsion
[ 7974 7965 7964 7962 ] final   78.80 input  175.53 | X-H torsion
[ 8008 7997 7996 7995 ] final  -99.36 input   59.86 | X-H torsion
[ 10167 10162 10161 10158 ] final  -64.68 input  -65.29 | X-H torsion
[ 10718 10713 10712 10709 ] final   -4.72 input   66.30 | X-H torsion
[ 10763 10752 10751 10750 ] final -130.26 input  -60.55 | X-H torsion
[ 11005 11000 10999 10996 ] final  -79.40 input  -57.11 | X-H torsion

> <Gold.Protein.ActiveResidues>
 VAL166  LYS551  ARG553  GLY616  TRP617  ASP618  TYR619  PRO620  LYS621  CYS622 
 ASP623  PHE694  ASN695  SER759  ASP760  ASP761  ALA762  ILE779  LEU786  VAL792 
 PHE793  MET794  SER795  GLU796  ALA797  LYS798  CYS799  TRP800  GLU811  SER814 

> <Gold.Protein.RotatedAtoms>
  151.6328  135.1021  160.0124 H   0  0  0  0  0  0  0  0  0  0  0  0  # atno 6907 bound_to 6896
  152.4097  133.6940  159.6395 H   0  0  0  0  0  0  0  0  0  0  0  0  # atno 6908 bound_to 6896
  150.7988  133.8563  159.3260 H   0  0  0  0  0  0  0  0  0  0  0  0  # atno 6909 bound_to 6896
  145.6724  139.2500  143.1861 H   0  0  0  0  0  0  0  0  0  0  0  0  # atno 7974 bound_to 7965
  154.8138  140.0448  157.1361 H   0  0  0  0  0  0  0  0  0  0  0  0  # atno 8008 bound_to 7997
  154.9338  140.3043  155.5134 H   0  0  0  0  0  0  0  0  0  0  0  0  # atno 8009 bound_to 7997
  156.2974  140.2318  156.4401 H   0  0  0  0  0  0  0  0  0  0  0  0  # atno 8010 bound_to 7997
  140.5784  143.2324  151.6395 H   0  0  0  0  0  0  0  0  0  0  0  0  # atno 10167 bound_to 10162
  156.7571  130.5258  149.5792 H   0  0  0  0  0  0  0  0  0  0  0  0  # atno 10718 bound_to 10713
  154.8756  135.3868  154.4055 H   0  0  0  0  0  0  0  0  0  0  0  0  # atno 10763 bound_to 10752
  153.4775  135.7030  153.5963 H   0  0  0  0  0  0  0  0  0  0  0  0  # atno 10764 bound_to 10752
  153.4393  135.3860  155.2186 H   0  0  0  0  0  0  0  0  0  0  0  0  # atno 10765 bound_to 10752
  141.1667  133.7104  156.8117 H   0  0  0  0  0  0  0  0  0  0  0  0  # atno 11005 bound_to 11000
  146.1034  140.7516  142.9538 LP  0  0  0  0  0  0  0  0  0  0  0  0  # atno 17320 bound_to 7965
  144.7052  140.3823  143.7123 LP  0  0  0  0  0  0  0  0  0  0  0  0  # atno 17321 bound_to 7965
  139.5155  144.3375  152.0770 LP  0  0  0  0  0  0  0  0  0  0  0  0  # atno 17342 bound_to 10162
  140.2522  144.4157  150.6217 LP  0  0  0  0  0  0  0  0  0  0  0  0  # atno 17343 bound_to 10162
  156.1363  130.6213  151.0405 LP  0  0  0  0  0  0  0  0  0  0  0  0  # atno 17370 bound_to 10713
  157.6751  131.0852  150.7514 LP  0  0  0  0  0  0  0  0  0  0  0  0  # atno 17371 bound_to 10713
  140.2183  134.8776  157.3349 LP  0  0  0  0  0  0  0  0  0  0  0  0  # atno 17394 bound_to 11000
  140.2014  134.4249  155.7660 LP  0  0  0  0  0  0  0  0  0  0  0  0  # atno 17395 bound_to 11000

$$$$
