AV-unprocessed.smi:2597|AV-procd|sdf|10172|dock6
  -GOLD-   2272014183D 1   1.00000     0.00000
 Structure written by MMmdl.
 31 32  0  0  0  0  0  0  0  0  2 V2000
  150.3402  144.4239  157.9964 N   0  3  0  0  0  0  0  0  0  0  0  0
  151.5224  143.6508  158.4215 C   0  0  1  0  0  0  0  0  0  0  0  0
  152.0209  144.1571  159.7885 C   0  0  0  0  0  0  0  0  0  0  0  0
  153.2363  143.3547  160.2790 C   0  0  0  0  0  0  0  0  0  0  0  0
  152.9211  141.8529  160.3395 C   0  0  0  0  0  0  0  0  0  0  0  0
  152.4313  141.3349  158.9788 C   0  0  0  0  0  0  0  0  0  0  0  0
  151.2103  142.1325  158.4748 C   0  0  2  0  0  0  0  0  0  0  0  0
  150.7531  141.6088  157.1936 N   0  0  0  0  0  0  0  0  0  0  0  0
  149.5309  141.8023  156.5833 C   0  0  0  0  0  0  0  0  0  0  0  0
  149.6272  141.0707  155.4334 C   0  0  0  0  0  0  0  0  0  0  0  0
  148.6168  140.8763  154.3446 C   0  0  0  0  0  0  0  0  0  0  0  0
  149.2339  141.2825  153.1424 O   0  0  0  0  0  0  0  0  0  0  0  0
  150.8837  140.4691  155.3916 N   0  0  0  0  0  0  0  0  0  0  0  0
  151.5445  140.7873  156.4589 N   0  0  0  0  0  0  0  0  0  0  0  0
  152.3075  143.8338  157.6864 H   0  0  0  0  0  0  0  0  0  0  0  0
  150.3979  141.9797  159.1877 H   0  0  0  0  0  0  0  0  0  0  0  0
  150.1697  144.2692  157.0130 H   0  0  0  0  0  0  0  0  0  0  0  0
  150.5070  145.4073  158.1579 H   0  0  0  0  0  0  0  0  0  0  0  0
  152.2845  145.2134  159.7235 H   0  0  0  0  0  0  0  0  0  0  0  0
  151.2202  144.0832  160.5259 H   0  0  0  0  0  0  0  0  0  0  0  0
  154.0822  143.5246  159.6115 H   0  0  0  0  0  0  0  0  0  0  0  0
  153.5436  143.7088  161.2635 H   0  0  0  0  0  0  0  0  0  0  0  0
  153.8076  141.2992  160.6502 H   0  0  0  0  0  0  0  0  0  0  0  0
  152.1592  141.6680  161.0977 H   0  0  0  0  0  0  0  0  0  0  0  0
  153.2456  141.4011  158.2558 H   0  0  0  0  0  0  0  0  0  0  0  0
  152.1784  140.2770  159.0601 H   0  0  0  0  0  0  0  0  0  0  0  0
  148.7366  142.4044  156.9989 H   0  0  0  0  0  0  0  0  0  0  0  0
  148.3144  139.8321  154.2667 H   0  0  0  0  0  0  0  0  0  0  0  0
  147.7197  141.4727  154.5143 H   0  0  0  0  0  0  0  0  0  0  0  0
  149.1851  140.5696  152.5240 H   0  0  0  0  0  0  0  0  0  0  0  0
  149.5341  144.1282  158.5283 H   0  0  0  0  0  0  0  0  0  0  0  0
  1  2  1  0  0  0  0
  1 17  1  0  0  0  0
  1 18  1  0  0  0  0
  1 31  1  0  0  0  0
  2 15  1  0  0  0  0
  2  7  1  0  0  0  0
  2  3  1  0  0  0  0
  3  4  1  0  0  0  0
  3 19  1  0  0  0  0
  3 20  1  0  0  0  0
  4  5  1  0  0  0  0
  4 21  1  0  0  0  0
  4 22  1  0  0  0  0
  5  6  1  0  0  0  0
  5 23  1  0  0  0  0
  5 24  1  0  0  0  0
  6  7  1  0  0  0  0
  6 25  1  0  0  0  0
  6 26  1  0  0  0  0
  7 16  1  0  0  0  0
  7  8  1  0  0  0  0
  8 14  1  0  0  0  0
  8  9  1  0  0  0  0
  9 10  2  0  0  0  0
  9 27  1  0  0  0  0
 10 11  1  0  0  0  0
 10 13  1  0  0  0  0
 11 12  1  0  0  0  0
 11 28  1  0  0  0  0
 11 29  1  0  0  0  0
 12 30  1  0  0  0  0
 13 14  2  0  0  0  0
M  CHG  1   1   1
M  END
> <s_m_source_file>
AV-unprocessed.smi

> <i_m_source_file_index>
2597

> <i_lp_mmshare_version>
43012

> <i_f3d_flags>
0

> <s_epik_input>
W05IMl1bQ0BIXTFbQ0gyXVtDSDJdW0NIMl1bQ0gyXVtDQEhdMW4yW2NIXWMobm4yKVtDSDJdW09IXQ==

> <s_epik_cmdline>
J2VwaWtfcHl0aG9uJywgJy1waCcsICc3LjAnLCAnLXRuJywgJzgnLCAnLW1hJywgJzIwMCcsICctbWV0YWxfYmluZGluZycsICctaW1hZScsICc8aW5maWxlLm1hZT4nLCAnLW9tYWUnLCAnPG91dGZpbGUubWFlPic=

> <r_lp_tautomer_probability>
1

> <r_epik_Ionization_Penalty>
0.014346

> <r_epik_Ionization_Penalty_Charging>
0.014316

> <r_epik_Ionization_Penalty_Neutral>
3.00097e-05

> <r_epik_State_Penalty>
0.0111909

> <r_epik_Charging_Adjusted_Penalty>
0.0255069

> <i_epik_Tot_Q>
1

> <i_epik_Tot_abs_Q>
1

> <r_epik_Metal_State_Penalty>
0.011192

> <b_epik_Metal_Only>
0

> <s_lp_Force_Field>
OPLS_2005

> <r_lp_Energy>
13.7949

> <b_lp_Chiralities_Consistent>
1

> <s_lp_Variant>
AV-unprocessed.smi:2597-3

> <Gold.Version>
5.8.1

> <Gold.Id.Protein>
6NUR|6NUR_protein|mol2

> <Gold.PLP.Fitness>
44.4764

> <Gold.PLP.PLP>
-31.0836

> <Gold.PLP.part.hbond>
-5.3217

> <Gold.PLP.part.metal>
0.0000

> <Gold.PLP.part.buried>
-2.4940

> <Gold.PLP.part.nonpolar>
-22.9238

> <Gold.PLP.part.repulsive>
0.1398

> <Gold.PLP.ligand.clash>
0.0000

> <Gold.PLP.ligand.torsion>
0.3632

> <Gold.PLP.Chemscore.Hbond>
4.4711

> <Gold.PLP.Chemscore.CHOScore>
0.2260

> <Gold.PLP.Chemscore.Metal>
0.0000

> <Gold.Chemscore.Hbonds>
donor molecule, donor type, donor heavy atom, donor atom, acceptor molecule, acceptor atom, score
      L1  H     1    17       P1  8028  1.54
      L1  H    12    30       P1  7957  0.89
      P1  H  7989  7998       L1    13  0.87
      P1  H  8011  8017       L1    12  0.93
      L1  C     9    27       P1  8028  0.32

> <Gold.PLP.Chemscore.Internal.Correction>
0.0279

> <Gold.Rescore>
     Score         DG    S(hbond)    S(metal)    S(lipo)     H(rot)  DE(clash)    DE(int)     intcor
     18.97     -19.62       2.80        0.00      81.62       1.86       0.07       0.58       ----

> <Gold.Chemscore.Fitness>
18.9738

> <Gold.Chemscore.DG>
-19.6233

> <Gold.Chemscore.ZeroCoef>
-5.4800

> <Gold.Chemscore.Hbond>
2.7972

> <Gold.Chemscore.Metal>
0.0000

> <Gold.Chemscore.Lipo>
81.6214

> <Gold.Chemscore.Internal_Hbond>
0.0000

> <Gold.Chemscore.DEClash>
0.0710

> <Gold.Chemscore.DEInternal>
0.5785

> <Gold.Chemscore.Rot>
1.8551

> <Gold.Chemscore.Internal.Correction>
   9.000000E+99

> <Gold.Chemscore.Hbonds>
donor molecule, donor type, donor heavy atom, donor atom, acceptor molecule, acceptor atom, score
      L1  H     1    17       P1  8028  0.66
      L1  H    12    30       P1  7957  0.82
      P1  H  7989  7998       L1    13  0.44
      P1  H  8011  8017       L1    12  0.35

> <Gold.Chemscore.Hbond.Weighted>
-9.3425

> <Gold.Chemscore.Metal.Weighted>
-0.0000

> <Gold.Chemscore.Lipo.Weighted>
-9.5497

> <Gold.Chemscore.Internal_Hbond.Weighted>
0.0000

> <Gold.Chemscore.DEClash.Weighted>
0.0710

> <Gold.Chemscore.DEInternal.Weighted>
0.5785

> <Gold.Chemscore.Rot.Weighted>
4.7489

> <Gold.Chemscore.Internal.Correction.Weighted>
   9.000000E+99

> <Gold.Protein.RotatedTorsions>
[ 6907 6896 6895 6894 ] final  -12.74 input  -60.11 | X-H torsion
[ 7974 7965 7964 7962 ] final   66.07 input  175.53 | X-H torsion
[ 8008 7997 7996 7995 ] final  -42.77 input   59.86 | X-H torsion
[ 10167 10162 10161 10158 ] final  134.19 input  -65.29 | X-H torsion
[ 10718 10713 10712 10709 ] final  113.53 input   66.30 | X-H torsion
[ 10763 10752 10751 10750 ] final  -20.87 input  -60.55 | X-H torsion
[ 11005 11000 10999 10996 ] final   -0.62 input  -57.11 | X-H torsion

> <Gold.Protein.ActiveResidues>
 VAL166  LYS551  ARG553  GLY616  TRP617  ASP618  TYR619  PRO620  LYS621  CYS622 
 ASP623  PHE694  ASN695  SER759  ASP760  ASP761  ALA762  ILE779  LEU786  VAL792 
 PHE793  MET794  SER795  GLU796  ALA797  LYS798  CYS799  TRP800  GLU811  SER814 

> <Gold.Protein.RotatedAtoms>
  151.3658  135.0913  159.9449 H   0  0  0  0  0  0  0  0  0  0  0  0  # atno 6907 bound_to 6896
  152.5149  133.9213  159.7546 H   0  0  0  0  0  0  0  0  0  0  0  0  # atno 6908 bound_to 6896
  150.9617  133.6384  159.2782 H   0  0  0  0  0  0  0  0  0  0  0  0  # atno 6909 bound_to 6896
  145.8309  139.3138  143.0988 H   0  0  0  0  0  0  0  0  0  0  0  0  # atno 7974 bound_to 7965
  154.3998  140.1465  156.3409 H   0  0  0  0  0  0  0  0  0  0  0  0  # atno 8008 bound_to 7997
  155.8357  140.3464  155.5579 H   0  0  0  0  0  0  0  0  0  0  0  0  # atno 8009 bound_to 7997
  155.8141  140.0888  157.1877 H   0  0  0  0  0  0  0  0  0  0  0  0  # atno 8010 bound_to 7997
  139.5266  144.6579  151.5104 H   0  0  0  0  0  0  0  0  0  0  0  0  # atno 10167 bound_to 10162
  157.6333  131.0985  150.7055 H   0  0  0  0  0  0  0  0  0  0  0  0  # atno 10718 bound_to 10713
  153.6271  135.6990  153.5289 H   0  0  0  0  0  0  0  0  0  0  0  0  # atno 10763 bound_to 10752
  153.2889  135.4163  155.1148 H   0  0  0  0  0  0  0  0  0  0  0  0  # atno 10764 bound_to 10752
  154.8530  135.3620  154.5813 H   0  0  0  0  0  0  0  0  0  0  0  0  # atno 10765 bound_to 10752
  140.6383  133.9512  155.8312 H   0  0  0  0  0  0  0  0  0  0  0  0  # atno 11005 bound_to 11000
  145.9572  140.8864  143.0229 LP  0  0  0  0  0  0  0  0  0  0  0  0  # atno 17320 bound_to 7965
  144.6740  140.1761  143.7410 LP  0  0  0  0  0  0  0  0  0  0  0  0  # atno 17321 bound_to 7965
  140.6414  143.8882  150.6695 LP  0  0  0  0  0  0  0  0  0  0  0  0  # atno 17342 bound_to 10162
  140.2217  143.3803  152.1637 LP  0  0  0  0  0  0  0  0  0  0  0  0  # atno 17343 bound_to 10162
  156.7390  130.4733  149.5482 LP  0  0  0  0  0  0  0  0  0  0  0  0  # atno 17370 bound_to 10713
  156.1552  130.6337  151.0648 LP  0  0  0  0  0  0  0  0  0  0  0  0  # atno 17371 bound_to 10713
  141.0625  134.0325  157.3639 LP  0  0  0  0  0  0  0  0  0  0  0  0  # atno 17394 bound_to 11000
  139.9089  135.0186  156.7609 LP  0  0  0  0  0  0  0  0  0  0  0  0  # atno 17395 bound_to 11000

$$$$
