#       Name:                AV-unprocessed.smi:1424
#       Creating user name   scv26
#       Creation time:       Fri Mar 27 05:45:37 2020


#       File generated by GOLD software.
#

@<TRIPOS>MOLECULE
AV-unprocessed.smi:1424
    49    51     1
SMALL
NO_CHARGES


@<TRIPOS>ATOM
      1 ****         1.4741   1.9247   1.0566 O.2            1 S1                 0.0000
      2 ****         0.9089   0.8355   1.1532 C.2            1 S1                 0.0000
      3 ****         1.5602  -0.3324   1.2437 N.am           1 S1                 0.0000
      4 ****         3.0117  -0.4823   1.2299 C.3            1 S1                 0.0000
      5 ****         3.5886  -0.4052  -0.1973 C.3            1 S1                 0.0000
      6 ****         5.1222  -0.5513  -0.2202 C.3            1 S1                 0.0000
      7 ****         5.5722  -0.7356  -1.6724 C.3            1 S1                 0.0000
      8 ****         4.2415  -1.6994  -2.4803 S.o2           1 S1                 0.0000
      9 ****         3.8063  -0.9937  -3.6949 O.2            1 S1                 0.0000
     10 ****         4.6218  -3.1194  -2.5238 O.2            1 S1                 0.0000
     11 ****         3.0000  -1.4583  -1.1527 C.3            1 S1                 0.0000
     12 ****        -0.4222   0.6535   1.1574 N.am           1 S1                 0.0000
     13 ****        -1.4426   1.6409   1.0491 C.ar           1 S1                 0.0000
     14 ****        -1.2692   2.9385   1.5962 C.ar           1 S1                 0.0000
     15 ****        -2.2855   3.9023   1.4581 C.ar           1 S1                 0.0000
     16 ****        -3.4647   3.5537   0.7784 C.ar           1 S1                 0.0000
     17 ****        -3.6088   2.3056   0.2873 N.pl3          1 S1                 1.0000
     18 ****        -2.6736   1.3292   0.4004 C.ar           1 S1                 0.0000
     19 ****        -2.9732   0.0644  -0.1560 N.3            1 S1                 0.0000
     20 ****        -4.1615  -0.1173  -0.9818 C.3            1 S1                 0.0000
     21 ****        -4.3329  -1.6292  -1.1013 C.3            1 S1                 0.0000
     22 ****        -3.8589  -2.1219   0.2625 C.3            1 S1                 0.0000
     23 ****        -2.7446  -1.1391   0.6374 C.3            1 S1                 0.0000
     24 ****         1.0173  -1.1802   1.3180 H              1 S1                 0.0000
     25 ****         3.4695   0.2773   1.8661 H              1 S1                 0.0000
     26 ****         3.2553  -1.4453   1.6796 H              1 S1                 0.0000
     27 ****         3.3599   0.5770  -0.6139 H              1 S1                 0.0000
     28 ****         5.6168   0.3025   0.2437 H              1 S1                 0.0000
     29 ****         5.4084  -1.4349   0.3520 H              1 S1                 0.0000
     30 ****         5.6469   0.2270  -2.1791 H              1 S1                 0.0000
     31 ****         6.5260  -1.2551  -1.7638 H              1 S1                 0.0000
     32 ****         2.8638  -2.4156  -0.6489 H              1 S1                 0.0000
     33 ****         2.0464  -1.1540  -1.5841 H              1 S1                 0.0000
     34 ****        -0.7386  -0.3048   1.1362 H              1 S1                 0.0000
     35 ****        -0.3696   3.2101   2.1278 H              1 S1                 0.0000
     36 ****        -2.1598   4.8942   1.8672 H              1 S1                 0.0000
     37 ****        -4.2951   4.2267   0.6207 H              1 S1                 0.0000
     38 ****        -5.0359   0.3123  -0.4907 H              1 S1                 0.0000
     39 ****        -4.0463   0.3555  -1.9577 H              1 S1                 0.0000
     40 ****        -5.3571  -1.9243  -1.3308 H              1 S1                 0.0000
     41 ****        -3.6820  -2.0191  -1.8854 H              1 S1                 0.0000
     42 ****        -4.6747  -2.0446   0.9826 H              1 S1                 0.0000
     43 ****        -3.5221  -3.1589   0.2475 H              1 S1                 0.0000
     44 ****        -1.7744  -1.5576   0.3680 H              1 S1                 0.0000
     45 ****        -2.7420  -0.9325   1.7084 H              1 S1                 0.0000
     46 ****        -4.4805   2.0806  -0.1924 H              1 S1                 0.0000
     47 ****         2.4729   1.9702   1.0424 LP             1 S1                 0.0000
     48 ****         0.9344   2.7641   0.9923 LP             1 S1                 0.0000
     49 ****        -2.2076   0.1581  -0.7924 LP             1 S1                 0.0000
@<TRIPOS>BOND
    1    1    2 2     
    2    2    3 am    
    3    2   12 am    
    4    3    4 1     
    5    3   24 1     
    6    4    5 1     
    7    4   25 1     
    8    4   26 1     
    9    5   11 1     
   10    5    6 1     
   11    5   27 1     
   12    6    7 1     
   13    6   28 1     
   14    6   29 1     
   15    7    8 1     
   16    7   30 1     
   17    7   31 1     
   18    8    9 2     
   19    8   10 2     
   20    8   11 1     
   21   11   32 1     
   22   11   33 1     
   23   12   13 1     
   24   12   34 1     
   25   13   18 ar    
   26   13   14 ar    
   27   14   15 ar    
   28   14   35 1     
   29   15   16 ar    
   30   15   36 1     
   31   16   17 ar    
   32   16   37 1     
   33   17   18 ar    
   34   17   46 1     
   35   18   19 1     
   36   19   23 1     
   37   19   20 1     
   38   20   21 1     
   39   20   38 1     
   40   20   39 1     
   41   21   22 1     
   42   21   40 1     
   43   21   41 1     
   44   22   23 1     
   45   22   42 1     
   46   22   43 1     
   47   23   44 1     
   48   23   45 1     
   49    1   47 1     
   50    1   48 1     
   51   19   49 1     
@<TRIPOS>SUBSTRUCTURE
      1 S1             1
@<TRIPOS>SET
LONE_PAIRS      STATIC     ATOMS    <user>   **** ""
5 47 48 9 10 49
DONOR_HYDROGENS      STATIC     ATOMS    <user>   **** ""
3 24 34 46
ATOM$BLUE        STATIC     ATOMS    COLORGROUP SYSTEM
5 47 48 9 10 49
ATOM$RED        STATIC     ATOMS    COLORGROUP SYSTEM
3 24 34 46
