AV-unprocessed.smi:2725|AV-procd|sdf|10516|dock3
  -GOLD-   2272014553D 1   1.00000     0.00000
 Structure written by MMmdl.
 44 45  0  0  0  0  0  0  0  0  1 V2000
  150.3662  140.2499  155.4381 O   0  0  0  0  0  0  0  0  0  0  0  0
  151.4170  140.0509  156.0470 C   0  0  0  0  0  0  0  0  0  0  0  0
  151.6319  140.6587  157.4349 C   0  0  0  0  0  0  0  0  0  0  0  0
  151.2039  142.1359  157.5052 C   0  0  0  0  0  0  0  0  0  0  0  0
  151.3187  142.7285  158.9207 C   0  0  0  0  0  0  0  0  0  0  0  0
  150.8705  144.1892  159.0353 C   0  0  0  0  0  0  0  0  0  0  0  0
  151.5464  144.7234  160.3039 C   0  0  0  0  0  0  0  0  0  0  0  0
  152.7182  143.7761  160.6025 C   0  0  0  0  0  0  0  0  0  0  0  0
  152.7532  142.7665  159.4514 C   0  0  0  0  0  0  0  0  0  0  0  0
  152.4201  139.3009  155.5666 N   0  0  0  0  0  0  0  0  0  0  0  0
  152.4173  138.5936  154.2862 C   0  0  1  0  0  0  0  0  0  0  0  0
  151.0672  137.8743  154.0778 C   0  0  0  0  0  0  0  0  0  0  0  0
  151.2436  136.4735  154.0761 O   0  0  0  0  0  0  0  0  0  0  0  0
  152.6969  139.5980  153.1477 C   0  0  0  0  0  0  0  0  0  0  0  0
  154.1535  139.6417  152.7129 C   0  0  0  0  0  0  0  0  0  0  0  0
  154.5267  140.2529  151.4962 C   0  0  0  0  0  0  0  0  0  0  0  0
  155.8902  140.2721  151.1453 C   0  0  0  0  0  0  0  0  0  0  0  0
  156.8237  139.6812  152.0185 C   0  0  0  0  0  0  0  0  0  0  0  0
  156.3497  139.0959  153.2096 C   0  0  0  0  0  0  0  0  0  0  0  0
  155.0444  139.0723  153.5554 N   0  0  0  0  0  0  0  0  0  0  0  0
  151.0632  140.0667  158.1521 H   0  0  0  0  0  0  0  0  0  0  0  0
  152.6817  140.5665  157.7180 H   0  0  0  0  0  0  0  0  0  0  0  0
  151.8289  142.7201  156.8280 H   0  0  0  0  0  0  0  0  0  0  0  0
  150.1799  142.2476  157.1453 H   0  0  0  0  0  0  0  0  0  0  0  0
  150.7214  142.1284  159.6093 H   0  0  0  0  0  0  0  0  0  0  0  0
  151.2252  144.7545  158.1723 H   0  0  0  0  0  0  0  0  0  0  0  0
  149.7854  144.2925  159.0710 H   0  0  0  0  0  0  0  0  0  0  0  0
  151.8829  145.7514  160.1650 H   0  0  0  0  0  0  0  0  0  0  0  0
  150.8447  144.7206  161.1389 H   0  0  0  0  0  0  0  0  0  0  0  0
  153.6647  144.3091  160.6985 H   0  0  0  0  0  0  0  0  0  0  0  0
  152.5386  143.2581  161.5453 H   0  0  0  0  0  0  0  0  0  0  0  0
  153.1087  141.7858  159.7689 H   0  0  0  0  0  0  0  0  0  0  0  0
  153.4286  143.1265  158.6738 H   0  0  0  0  0  0  0  0  0  0  0  0
  153.2433  139.1943  156.1411 H   0  0  0  0  0  0  0  0  0  0  0  0
  153.2301  137.8642  154.2690 H   0  0  0  0  0  0  0  0  0  0  0  0
  150.3323  138.1607  154.8312 H   0  0  0  0  0  0  0  0  0  0  0  0
  150.6412  138.1370  153.1088 H   0  0  0  0  0  0  0  0  0  0  0  0
  150.7666  136.1099  153.3460 H   0  0  0  0  0  0  0  0  0  0  0  0
  152.0826  139.3543  152.2798 H   0  0  0  0  0  0  0  0  0  0  0  0
  152.3942  140.5992  153.4578 H   0  0  0  0  0  0  0  0  0  0  0  0
  153.7881  140.7004  150.8477 H   0  0  0  0  0  0  0  0  0  0  0  0
  156.2141  140.7319  150.2232 H   0  0  0  0  0  0  0  0  0  0  0  0
  157.8773  139.6768  151.7816 H   0  0  0  0  0  0  0  0  0  0  0  0
  157.0374  138.6338  153.9023 H   0  0  0  0  0  0  0  0  0  0  0  0
  1  2  2  0  0  0  0
  2  3  1  0  0  0  0
  2 10  1  0  0  0  0
  3  4  1  0  0  0  0
  3 21  1  0  0  0  0
  3 22  1  0  0  0  0
  4  5  1  0  0  0  0
  4 23  1  0  0  0  0
  4 24  1  0  0  0  0
  5  9  1  0  0  0  0
  5  6  1  0  0  0  0
  5 25  1  0  0  0  0
  6  7  1  0  0  0  0
  6 26  1  0  0  0  0
  6 27  1  0  0  0  0
  7  8  1  0  0  0  0
  7 28  1  0  0  0  0
  7 29  1  0  0  0  0
  8  9  1  0  0  0  0
  8 30  1  0  0  0  0
  8 31  1  0  0  0  0
  9 32  1  0  0  0  0
  9 33  1  0  0  0  0
 10 11  1  0  0  0  0
 10 34  1  0  0  0  0
 11 12  1  0  0  0  0
 11 14  1  0  0  0  0
 11 35  1  0  0  0  0
 12 13  1  0  0  0  0
 12 36  1  0  0  0  0
 12 37  1  0  0  0  0
 13 38  1  0  0  0  0
 14 15  1  0  0  0  0
 14 39  1  0  0  0  0
 14 40  1  0  0  0  0
 15 20  1  0  0  0  0
 15 16  2  0  0  0  0
 16 17  1  0  0  0  0
 16 41  1  0  0  0  0
 17 18  2  0  0  0  0
 17 42  1  0  0  0  0
 18 19  1  0  0  0  0
 18 43  1  0  0  0  0
 19 20  2  0  0  0  0
 19 44  1  0  0  0  0
M  END
> <s_m_source_file>
AV-unprocessed.smi

> <i_m_source_file_index>
2725

> <i_lp_mmshare_version>
43012

> <i_f3d_flags>
0

> <s_epik_input>
W0NIMl0xW0NIMl1bQ0gyXVtDSDJdW0NIXTFbQ0gyXVtDSDJdQyg9TylbTkhdW0NASF0oW0NIMl1bT0hdKVtDSDJdYzJbY0hdW2NIXVtjSF1bY0hdbjI=

> <s_epik_cmdline>
J2VwaWtfcHl0aG9uJywgJy1waCcsICc3LjAnLCAnLXRuJywgJzgnLCAnLW1hJywgJzIwMCcsICctbWV0YWxfYmluZGluZycsICctaW1hZScsICc8aW5maWxlLm1hZT4nLCAnLW9tYWUnLCAnPG91dGZpbGUubWFlPic=

> <r_epik_Ionization_Penalty>
0.0257016

> <r_epik_Ionization_Penalty_Charging>
0

> <r_epik_Ionization_Penalty_Neutral>
0.0257016

> <r_epik_State_Penalty>
0.0209381

> <r_epik_Charging_Adjusted_Penalty>
0.0209381

> <i_epik_Tot_Q>
0

> <i_epik_Tot_abs_Q>
0

> <r_epik_Metal_State_Penalty>
0.0200649

> <b_epik_Metal_Only>
0

> <s_lp_Force_Field>
OPLS_2005

> <r_lp_Energy>
24.1231

> <b_lp_Chiralities_Consistent>
1

> <s_lp_Variant>
AV-unprocessed.smi:2725-2

> <Gold.Version>
5.8.1

> <Gold.Id.Protein>
6NUR|6NUR_protein|mol2

> <Gold.PLP.Fitness>
49.8196

> <Gold.PLP.PLP>
-44.7399

> <Gold.PLP.part.hbond>
-5.0104

> <Gold.PLP.part.metal>
0.0000

> <Gold.PLP.part.buried>
-2.6310

> <Gold.PLP.part.nonpolar>
-38.0591

> <Gold.PLP.part.repulsive>
0.6305

> <Gold.PLP.ligand.clash>
0.0000

> <Gold.PLP.ligand.torsion>
1.8731

> <Gold.PLP.Chemscore.Hbond>
2.9120

> <Gold.PLP.Chemscore.CHOScore>
0.0000

> <Gold.PLP.Chemscore.Metal>
0.0000

> <Gold.Chemscore.Hbonds>
donor molecule, donor type, donor heavy atom, donor atom, acceptor molecule, acceptor atom, score
      L1  H    13    38       P1  7949  0.36
      P1  H  7989  7998       L1     1  0.04
      P1  H  7997  8008       L1    20  0.50
      P1  H 10752 10764       L1    13  1.00

> <Gold.PLP.Chemscore.Internal.Correction>
0.0899

> <Gold.Rescore>
     Score         DG    S(hbond)    S(metal)    S(lipo)     H(rot)  DE(clash)    DE(int)     intcor
     16.60     -23.07       1.88        0.00     150.05       2.44       2.84       3.62       ----

> <Gold.Chemscore.Fitness>
16.6031

> <Gold.Chemscore.DG>
-23.0669

> <Gold.Chemscore.ZeroCoef>
-5.4800

> <Gold.Chemscore.Hbond>
1.8808

> <Gold.Chemscore.Metal>
0.0000

> <Gold.Chemscore.Lipo>
150.0467

> <Gold.Chemscore.Internal_Hbond>
0.0000

> <Gold.Chemscore.DEClash>
2.8399

> <Gold.Chemscore.DEInternal>
3.6239

> <Gold.Chemscore.Rot>
2.4416

> <Gold.Chemscore.Internal.Correction>
   9.000000E+99

> <Gold.Chemscore.Hbonds>
donor molecule, donor type, donor heavy atom, donor atom, acceptor molecule, acceptor atom, score
      L1  H    13    38       P1  7949  0.02
      P1  H  7997  8008       L1    20  0.10
      P1  H 10752 10764       L1    13  0.81

> <Gold.Chemscore.Hbond.Weighted>
-6.2820

> <Gold.Chemscore.Metal.Weighted>
-0.0000

> <Gold.Chemscore.Lipo.Weighted>
-17.5555

> <Gold.Chemscore.Internal_Hbond.Weighted>
0.0000

> <Gold.Chemscore.DEClash.Weighted>
2.8399

> <Gold.Chemscore.DEInternal.Weighted>
3.6239

> <Gold.Chemscore.Rot.Weighted>
6.2505

> <Gold.Chemscore.Internal.Correction.Weighted>
   9.000000E+99

> <Gold.Protein.RotatedTorsions>
[ 6907 6896 6895 6894 ] final   -0.24 input  -60.11 | X-H torsion
[ 7974 7965 7964 7962 ] final  -37.17 input  175.53 | X-H torsion
[ 8008 7997 7996 7995 ] final   23.76 input   59.86 | X-H torsion
[ 10167 10162 10161 10158 ] final  136.16 input  -65.29 | X-H torsion
[ 10718 10713 10712 10709 ] final  164.42 input   66.30 | X-H torsion
[ 10763 10752 10751 10750 ] final  -75.32 input  -60.55 | X-H torsion
[ 11005 11000 10999 10996 ] final   61.66 input  -57.11 | X-H torsion

> <Gold.Protein.ActiveResidues>
 VAL166  LYS551  ARG553  GLY616  TRP617  ASP618  TYR619  PRO620  LYS621  CYS622 
 ASP623  PHE694  ASN695  SER759  ASP760  ASP761  ALA762  ILE779  LEU786  VAL792 
 PHE793  MET794  SER795  GLU796  ALA797  LYS798  CYS799  TRP800  GLU811  SER814 

> <Gold.Protein.RotatedAtoms>
  151.5655  135.1064  159.9982 H   0  0  0  0  0  0  0  0  0  0  0  0  # atno 6907 bound_to 6896
  152.4426  133.7472  159.6684 H   0  0  0  0  0  0  0  0  0  0  0  0  # atno 6908 bound_to 6896
  150.8334  133.7984  159.3113 H   0  0  0  0  0  0  0  0  0  0  0  0  # atno 6909 bound_to 6896
  146.0598  140.6364  142.9002 H   0  0  0  0  0  0  0  0  0  0  0  0  # atno 7974 bound_to 7965
  154.9859  140.3108  155.4926 H   0  0  0  0  0  0  0  0  0  0  0  0  # atno 8008 bound_to 7997
  156.2947  140.2258  156.4901 H   0  0  0  0  0  0  0  0  0  0  0  0  # atno 8009 bound_to 7997
  154.7747  140.0450  157.1067 H   0  0  0  0  0  0  0  0  0  0  0  0  # atno 8010 bound_to 7997
  139.5190  144.6479  151.5386 H   0  0  0  0  0  0  0  0  0  0  0  0  # atno 10167 bound_to 10162
  157.0946  131.0426  151.2523 H   0  0  0  0  0  0  0  0  0  0  0  0  # atno 10718 bound_to 10713
  154.4850  135.5835  153.6417 H   0  0  0  0  0  0  0  0  0  0  0  0  # atno 10763 bound_to 10752
  152.9853  135.6099  154.3198 H   0  0  0  0  0  0  0  0  0  0  0  0  # atno 10764 bound_to 10752
  154.3092  135.2845  155.2553 H   0  0  0  0  0  0  0  0  0  0  0  0  # atno 10765 bound_to 10752
  140.0146  134.6245  155.9729 H   0  0  0  0  0  0  0  0  0  0  0  0  # atno 11005 bound_to 11000
  144.7168  140.4239  143.7038 LP  0  0  0  0  0  0  0  0  0  0  0  0  # atno 17320 bound_to 7965
  145.6579  139.1576  143.2825 LP  0  0  0  0  0  0  0  0  0  0  0  0  # atno 17321 bound_to 7965
  140.6272  143.9146  150.6574 LP  0  0  0  0  0  0  0  0  0  0  0  0  # atno 17342 bound_to 10162
  140.2438  143.3643  152.1464 LP  0  0  0  0  0  0  0  0  0  0  0  0  # atno 17343 bound_to 10162
  157.4692  130.7699  149.7308 LP  0  0  0  0  0  0  0  0  0  0  0  0  # atno 17370 bound_to 10713
  155.9889  130.3955  150.3096 LP  0  0  0  0  0  0  0  0  0  0  0  0  # atno 17371 bound_to 10713
  141.1734  133.6538  156.4736 LP  0  0  0  0  0  0  0  0  0  0  0  0  # atno 17394 bound_to 11000
  140.4494  134.6943  157.5032 LP  0  0  0  0  0  0  0  0  0  0  0  0  # atno 17395 bound_to 11000

$$$$
