AV-unprocessed.smi:2152|AV-procd|sdf|8764|dock2
  -GOLD-   2272011543D 1   1.00000     0.00000
 Structure written by MMmdl.
 41 42  0  0  0  0  0  0  0  0  1 V2000
  153.6389  141.9733  160.7377 C   0  0  0  0  0  0  0  0  0  0  0  0
  153.1272  143.2850  160.1178 C   0  0  2  0  0  0  0  0  0  0  0  0
  152.0577  143.9523  161.0073 C   0  0  0  0  0  0  0  0  0  0  0  0
  151.5926  145.2952  160.4213 C   0  0  0  0  0  0  0  0  0  0  0  0
  151.0792  145.1304  158.9833 C   0  0  0  0  0  0  0  0  0  0  0  0
  152.1383  144.4652  158.0865 C   0  0  0  0  0  0  0  0  0  0  0  0
  152.6262  143.1191  158.6592 C   0  0  2  0  0  0  0  0  0  0  0  0
  151.5582  142.1226  158.5553 N   0  0  0  0  0  0  0  0  0  0  0  0
  150.8129  141.8692  157.4686 C   0  0  0  0  0  0  0  0  0  0  0  0
  150.9652  142.4460  156.3910 O   0  0  0  0  0  0  0  0  0  0  0  0
  149.7511  140.7728  157.6296 C   0  0  0  0  0  0  0  0  0  0  0  0
  150.1884  139.4653  157.1241 N   0  0  0  0  0  0  0  0  0  0  0  0
  150.1894  138.3697  157.9680 C   0  0  0  0  0  0  0  0  0  0  0  0
  150.5920  137.1372  157.5882 C   0  0  0  0  0  0  0  0  0  0  0  0
  151.0583  136.8866  156.2297 C   0  0  0  0  0  0  0  0  0  0  0  0
  151.4472  135.7822  155.8483 O   0  0  0  0  0  0  0  0  0  0  0  0
  151.0361  138.0221  155.3840 N   0  0  0  0  0  0  0  0  0  0  0  0
  151.4931  137.8870  154.0165 C   0  0  0  0  0  0  0  0  0  0  0  0
  150.6256  139.3109  155.7910 C   0  0  0  0  0  0  0  0  0  0  0  0
  150.6496  140.2744  155.0208 O   0  0  0  0  0  0  0  0  0  0  0  0
  152.8346  141.2508  160.8777 H   0  0  0  0  0  0  0  0  0  0  0  0
  154.0905  142.1535  161.7135 H   0  0  0  0  0  0  0  0  0  0  0  0
  154.3970  141.5106  160.1053 H   0  0  0  0  0  0  0  0  0  0  0  0
  153.9815  143.9630  160.0824 H   0  0  0  0  0  0  0  0  0  0  0  0
  151.2008  143.2874  161.1229 H   0  0  0  0  0  0  0  0  0  0  0  0
  152.4559  144.1142  162.0097 H   0  0  0  0  0  0  0  0  0  0  0  0
  150.8099  145.7231  161.0485 H   0  0  0  0  0  0  0  0  0  0  0  0
  152.4207  146.0052  160.4334 H   0  0  0  0  0  0  0  0  0  0  0  0
  150.1675  144.5319  158.9866 H   0  0  0  0  0  0  0  0  0  0  0  0
  150.8054  146.1033  158.5741 H   0  0  0  0  0  0  0  0  0  0  0  0
  151.7416  144.3255  157.0801 H   0  0  0  0  0  0  0  0  0  0  0  0
  152.9899  145.1390  157.9837 H   0  0  0  0  0  0  0  0  0  0  0  0
  153.4714  142.8004  158.0463 H   0  0  0  0  0  0  0  0  0  0  0  0
  151.3629  141.5888  159.3896 H   0  0  0  0  0  0  0  0  0  0  0  0
  149.4998  140.6972  158.6883 H   0  0  0  0  0  0  0  0  0  0  0  0
  148.8295  141.0770  157.1296 H   0  0  0  0  0  0  0  0  0  0  0  0
  149.8574  138.5042  158.9873 H   0  0  0  0  0  0  0  0  0  0  0  0
  150.5715  136.3255  158.3008 H   0  0  0  0  0  0  0  0  0  0  0  0
  150.7612  138.3715  153.3674 H   0  0  0  0  0  0  0  0  0  0  0  0
  151.5698  136.8379  153.7314 H   0  0  0  0  0  0  0  0  0  0  0  0
  152.4658  138.3778  153.9570 H   0  0  0  0  0  0  0  0  0  0  0  0
  1  2  1  0  0  0  0
  1 21  1  0  0  0  0
  1 22  1  0  0  0  0
  1 23  1  0  0  0  0
  2  7  1  0  0  0  0
  2  3  1  0  0  0  0
  2 24  1  0  0  0  0
  3  4  1  0  0  0  0
  3 25  1  0  0  0  0
  3 26  1  0  0  0  0
  4  5  1  0  0  0  0
  4 27  1  0  0  0  0
  4 28  1  0  0  0  0
  5  6  1  0  0  0  0
  5 29  1  0  0  0  0
  5 30  1  0  0  0  0
  6  7  1  0  0  0  0
  6 31  1  0  0  0  0
  6 32  1  0  0  0  0
  7  8  1  0  0  0  0
  7 33  1  0  0  0  0
  8  9  1  0  0  0  0
  8 34  1  0  0  0  0
  9 10  2  0  0  0  0
  9 11  1  0  0  0  0
 11 12  1  0  0  0  0
 11 35  1  0  0  0  0
 11 36  1  0  0  0  0
 12 19  1  0  0  0  0
 12 13  1  0  0  0  0
 13 14  2  0  0  0  0
 13 37  1  0  0  0  0
 14 15  1  0  0  0  0
 14 38  1  0  0  0  0
 15 16  2  0  0  0  0
 15 17  1  0  0  0  0
 17 18  1  0  0  0  0
 17 19  1  0  0  0  0
 18 39  1  0  0  0  0
 18 40  1  0  0  0  0
 18 41  1  0  0  0  0
 19 20  2  0  0  0  0
M  END
> <s_m_source_file>
AV-unprocessed.smi

> <i_m_source_file_index>
2152

> <i_lp_mmshare_version>
43012

> <i_f3d_flags>
0

> <s_epik_input>
W0NIM11bQ0BASF0xW0NIMl1bQ0gyXVtDSDJdW0NIMl1bQ0BIXTFbTkhdQyg9TylbQ0gyXW4yW2NIXVtjSF1jKD1PKW4oW0NIM10pYzI9Tw==

> <s_epik_cmdline>
J2VwaWtfcHl0aG9uJywgJy1waCcsICc3LjAnLCAnLXRuJywgJzgnLCAnLW1hJywgJzIwMCcsICctbWV0YWxfYmluZGluZycsICctaW1hZScsICc8aW5maWxlLm1hZT4nLCAnLW9tYWUnLCAnPG91dGZpbGUubWFlPic=

> <r_lp_tautomer_probability>
1

> <r_epik_Ionization_Penalty>
3.20555e-08

> <r_epik_Ionization_Penalty_Charging>
1.30086e-08

> <r_epik_Ionization_Penalty_Neutral>
1.90469e-08

> <r_epik_State_Penalty>
-0

> <r_epik_Charging_Adjusted_Penalty>
1.30086e-08

> <i_epik_Tot_Q>
0

> <i_epik_Tot_abs_Q>
0

> <r_epik_Metal_State_Penalty>
-0

> <b_epik_Metal_Only>
0

> <s_lp_Force_Field>
OPLS_2005

> <r_lp_Energy>
17.3754

> <b_lp_Chiralities_Consistent>
1

> <s_lp_Variant>
AV-unprocessed.smi:2152-3

> <Gold.Version>
5.8.1

> <Gold.Id.Protein>
6NUR|6NUR_protein|mol2

> <Gold.PLP.Fitness>
47.3637

> <Gold.PLP.PLP>
-42.1942

> <Gold.PLP.part.hbond>
-2.0000

> <Gold.PLP.part.metal>
0.0000

> <Gold.PLP.part.buried>
-5.7543

> <Gold.PLP.part.nonpolar>
-35.1968

> <Gold.PLP.part.repulsive>
0.2623

> <Gold.PLP.ligand.clash>
0.0000

> <Gold.PLP.ligand.torsion>
0.4207

> <Gold.PLP.Chemscore.Hbond>
2.0000

> <Gold.PLP.Chemscore.CHOScore>
0.0000

> <Gold.PLP.Chemscore.Metal>
0.0000

> <Gold.Chemscore.Hbonds>
donor molecule, donor type, donor heavy atom, donor atom, acceptor molecule, acceptor atom, score
      P1  H  7989  7998       L1    20  1.00
      P1  H 10752 10765       L1    16  1.00

> <Gold.PLP.Chemscore.Internal.Correction>
0.0109

> <Gold.Rescore>
     Score         DG    S(hbond)    S(metal)    S(lipo)     H(rot)  DE(clash)    DE(int)     intcor
     17.08     -20.06       1.97        0.00     101.79       1.52       0.05       2.93       ----

> <Gold.Chemscore.Fitness>
17.0757

> <Gold.Chemscore.DG>
-20.0636

> <Gold.Chemscore.ZeroCoef>
-5.4800

> <Gold.Chemscore.Hbond>
1.9687

> <Gold.Chemscore.Metal>
0.0000

> <Gold.Chemscore.Lipo>
101.7934

> <Gold.Chemscore.Internal_Hbond>
0.0000

> <Gold.Chemscore.DEClash>
0.0542

> <Gold.Chemscore.DEInternal>
2.9337

> <Gold.Chemscore.Rot>
1.5242

> <Gold.Chemscore.Internal.Correction>
   9.000000E+99

> <Gold.Chemscore.Hbonds>
donor molecule, donor type, donor heavy atom, donor atom, acceptor molecule, acceptor atom, score
      P1  H  7989  7998       L1    20  0.99
      P1  H 10752 10765       L1    16  0.99

> <Gold.Chemscore.Hbond.Weighted>
-6.5756

> <Gold.Chemscore.Metal.Weighted>
-0.0000

> <Gold.Chemscore.Lipo.Weighted>
-11.9098

> <Gold.Chemscore.Internal_Hbond.Weighted>
0.0000

> <Gold.Chemscore.DEClash.Weighted>
0.0542

> <Gold.Chemscore.DEInternal.Weighted>
2.9337

> <Gold.Chemscore.Rot.Weighted>
3.9019

> <Gold.Chemscore.Internal.Correction.Weighted>
   9.000000E+99

> <Gold.Protein.RotatedTorsions>
[ 6907 6896 6895 6894 ] final  161.80 input  -60.11 | X-H torsion
[ 7974 7965 7964 7962 ] final   95.98 input  175.53 | X-H torsion
[ 8008 7997 7996 7995 ] final  -46.46 input   59.86 | X-H torsion
[ 10167 10162 10161 10158 ] final   93.90 input  -65.29 | X-H torsion
[ 10718 10713 10712 10709 ] final -163.26 input   66.30 | X-H torsion
[ 10763 10752 10751 10750 ] final -163.59 input  -60.55 | X-H torsion
[ 11005 11000 10999 10996 ] final  129.58 input  -57.11 | X-H torsion

> <Gold.Protein.ActiveResidues>
 VAL166  LYS551  ARG553  GLY616  TRP617  ASP618  TYR619  PRO620  LYS621  CYS622 
 ASP623  PHE694  ASN695  SER759  ASP760  ASP761  ALA762  ILE779  LEU786  VAL792 
 PHE793  MET794  SER795  GLU796  ALA797  LYS798  CYS799  TRP800  GLU811  SER814 

> <Gold.Protein.RotatedAtoms>
  151.9501  133.3663  159.3996 H   0  0  0  0  0  0  0  0  0  0  0  0  # atno 6907 bound_to 6896
  150.6982  134.4349  159.5274 H   0  0  0  0  0  0  0  0  0  0  0  0  # atno 6908 bound_to 6896
  152.2020  134.8579  160.0557 H   0  0  0  0  0  0  0  0  0  0  0  0  # atno 6909 bound_to 6896
  145.4450  139.2298  143.3071 H   0  0  0  0  0  0  0  0  0  0  0  0  # atno 7974 bound_to 7965
  154.4007  140.1371  156.4015 H   0  0  0  0  0  0  0  0  0  0  0  0  # atno 8008 bound_to 7997
  155.7820  140.3481  155.5282 H   0  0  0  0  0  0  0  0  0  0  0  0  # atno 8009 bound_to 7997
  155.8665  140.0965  157.1569 H   0  0  0  0  0  0  0  0  0  0  0  0  # atno 8010 bound_to 7997
  139.8135  144.6763  150.9610 H   0  0  0  0  0  0  0  0  0  0  0  0  # atno 10167 bound_to 10162
  156.6222  130.8895  151.2960 H   0  0  0  0  0  0  0  0  0  0  0  0  # atno 10718 bound_to 10713
  154.7108  135.3006  154.9199 H   0  0  0  0  0  0  0  0  0  0  0  0  # atno 10763 bound_to 10752
  154.0102  135.6696  153.4769 H   0  0  0  0  0  0  0  0  0  0  0  0  # atno 10764 bound_to 10752
  153.0754  135.5038  154.8306 H   0  0  0  0  0  0  0  0  0  0  0  0  # atno 10765 bound_to 10752
  139.9623  134.9599  156.9168 H   0  0  0  0  0  0  0  0  0  0  0  0  # atno 11005 bound_to 11000
  146.2536  140.5203  142.8883 LP  0  0  0  0  0  0  0  0  0  0  0  0  # atno 17320 bound_to 7965
  144.8097  140.6364  143.6423 LP  0  0  0  0  0  0  0  0  0  0  0  0  # atno 17321 bound_to 7965
  140.7817  143.4162  151.0914 LP  0  0  0  0  0  0  0  0  0  0  0  0  # atno 17342 bound_to 10162
  139.7827  143.8332  152.3140 LP  0  0  0  0  0  0  0  0  0  0  0  0  # atno 17343 bound_to 10162
  157.7224  130.9576  150.1493 LP  0  0  0  0  0  0  0  0  0  0  0  0  # atno 17370 bound_to 10713
  156.2302  130.3681  149.8454 LP  0  0  0  0  0  0  0  0  0  0  0  0  # atno 17371 bound_to 10713
  140.5472  134.0662  155.7358 LP  0  0  0  0  0  0  0  0  0  0  0  0  # atno 17394 bound_to 11000
  141.1301  133.9316  157.2553 LP  0  0  0  0  0  0  0  0  0  0  0  0  # atno 17395 bound_to 11000

$$$$
