AV-unprocessed.smi:113|AV-procd|sdf|1092|dock3
  -GOLD-   2262018193D 1   1.00000     0.00000
 Structure written by MMmdl.
 52 55  0  0  0  0  0  0  0  0  1 V2000
  153.0599  139.1538  159.9004 C   0  0  0  0  0  0  0  0  0  0  0  0
  152.5144  140.4705  159.3882 C   0  0  0  0  0  0  0  0  0  0  0  0
  152.0027  140.5777  158.0830 C   0  0  0  0  0  0  0  0  0  0  0  0
  151.5068  141.8256  157.6405 C   0  0  0  0  0  0  0  0  0  0  0  0
  150.9405  141.9971  156.2264 C   0  0  0  0  0  0  0  0  0  0  0  0
  150.5680  140.7815  155.5165 N   0  0  0  0  0  0  0  0  0  0  0  0
  151.5974  139.8662  155.1923 C   0  0  0  0  0  0  0  0  0  0  0  0
  152.7738  140.0861  155.4893 O   0  0  0  0  0  0  0  0  0  0  0  0
  151.1550  138.6527  154.5025 C   0  0  0  0  0  0  0  0  0  0  0  0
  152.2125  137.6380  154.0955 C   0  0  0  0  0  0  0  0  0  0  0  0
  149.8377  138.4637  154.2456 C   0  0  0  0  0  0  0  0  0  0  0  0
  148.8424  139.3629  154.6033 N   0  0  0  0  0  0  0  0  0  0  0  0
  147.3645  139.1160  154.3614 C   0  0  1  0  0  0  0  0  0  0  0  0
  146.9632  138.8086  152.9210 C   0  0  0  0  0  0  0  0  0  0  0  0
  145.6017  138.1884  153.1590 C   0  0  1  0  0  0  0  0  0  0  0  0
  145.2111  137.3835  152.0638 O   0  0  0  0  0  0  0  0  0  0  0  0
  145.7899  137.4405  154.4998 C   0  0  1  0  0  0  0  0  0  0  0  0
  145.9669  135.9121  154.4176 C   0  0  0  0  0  0  0  0  0  0  0  0
  146.0817  135.3510  155.7091 O   0  0  0  0  0  0  0  0  0  0  0  0
  146.9917  137.9713  155.0605 O   0  0  0  0  0  0  0  0  0  0  0  0
  149.1974  140.5653  155.2516 C   0  0  0  0  0  0  0  0  0  0  0  0
  148.3351  141.3835  155.5824 O   0  0  0  0  0  0  0  0  0  0  0  0
  151.5500  142.9180  158.5484 C   0  0  0  0  0  0  0  0  0  0  0  0
  151.0697  144.1999  158.1863 C   0  0  0  0  0  0  0  0  0  0  0  0
  151.1238  145.2686  159.0987 C   0  0  0  0  0  0  0  0  0  0  0  0
  151.6591  145.0682  160.3816 C   0  0  0  0  0  0  0  0  0  0  0  0
  152.1370  143.7977  160.7497 C   0  0  0  0  0  0  0  0  0  0  0  0
  152.0915  142.7099  159.8514 C   0  0  0  0  0  0  0  0  0  0  0  0
  152.5603  141.5063  160.2483 N   0  0  0  0  0  0  0  0  0  0  0  0
  152.6993  138.3190  159.2982 H   0  0  0  0  0  0  0  0  0  0  0  0
  152.7527  138.9821  160.9326 H   0  0  0  0  0  0  0  0  0  0  0  0
  154.1495  139.1582  159.8615 H   0  0  0  0  0  0  0  0  0  0  0  0
  151.9986  139.7080  157.4435 H   0  0  0  0  0  0  0  0  0  0  0  0
  150.0635  142.6456  156.2497 H   0  0  0  0  0  0  0  0  0  0  0  0
  151.6535  142.5319  155.5966 H   0  0  0  0  0  0  0  0  0  0  0  0
  151.7783  136.7746  153.5906 H   0  0  0  0  0  0  0  0  0  0  0  0
  152.7473  137.2740  154.9736 H   0  0  0  0  0  0  0  0  0  0  0  0
  152.9361  138.0913  153.4172 H   0  0  0  0  0  0  0  0  0  0  0  0
  149.5797  137.5593  153.7195 H   0  0  0  0  0  0  0  0  0  0  0  0
  146.8515  139.9975  154.7527 H   0  0  0  0  0  0  0  0  0  0  0  0
  146.9500  139.7045  152.2993 H   0  0  0  0  0  0  0  0  0  0  0  0
  147.6271  138.0567  152.4932 H   0  0  0  0  0  0  0  0  0  0  0  0
  144.8639  138.9812  153.2905 H   0  0  0  0  0  0  0  0  0  0  0  0
  144.5331  137.8357  151.5847 H   0  0  0  0  0  0  0  0  0  0  0  0
  144.9678  137.6813  155.1753 H   0  0  0  0  0  0  0  0  0  0  0  0
  145.1455  135.4451  153.8731 H   0  0  0  0  0  0  0  0  0  0  0  0
  146.8825  135.6739  153.8753 H   0  0  0  0  0  0  0  0  0  0  0  0
  145.3035  134.8452  155.8878 H   0  0  0  0  0  0  0  0  0  0  0  0
  150.6525  144.3883  157.2089 H   0  0  0  0  0  0  0  0  0  0  0  0
  150.7547  146.2427  158.8129 H   0  0  0  0  0  0  0  0  0  0  0  0
  151.7031  145.8873  161.0841 H   0  0  0  0  0  0  0  0  0  0  0  0
  152.5455  143.6559  161.7398 H   0  0  0  0  0  0  0  0  0  0  0  0
  1  2  1  0  0  0  0
  1 30  1  0  0  0  0
  1 31  1  0  0  0  0
  1 32  1  0  0  0  0
  2 29  1  0  0  0  0
  2  3  2  0  0  0  0
  3  4  1  0  0  0  0
  3 33  1  0  0  0  0
  4  5  1  0  0  0  0
  4 23  2  0  0  0  0
  5  6  1  0  0  0  0
  5 34  1  0  0  0  0
  5 35  1  0  0  0  0
  6 21  1  0  0  0  0
  6  7  1  0  0  0  0
  7  8  2  0  0  0  0
  7  9  1  0  0  0  0
  9 10  1  0  0  0  0
  9 11  2  0  0  0  0
 10 36  1  0  0  0  0
 10 37  1  0  0  0  0
 10 38  1  0  0  0  0
 11 12  1  0  0  0  0
 11 39  1  0  0  0  0
 12 13  1  0  0  0  0
 12 21  1  0  0  0  0
 13 20  1  0  0  0  0
 13 14  1  0  0  0  0
 13 40  1  0  0  0  0
 14 15  1  0  0  0  0
 14 41  1  0  0  0  0
 14 42  1  0  0  0  0
 15 16  1  0  0  0  0
 15 17  1  0  0  0  0
 15 43  1  0  0  0  0
 16 44  1  0  0  0  0
 17 18  1  0  0  0  0
 17 20  1  0  0  0  0
 17 45  1  0  0  0  0
 18 19  1  0  0  0  0
 18 46  1  0  0  0  0
 18 47  1  0  0  0  0
 19 48  1  0  0  0  0
 21 22  2  0  0  0  0
 23 28  1  0  0  0  0
 23 24  1  0  0  0  0
 24 25  2  0  0  0  0
 24 49  1  0  0  0  0
 25 26  1  0  0  0  0
 25 50  1  0  0  0  0
 26 27  2  0  0  0  0
 26 51  1  0  0  0  0
 27 28  1  0  0  0  0
 27 52  1  0  0  0  0
 28 29  2  0  0  0  0
M  END
> <s_m_source_file>
AV-unprocessed.smi

> <i_m_source_file_index>
113

> <i_lp_mmshare_version>
43012

> <i_f3d_flags>
0

> <s_epik_input>
W2NIXTFbY0hdW2NIXVtjSF1jKGMxMiluYyhbQ0gzXSlbY0hdYzJbQ0gyXW4zYyg9TyljKFtDSDNdKVtjSF1uKGMzPU8pW0NAQEhdNFtDSDJdW0NAQEhdKFtPSF0pW0NASF0oTzQpW0NIMl1bT0hd

> <s_epik_cmdline>
J2VwaWtfcHl0aG9uJywgJy1waCcsICc3LjAnLCAnLXRuJywgJzgnLCAnLW1hJywgJzIwMCcsICctbWV0YWxfYmluZGluZycsICctaW1hZScsICc8aW5maWxlLm1hZT4nLCAnLW9tYWUnLCAnPG91dGZpbGUubWFlPic=

> <r_lp_tautomer_probability>
1

> <r_epik_Ionization_Penalty>
0.214728

> <r_epik_Ionization_Penalty_Charging>
3.04883e-08

> <r_epik_Ionization_Penalty_Neutral>
0.214728

> <r_epik_State_Penalty>
0.204913

> <r_epik_Charging_Adjusted_Penalty>
0.204913

> <i_epik_Tot_Q>
0

> <i_epik_Tot_abs_Q>
0

> <r_epik_Metal_State_Penalty>
0.000244761

> <b_epik_Metal_Only>
0

> <s_epik_Chemistry_Notes>
This compound contains an acetal/aminal-like group ( X-CH(R)-Y where X, Y are N, S, or O) that may be acid/base labile, releasing an aldehyde.

> <s_lp_Force_Field>
OPLS_2005

> <r_lp_Energy>
43.3088

> <b_lp_Chiralities_Consistent>
1

> <s_lp_Variant>
AV-unprocessed.smi:113-2

> <Gold.Version>
5.8.1

> <Gold.Id.Protein>
6NUR|6NUR_protein|mol2

> <Gold.PLP.Fitness>
56.7680

> <Gold.PLP.PLP>
-48.7763

> <Gold.PLP.part.hbond>
-3.5313

> <Gold.PLP.part.metal>
0.0000

> <Gold.PLP.part.buried>
2.2517

> <Gold.PLP.part.nonpolar>
-47.1024

> <Gold.PLP.part.repulsive>
0.1662

> <Gold.PLP.ligand.clash>
0.0000

> <Gold.PLP.ligand.torsion>
0.3158

> <Gold.PLP.Chemscore.Hbond>
1.8640

> <Gold.PLP.Chemscore.CHOScore>
1.0000

> <Gold.PLP.Chemscore.Metal>
0.0000

> <Gold.Chemscore.Hbonds>
donor molecule, donor type, donor heavy atom, donor atom, acceptor molecule, acceptor atom, score
      L1  H    16    44       P1 10171  0.97
      P1  H  7997  8009       L1     8  1.00
      L1  C    11    39       P1  7948  1.00

> <Gold.PLP.Chemscore.Internal.Correction>
0.0314

> <Gold.Rescore>
     Score         DG    S(hbond)    S(metal)    S(lipo)     H(rot)  DE(clash)    DE(int)     intcor
     14.40     -16.97       1.00        0.00     134.20       2.95       0.61       1.97       ----

> <Gold.Chemscore.Fitness>
14.4030

> <Gold.Chemscore.DG>
-16.9748

> <Gold.Chemscore.ZeroCoef>
-5.4800

> <Gold.Chemscore.Hbond>
0.9991

> <Gold.Chemscore.Metal>
0.0000

> <Gold.Chemscore.Lipo>
134.2031

> <Gold.Chemscore.Internal_Hbond>
0.0000

> <Gold.Chemscore.DEClash>
0.6066

> <Gold.Chemscore.DEInternal>
1.9652

> <Gold.Chemscore.Rot>
2.9469

> <Gold.Chemscore.Internal.Correction>
   9.000000E+99

> <Gold.Chemscore.Hbonds>
donor molecule, donor type, donor heavy atom, donor atom, acceptor molecule, acceptor atom, score
      L1  H    16    44       P1 10171  0.86
      P1  H  7997  8009       L1     8  1.00

> <Gold.Chemscore.Hbond.Weighted>
-3.3369

> <Gold.Chemscore.Metal.Weighted>
-0.0000

> <Gold.Chemscore.Lipo.Weighted>
-15.7018

> <Gold.Chemscore.Internal_Hbond.Weighted>
0.0000

> <Gold.Chemscore.DEClash.Weighted>
0.6066

> <Gold.Chemscore.DEInternal.Weighted>
1.9652

> <Gold.Chemscore.Rot.Weighted>
7.5439

> <Gold.Chemscore.Internal.Correction.Weighted>
   9.000000E+99

> <Gold.Protein.RotatedTorsions>
[ 6907 6896 6895 6894 ] final   94.52 input  -60.11 | X-H torsion
[ 7974 7965 7964 7962 ] final  130.34 input  175.53 | X-H torsion
[ 8008 7997 7996 7995 ] final -137.06 input   59.86 | X-H torsion
[ 10167 10162 10161 10158 ] final  105.81 input  -65.29 | X-H torsion
[ 10718 10713 10712 10709 ] final  -72.90 input   66.30 | X-H torsion
[ 10763 10752 10751 10750 ] final  -15.07 input  -60.55 | X-H torsion
[ 11005 11000 10999 10996 ] final -131.93 input  -57.11 | X-H torsion

> <Gold.Protein.ActiveResidues>
 VAL166  LYS551  ARG553  GLY616  TRP617  ASP618  TYR619  PRO620  LYS621  CYS622 
 ASP623  PHE694  ASN695  SER759  ASP760  ASP761  ALA762  ILE779  LEU786  VAL792 
 PHE793  MET794  SER795  GLU796  ALA797  LYS798  CYS799  TRP800  GLU811  SER814 

> <Gold.Protein.RotatedAtoms>
  152.5449  134.1182  159.8387 H   0  0  0  0  0  0  0  0  0  0  0  0  # atno 6907 bound_to 6896
  151.1240  133.5076  159.2608 H   0  0  0  0  0  0  0  0  0  0  0  0  # atno 6908 bound_to 6896
  151.1747  135.0344  159.8821 H   0  0  0  0  0  0  0  0  0  0  0  0  # atno 6909 bound_to 6896
  145.0190  139.4150  143.5207 H   0  0  0  0  0  0  0  0  0  0  0  0  # atno 7974 bound_to 7965
  155.4056  140.0509  157.3034 H   0  0  0  0  0  0  0  0  0  0  0  0  # atno 8008 bound_to 7997
  154.4970  140.2142  155.9386 H   0  0  0  0  0  0  0  0  0  0  0  0  # atno 8009 bound_to 7997
  156.1418  140.3153  155.8513 H   0  0  0  0  0  0  0  0  0  0  0  0  # atno 8010 bound_to 7997
  139.7061  144.7086  151.1104 H   0  0  0  0  0  0  0  0  0  0  0  0  # atno 10167 bound_to 10162
  156.0301  130.4382  150.2662 H   0  0  0  0  0  0  0  0  0  0  0  0  # atno 10718 bound_to 10713
  153.5378  135.7013  153.5652 H   0  0  0  0  0  0  0  0  0  0  0  0  # atno 10763 bound_to 10752
  153.3631  135.3964  155.1733 H   0  0  0  0  0  0  0  0  0  0  0  0  # atno 10764 bound_to 10752
  154.8677  135.3793  154.4880 H   0  0  0  0  0  0  0  0  0  0  0  0  # atno 10765 bound_to 10752
  140.9215  134.1438  157.4310 H   0  0  0  0  0  0  0  0  0  0  0  0  # atno 11005 bound_to 11000
  146.3482  139.9676  142.8710 LP  0  0  0  0  0  0  0  0  0  0  0  0  # atno 17320 bound_to 7965
  145.1921  140.9816  143.4205 LP  0  0  0  0  0  0  0  0  0  0  0  0  # atno 17321 bound_to 7965
  140.7722  143.5356  150.9372 LP  0  0  0  0  0  0  0  0  0  0  0  0  # atno 17342 bound_to 10162
  139.9040  143.6801  152.3126 LP  0  0  0  0  0  0  0  0  0  0  0  0  # atno 17343 bound_to 10162
  157.0765  131.0131  151.3172 LP  0  0  0  0  0  0  0  0  0  0  0  0  # atno 17370 bound_to 10713
  157.4960  130.7851  149.7556 LP  0  0  0  0  0  0  0  0  0  0  0  0  # atno 17371 bound_to 10713
  139.8776  134.9973  156.5839 LP  0  0  0  0  0  0  0  0  0  0  0  0  # atno 17394 bound_to 11000
  140.7982  133.8527  155.8704 LP  0  0  0  0  0  0  0  0  0  0  0  0  # atno 17395 bound_to 11000

$$$$
