AV-unprocessed.smi:1578|AV-procd|sdf|6350|dock7
  -GOLD-   22720 6573D 1   1.00000     0.00000
 Structure written by MMmdl.
 44 45  0  0  0  0  0  0  0  0  1 V2000
  151.6558  138.3613  154.2220 C   0  0  0  0  0  0  0  0  0  0  0  0
  150.3959  138.7792  154.9980 C   0  0  2  0  0  0  0  0  0  0  0  0
  149.9126  140.1814  154.5667 C   0  0  0  0  0  0  0  0  0  0  0  0
  148.6386  140.6207  155.1407 N   0  0  0  0  0  0  0  0  0  0  0  0
  148.7963  141.3002  156.4256 C   0  0  0  0  0  0  0  0  0  0  0  0
  147.4546  141.7979  156.9895 C   0  0  0  0  0  0  0  0  0  0  0  0
  146.8182  142.6446  156.0386 O   0  0  0  0  0  0  0  0  0  0  0  0
  146.5933  141.9934  154.7931 C   0  0  0  0  0  0  0  0  0  0  0  0
  147.9357  141.5083  154.2196 C   0  0  0  0  0  0  0  0  0  0  0  0
  150.6891  138.7832  156.4280 N   0  0  0  0  0  0  0  0  0  0  0  0
  151.7547  139.3548  157.0144 C   0  0  0  0  0  0  0  0  0  0  0  0
  152.5902  140.0070  156.3900 O   0  0  0  0  0  0  0  0  0  0  0  0
  151.9345  139.1609  158.5300 C   0  0  0  0  0  0  0  0  0  0  0  0
  152.6085  140.2785  159.2166 N   0  0  0  0  0  0  0  0  0  0  0  0
  152.0506  141.5619  159.0534 C   0  0  0  0  0  0  0  0  0  0  0  0
  152.5497  142.6596  159.6532 C   0  0  0  0  0  0  0  0  0  0  0  0
  151.9529  144.0388  159.4200 C   0  0  0  0  0  0  0  0  0  0  0  0
  150.6568  144.0608  159.7314 F   0  0  0  0  0  0  0  0  0  0  0  0
  152.5758  144.9627  160.1527 F   0  0  0  0  0  0  0  0  0  0  0  0
  152.0777  144.3740  158.1366 F   0  0  0  0  0  0  0  0  0  0  0  0
  153.7351  142.4684  160.4656 C   0  0  0  0  0  0  0  0  0  0  0  0
  154.2860  141.2494  160.6258 C   0  0  0  0  0  0  0  0  0  0  0  0
  153.7162  140.0608  159.9879 C   0  0  0  0  0  0  0  0  0  0  0  0
  154.1987  138.9390  160.1441 O   0  0  0  0  0  0  0  0  0  0  0  0
  151.4640  138.3329  153.1490 H   0  0  0  0  0  0  0  0  0  0  0  0
  151.9928  137.3671  154.5171 H   0  0  0  0  0  0  0  0  0  0  0  0
  152.4779  139.0567  154.3951 H   0  0  0  0  0  0  0  0  0  0  0  0
  149.6095  138.0532  154.7818 H   0  0  0  0  0  0  0  0  0  0  0  0
  150.6898  140.9237  154.7569 H   0  0  0  0  0  0  0  0  0  0  0  0
  149.7931  140.1636  153.4824 H   0  0  0  0  0  0  0  0  0  0  0  0
  149.2406  140.6260  157.1563 H   0  0  0  0  0  0  0  0  0  0  0  0
  149.4788  142.1445  156.3172 H   0  0  0  0  0  0  0  0  0  0  0  0
  146.8026  140.9574  157.2324 H   0  0  0  0  0  0  0  0  0  0  0  0
  147.6164  142.3551  157.9124 H   0  0  0  0  0  0  0  0  0  0  0  0
  145.9047  141.1578  154.9289 H   0  0  0  0  0  0  0  0  0  0  0  0
  146.1176  142.6931  154.1058 H   0  0  0  0  0  0  0  0  0  0  0  0
  148.5605  142.3732  153.9909 H   0  0  0  0  0  0  0  0  0  0  0  0
  147.7568  140.9948  153.2742 H   0  0  0  0  0  0  0  0  0  0  0  0
  150.0501  138.2703  157.0177 H   0  0  0  0  0  0  0  0  0  0  0  0
  150.9548  138.9796  158.9759 H   0  0  0  0  0  0  0  0  0  0  0  0
  152.4879  138.2341  158.6861 H   0  0  0  0  0  0  0  0  0  0  0  0
  151.1822  141.5955  158.4113 H   0  0  0  0  0  0  0  0  0  0  0  0
  154.1876  143.3162  160.9585 H   0  0  0  0  0  0  0  0  0  0  0  0
  155.1678  141.1435  161.2407 H   0  0  0  0  0  0  0  0  0  0  0  0
  1  2  1  0  0  0  0
  1 25  1  0  0  0  0
  1 26  1  0  0  0  0
  1 27  1  0  0  0  0
  2  3  1  0  0  0  0
  2 10  1  0  0  0  0
  2 28  1  0  0  0  0
  3  4  1  0  0  0  0
  3 29  1  0  0  0  0
  3 30  1  0  0  0  0
  4  9  1  0  0  0  0
  4  5  1  0  0  0  0
  5  6  1  0  0  0  0
  5 31  1  0  0  0  0
  5 32  1  0  0  0  0
  6  7  1  0  0  0  0
  6 33  1  0  0  0  0
  6 34  1  0  0  0  0
  7  8  1  0  0  0  0
  8  9  1  0  0  0  0
  8 35  1  0  0  0  0
  8 36  1  0  0  0  0
  9 37  1  0  0  0  0
  9 38  1  0  0  0  0
 10 11  1  0  0  0  0
 10 39  1  0  0  0  0
 11 12  2  0  0  0  0
 11 13  1  0  0  0  0
 13 14  1  0  0  0  0
 13 40  1  0  0  0  0
 13 41  1  0  0  0  0
 14 23  1  0  0  0  0
 14 15  1  0  0  0  0
 15 16  2  0  0  0  0
 15 42  1  0  0  0  0
 16 17  1  0  0  0  0
 16 21  1  0  0  0  0
 17 18  1  0  0  0  0
 17 19  1  0  0  0  0
 17 20  1  0  0  0  0
 21 22  2  0  0  0  0
 21 43  1  0  0  0  0
 22 23  1  0  0  0  0
 22 44  1  0  0  0  0
 23 24  2  0  0  0  0
M  END
> <s_m_source_file>
AV-unprocessed.smi

> <i_m_source_file_index>
1578

> <i_lp_mmshare_version>
43012

> <i_f3d_flags>
0

> <s_epik_input>
W0NIMl0xW0NIMl1PW0NIMl1bQ0gyXU4xW0NIMl1bQ0BASF0oW0NIM10pW05IXUMoPU8pW0NIMl1uMltjSF1jKEMoRikoRilGKVtjSF1bY0hdYzI9Tw==

> <s_epik_cmdline>
J2VwaWtfcHl0aG9uJywgJy1waCcsICc3LjAnLCAnLXRuJywgJzgnLCAnLW1hJywgJzIwMCcsICctbWV0YWxfYmluZGluZycsICctaW1hZScsICc8aW5maWxlLm1hZT4nLCAnLW9tYWUnLCAnPG91dGZpbGUubWFlPic=

> <r_lp_tautomer_probability>
1

> <r_epik_Ionization_Penalty>
0.237382

> <r_epik_Ionization_Penalty_Charging>
1.80451e-08

> <r_epik_Ionization_Penalty_Neutral>
0.237382

> <r_epik_State_Penalty>
0.228245

> <r_epik_Charging_Adjusted_Penalty>
0.228245

> <i_epik_Tot_Q>
0

> <i_epik_Tot_abs_Q>
0

> <r_epik_Metal_State_Penalty>
0.228219

> <b_epik_Metal_Only>
0

> <s_lp_Force_Field>
OPLS_2005

> <r_lp_Energy>
37.3685

> <b_lp_Chiralities_Consistent>
1

> <s_lp_Variant>
AV-unprocessed.smi:1578-1

> <Gold.Version>
5.8.1

> <Gold.Id.Protein>
6NUR|6NUR_protein|mol2

> <Gold.PLP.Fitness>
52.9565

> <Gold.PLP.PLP>
-51.8748

> <Gold.PLP.part.hbond>
-1.0000

> <Gold.PLP.part.metal>
0.0000

> <Gold.PLP.part.buried>
-5.7812

> <Gold.PLP.part.nonpolar>
-45.0205

> <Gold.PLP.part.repulsive>
0.8042

> <Gold.PLP.ligand.clash>
0.0000

> <Gold.PLP.ligand.torsion>
1.0028

> <Gold.PLP.Chemscore.Hbond>
1.0000

> <Gold.PLP.Chemscore.CHOScore>
0.0000

> <Gold.PLP.Chemscore.Metal>
0.0000

> <Gold.Chemscore.Hbonds>
donor molecule, donor type, donor heavy atom, donor atom, acceptor molecule, acceptor atom, score
      P1  H  7997  8010       L1    12  1.00

> <Gold.PLP.Chemscore.Internal.Correction>
0.0872

> <Gold.Rescore>
     Score         DG    S(hbond)    S(metal)    S(lipo)     H(rot)  DE(clash)    DE(int)     intcor
     12.90     -15.35       1.00        0.00     101.66       2.09       0.02       2.44       ----

> <Gold.Chemscore.Fitness>
12.8960

> <Gold.Chemscore.DG>
-15.3502

> <Gold.Chemscore.ZeroCoef>
-5.4800

> <Gold.Chemscore.Hbond>
0.9978

> <Gold.Chemscore.Metal>
0.0000

> <Gold.Chemscore.Lipo>
101.6593

> <Gold.Chemscore.Internal_Hbond>
0.0000

> <Gold.Chemscore.DEClash>
0.0186

> <Gold.Chemscore.DEInternal>
2.4356

> <Gold.Chemscore.Rot>
2.0924

> <Gold.Chemscore.Internal.Correction>
   9.000000E+99

> <Gold.Chemscore.Hbonds>
donor molecule, donor type, donor heavy atom, donor atom, acceptor molecule, acceptor atom, score
      P1  H  7997  8010       L1    12  0.97

> <Gold.Chemscore.Hbond.Weighted>
-3.3327

> <Gold.Chemscore.Metal.Weighted>
-0.0000

> <Gold.Chemscore.Lipo.Weighted>
-11.8941

> <Gold.Chemscore.Internal_Hbond.Weighted>
0.0000

> <Gold.Chemscore.DEClash.Weighted>
0.0186

> <Gold.Chemscore.DEInternal.Weighted>
2.4356

> <Gold.Chemscore.Rot.Weighted>
5.3566

> <Gold.Chemscore.Internal.Correction.Weighted>
   9.000000E+99

> <Gold.Protein.RotatedTorsions>
[ 6907 6896 6895 6894 ] final   28.11 input  -60.11 | X-H torsion
[ 7974 7965 7964 7962 ] final  -54.59 input  175.53 | X-H torsion
[ 8008 7997 7996 7995 ] final   61.86 input   59.86 | X-H torsion
[ 10167 10162 10161 10158 ] final  -33.24 input  -65.29 | X-H torsion
[ 10718 10713 10712 10709 ] final   50.48 input   66.30 | X-H torsion
[ 10763 10752 10751 10750 ] final -127.60 input  -60.55 | X-H torsion
[ 11005 11000 10999 10996 ] final  128.60 input  -57.11 | X-H torsion

> <Gold.Protein.ActiveResidues>
 VAL166  LYS551  ARG553  GLY616  TRP617  ASP618  TYR619  PRO620  LYS621  CYS622 
 ASP623  PHE694  ASN695  SER759  ASP760  ASP761  ALA762  ILE779  LEU786  VAL792 
 PHE793  MET794  SER795  GLU796  ALA797  LYS798  CYS799  TRP800  GLU811  SER814 

> <Gold.Protein.RotatedAtoms>
  152.0122  134.9870  160.0568 H   0  0  0  0  0  0  0  0  0  0  0  0  # atno 6907 bound_to 6896
  152.1418  133.4463  159.4778 H   0  0  0  0  0  0  0  0  0  0  0  0  # atno 6908 bound_to 6896
  150.6866  134.2214  159.4441 H   0  0  0  0  0  0  0  0  0  0  0  0  # atno 6909 bound_to 6896
  145.8838  140.8124  142.9826 H   0  0  0  0  0  0  0  0  0  0  0  0  # atno 7974 bound_to 7965
  155.6051  140.3494  155.4605 H   0  0  0  0  0  0  0  0  0  0  0  0  # atno 8008 bound_to 7997
  156.0198  140.1251  157.0393 H   0  0  0  0  0  0  0  0  0  0  0  0  # atno 8009 bound_to 7997
  154.4311  140.1065  156.5934 H   0  0  0  0  0  0  0  0  0  0  0  0  # atno 8010 bound_to 7997
  140.7208  143.3635  151.1916 H   0  0  0  0  0  0  0  0  0  0  0  0  # atno 10167 bound_to 10162
  157.4888  130.8363  149.8179 H   0  0  0  0  0  0  0  0  0  0  0  0  # atno 10718 bound_to 10713
  154.8753  135.3956  154.3620 H   0  0  0  0  0  0  0  0  0  0  0  0  # atno 10763 bound_to 10752
  153.4391  135.7026  153.6185 H   0  0  0  0  0  0  0  0  0  0  0  0  # atno 10764 bound_to 10752
  153.4774  135.3777  155.2393 H   0  0  0  0  0  0  0  0  0  0  0  0  # atno 10765 bound_to 10752
  139.9570  134.9611  156.9026 H   0  0  0  0  0  0  0  0  0  0  0  0  # atno 11005 bound_to 11000
  144.6728  140.1424  143.7436 LP  0  0  0  0  0  0  0  0  0  0  0  0  # atno 17320 bound_to 7965
  145.8992  139.2420  143.1504 LP  0  0  0  0  0  0  0  0  0  0  0  0  # atno 17321 bound_to 7965
  139.7192  143.9251  152.2979 LP  0  0  0  0  0  0  0  0  0  0  0  0  # atno 17342 bound_to 10162
  139.9002  144.6916  150.8674 LP  0  0  0  0  0  0  0  0  0  0  0  0  # atno 17343 bound_to 10162
  156.0162  130.3813  150.2104 LP  0  0  0  0  0  0  0  0  0  0  0  0  # atno 17370 bound_to 10713
  157.0292  131.0002  151.3317 LP  0  0  0  0  0  0  0  0  0  0  0  0  # atno 17371 bound_to 10713
  140.5587  134.0556  155.7392 LP  0  0  0  0  0  0  0  0  0  0  0  0  # atno 17394 bound_to 11000
  141.1242  133.9410  157.2668 LP  0  0  0  0  0  0  0  0  0  0  0  0  # atno 17395 bound_to 11000

$$$$
