AV-unprocessed.smi:36|AV-procd|sdf|295|dock9
  -GOLD-   2262016 93D 1   1.00000     0.00000
 Structure written by MMmdl.
 63 66  0  0  0  0  0  0  0  0  2 V2000
  144.8991  133.1003  161.6982 C   0  0  0  0  0  0  0  0  0  0  0  0
  146.2729  133.7402  161.4384 C   0  0  0  0  0  0  0  0  0  0  0  0
  146.7452  134.4814  162.7008 C   0  0  0  0  0  0  0  0  0  0  0  0
  147.2922  132.6546  161.0554 C   0  0  0  0  0  0  0  0  0  0  0  0
  146.1174  134.9968  160.0083 Si  0  0  0  0  0  0  0  0  0  0  0  0
  144.6129  136.1326  160.2638 C   0  0  0  0  0  0  0  0  0  0  0  0
  147.6899  136.0499  159.8427 C   0  0  0  0  0  0  0  0  0  0  0  0
  145.9228  134.1221  158.5712 O   0  0  0  0  0  0  0  0  0  0  0  0
  146.8538  133.1770  158.0848 C   0  0  0  0  0  0  0  0  0  0  0  0
  148.1956  133.8770  157.8306 C   0  0  2  0  0  0  0  0  0  0  0  0
  147.9916  135.0219  157.0083 O   0  0  0  0  0  0  0  0  0  0  0  0
  149.1278  135.2667  156.2335 C   0  0  1  0  0  0  0  0  0  0  0  0
  149.7138  136.5722  156.6614 N   0  0  0  0  0  0  0  0  0  0  0  0
  150.1468  136.9422  157.8842 C   0  0  0  0  0  0  0  0  0  0  0  0
  150.6274  138.1774  158.0161 N   0  0  0  0  0  0  0  0  0  0  0  0
  150.4872  138.6724  156.7274 C   0  0  0  0  0  0  0  0  0  0  0  0
  150.7904  139.9343  156.1451 C   0  0  0  0  0  0  0  0  0  0  0  0
  151.3276  140.9483  156.8410 N   0  5  0  0  0  0  0  0  0  0  0  0
  152.0745  140.6912  157.9447 C   0  0  0  0  0  0  0  0  0  0  0  0
  152.6454  139.6402  158.2436 O   0  0  0  0  0  0  0  0  0  0  0  0
  152.1186  141.8414  158.9155 C   0  0  0  0  0  0  0  0  0  0  0  0
  151.7023  143.1262  158.4975 C   0  0  0  0  0  0  0  0  0  0  0  0
  151.7136  144.2109  159.3959 C   0  0  0  0  0  0  0  0  0  0  0  0
  152.1330  144.0208  160.7256 C   0  0  0  0  0  0  0  0  0  0  0  0
  152.5365  142.7436  161.1575 C   0  0  0  0  0  0  0  0  0  0  0  0
  152.5249  141.6581  160.2599 C   0  0  0  0  0  0  0  0  0  0  0  0
  150.5295  140.0785  154.8204 N   0  0  0  0  0  0  0  0  0  0  0  0
  149.9979  139.0684  154.1215 C   0  0  0  0  0  0  0  0  0  0  0  0
  149.6581  137.8445  154.5380 N   0  0  0  0  0  0  0  0  0  0  0  0
  149.9230  137.6857  155.8674 C   0  0  0  0  0  0  0  0  0  0  0  0
  150.1144  134.1245  156.4943 C   0  0  0  0  0  0  0  0  0  0  0  0
  149.1927  133.0452  157.0242 C   0  0  1  0  0  0  0  0  0  0  0  0
  149.8990  132.1220  157.8281 O   0  0  0  0  0  0  0  0  0  0  0  0
  144.9438  132.3848  162.5200 H   0  0  0  0  0  0  0  0  0  0  0  0
  144.5351  132.5672  160.8197 H   0  0  0  0  0  0  0  0  0  0  0  0
  144.1545  133.8533  161.9578 H   0  0  0  0  0  0  0  0  0  0  0  0
  146.0502  135.2752  162.9771 H   0  0  0  0  0  0  0  0  0  0  0  0
  147.7231  134.9395  162.5522 H   0  0  0  0  0  0  0  0  0  0  0  0
  146.8269  133.8045  163.5518 H   0  0  0  0  0  0  0  0  0  0  0  0
  147.4088  131.9216  161.8543 H   0  0  0  0  0  0  0  0  0  0  0  0
  148.2750  133.0835  160.8579 H   0  0  0  0  0  0  0  0  0  0  0  0
  146.9817  132.1170  160.1592 H   0  0  0  0  0  0  0  0  0  0  0  0
  144.7199  136.7390  161.1630 H   0  0  0  0  0  0  0  0  0  0  0  0
  143.6897  135.5632  160.3671 H   0  0  0  0  0  0  0  0  0  0  0  0
  144.4792  136.8178  159.4271 H   0  0  0  0  0  0  0  0  0  0  0  0
  147.8828  136.6278  160.7461 H   0  0  0  0  0  0  0  0  0  0  0  0
  147.6118  136.7558  159.0162 H   0  0  0  0  0  0  0  0  0  0  0  0
  148.5680  135.4317  159.6579 H   0  0  0  0  0  0  0  0  0  0  0  0
  146.9724  132.3789  158.8185 H   0  0  0  0  0  0  0  0  0  0  0  0
  146.4727  132.7181  157.1724 H   0  0  0  0  0  0  0  0  0  0  0  0
  148.6555  134.1973  158.7666 H   0  0  0  0  0  0  0  0  0  0  0  0
  148.8538  135.3877  155.1850 H   0  0  0  0  0  0  0  0  0  0  0  0
  150.1062  136.2676  158.7266 H   0  0  0  0  0  0  0  0  0  0  0  0
  151.3763  143.2892  157.4805 H   0  0  0  0  0  0  0  0  0  0  0  0
  151.3988  145.1890  159.0636 H   0  0  0  0  0  0  0  0  0  0  0  0
  152.1413  144.8524  161.4144 H   0  0  0  0  0  0  0  0  0  0  0  0
  152.8521  142.5942  162.1793 H   0  0  0  0  0  0  0  0  0  0  0  0
  152.8284  140.6839  160.6152 H   0  0  0  0  0  0  0  0  0  0  0  0
  149.8191  139.2706  153.0759 H   0  0  0  0  0  0  0  0  0  0  0  0
  150.6457  133.8444  155.5844 H   0  0  0  0  0  0  0  0  0  0  0  0
  150.8402  134.4242  157.2529 H   0  0  0  0  0  0  0  0  0  0  0  0
  148.6954  132.5316  156.2001 H   0  0  0  0  0  0  0  0  0  0  0  0
  149.8728  131.2752  157.4091 H   0  0  0  0  0  0  0  0  0  0  0  0
  1  2  1  0  0  0  0
  1 34  1  0  0  0  0
  1 35  1  0  0  0  0
  1 36  1  0  0  0  0
  2  3  1  0  0  0  0
  2  4  1  0  0  0  0
  2  5  1  0  0  0  0
  3 37  1  0  0  0  0
  3 38  1  0  0  0  0
  3 39  1  0  0  0  0
  4 40  1  0  0  0  0
  4 41  1  0  0  0  0
  4 42  1  0  0  0  0
  5  6  1  0  0  0  0
  5  7  1  0  0  0  0
  5  8  1  0  0  0  0
  6 43  1  0  0  0  0
  6 44  1  0  0  0  0
  6 45  1  0  0  0  0
  7 46  1  0  0  0  0
  7 47  1  0  0  0  0
  7 48  1  0  0  0  0
  8  9  1  0  0  0  0
  9 10  1  0  0  0  0
  9 49  1  0  0  0  0
  9 50  1  0  0  0  0
 10 32  1  0  0  0  0
 10 11  1  0  0  0  0
 10 51  1  0  0  0  0
 11 12  1  0  0  0  0
 12 13  1  0  0  0  0
 12 31  1  0  0  0  0
 12 52  1  0  0  0  0
 13 30  1  0  0  0  0
 13 14  1  0  0  0  0
 14 15  2  0  0  0  0
 14 53  1  0  0  0  0
 15 16  1  0  0  0  0
 16 30  2  0  0  0  0
 16 17  1  0  0  0  0
 17 18  1  0  0  0  0
 17 27  2  0  0  0  0
 18 19  1  0  0  0  0
 19 20  2  0  0  0  0
 19 21  1  0  0  0  0
 21 26  1  0  0  0  0
 21 22  2  0  0  0  0
 22 23  1  0  0  0  0
 22 54  1  0  0  0  0
 23 24  2  0  0  0  0
 23 55  1  0  0  0  0
 24 25  1  0  0  0  0
 24 56  1  0  0  0  0
 25 26  2  0  0  0  0
 25 57  1  0  0  0  0
 26 58  1  0  0  0  0
 27 28  1  0  0  0  0
 28 29  2  0  0  0  0
 28 59  1  0  0  0  0
 29 30  1  0  0  0  0
 31 32  1  0  0  0  0
 31 60  1  0  0  0  0
 31 61  1  0  0  0  0
 32 33  1  0  0  0  0
 32 62  1  0  0  0  0
 33 63  1  0  0  0  0
M  CHG  1  18  -1
M  END
> <s_m_source_file>
AV-unprocessed.smi

> <i_m_source_file_index>
36

> <i_lp_mmshare_version>
43012

> <i_f3d_flags>
0

> <s_epik_input>
W0NIM11DKFtDSDNdKShbQ0gzXSlbU2ldKFtDSDNdKShbQ0gzXSlPW0NIMl1bQ0BASF0xT1tDQEhdKFtDSDJdW0NASF0xW09IXSluKFtjSF1uMiljKGMyMyluW2NIXW5jM1tOSF1DKD1PKWM0W2NIXVtjSF1bY0hdW2NIXVtjSF00

> <s_epik_cmdline>
J2VwaWtfcHl0aG9uJywgJy1waCcsICc3LjAnLCAnLXRuJywgJzgnLCAnLW1hJywgJzIwMCcsICctbWV0YWxfYmluZGluZycsICctaW1hZScsICc8aW5maWxlLm1hZT4nLCAnLW9tYWUnLCAnPG91dGZpbGUubWFlPic=

> <r_lp_tautomer_probability>
1

> <r_epik_Ionization_Penalty>
4.75685

> <r_epik_Ionization_Penalty_Charging>
3.55822

> <r_epik_Ionization_Penalty_Neutral>
1.19863

> <r_epik_State_Penalty>
3.564

> <r_epik_Charging_Adjusted_Penalty>
7.12222

> <i_epik_Tot_Q>
-1

> <i_epik_Tot_abs_Q>
1

> <r_epik_Metal_State_Penalty>
0.523258

> <b_epik_Metal_Only>
1

> <s_epik_Chemistry_Notes>
This compound contains an acetal/aminal-like group ( X-CH(R)-Y where X, Y are N, S, or O) that may be acid/base labile, releasing an aldehyde.

> <s_lp_Force_Field>
OPLS_2005

> <r_lp_Energy>
36.9476

> <b_lp_Chiralities_Consistent>
1

> <s_lp_Variant>
AV-unprocessed.smi:36-17

> <Gold.Version>
5.8.1

> <Gold.Id.Protein>
6NUR|6NUR_protein|mol2

> <Gold.PLP.Fitness>
60.0505

> <Gold.PLP.PLP>
-49.1564

> <Gold.PLP.part.hbond>
-3.0000

> <Gold.PLP.part.metal>
0.0000

> <Gold.PLP.part.buried>
-6.0112

> <Gold.PLP.part.nonpolar>
-40.1848

> <Gold.PLP.part.repulsive>
0.2959

> <Gold.PLP.ligand.clash>
0.0000

> <Gold.PLP.ligand.torsion>
0.7152

> <Gold.PLP.Chemscore.Hbond>
3.0000

> <Gold.PLP.Chemscore.CHOScore>
1.0000

> <Gold.PLP.Chemscore.Metal>
0.0000

> <Gold.Chemscore.Hbonds>
donor molecule, donor type, donor heavy atom, donor atom, acceptor molecule, acceptor atom, score
      P1  H  6896  6909       L1    33  0.12
      P1  H  7989  7998       L1    27  1.00
      P1  H  7997  8009       L1    20  0.19
      L1  C    28    59       P1  7957  1.00

> <Gold.PLP.Chemscore.Internal.Correction>
0.3245

> <Gold.Rescore>
     Score         DG    S(hbond)    S(metal)    S(lipo)     H(rot)  DE(clash)    DE(int)     intcor
     13.98     -19.40       2.06        0.00     118.60       2.67       0.56       4.85       ----

> <Gold.Chemscore.Fitness>
13.9849

> <Gold.Chemscore.DG>
-19.3981

> <Gold.Chemscore.ZeroCoef>
-5.4800

> <Gold.Chemscore.Hbond>
2.0592

> <Gold.Chemscore.Metal>
0.0000

> <Gold.Chemscore.Lipo>
118.5999

> <Gold.Chemscore.Internal_Hbond>
0.0000

> <Gold.Chemscore.DEClash>
0.5642

> <Gold.Chemscore.DEInternal>
4.8489

> <Gold.Chemscore.Rot>
2.6702

> <Gold.Chemscore.Internal.Correction>
   9.000000E+99

> <Gold.Chemscore.Hbonds>
donor molecule, donor type, donor heavy atom, donor atom, acceptor molecule, acceptor atom, score
      P1  H  6896  6909       L1    33  0.10
      P1  H  7989  7998       L1    27  0.26
      P1  H  7997  8009       L1    20  0.03

> <Gold.Chemscore.Hbond.Weighted>
-6.8776

> <Gold.Chemscore.Metal.Weighted>
-0.0000

> <Gold.Chemscore.Lipo.Weighted>
-13.8762

> <Gold.Chemscore.Internal_Hbond.Weighted>
0.0000

> <Gold.Chemscore.DEClash.Weighted>
0.5642

> <Gold.Chemscore.DEInternal.Weighted>
4.8489

> <Gold.Chemscore.Rot.Weighted>
6.8358

> <Gold.Chemscore.Internal.Correction.Weighted>
   9.000000E+99

> <Gold.Protein.RotatedTorsions>
[ 6907 6896 6895 6894 ] final  -45.82 input  -60.11 | X-H torsion
[ 7974 7965 7964 7962 ] final -176.32 input  175.53 | X-H torsion
[ 8008 7997 7996 7995 ] final  150.48 input   59.86 | X-H torsion
[ 10167 10162 10161 10158 ] final  -61.67 input  -65.29 | X-H torsion
[ 10718 10713 10712 10709 ] final -130.11 input   66.30 | X-H torsion
[ 10763 10752 10751 10750 ] final -164.15 input  -60.55 | X-H torsion
[ 11005 11000 10999 10996 ] final  132.63 input  -57.11 | X-H torsion

> <Gold.Protein.ActiveResidues>
 VAL166  LYS551  ARG553  GLY616  TRP617  ASP618  TYR619  PRO620  LYS621  CYS622 
 ASP623  PHE694  ASN695  SER759  ASP760  ASP761  ALA762  ILE779  LEU786  VAL792 
 PHE793  MET794  SER795  GLU796  ALA797  LYS798  CYS799  TRP800  GLU811  SER814 

> <Gold.Protein.RotatedAtoms>
  150.9178  134.8596  159.7468 H   0  0  0  0  0  0  0  0  0  0  0  0  # atno 6907 bound_to 6896
  152.4977  134.4263  159.9507 H   0  0  0  0  0  0  0  0  0  0  0  0  # atno 6908 bound_to 6896
  151.4300  133.3633  159.2802 H   0  0  0  0  0  0  0  0  0  0  0  0  # atno 6909 bound_to 6896
  144.7127  140.1188  143.6406 H   0  0  0  0  0  0  0  0  0  0  0  0  # atno 7974 bound_to 7965
  156.2714  140.2073  156.6024 H   0  0  0  0  0  0  0  0  0  0  0  0  # atno 8008 bound_to 7997
  154.6896  140.0531  157.0373 H   0  0  0  0  0  0  0  0  0  0  0  0  # atno 8009 bound_to 7997
  155.0885  140.3194  155.4583 H   0  0  0  0  0  0  0  0  0  0  0  0  # atno 8010 bound_to 7997
  140.5990  143.2357  151.5971 H   0  0  0  0  0  0  0  0  0  0  0  0  # atno 10167 bound_to 10162
  156.2112  130.6919  151.0652 H   0  0  0  0  0  0  0  0  0  0  0  0  # atno 10718 bound_to 10713
  154.7056  135.2996  154.9275 H   0  0  0  0  0  0  0  0  0  0  0  0  # atno 10763 bound_to 10752
  154.0194  135.6684  153.4775 H   0  0  0  0  0  0  0  0  0  0  0  0  # atno 10764 bound_to 10752
  153.0714  135.5058  154.8225 H   0  0  0  0  0  0  0  0  0  0  0  0  # atno 10765 bound_to 10752
  139.9802  134.9550  156.9610 H   0  0  0  0  0  0  0  0  0  0  0  0  # atno 11005 bound_to 11000
  145.9389  139.2656  143.1280 LP  0  0  0  0  0  0  0  0  0  0  0  0  # atno 17320 bound_to 7965
  145.9444  140.8955  143.0291 LP  0  0  0  0  0  0  0  0  0  0  0  0  # atno 17321 bound_to 7965
  139.5278  144.3006  152.1076 LP  0  0  0  0  0  0  0  0  0  0  0  0  # atno 17342 bound_to 10162
  140.2184  144.4491  150.6353 LP  0  0  0  0  0  0  0  0  0  0  0  0  # atno 17343 bound_to 10162
  157.7039  131.0764  150.6730 LP  0  0  0  0  0  0  0  0  0  0  0  0  # atno 17370 bound_to 10713
  156.6790  130.4561  149.5634 LP  0  0  0  0  0  0  0  0  0  0  0  0  # atno 17371 bound_to 10713
  140.5112  134.1000  155.7271 LP  0  0  0  0  0  0  0  0  0  0  0  0  # atno 17394 bound_to 11000
  141.1475  133.9029  157.2180 LP  0  0  0  0  0  0  0  0  0  0  0  0  # atno 17395 bound_to 11000

$$$$
