AV-unprocessed.smi:1803|AV-procd|sdf|7284|dock6
  -GOLD-   22720 8543D 1   1.00000     0.00000
 Structure written by MMmdl.
 36 38  0  0  0  0  0  0  0  0  2 V2000
  146.1996  138.0073  154.5599 O   0  0  0  0  0  0  0  0  0  0  0  0
  147.0149  137.4688  153.8135 C   0  0  0  0  0  0  0  0  0  0  0  0
  148.2243  138.0255  153.5867 N   0  0  0  0  0  0  0  0  0  0  0  0
  148.8241  139.2231  154.0758 C   0  0  0  0  0  0  0  0  0  0  0  0
  150.0701  139.3044  154.5716 N   0  0  0  0  0  0  0  0  0  0  0  0
  150.3866  140.5914  154.9848 N   0  0  0  0  0  0  0  0  0  0  0  0
  149.3666  141.4319  154.7920 C   0  0  0  0  0  0  0  0  0  0  0  0
  147.9204  140.7316  154.0861 S   0  0  0  0  0  0  0  0  0  0  0  0
  146.7623  136.3111  153.1811 N   0  0  0  0  0  0  0  0  0  0  0  0
  145.5325  135.5330  153.2882 C   0  0  1  0  0  0  0  0  0  0  0  0
  144.2703  136.3730  153.0226 C   0  0  0  0  0  0  0  0  0  0  0  0
  143.3207  135.4479  152.2360 C   0  0  0  0  0  0  0  0  0  0  0  0
  144.0030  134.1411  152.1834 N   0  3  1  0  0  0  0  0  0  0  0  0
  143.6328  133.2313  151.0773 C   0  0  0  0  0  0  0  0  0  0  0  0
  144.3848  131.8959  151.2446 C   0  0  0  0  0  0  0  0  0  0  0  0
  145.9059  132.1096  151.3836 C   0  0  0  0  0  0  0  0  0  0  0  0
  146.2255  133.1380  152.4860 C   0  0  0  0  0  0  0  0  0  0  0  0
  145.4433  134.4363  152.2239 C   0  0  2  0  0  0  0  0  0  0  0  0
  148.7981  137.5158  152.9305 H   0  0  0  0  0  0  0  0  0  0  0  0
  149.4660  142.4711  155.0687 H   0  0  0  0  0  0  0  0  0  0  0  0
  147.4862  135.9388  152.5825 H   0  0  0  0  0  0  0  0  0  0  0  0
  145.4449  135.0867  154.2812 H   0  0  0  0  0  0  0  0  0  0  0  0
  143.8234  136.7141  153.9571 H   0  0  0  0  0  0  0  0  0  0  0  0
  144.4972  137.2585  152.4268 H   0  0  0  0  0  0  0  0  0  0  0  0
  142.3426  135.3551  152.7090 H   0  0  0  0  0  0  0  0  0  0  0  0
  143.1739  135.8348  151.2263 H   0  0  0  0  0  0  0  0  0  0  0  0
  142.5556  133.0611  151.0876 H   0  0  0  0  0  0  0  0  0  0  0  0
  143.8783  133.6917  150.1189 H   0  0  0  0  0  0  0  0  0  0  0  0
  144.0124  131.3826  152.1323 H   0  0  0  0  0  0  0  0  0  0  0  0
  144.1745  131.2395  150.3997 H   0  0  0  0  0  0  0  0  0  0  0  0
  146.4003  131.1619  151.5991 H   0  0  0  0  0  0  0  0  0  0  0  0
  146.3108  132.4599  150.4332 H   0  0  0  0  0  0  0  0  0  0  0  0
  145.9622  132.7306  153.4631 H   0  0  0  0  0  0  0  0  0  0  0  0
  147.2972  133.3369  152.5071 H   0  0  0  0  0  0  0  0  0  0  0  0
  145.7402  134.8503  151.2571 H   0  0  0  0  0  0  0  0  0  0  0  0
  143.7850  133.6680  153.0487 H   0  0  0  0  0  0  0  0  0  0  0  0
  1  2  2  0  0  0  0
  2  3  1  0  0  0  0
  2  9  1  0  0  0  0
  3  4  1  0  0  0  0
  3 19  1  0  0  0  0
  4  8  1  0  0  0  0
  4  5  2  0  0  0  0
  5  6  1  0  0  0  0
  6  7  2  0  0  0  0
  7  8  1  0  0  0  0
  7 20  1  0  0  0  0
  9 10  1  0  0  0  0
  9 21  1  0  0  0  0
 10 18  1  0  0  0  0
 10 11  1  0  0  0  0
 10 22  1  0  0  0  0
 11 12  1  0  0  0  0
 11 23  1  0  0  0  0
 11 24  1  0  0  0  0
 12 13  1  0  0  0  0
 12 25  1  0  0  0  0
 12 26  1  0  0  0  0
 13 18  1  0  0  0  0
 13 14  1  0  0  0  0
 13 36  1  0  0  0  0
 14 15  1  0  0  0  0
 14 27  1  0  0  0  0
 14 28  1  0  0  0  0
 15 16  1  0  0  0  0
 15 29  1  0  0  0  0
 15 30  1  0  0  0  0
 16 17  1  0  0  0  0
 16 31  1  0  0  0  0
 16 32  1  0  0  0  0
 17 18  1  0  0  0  0
 17 33  1  0  0  0  0
 17 34  1  0  0  0  0
 18 35  1  0  0  0  0
M  CHG  1  13   1
M  END
> <s_m_source_file>
AV-unprocessed.smi

> <i_m_source_file_index>
1803

> <i_lp_mmshare_version>
43012

> <i_f3d_flags>
0

> <s_epik_input>
czFbY0hdbm5jMVtOSF1DKD1PKVtOSF1bQ0BIXShbQ0gyXVtDSDJdMilbQ0BASF0oTjIzKVtDSDJdW0NIMl1bQ0gyXVtDSDJdMw==

> <s_epik_cmdline>
J2VwaWtfcHl0aG9uJywgJy1waCcsICc3LjAnLCAnLXRuJywgJzgnLCAnLW1hJywgJzIwMCcsICctbWV0YWxfYmluZGluZycsICctaW1hZScsICc8aW5maWxlLm1hZT4nLCAnLW9tYWUnLCAnPG91dGZpbGUubWFlPic=

> <r_lp_tautomer_probability>
1

> <r_epik_Ionization_Penalty>
0.00213286

> <r_epik_Ionization_Penalty_Charging>
0.00107044

> <r_epik_Ionization_Penalty_Neutral>
0.00106242

> <r_epik_State_Penalty>
-0

> <r_epik_Charging_Adjusted_Penalty>
0.00107044

> <i_epik_Tot_Q>
1

> <i_epik_Tot_abs_Q>
1

> <r_epik_Metal_State_Penalty>
0.292783

> <b_epik_Metal_Only>
0

> <s_lp_Force_Field>
OPLS_2005

> <r_lp_Energy>
35.8309

> <b_lp_Chiralities_Consistent>
1

> <s_lp_Variant>
AV-unprocessed.smi:1803-6

> <Gold.Version>
5.8.1

> <Gold.Id.Protein>
6NUR|6NUR_protein|mol2

> <Gold.PLP.Fitness>
35.2037

> <Gold.PLP.PLP>
-25.3391

> <Gold.PLP.part.hbond>
-3.0000

> <Gold.PLP.part.metal>
0.0000

> <Gold.PLP.part.buried>
-3.7412

> <Gold.PLP.part.nonpolar>
-19.4396

> <Gold.PLP.part.repulsive>
0.3219

> <Gold.PLP.ligand.clash>
0.0000

> <Gold.PLP.ligand.torsion>
0.4964

> <Gold.PLP.Chemscore.Hbond>
2.6160

> <Gold.PLP.Chemscore.CHOScore>
1.0000

> <Gold.PLP.Chemscore.Metal>
0.0000

> <Gold.Chemscore.Hbonds>
donor molecule, donor type, donor heavy atom, donor atom, acceptor molecule, acceptor atom, score
      L1  H     3    19       P1  7948  1.00
      L1  H     9    21       P1  7948  0.93
      P1  H  7989  7998       L1     6  0.61
      L1  C     7    20       P1  8028  1.00

> <Gold.PLP.Chemscore.Internal.Correction>
0.0095

> <Gold.Rescore>
     Score         DG    S(hbond)    S(metal)    S(lipo)     H(rot)  DE(clash)    DE(int)     intcor
     14.47     -16.35       1.93        0.00      59.69       1.00       0.01       1.87       ----

> <Gold.Chemscore.Fitness>
14.4668

> <Gold.Chemscore.DG>
-16.3533

> <Gold.Chemscore.ZeroCoef>
-5.4800

> <Gold.Chemscore.Hbond>
1.9309

> <Gold.Chemscore.Metal>
0.0000

> <Gold.Chemscore.Lipo>
59.6945

> <Gold.Chemscore.Internal_Hbond>
0.0000

> <Gold.Chemscore.DEClash>
0.0127

> <Gold.Chemscore.DEInternal>
1.8738

> <Gold.Chemscore.Rot>
1.0000

> <Gold.Chemscore.Internal.Correction>
   9.000000E+99

> <Gold.Chemscore.Hbonds>
donor molecule, donor type, donor heavy atom, donor atom, acceptor molecule, acceptor atom, score
      L1  H     3    19       P1  7948  0.94
      L1  H     9    21       P1  7948  0.91
      P1  H  7989  7998       L1     6  0.03

> <Gold.Chemscore.Hbond.Weighted>
-6.4491

> <Gold.Chemscore.Metal.Weighted>
-0.0000

> <Gold.Chemscore.Lipo.Weighted>
-6.9843

> <Gold.Chemscore.Internal_Hbond.Weighted>
0.0000

> <Gold.Chemscore.DEClash.Weighted>
0.0127

> <Gold.Chemscore.DEInternal.Weighted>
1.8738

> <Gold.Chemscore.Rot.Weighted>
2.5600

> <Gold.Chemscore.Internal.Correction.Weighted>
   9.000000E+99

> <Gold.Protein.RotatedTorsions>
[ 6907 6896 6895 6894 ] final  -91.91 input  -60.11 | X-H torsion
[ 7974 7965 7964 7962 ] final  -96.89 input  175.53 | X-H torsion
[ 8008 7997 7996 7995 ] final   58.64 input   59.86 | X-H torsion
[ 10167 10162 10161 10158 ] final   62.58 input  -65.29 | X-H torsion
[ 10718 10713 10712 10709 ] final  -12.68 input   66.30 | X-H torsion
[ 10763 10752 10751 10750 ] final -101.59 input  -60.55 | X-H torsion
[ 11005 11000 10999 10996 ] final  103.87 input  -57.11 | X-H torsion

> <Gold.Protein.ActiveResidues>
 VAL166  LYS551  ARG553  GLY616  TRP617  ASP618  TYR619  PRO620  LYS621  CYS622 
 ASP623  PHE694  ASN695  SER759  ASP760  ASP761  ALA762  ILE779  LEU786  VAL792 
 PHE793  MET794  SER795  GLU796  ALA797  LYS798  CYS799  TRP800  GLU811  SER814 

> <Gold.Protein.RotatedAtoms>
  150.6899  134.2203  159.4393 H   0  0  0  0  0  0  0  0  0  0  0  0  # atno 6907 bound_to 6896
  152.0160  134.9847  160.0578 H   0  0  0  0  0  0  0  0  0  0  0  0  # atno 6908 bound_to 6896
  152.1443  133.4448  159.4819 H   0  0  0  0  0  0  0  0  0  0  0  0  # atno 6909 bound_to 6896
  145.3409  140.9459  143.2608 H   0  0  0  0  0  0  0  0  0  0  0  0  # atno 7974 bound_to 7965
  155.5532  140.3487  155.4473 H   0  0  0  0  0  0  0  0  0  0  0  0  # atno 8008 bound_to 7997
  156.0568  140.1330  157.0013 H   0  0  0  0  0  0  0  0  0  0  0  0  # atno 8009 bound_to 7997
  154.4460  140.0993  156.6442 H   0  0  0  0  0  0  0  0  0  0  0  0  # atno 8010 bound_to 7997
  140.1424  144.4541  150.6804 H   0  0  0  0  0  0  0  0  0  0  0  0  # atno 10167 bound_to 10162
  156.6411  130.4928  149.6094 H   0  0  0  0  0  0  0  0  0  0  0  0  # atno 10718 bound_to 10713
  154.7669  135.4892  153.9572 H   0  0  0  0  0  0  0  0  0  0  0  0  # atno 10763 bound_to 10752
  153.1319  135.6754  153.9172 H   0  0  0  0  0  0  0  0  0  0  0  0  # atno 10764 bound_to 10752
  153.8873  135.3125  155.3425 H   0  0  0  0  0  0  0  0  0  0  0  0  # atno 10765 bound_to 10752
  139.8787  134.9279  156.5275 H   0  0  0  0  0  0  0  0  0  0  0  0  # atno 11005 bound_to 11000
  144.8791  139.4929  143.6731 LP  0  0  0  0  0  0  0  0  0  0  0  0  # atno 17320 bound_to 7965
  146.3008  139.7419  142.9093 LP  0  0  0  0  0  0  0  0  0  0  0  0  # atno 17321 bound_to 7965
  140.6752  143.2302  151.5524 LP  0  0  0  0  0  0  0  0  0  0  0  0  # atno 17342 bound_to 10162
  139.5465  144.2506  152.1452 LP  0  0  0  0  0  0  0  0  0  0  0  0  # atno 17343 bound_to 10162
  156.2158  130.6707  151.1317 LP  0  0  0  0  0  0  0  0  0  0  0  0  # atno 17370 bound_to 10713
  157.7170  131.0704  150.6286 LP  0  0  0  0  0  0  0  0  0  0  0  0  # atno 17371 bound_to 10713
  140.8405  133.8209  155.9070 LP  0  0  0  0  0  0  0  0  0  0  0  0  # atno 17394 bound_to 11000
  140.9242  134.2104  157.4907 LP  0  0  0  0  0  0  0  0  0  0  0  0  # atno 17395 bound_to 11000

$$$$
