AV-unprocessed.smi:193|AV-procd|sdf|1518|dock3
  -GOLD-   2262019353D 1   1.00000     0.00000
 Structure written by MMmdl.
 61 65  0  0  0  0  0  0  0  0  1 V2000
  150.1684  141.2203  155.2662 C   0  0  0  0  0  0  0  0  0  0  0  0
  151.0125  140.7226  156.4500 C   0  0  2  0  0  0  0  0  0  0  0  0
  150.5284  139.3181  156.8712 C   0  0  0  0  0  0  0  0  0  0  0  0
  151.4975  138.5570  157.6632 N   0  0  0  0  0  0  0  0  0  0  0  0
  151.6703  137.2450  157.3496 C   0  0  0  0  0  0  0  0  0  0  0  0
  152.6610  136.5417  157.9608 N   0  0  0  0  0  0  0  0  0  0  0  0
  152.8647  135.2559  157.6619 C   0  0  0  0  0  0  0  0  0  0  0  0
  152.2023  134.4857  156.7978 N   0  0  0  0  0  0  0  0  0  0  0  0
  151.1985  135.1772  156.1878 C   0  0  0  0  0  0  0  0  0  0  0  0
  150.8669  136.5462  156.4006 C   0  0  0  0  0  0  0  0  0  0  0  0
  149.7809  136.8936  155.6042 N   0  0  0  0  0  0  0  0  0  0  0  0
  149.4964  135.8001  154.9524 C   0  0  0  0  0  0  0  0  0  0  0  0
  150.2897  134.7156  155.2507 N   0  0  0  0  0  0  0  0  0  0  0  0
  150.1889  133.3805  154.6791 C   0  0  0  0  0  0  0  0  0  0  0  0
  149.7677  132.2842  155.6959 C   0  0  0  0  0  0  0  0  0  0  0  0
  148.5648  132.7089  156.3098 O   0  0  0  0  0  0  0  0  0  0  0  0
  149.4751  130.9401  154.9998 C   0  0  0  0  0  0  0  0  0  0  0  0
  150.7711  130.2278  154.5720 C   0  0  0  0  0  0  0  0  0  0  0  0
  151.6247  130.0490  155.6972 O   0  0  0  0  0  0  0  0  0  0  0  0
  152.0298  131.2774  156.2911 C   0  0  0  0  0  0  0  0  0  0  0  0
  150.7983  132.0353  156.8180 C   0  0  0  0  0  0  0  0  0  0  0  0
  152.5159  139.2299  158.4695 C   0  0  0  0  0  0  0  0  0  0  0  0
  151.9471  140.3802  159.3127 C   0  0  0  0  0  0  0  0  0  0  0  0
  152.0110  141.6386  158.5752 N   0  0  0  0  0  0  0  0  0  0  0  0
  151.8670  142.7344  159.5222 C   0  0  1  0  0  0  0  0  0  0  0  0
  153.1324  143.3563  160.0683 C   0  0  0  0  0  0  0  0  0  0  0  0
  152.2920  144.1148  159.0678 C   0  0  2  0  0  0  0  0  0  0  0  0
  151.5105  145.3397  159.4907 C   0  0  0  0  0  0  0  0  0  0  0  0
  150.9186  141.7405  157.6085 C   0  0  0  0  0  0  0  0  0  0  0  0
  149.1169  141.3125  155.5402 H   0  0  0  0  0  0  0  0  0  0  0  0
  150.2334  140.5364  154.4194 H   0  0  0  0  0  0  0  0  0  0  0  0
  150.5096  142.1965  154.9203 H   0  0  0  0  0  0  0  0  0  0  0  0
  152.0424  140.6648  156.0937 H   0  0  0  0  0  0  0  0  0  0  0  0
  149.5914  139.3888  157.4245 H   0  0  0  0  0  0  0  0  0  0  0  0
  150.3047  138.7580  155.9624 H   0  0  0  0  0  0  0  0  0  0  0  0
  153.6754  134.7759  158.1902 H   0  0  0  0  0  0  0  0  0  0  0  0
  148.6889  135.7522  154.2361 H   0  0  0  0  0  0  0  0  0  0  0  0
  149.4719  133.4220  153.8578 H   0  0  0  0  0  0  0  0  0  0  0  0
  151.1478  133.1378  154.2217 H   0  0  0  0  0  0  0  0  0  0  0  0
  148.2251  131.9946  156.8266 H   0  0  0  0  0  0  0  0  0  0  0  0
  148.9357  130.2829  155.6839 H   0  0  0  0  0  0  0  0  0  0  0  0
  148.8216  131.0857  154.1387 H   0  0  0  0  0  0  0  0  0  0  0  0
  150.5354  129.2481  154.1561 H   0  0  0  0  0  0  0  0  0  0  0  0
  151.2913  130.7821  153.7901 H   0  0  0  0  0  0  0  0  0  0  0  0
  152.7122  131.0602  157.1130 H   0  0  0  0  0  0  0  0  0  0  0  0
  152.5877  131.8739  155.5693 H   0  0  0  0  0  0  0  0  0  0  0  0
  151.1002  132.9665  157.2971 H   0  0  0  0  0  0  0  0  0  0  0  0
  150.3413  131.4314  157.6034 H   0  0  0  0  0  0  0  0  0  0  0  0
  152.9401  138.5040  159.1646 H   0  0  0  0  0  0  0  0  0  0  0  0
  153.3395  139.5675  157.8389 H   0  0  0  0  0  0  0  0  0  0  0  0
  150.9424  140.1683  159.6828 H   0  0  0  0  0  0  0  0  0  0  0  0
  152.5854  140.4757  160.1923 H   0  0  0  0  0  0  0  0  0  0  0  0
  151.0289  142.7097  160.2172 H   0  0  0  0  0  0  0  0  0  0  0  0
  153.1173  143.6918  161.1033 H   0  0  0  0  0  0  0  0  0  0  0  0
  154.0855  142.9593  159.7233 H   0  0  0  0  0  0  0  0  0  0  0  0
  152.7034  144.1875  158.0625 H   0  0  0  0  0  0  0  0  0  0  0  0
  151.1211  145.2212  160.5025 H   0  0  0  0  0  0  0  0  0  0  0  0
  150.6721  145.5002  158.8126 H   0  0  0  0  0  0  0  0  0  0  0  0
  152.1525  146.2203  159.4661 H   0  0  0  0  0  0  0  0  0  0  0  0
  150.9577  142.7448  157.1839 H   0  0  0  0  0  0  0  0  0  0  0  0
  149.9532  141.6607  158.1111 H   0  0  0  0  0  0  0  0  0  0  0  0
  1  2  1  0  0  0  0
  1 30  1  0  0  0  0
  1 31  1  0  0  0  0
  1 32  1  0  0  0  0
  2 29  1  0  0  0  0
  2  3  1  0  0  0  0
  2 33  1  0  0  0  0
  3  4  1  0  0  0  0
  3 34  1  0  0  0  0
  3 35  1  0  0  0  0
  4  5  1  0  0  0  0
  4 22  1  0  0  0  0
  5 10  1  0  0  0  0
  5  6  2  0  0  0  0
  6  7  1  0  0  0  0
  7  8  2  0  0  0  0
  7 36  1  0  0  0  0
  8  9  1  0  0  0  0
  9 13  1  0  0  0  0
  9 10  2  0  0  0  0
 10 11  1  0  0  0  0
 11 12  2  0  0  0  0
 12 13  1  0  0  0  0
 12 37  1  0  0  0  0
 13 14  1  0  0  0  0
 14 15  1  0  0  0  0
 14 38  1  0  0  0  0
 14 39  1  0  0  0  0
 15 21  1  0  0  0  0
 15 16  1  0  0  0  0
 15 17  1  0  0  0  0
 16 40  1  0  0  0  0
 17 18  1  0  0  0  0
 17 41  1  0  0  0  0
 17 42  1  0  0  0  0
 18 19  1  0  0  0  0
 18 43  1  0  0  0  0
 18 44  1  0  0  0  0
 19 20  1  0  0  0  0
 20 21  1  0  0  0  0
 20 45  1  0  0  0  0
 20 46  1  0  0  0  0
 21 47  1  0  0  0  0
 21 48  1  0  0  0  0
 22 23  1  0  0  0  0
 22 49  1  0  0  0  0
 22 50  1  0  0  0  0
 23 24  1  0  0  0  0
 23 51  1  0  0  0  0
 23 52  1  0  0  0  0
 24 25  1  0  0  0  0
 24 29  1  0  0  0  0
 25 27  1  0  0  0  0
 25 26  1  0  0  0  0
 25 53  1  0  0  0  0
 26 27  1  0  0  0  0
 26 54  1  0  0  0  0
 26 55  1  0  0  0  0
 27 28  1  0  0  0  0
 27 56  1  0  0  0  0
 28 57  1  0  0  0  0
 28 58  1  0  0  0  0
 28 59  1  0  0  0  0
 29 60  1  0  0  0  0
 29 61  1  0  0  0  0
M  END
> <s_m_source_file>
AV-unprocessed.smi

> <i_m_source_file_index>
193

> <i_lp_mmshare_version>
43012

> <i_f3d_flags>
0

> <s_epik_input>
W0NIM11bQ0BASF0xW0NIMl1bQ0BIXTFOKFtDSDJdMilbQ0gyXVtDSDJdTihbQ0gyXVtDQEhdMltDSDNdKWMobltjSF1uMyljKGMzNCluW2NIXW40W0NIMl1DNShbT0hdKVtDSDJdW0NIMl1PW0NIMl1bQ0gyXTU=

> <s_epik_cmdline>
J2VwaWtfcHl0aG9uJywgJy1waCcsICc3LjAnLCAnLXRuJywgJzgnLCAnLW1hJywgJzIwMCcsICctbWV0YWxfYmluZGluZycsICctaW1hZScsICc8aW5maWxlLm1hZT4nLCAnLW9tYWUnLCAnPG91dGZpbGUubWFlPic=

> <r_lp_tautomer_probability>
1

> <r_epik_Ionization_Penalty>
1.45227

> <r_epik_Ionization_Penalty_Charging>
0

> <r_epik_Ionization_Penalty_Neutral>
1.45227

> <r_epik_State_Penalty>
2.02377

> <r_epik_Charging_Adjusted_Penalty>
2.02377

> <i_epik_Tot_Q>
0

> <i_epik_Tot_abs_Q>
0

> <r_epik_Metal_State_Penalty>
2.01937

> <b_epik_Metal_Only>
0

> <s_lp_Force_Field>
OPLS_2005

> <r_lp_Energy>
49.0818

> <b_lp_Chiralities_Consistent>
1

> <s_lp_Variant>
AV-unprocessed.smi:193-23

> <Gold.Version>
5.8.1

> <Gold.Id.Protein>
6NUR|6NUR_protein|mol2

> <Gold.PLP.Fitness>
44.8764

> <Gold.PLP.PLP>
-42.5336

> <Gold.PLP.part.hbond>
-1.5616

> <Gold.PLP.part.metal>
0.0000

> <Gold.PLP.part.buried>
-1.1607

> <Gold.PLP.part.nonpolar>
-39.1650

> <Gold.PLP.part.repulsive>
0.0977

> <Gold.PLP.ligand.clash>
0.0000

> <Gold.PLP.ligand.torsion>
0.7120

> <Gold.PLP.Chemscore.Hbond>
0.0465

> <Gold.PLP.Chemscore.CHOScore>
0.7893

> <Gold.PLP.Chemscore.Metal>
0.0000

> <Gold.Chemscore.Hbonds>
donor molecule, donor type, donor heavy atom, donor atom, acceptor molecule, acceptor atom, score
      P1  H 10752 10764       L1     8  0.03
      L1  C    12    37       P1  7948  0.86

> <Gold.PLP.Chemscore.Internal.Correction>
1.2593

> <Gold.Rescore>
     Score         DG    S(hbond)    S(metal)    S(lipo)     H(rot)  DE(clash)    DE(int)     intcor
     11.83     -14.30       0.00        0.00     117.07       1.91       0.21       2.25       ----

> <Gold.Chemscore.Fitness>
11.8332

> <Gold.Chemscore.DG>
-14.2958

> <Gold.Chemscore.ZeroCoef>
-5.4800

> <Gold.Chemscore.Hbond>
0.0000

> <Gold.Chemscore.Metal>
0.0000

> <Gold.Chemscore.Lipo>
117.0699

> <Gold.Chemscore.Internal_Hbond>
0.0000

> <Gold.Chemscore.DEClash>
0.2129

> <Gold.Chemscore.DEInternal>
2.2497

> <Gold.Chemscore.Rot>
1.9068

> <Gold.Chemscore.Internal.Correction>
   9.000000E+99

> <Gold.Chemscore.Hbond.Weighted>
-0.0000

> <Gold.Chemscore.Metal.Weighted>
-0.0000

> <Gold.Chemscore.Lipo.Weighted>
-13.6972

> <Gold.Chemscore.Internal_Hbond.Weighted>
0.0000

> <Gold.Chemscore.DEClash.Weighted>
0.2129

> <Gold.Chemscore.DEInternal.Weighted>
2.2497

> <Gold.Chemscore.Rot.Weighted>
4.8814

> <Gold.Chemscore.Internal.Correction.Weighted>
   9.000000E+99

> <Gold.Protein.RotatedTorsions>
[ 6907 6896 6895 6894 ] final   37.64 input  -60.11 | X-H torsion
[ 7974 7965 7964 7962 ] final  -94.88 input  175.53 | X-H torsion
[ 8008 7997 7996 7995 ] final    4.12 input   59.86 | X-H torsion
[ 10167 10162 10161 10158 ] final    7.62 input  -65.29 | X-H torsion
[ 10718 10713 10712 10709 ] final -105.94 input   66.30 | X-H torsion
[ 10763 10752 10751 10750 ] final  -10.13 input  -60.55 | X-H torsion
[ 11005 11000 10999 10996 ] final -132.82 input  -57.11 | X-H torsion

> <Gold.Protein.ActiveResidues>
 VAL166  LYS551  ARG553  GLY616  TRP617  ASP618  TYR619  PRO620  LYS621  CYS622 
 ASP623  PHE694  ASN695  SER759  ASP760  ASP761  ALA762  ILE779  LEU786  VAL792 
 PHE793  MET794  SER795  GLU796  ALA797  LYS798  CYS799  TRP800  GLU811  SER814 

> <Gold.Protein.RotatedAtoms>
  152.1459  134.9026  160.0550 H   0  0  0  0  0  0  0  0  0  0  0  0  # atno 6907 bound_to 6896
  152.0076  133.3844  159.4215 H   0  0  0  0  0  0  0  0  0  0  0  0  # atno 6908 bound_to 6896
  150.6870  134.3687  159.5026 H   0  0  0  0  0  0  0  0  0  0  0  0  # atno 6909 bound_to 6896
  145.3674  140.9500  143.2466 H   0  0  0  0  0  0  0  0  0  0  0  0  # atno 7974 bound_to 7965
  154.7120  140.2694  155.6620 H   0  0  0  0  0  0  0  0  0  0  0  0  # atno 8008 bound_to 7997
  156.2798  140.2751  156.1689 H   0  0  0  0  0  0  0  0  0  0  0  0  # atno 8009 bound_to 7997
  155.0622  140.0371  157.2570 H   0  0  0  0  0  0  0  0  0  0  0  0  # atno 8010 bound_to 7997
  140.6361  143.7882  150.7362 H   0  0  0  0  0  0  0  0  0  0  0  0  # atno 10167 bound_to 10162
  156.0368  130.5588  150.7610 H   0  0  0  0  0  0  0  0  0  0  0  0  # atno 10718 bound_to 10713
  153.4647  135.7016  153.6029 H   0  0  0  0  0  0  0  0  0  0  0  0  # atno 10763 bound_to 10752
  153.4308  135.3803  155.2169 H   0  0  0  0  0  0  0  0  0  0  0  0  # atno 10764 bound_to 10752
  154.8726  135.3950  154.4077 H   0  0  0  0  0  0  0  0  0  0  0  0  # atno 10765 bound_to 10752
  140.9136  134.1536  157.4370 H   0  0  0  0  0  0  0  0  0  0  0  0  # atno 11005 bound_to 11000
  144.8602  139.5189  143.6816 LP  0  0  0  0  0  0  0  0  0  0  0  0  # atno 17320 bound_to 7965
  146.2901  139.7114  142.9167 LP  0  0  0  0  0  0  0  0  0  0  0  0  # atno 17321 bound_to 7965
  140.1504  143.4363  152.2135 LP  0  0  0  0  0  0  0  0  0  0  0  0  # atno 17342 bound_to 10162
  139.5572  144.7381  151.4260 LP  0  0  0  0  0  0  0  0  0  0  0  0  # atno 17343 bound_to 10162
  157.5129  131.0926  151.0175 LP  0  0  0  0  0  0  0  0  0  0  0  0  # atno 17370 bound_to 10713
  157.0526  130.5793  149.5373 LP  0  0  0  0  0  0  0  0  0  0  0  0  # atno 17371 bound_to 10713
  139.8762  134.9945  156.5697 LP  0  0  0  0  0  0  0  0  0  0  0  0  # atno 17394 bound_to 11000
  140.8079  133.8453  155.8783 LP  0  0  0  0  0  0  0  0  0  0  0  0  # atno 17395 bound_to 11000

$$$$
