AV-unprocessed.smi:527|AV-procd|sdf|2830|dock6
  -GOLD-   2262023313D 1   1.00000     0.00000
 Structure written by MMmdl.
 43 44  0  0  0  0  0  0  0  0  2 V2000
  148.9313  140.8584  154.2910 C   0  0  0  0  0  0  0  0  0  0  0  0
  149.2113  139.3515  154.4346 C   0  0  1  0  0  0  0  0  0  0  0  0
  150.7127  139.1234  154.7059 C   0  0  0  0  0  0  0  0  0  0  0  0
  151.0572  137.6348  154.8464 C   0  0  0  0  0  0  0  0  0  0  0  0
  150.2097  136.9764  155.9441 C   0  0  0  0  0  0  0  0  0  0  0  0
  148.7007  137.1741  155.6978 C   0  0  2  0  0  0  0  0  0  0  0  0
  148.2539  136.3998  154.5387 N   0  0  0  0  0  0  0  0  0  0  0  0
  147.3127  135.4452  154.5512 C   0  0  0  0  0  0  0  0  0  0  0  0
  146.5456  135.2602  155.4982 O   0  0  0  0  0  0  0  0  0  0  0  0
  147.3269  134.7424  153.4026 N   0  0  0  0  0  0  0  0  0  0  0  0
  146.5271  133.7113  153.0611 C   0  0  0  0  0  0  0  0  0  0  0  0
  145.6483  133.2242  153.7744 O   0  0  0  0  0  0  0  0  0  0  0  0
  146.7462  133.1393  151.6602 C   0  0  0  0  0  0  0  0  0  0  0  0
  145.4855  133.0828  150.9142 N   0  0  0  0  0  0  0  0  0  0  0  0
  144.9407  131.9942  150.2819 C   0  0  0  0  0  0  0  0  0  0  0  0
  143.7676  132.4191  149.7131 C   0  0  0  0  0  0  0  0  0  0  0  0
  143.6463  133.7478  150.0207 N   0  3  0  0  0  0  0  0  0  0  0  0
  144.6922  134.1501  150.7502 C   0  0  0  0  0  0  0  0  0  0  0  0
  148.3454  138.6751  155.5350 C   0  0  2  0  0  0  0  0  0  0  0  0
  146.8309  138.8691  155.3175 C   0  0  0  0  0  0  0  0  0  0  0  0
  149.0792  141.3818  155.2362 H   0  0  0  0  0  0  0  0  0  0  0  0
  147.9125  141.0506  153.9555 H   0  0  0  0  0  0  0  0  0  0  0  0
  149.5962  141.3108  153.5547 H   0  0  0  0  0  0  0  0  0  0  0  0
  148.9739  138.8866  153.4767 H   0  0  0  0  0  0  0  0  0  0  0  0
  151.3067  139.5549  153.8996 H   0  0  0  0  0  0  0  0  0  0  0  0
  151.0052  139.6483  155.6164 H   0  0  0  0  0  0  0  0  0  0  0  0
  150.8944  137.1274  153.8949 H   0  0  0  0  0  0  0  0  0  0  0  0
  152.1163  137.5203  155.0786 H   0  0  0  0  0  0  0  0  0  0  0  0
  150.4508  135.9153  156.0171 H   0  0  0  0  0  0  0  0  0  0  0  0
  150.4747  137.4115  156.9085 H   0  0  0  0  0  0  0  0  0  0  0  0
  148.1679  136.8033  156.5757 H   0  0  0  0  0  0  0  0  0  0  0  0
  148.6962  136.6192  153.6581 H   0  0  0  0  0  0  0  0  0  0  0  0
  148.0103  135.0257  152.7164 H   0  0  0  0  0  0  0  0  0  0  0  0
  147.4540  133.7488  151.0962 H   0  0  0  0  0  0  0  0  0  0  0  0
  147.1603  132.1317  151.7228 H   0  0  0  0  0  0  0  0  0  0  0  0
  145.4161  131.0241  150.2819 H   0  0  0  0  0  0  0  0  0  0  0  0
  143.0303  131.8896  149.1268 H   0  0  0  0  0  0  0  0  0  0  0  0
  144.8644  135.1425  151.1282 H   0  0  0  0  0  0  0  0  0  0  0  0
  148.5891  139.1592  156.4820 H   0  0  0  0  0  0  0  0  0  0  0  0
  146.5173  138.5269  154.3309 H   0  0  0  0  0  0  0  0  0  0  0  0
  146.5423  139.9153  155.4137 H   0  0  0  0  0  0  0  0  0  0  0  0
  146.2559  138.3144  156.0596 H   0  0  0  0  0  0  0  0  0  0  0  0
  142.8784  134.3436  149.7367 H   0  0  0  0  0  0  0  0  0  0  0  0
  1  2  1  0  0  0  0
  1 21  1  0  0  0  0
  1 22  1  0  0  0  0
  1 23  1  0  0  0  0
  2 19  1  0  0  0  0
  2  3  1  0  0  0  0
  2 24  1  0  0  0  0
  3  4  1  0  0  0  0
  3 25  1  0  0  0  0
  3 26  1  0  0  0  0
  4  5  1  0  0  0  0
  4 27  1  0  0  0  0
  4 28  1  0  0  0  0
  5  6  1  0  0  0  0
  5 29  1  0  0  0  0
  5 30  1  0  0  0  0
  6  7  1  0  0  0  0
  6 19  1  0  0  0  0
  6 31  1  0  0  0  0
  7  8  1  0  0  0  0
  7 32  1  0  0  0  0
  8  9  2  0  0  0  0
  8 10  1  0  0  0  0
 10 11  1  0  0  0  0
 10 33  1  0  0  0  0
 11 12  2  0  0  0  0
 11 13  1  0  0  0  0
 13 14  1  0  0  0  0
 13 34  1  0  0  0  0
 13 35  1  0  0  0  0
 14 18  1  0  0  0  0
 14 15  1  0  0  0  0
 15 16  2  0  0  0  0
 15 36  1  0  0  0  0
 16 17  1  0  0  0  0
 16 37  1  0  0  0  0
 17 18  2  0  0  0  0
 17 43  1  0  0  0  0
 18 38  1  0  0  0  0
 19 20  1  0  0  0  0
 19 39  1  0  0  0  0
 20 40  1  0  0  0  0
 20 41  1  0  0  0  0
 20 42  1  0  0  0  0
M  CHG  1  17   1
M  END
> <s_m_source_file>
AV-unprocessed.smi

> <i_m_source_file_index>
527

> <i_lp_mmshare_version>
43012

> <i_f3d_flags>
0

> <s_epik_input>
W0NIM11bQ0BASF0xW0NIMl1bQ0gyXVtDSDJdW0NASF0oW0NASF0xW0NIM10pW05IXUMoPU8pW05IXUMoPU8pW0NIMl1uMltjSF1bY0hdbltjSF0y

> <s_epik_cmdline>
J2VwaWtfcHl0aG9uJywgJy1waCcsICc3LjAnLCAnLXRuJywgJzgnLCAnLW1hJywgJzIwMCcsICctbWV0YWxfYmluZGluZycsICctaW1hZScsICc8aW5maWxlLm1hZT4nLCAnLW9tYWUnLCAnPG91dGZpbGUubWFlPic=

> <r_lp_tautomer_probability>
1

> <r_epik_Ionization_Penalty>
0.816441

> <r_epik_Ionization_Penalty_Charging>
0

> <r_epik_Ionization_Penalty_Neutral>
0.816441

> <r_epik_State_Penalty>
0.849034

> <r_epik_Charging_Adjusted_Penalty>
0.849034

> <i_epik_Tot_Q>
1

> <i_epik_Tot_abs_Q>
1

> <r_epik_Metal_State_Penalty>
0.984327

> <b_epik_Metal_Only>
0

> <s_lp_Force_Field>
OPLS_2005

> <r_lp_Energy>
15.9829

> <b_lp_Chiralities_Consistent>
1

> <s_lp_Variant>
AV-unprocessed.smi:527-16

> <Gold.Version>
5.8.1

> <Gold.Id.Protein>
6NUR|6NUR_protein|mol2

> <Gold.PLP.Fitness>
44.3857

> <Gold.PLP.PLP>
-32.7411

> <Gold.PLP.part.hbond>
-3.0000

> <Gold.PLP.part.metal>
0.0000

> <Gold.PLP.part.buried>
-4.2626

> <Gold.PLP.part.nonpolar>
-26.3830

> <Gold.PLP.part.repulsive>
0.1676

> <Gold.PLP.ligand.clash>
0.0000

> <Gold.PLP.ligand.torsion>
0.1566

> <Gold.PLP.Chemscore.Hbond>
3.9760

> <Gold.PLP.Chemscore.CHOScore>
0.0000

> <Gold.PLP.Chemscore.Metal>
0.0000

> <Gold.Chemscore.Hbonds>
donor molecule, donor type, donor heavy atom, donor atom, acceptor molecule, acceptor atom, score
      L1  H     7    32       P1  7948  0.99
      L1  H    10    33       P1  7948  1.00
      L1  H    17    43       P1 10186  1.79

> <Gold.PLP.Chemscore.Internal.Correction>
0.0297

> <Gold.Rescore>
     Score         DG    S(hbond)    S(metal)    S(lipo)     H(rot)  DE(clash)    DE(int)     intcor
     16.68     -18.19       2.81        0.00      65.83       1.71       0.05       1.46       ----

> <Gold.Chemscore.Fitness>
16.6831

> <Gold.Chemscore.DG>
-18.1915

> <Gold.Chemscore.ZeroCoef>
-5.4800

> <Gold.Chemscore.Hbond>
2.8068

> <Gold.Chemscore.Metal>
0.0000

> <Gold.Chemscore.Lipo>
65.8306

> <Gold.Chemscore.Internal_Hbond>
0.0000

> <Gold.Chemscore.DEClash>
0.0456

> <Gold.Chemscore.DEInternal>
1.4627

> <Gold.Chemscore.Rot>
1.7052

> <Gold.Chemscore.Internal.Correction>
   9.000000E+99

> <Gold.Chemscore.Hbonds>
donor molecule, donor type, donor heavy atom, donor atom, acceptor molecule, acceptor atom, score
      L1  H     7    32       P1  7948  0.94
      L1  H    10    33       P1  7948  0.93
      L1  H    17    43       P1 10186  0.87

> <Gold.Chemscore.Hbond.Weighted>
-9.3746

> <Gold.Chemscore.Metal.Weighted>
-0.0000

> <Gold.Chemscore.Lipo.Weighted>
-7.7022

> <Gold.Chemscore.Internal_Hbond.Weighted>
0.0000

> <Gold.Chemscore.DEClash.Weighted>
0.0456

> <Gold.Chemscore.DEInternal.Weighted>
1.4627

> <Gold.Chemscore.Rot.Weighted>
4.3653

> <Gold.Chemscore.Internal.Correction.Weighted>
   9.000000E+99

> <Gold.Protein.RotatedTorsions>
[ 6907 6896 6895 6894 ] final  -59.33 input  -60.11 | X-H torsion
[ 7974 7965 7964 7962 ] final   -1.23 input  175.53 | X-H torsion
[ 8008 7997 7996 7995 ] final  -89.58 input   59.86 | X-H torsion
[ 10167 10162 10161 10158 ] final  -23.22 input  -65.29 | X-H torsion
[ 10718 10713 10712 10709 ] final  -84.71 input   66.30 | X-H torsion
[ 10763 10752 10751 10750 ] final -160.53 input  -60.55 | X-H torsion
[ 11005 11000 10999 10996 ] final  122.87 input  -57.11 | X-H torsion

> <Gold.Protein.ActiveResidues>
 VAL166  LYS551  ARG553  GLY616  TRP617  ASP618  TYR619  PRO620  LYS621  CYS622 
 ASP623  PHE694  ASN695  SER759  ASP760  ASP761  ALA762  ILE779  LEU786  VAL792 
 PHE793  MET794  SER795  GLU796  ALA797  LYS798  CYS799  TRP800  GLU811  SER814 

> <Gold.Protein.RotatedAtoms>
  150.7938  134.6982  159.6534 H   0  0  0  0  0  0  0  0  0  0  0  0  # atno 6907 bound_to 6896
  152.4048  134.6223  160.0063 H   0  0  0  0  0  0  0  0  0  0  0  0  # atno 6908 bound_to 6896
  151.6483  133.3285  159.3182 H   0  0  0  0  0  0  0  0  0  0  0  0  # atno 6909 bound_to 6896
  146.2419  140.1389  142.8336 H   0  0  0  0  0  0  0  0  0  0  0  0  # atno 7974 bound_to 7965
  154.6882  140.0540  157.0336 H   0  0  0  0  0  0  0  0  0  0  0  0  # atno 8008 bound_to 7997
  155.0854  140.3214  155.4570 H   0  0  0  0  0  0  0  0  0  0  0  0  # atno 8009 bound_to 7997
  156.2719  140.2057  156.5981 H   0  0  0  0  0  0  0  0  0  0  0  0  # atno 8010 bound_to 7997
  140.7287  143.4463  151.0582 H   0  0  0  0  0  0  0  0  0  0  0  0  # atno 10167 bound_to 10162
  156.0003  130.4707  150.4451 H   0  0  0  0  0  0  0  0  0  0  0  0  # atno 10718 bound_to 10713
  154.7382  135.3062  154.8775 H   0  0  0  0  0  0  0  0  0  0  0  0  # atno 10763 bound_to 10752
  153.9597  135.6754  153.4749 H   0  0  0  0  0  0  0  0  0  0  0  0  # atno 10764 bound_to 10752
  153.0983  135.4925  154.8743 H   0  0  0  0  0  0  0  0  0  0  0  0  # atno 10765 bound_to 10752
  139.9287  134.9641  156.8173 H   0  0  0  0  0  0  0  0  0  0  0  0  # atno 11005 bound_to 11000
  145.0263  140.8835  143.5136 LP  0  0  0  0  0  0  0  0  0  0  0  0  # atno 17320 bound_to 7965
  145.1446  139.2551  143.5472 LP  0  0  0  0  0  0  0  0  0  0  0  0  # atno 17321 bound_to 7965
  139.8135  143.7918  152.3173 LP  0  0  0  0  0  0  0  0  0  0  0  0  # atno 17342 bound_to 10162
  139.7976  144.7386  150.9869 LP  0  0  0  0  0  0  0  0  0  0  0  0  # atno 17343 bound_to 10162
  157.2489  131.0542  151.2391 LP  0  0  0  0  0  0  0  0  0  0  0  0  # atno 17370 bound_to 10713
  157.3547  130.7100  149.6463 LP  0  0  0  0  0  0  0  0  0  0  0  0  # atno 17371 bound_to 10713
  140.6263  133.9947  155.7641 LP  0  0  0  0  0  0  0  0  0  0  0  0  # atno 17394 bound_to 11000
  141.0862  133.9987  157.3310 LP  0  0  0  0  0  0  0  0  0  0  0  0  # atno 17395 bound_to 11000

$$$$
