AV-unprocessed.smi:1226|AV-procd|sdf|5145|dock6
  -GOLD-   22720 4213D 1   1.00000     0.00000
 Structure written by MMmdl.
 37 38  0  0  0  0  0  0  0  0  1 V2000
  151.9882  138.8744  155.1395 C   0  0  0  0  0  0  0  0  0  0  0  0
  150.7593  139.7069  155.0082 C   0  0  0  0  0  0  0  0  0  0  0  0
  149.6916  139.3402  154.2946 N   0  0  0  0  0  0  0  0  0  0  0  0
  148.6646  140.2885  154.3363 C   0  0  0  0  0  0  0  0  0  0  0  0
  147.3847  140.0399  153.5978 C   0  0  0  0  0  0  0  0  0  0  0  0
  146.7063  138.7319  154.0380 C   0  0  0  0  0  0  0  0  0  0  0  0
  146.7859  137.7086  153.0020 N   0  0  0  0  0  0  0  0  0  0  0  0
  145.7314  137.1812  152.3652 C   0  0  0  0  0  0  0  0  0  0  0  0
  144.5634  137.5045  152.5827 O   0  0  0  0  0  0  0  0  0  0  0  0
  146.1029  136.2627  151.4628 N   0  0  0  0  0  0  0  0  0  0  0  0
  145.1908  135.5283  150.5935 C   0  0  0  0  0  0  0  0  0  0  0  0
  144.9201  134.1133  151.1299 C   0  0  1  0  0  0  0  0  0  0  0  0
  144.0896  133.2493  150.1829 C   0  0  0  0  0  0  0  0  0  0  0  0
  144.4739  131.8566  150.6262 C   0  0  0  0  0  0  0  0  0  0  0  0
  145.9602  132.0243  150.9291 C   0  0  0  0  0  0  0  0  0  0  0  0
  146.1348  133.3877  151.3060 O   0  0  0  0  0  0  0  0  0  0  0  0
  148.9750  141.3889  155.0957 C   0  0  0  0  0  0  0  0  0  0  0  0
  150.5690  141.2721  155.7885 S   0  0  0  0  0  0  0  0  0  0  0  0
  152.0277  138.1217  154.3515 H   0  0  0  0  0  0  0  0  0  0  0  0
  151.9934  138.3707  156.1062 H   0  0  0  0  0  0  0  0  0  0  0  0
  152.8757  139.5027  155.0664 H   0  0  0  0  0  0  0  0  0  0  0  0
  146.7030  140.8770  153.7537 H   0  0  0  0  0  0  0  0  0  0  0  0
  147.5764  140.0082  152.5245 H   0  0  0  0  0  0  0  0  0  0  0  0
  147.1919  138.3437  154.9337 H   0  0  0  0  0  0  0  0  0  0  0  0
  145.6638  138.9136  154.3046 H   0  0  0  0  0  0  0  0  0  0  0  0
  147.7077  137.3807  152.7536 H   0  0  0  0  0  0  0  0  0  0  0  0
  147.0878  136.0679  151.3582 H   0  0  0  0  0  0  0  0  0  0  0  0
  144.2556  136.0869  150.5509 H   0  0  0  0  0  0  0  0  0  0  0  0
  145.5717  135.4877  149.5715 H   0  0  0  0  0  0  0  0  0  0  0  0
  144.4169  134.1651  152.0968 H   0  0  0  0  0  0  0  0  0  0  0  0
  143.0193  133.4426  150.2576 H   0  0  0  0  0  0  0  0  0  0  0  0
  144.3955  133.4077  149.1476 H   0  0  0  0  0  0  0  0  0  0  0  0
  143.9316  131.5912  151.5346 H   0  0  0  0  0  0  0  0  0  0  0  0
  144.2751  131.0942  149.8727 H   0  0  0  0  0  0  0  0  0  0  0  0
  146.3012  131.3482  151.7132 H   0  0  0  0  0  0  0  0  0  0  0  0
  146.5559  131.8357  150.0355 H   0  0  0  0  0  0  0  0  0  0  0  0
  148.3631  142.2573  155.2906 H   0  0  0  0  0  0  0  0  0  0  0  0
  1  2  1  0  0  0  0
  1 19  1  0  0  0  0
  1 20  1  0  0  0  0
  1 21  1  0  0  0  0
  2 18  1  0  0  0  0
  2  3  2  0  0  0  0
  3  4  1  0  0  0  0
  4  5  1  0  0  0  0
  4 17  2  0  0  0  0
  5  6  1  0  0  0  0
  5 22  1  0  0  0  0
  5 23  1  0  0  0  0
  6  7  1  0  0  0  0
  6 24  1  0  0  0  0
  6 25  1  0  0  0  0
  7  8  1  0  0  0  0
  7 26  1  0  0  0  0
  8  9  2  0  0  0  0
  8 10  1  0  0  0  0
 10 11  1  0  0  0  0
 10 27  1  0  0  0  0
 11 12  1  0  0  0  0
 11 28  1  0  0  0  0
 11 29  1  0  0  0  0
 12 16  1  0  0  0  0
 12 13  1  0  0  0  0
 12 30  1  0  0  0  0
 13 14  1  0  0  0  0
 13 31  1  0  0  0  0
 13 32  1  0  0  0  0
 14 15  1  0  0  0  0
 14 33  1  0  0  0  0
 14 34  1  0  0  0  0
 15 16  1  0  0  0  0
 15 35  1  0  0  0  0
 15 36  1  0  0  0  0
 17 18  1  0  0  0  0
 17 37  1  0  0  0  0
M  END
> <s_m_source_file>
AV-unprocessed.smi

> <i_m_source_file_index>
1226

> <i_lp_mmshare_version>
43012

> <i_f3d_flags>
0

> <s_epik_input>
W0NIM11jMW5jKFtjSF1zMSlbQ0gyXVtDSDJdW05IXUMoPU8pW05IXVtDSDJdW0NAQEhdMltDSDJdW0NIMl1bQ0gyXU8y

> <s_epik_cmdline>
J2VwaWtfcHl0aG9uJywgJy1waCcsICc3LjAnLCAnLXRuJywgJzgnLCAnLW1hJywgJzIwMCcsICctbWV0YWxfYmluZGluZycsICctaW1hZScsICc8aW5maWxlLm1hZT4nLCAnLW9tYWUnLCAnPG91dGZpbGUubWFlPic=

> <r_epik_Ionization_Penalty>
0.00199722

> <r_epik_Ionization_Penalty_Charging>
0

> <r_epik_Ionization_Penalty_Neutral>
0.00199722

> <r_epik_State_Penalty>
0.00132705

> <r_epik_Charging_Adjusted_Penalty>
0.00132705

> <i_epik_Tot_Q>
0

> <i_epik_Tot_abs_Q>
0

> <r_epik_Metal_State_Penalty>
-0

> <b_epik_Metal_Only>
0

> <s_lp_Force_Field>
OPLS_2005

> <r_lp_Energy>
8.90451

> <b_lp_Chiralities_Consistent>
1

> <s_lp_Variant>
AV-unprocessed.smi:1226-2

> <Gold.Version>
5.8.1

> <Gold.Id.Protein>
6NUR|6NUR_protein|mol2

> <Gold.PLP.Fitness>
42.6367

> <Gold.PLP.PLP>
-34.6190

> <Gold.PLP.part.hbond>
-2.0000

> <Gold.PLP.part.metal>
0.0000

> <Gold.PLP.part.buried>
-4.8413

> <Gold.PLP.part.nonpolar>
-29.4969

> <Gold.PLP.part.repulsive>
1.3462

> <Gold.PLP.ligand.clash>
0.0000

> <Gold.PLP.ligand.torsion>
0.5088

> <Gold.PLP.Chemscore.Hbond>
2.0000

> <Gold.PLP.Chemscore.CHOScore>
1.0000

> <Gold.PLP.Chemscore.Metal>
0.0000

> <Gold.Chemscore.Hbonds>
donor molecule, donor type, donor heavy atom, donor atom, acceptor molecule, acceptor atom, score
      L1  H     7    26       P1  7948  1.00
      L1  H    10    27       P1  7948  1.00
      L1  C    17    37       P1  8028  1.00

> <Gold.PLP.Chemscore.Internal.Correction>
0.0353

> <Gold.Rescore>
     Score         DG    S(hbond)    S(metal)    S(lipo)     H(rot)  DE(clash)    DE(int)     intcor
     17.10     -17.77       1.95        0.00      87.60       1.75       0.18       0.49       ----

> <Gold.Chemscore.Fitness>
17.0976

> <Gold.Chemscore.DG>
-17.7717

> <Gold.Chemscore.ZeroCoef>
-5.4800

> <Gold.Chemscore.Hbond>
1.9518

> <Gold.Chemscore.Metal>
0.0000

> <Gold.Chemscore.Lipo>
87.6035

> <Gold.Chemscore.Internal_Hbond>
0.0000

> <Gold.Chemscore.DEClash>
0.1844

> <Gold.Chemscore.DEInternal>
0.4897

> <Gold.Chemscore.Rot>
1.7487

> <Gold.Chemscore.Internal.Correction>
   9.000000E+99

> <Gold.Chemscore.Hbonds>
donor molecule, donor type, donor heavy atom, donor atom, acceptor molecule, acceptor atom, score
      L1  H     7    26       P1  7948  0.98
      L1  H    10    27       P1  7948  0.98

> <Gold.Chemscore.Hbond.Weighted>
-6.5189

> <Gold.Chemscore.Metal.Weighted>
-0.0000

> <Gold.Chemscore.Lipo.Weighted>
-10.2496

> <Gold.Chemscore.Internal_Hbond.Weighted>
0.0000

> <Gold.Chemscore.DEClash.Weighted>
0.1844

> <Gold.Chemscore.DEInternal.Weighted>
0.4897

> <Gold.Chemscore.Rot.Weighted>
4.4768

> <Gold.Chemscore.Internal.Correction.Weighted>
   9.000000E+99

> <Gold.Protein.RotatedTorsions>
[ 6907 6896 6895 6894 ] final  -85.77 input  -60.11 | X-H torsion
[ 7974 7965 7964 7962 ] final  -13.58 input  175.53 | X-H torsion
[ 8008 7997 7996 7995 ] final    9.72 input   59.86 | X-H torsion
[ 10167 10162 10161 10158 ] final  167.44 input  -65.29 | X-H torsion
[ 10718 10713 10712 10709 ] final   39.62 input   66.30 | X-H torsion
[ 10763 10752 10751 10750 ] final -162.68 input  -60.55 | X-H torsion
[ 11005 11000 10999 10996 ] final  -16.65 input  -57.11 | X-H torsion

> <Gold.Protein.ActiveResidues>
 VAL166  LYS551  ARG553  GLY616  TRP617  ASP618  TYR619  PRO620  LYS621  CYS622 
 ASP623  PHE694  ASN695  SER759  ASP760  ASP761  ALA762  ILE779  LEU786  VAL792 
 PHE793  MET794  SER795  GLU796  ALA797  LYS798  CYS799  TRP800  GLU811  SER814 

> <Gold.Protein.RotatedAtoms>
  150.6869  134.3153  159.4763 H   0  0  0  0  0  0  0  0  0  0  0  0  # atno 6907 bound_to 6896
  152.1034  134.9323  160.0578 H   0  0  0  0  0  0  0  0  0  0  0  0  # atno 6908 bound_to 6896
  152.0593  133.4020  159.4448 H   0  0  0  0  0  0  0  0  0  0  0  0  # atno 6909 bound_to 6896
  146.2108  140.3225  142.8391 H   0  0  0  0  0  0  0  0  0  0  0  0  # atno 7974 bound_to 7965
  154.7839  140.2823  155.6043 H   0  0  0  0  0  0  0  0  0  0  0  0  # atno 8008 bound_to 7997
  156.2954  140.2618  156.2599 H   0  0  0  0  0  0  0  0  0  0  0  0  # atno 8009 bound_to 7997
  154.9752  140.0375  157.2242 H   0  0  0  0  0  0  0  0  0  0  0  0  # atno 8010 bound_to 7997
  139.4945  144.3921  151.9505 H   0  0  0  0  0  0  0  0  0  0  0  0  # atno 10167 bound_to 10162
  157.3727  130.7710  149.7131 H   0  0  0  0  0  0  0  0  0  0  0  0  # atno 10718 bound_to 10713
  154.7192  135.3022  154.9075 H   0  0  0  0  0  0  0  0  0  0  0  0  # atno 10763 bound_to 10752
  153.9952  135.6713  153.4760 H   0  0  0  0  0  0  0  0  0  0  0  0  # atno 10764 bound_to 10752
  153.0819  135.5004  154.8436 H   0  0  0  0  0  0  0  0  0  0  0  0  # atno 10765 bound_to 10752
  140.8089  133.8155  155.9544 H   0  0  0  0  0  0  0  0  0  0  0  0  # atno 11005 bound_to 11000
  144.8910  140.7523  143.5927 LP  0  0  0  0  0  0  0  0  0  0  0  0  # atno 17320 bound_to 7965
  145.3147  139.1807  143.4620 LP  0  0  0  0  0  0  0  0  0  0  0  0  # atno 17321 bound_to 7965
  140.3359  144.3262  150.5977 LP  0  0  0  0  0  0  0  0  0  0  0  0  # atno 17342 bound_to 10162
  140.5607  143.2192  151.7771 LP  0  0  0  0  0  0  0  0  0  0  0  0  # atno 17343 bound_to 10162
  155.9759  130.4083  150.3818 LP  0  0  0  0  0  0  0  0  0  0  0  0  # atno 17370 bound_to 10713
  157.1911  131.0415  151.2700 LP  0  0  0  0  0  0  0  0  0  0  0  0  # atno 17371 bound_to 10713
  140.9218  134.2132  157.4922 LP  0  0  0  0  0  0  0  0  0  0  0  0  # atno 17394 bound_to 11000
  139.8715  134.9795  156.5040 LP  0  0  0  0  0  0  0  0  0  0  0  0  # atno 17395 bound_to 11000

$$$$
