#       Name:                AV-unprocessed.smi:95
#       Creating user name   scv26
#       Creation time:       Thu Mar 26 17:30:18 2020


#       File generated by GOLD software.
#

@<TRIPOS>MOLECULE
AV-unprocessed.smi:95
    48    51     1
SMALL
NO_CHARGES


@<TRIPOS>ATOM
      1 ****         0.1193   3.1523   1.0338 O.2            1 S1                 0.0000
      2 ****        -0.4693   2.0732   1.1238 C.2            1 S1                 0.0000
      3 ****        -1.9224   1.9460   1.1117 C.2            1 S1                 0.0000
      4 ****        -2.6850   3.0481   1.0127 F              1 S1                 0.0000
      5 ****        -2.5184   0.7367   1.1961 C.2            1 S1                 0.0000
      6 ****        -1.8099  -0.4498   1.2999 N.am           1 S1                 0.0000
      7 ****        -2.4998  -1.7964   1.3719 C.3            1 S1                 0.0000
      8 ****        -2.3856  -2.3906   2.7894 C.3            1 S1                 0.0000
      9 ****        -3.8240  -2.7264   3.1300 C.3            1 S1                 0.0000
     10 ****        -4.5897  -1.6890   2.3229 C.3            1 S1                 0.0000
     11 ****        -3.8648  -1.6481   1.1011 O.3            1 S1                 0.0000
     12 ****        -0.3979  -0.4220   1.3082 C.2            1 S1                 0.0000
     13 ****         0.2507  -1.4693   1.3680 O.2            1 S1                 0.0000
     14 ****         0.2271   0.8458   1.2365 N.am           1 S1                 0.0000
     15 ****         1.6813   0.9021   1.2160 C.3            1 S1                 0.0000
     16 ****         2.3175   1.0178  -0.1648 C.ar           1 S1                 0.0000
     17 ****         3.5249   1.7267  -0.3229 C.ar           1 S1                 0.0000
     18 ****         4.0949   1.8046  -1.6064 C.ar           1 S1                 0.0000
     19 ****         3.4411   1.1684  -2.6811 C.ar           1 S1                 0.0000
     20 ****         3.9871   1.2287  -3.9799 C.2            1 S1                 0.0000
     21 ****         3.3299   0.5923  -5.0487 C.2            1 S1                 0.0000
     22 ****         2.1292  -0.1034  -4.8177 C.2            1 S1                 0.0000
     23 ****         1.5867  -0.1629  -3.5192 C.2            1 S1                 0.0000
     24 ****         2.2286   0.4682  -2.4324 C.ar           1 S1                 0.0000
     25 ****         1.6919   0.3996  -1.1933 N.ar           1 S1                 0.0000
     26 ****        -3.5971   0.7176   1.1763 H              1 S1                 0.0000
     27 ****        -2.0387  -2.4055   0.5922 H              1 S1                 0.0000
     28 ****        -1.7275  -3.2600   2.7975 H              1 S1                 0.0000
     29 ****        -1.9953  -1.6441   3.4830 H              1 S1                 0.0000
     30 ****        -4.0691  -3.7292   2.7778 H              1 S1                 0.0000
     31 ****        -4.0335  -2.6768   4.1988 H              1 S1                 0.0000
     32 ****        -5.6328  -1.9617   2.1627 H              1 S1                 0.0000
     33 ****        -4.5584  -0.7149   2.8128 H              1 S1                 0.0000
     34 ****         1.9721   1.7439   1.8473 H              1 S1                 0.0000
     35 ****         2.0722   0.0254   1.7332 H              1 S1                 0.0000
     36 ****         4.0042   2.2030   0.5199 H              1 S1                 0.0000
     37 ****         5.0182   2.3438  -1.7593 H              1 S1                 0.0000
     38 ****         4.9091   1.7619  -4.1610 H              1 S1                 0.0000
     39 ****         3.7463   0.6378  -6.0444 H              1 S1                 0.0000
     40 ****         1.6230  -0.5926  -5.6368 H              1 S1                 0.0000
     41 ****         0.6642  -0.7005  -3.3559 H              1 S1                 0.0000
     42 ****         1.1189   3.1785   1.0391 LP             1 S1                 0.0000
     43 ****        -0.4028   4.0016   0.9555 LP             1 S1                 0.0000
     44 ****        -4.1705  -2.3910   0.5056 LP             1 S1                 0.0000
     45 ****        -4.0226  -0.7710   0.6476 LP             1 S1                 0.0000
     46 ****        -0.2229  -2.3490   1.4112 LP             1 S1                 0.0000
     47 ****         1.2502  -1.4388   1.3733 LP             1 S1                 0.0000
     48 ****         0.8413  -0.1029  -1.0384 LP             1 S1                 0.0000
@<TRIPOS>BOND
    1    1    2 2     
    2    2   14 am    
    3    2    3 1     
    4    3    4 1     
    5    3    5 2     
    6    5    6 1     
    7    5   26 1     
    8    6    7 1     
    9    6   12 am    
   10    7   11 1     
   11    7    8 1     
   12    7   27 1     
   13    8    9 1     
   14    8   28 1     
   15    8   29 1     
   16    9   10 1     
   17    9   30 1     
   18    9   31 1     
   19   10   11 1     
   20   10   32 1     
   21   10   33 1     
   22   12   13 2     
   23   12   14 am    
   24   14   15 1     
   25   15   16 1     
   26   15   34 1     
   27   15   35 1     
   28   16   25 ar    
   29   16   17 ar    
   30   17   18 ar    
   31   17   36 1     
   32   18   19 ar    
   33   18   37 1     
   34   19   24 ar    
   35   19   20 1     
   36   20   21 2     
   37   20   38 1     
   38   21   22 1     
   39   21   39 1     
   40   22   23 2     
   41   22   40 1     
   42   23   24 1     
   43   23   41 1     
   44   24   25 ar    
   45    1   42 1     
   46    1   43 1     
   47   11   44 1     
   48   11   45 1     
   49   13   46 1     
   50   13   47 1     
   51   25   48 1     
@<TRIPOS>SUBSTRUCTURE
      1 S1             1
@<TRIPOS>SET
LONE_PAIRS      STATIC     ATOMS    <user>   **** ""
7 42 43 44 45 46 47 48
ATOM$BLUE        STATIC     ATOMS    COLORGROUP SYSTEM
7 42 43 44 45 46 47 48
