AV-unprocessed.smi:1535|AV-procd|sdf|6177|dock6
  -GOLD-   22720 6333D 1   1.00000     0.00000
 Structure written by MMmdl.
 47 48  0  0  0  0  0  0  0  0  2 V2000
  152.5021  143.4818  161.8079 C   0  0  0  0  0  0  0  0  0  0  0  0
  152.3032  142.7491  160.4920 C   0  0  0  0  0  0  0  0  0  0  0  0
  151.4351  143.3131  159.5305 C   0  0  0  0  0  0  0  0  0  0  0  0
  151.2733  142.6192  158.3375 C   0  0  0  0  0  0  0  0  0  0  0  0
  150.4995  142.9091  157.2121 N   0  3  0  0  0  0  0  0  0  0  0  0
  150.6619  141.9264  156.2841 C   0  0  0  0  0  0  0  0  0  0  0  0
  151.5189  141.0060  156.8049 N   0  0  0  0  0  0  0  0  0  0  0  0
  152.0082  139.7542  156.2116 C   0  0  0  0  0  0  0  0  0  0  0  0
  150.8921  138.8975  155.5711 C   0  0  1  0  0  0  0  0  0  0  0  0
  150.5686  139.5289  154.3495 O   0  0  0  0  0  0  0  0  0  0  0  0
  151.2962  137.4332  155.2604 C   0  0  0  0  0  0  0  0  0  0  0  0
  150.2381  136.4286  155.4018 N   0  0  0  0  0  0  0  0  0  0  0  0
  148.9500  137.0181  155.0512 C   0  0  0  0  0  0  0  0  0  0  0  0
  150.5044  135.2317  154.6016 C   0  0  0  0  0  0  0  0  0  0  0  0
  149.6725  133.9847  154.9512 C   0  0  1  0  0  0  0  0  0  0  0  0
  149.9579  132.8470  153.9625 C   0  0  0  0  0  0  0  0  0  0  0  0
  149.9162  133.5431  156.3343 C   0  0  0  0  0  0  0  0  0  0  0  0
  150.1088  133.1952  157.4206 N   0  0  0  0  0  0  0  0  0  0  0  0
  151.9387  141.4037  158.0807 C   0  0  0  0  0  0  0  0  0  0  0  0
  152.8017  140.8381  159.0170 C   0  0  0  0  0  0  0  0  0  0  0  0
  152.9762  141.5262  160.2387 C   0  0  0  0  0  0  0  0  0  0  0  0
  153.9035  140.9254  161.2816 C   0  0  0  0  0  0  0  0  0  0  0  0
  151.9529  144.4235  161.8279 H   0  0  0  0  0  0  0  0  0  0  0  0
  153.5568  143.7095  161.9649 H   0  0  0  0  0  0  0  0  0  0  0  0
  152.1512  142.8726  162.6412 H   0  0  0  0  0  0  0  0  0  0  0  0
  150.9189  144.2438  159.7161 H   0  0  0  0  0  0  0  0  0  0  0  0
  150.1867  141.8784  155.3146 H   0  0  0  0  0  0  0  0  0  0  0  0
  152.7305  140.0449  155.4470 H   0  0  0  0  0  0  0  0  0  0  0  0
  152.5706  139.1876  156.9536 H   0  0  0  0  0  0  0  0  0  0  0  0
  149.9931  138.9316  156.1878 H   0  0  0  0  0  0  0  0  0  0  0  0
  150.1786  138.8878  153.7747 H   0  0  0  0  0  0  0  0  0  0  0  0
  151.6638  137.3949  154.2332 H   0  0  0  0  0  0  0  0  0  0  0  0
  152.1554  137.1448  155.8646 H   0  0  0  0  0  0  0  0  0  0  0  0
  148.1293  136.3322  155.2572 H   0  0  0  0  0  0  0  0  0  0  0  0
  148.9144  137.2907  153.9956 H   0  0  0  0  0  0  0  0  0  0  0  0
  148.7623  137.9178  155.6386 H   0  0  0  0  0  0  0  0  0  0  0  0
  150.3753  135.4664  153.5441 H   0  0  0  0  0  0  0  0  0  0  0  0
  151.5457  134.9469  154.7272 H   0  0  0  0  0  0  0  0  0  0  0  0
  148.6105  134.2167  154.8829 H   0  0  0  0  0  0  0  0  0  0  0  0
  149.3537  131.9689  154.1927 H   0  0  0  0  0  0  0  0  0  0  0  0
  151.0061  132.5483  153.9964 H   0  0  0  0  0  0  0  0  0  0  0  0
  149.7290  133.1472  152.9394 H   0  0  0  0  0  0  0  0  0  0  0  0
  153.3171  139.9080  158.8294 H   0  0  0  0  0  0  0  0  0  0  0  0
  154.3163  139.9731  160.9476 H   0  0  0  0  0  0  0  0  0  0  0  0
  153.3671  140.7458  162.2135 H   0  0  0  0  0  0  0  0  0  0  0  0
  154.7374  141.5975  161.4847 H   0  0  0  0  0  0  0  0  0  0  0  0
  149.9055  143.7182  157.0827 H   0  0  0  0  0  0  0  0  0  0  0  0
  1  2  1  0  0  0  0
  1 23  1  0  0  0  0
  1 24  1  0  0  0  0
  1 25  1  0  0  0  0
  2 21  1  0  0  0  0
  2  3  2  0  0  0  0
  3  4  1  0  0  0  0
  3 26  1  0  0  0  0
  4 19  2  0  0  0  0
  4  5  1  0  0  0  0
  5  6  2  0  0  0  0
  5 47  1  0  0  0  0
  6  7  1  0  0  0  0
  6 27  1  0  0  0  0
  7  8  1  0  0  0  0
  7 19  1  0  0  0  0
  8  9  1  0  0  0  0
  8 28  1  0  0  0  0
  8 29  1  0  0  0  0
  9 10  1  0  0  0  0
  9 11  1  0  0  0  0
  9 30  1  0  0  0  0
 10 31  1  0  0  0  0
 11 12  1  0  0  0  0
 11 32  1  0  0  0  0
 11 33  1  0  0  0  0
 12 13  1  0  0  0  0
 12 14  1  0  0  0  0
 13 34  1  0  0  0  0
 13 35  1  0  0  0  0
 13 36  1  0  0  0  0
 14 15  1  0  0  0  0
 14 37  1  0  0  0  0
 14 38  1  0  0  0  0
 15 16  1  0  0  0  0
 15 17  1  0  0  0  0
 15 39  1  0  0  0  0
 16 40  1  0  0  0  0
 16 41  1  0  0  0  0
 16 42  1  0  0  0  0
 17 18  3  0  0  0  0
 19 20  1  0  0  0  0
 20 21  2  0  0  0  0
 20 43  1  0  0  0  0
 21 22  1  0  0  0  0
 22 44  1  0  0  0  0
 22 45  1  0  0  0  0
 22 46  1  0  0  0  0
M  CHG  1   5   1
M  END
> <s_m_source_file>
AV-unprocessed.smi

> <i_m_source_file_index>
1535

> <i_lp_mmshare_version>
43012

> <i_f3d_flags>
0

> <s_epik_input>
W0NIM11jKFtjSF0xKWMoW0NIM10pW2NIXWMoYzEyKW4oW2NIXW4yKVtDSDJdW0NASF0oW09IXSlbQ0gyXU4oW0NIM10pW0NIMl1bQ0BIXShbQ0gzXSlDI04=

> <s_epik_cmdline>
J2VwaWtfcHl0aG9uJywgJy1waCcsICc3LjAnLCAnLXRuJywgJzgnLCAnLW1hJywgJzIwMCcsICctbWV0YWxfYmluZGluZycsICctaW1hZScsICc8aW5maWxlLm1hZT4nLCAnLW9tYWUnLCAnPG91dGZpbGUubWFlPic=

> <r_epik_Ionization_Penalty>
1.22846

> <r_epik_Ionization_Penalty_Charging>
1.21333

> <r_epik_Ionization_Penalty_Neutral>
0.0151341

> <r_epik_State_Penalty>
1.27012

> <r_epik_Charging_Adjusted_Penalty>
2.48344

> <i_epik_Tot_Q>
1

> <i_epik_Tot_abs_Q>
1

> <r_epik_Metal_State_Penalty>
5.28751

> <b_epik_Metal_Only>
0

> <s_lp_Force_Field>
OPLS_2005

> <r_lp_Energy>
29.5902

> <b_lp_Chiralities_Consistent>
1

> <s_lp_Variant>
AV-unprocessed.smi:1535-8

> <Gold.Version>
5.8.1

> <Gold.Id.Protein>
6NUR|6NUR_protein|mol2

> <Gold.PLP.Fitness>
55.5751

> <Gold.PLP.PLP>
-45.7521

> <Gold.PLP.part.hbond>
-3.0035

> <Gold.PLP.part.metal>
0.0000

> <Gold.PLP.part.buried>
-7.1737

> <Gold.PLP.part.nonpolar>
-34.9879

> <Gold.PLP.part.repulsive>
0.1244

> <Gold.PLP.ligand.clash>
0.0000

> <Gold.PLP.ligand.torsion>
1.1405

> <Gold.PLP.Chemscore.Hbond>
4.0000

> <Gold.PLP.Chemscore.CHOScore>
0.0000

> <Gold.PLP.Chemscore.Metal>
0.0000

> <Gold.Chemscore.Hbonds>
donor molecule, donor type, donor heavy atom, donor atom, acceptor molecule, acceptor atom, score
      L1  H     5    47       P1  8028  1.70
      P1  H  6896  6908       L1    18  0.96
      P1  H  7989  7998       L1    10  1.00

> <Gold.PLP.Chemscore.Internal.Correction>
0.1039

> <Gold.Rescore>
     Score         DG    S(hbond)    S(metal)    S(lipo)     H(rot)  DE(clash)    DE(int)     intcor
     21.08     -22.35       2.96        0.00     116.37       2.59       0.05       1.23       ----

> <Gold.Chemscore.Fitness>
21.0765

> <Gold.Chemscore.DG>
-22.3525

> <Gold.Chemscore.ZeroCoef>
-5.4800

> <Gold.Chemscore.Hbond>
2.9617

> <Gold.Chemscore.Metal>
0.0000

> <Gold.Chemscore.Lipo>
116.3734

> <Gold.Chemscore.Internal_Hbond>
0.0000

> <Gold.Chemscore.DEClash>
0.0504

> <Gold.Chemscore.DEInternal>
1.2256

> <Gold.Chemscore.Rot>
2.5918

> <Gold.Chemscore.Internal.Correction>
   9.000000E+99

> <Gold.Chemscore.Hbonds>
donor molecule, donor type, donor heavy atom, donor atom, acceptor molecule, acceptor atom, score
      L1  H     5    47       P1  8028  0.78
      P1  H  6896  6908       L1    18  0.89
      P1  H  7989  7998       L1    10  0.90

> <Gold.Chemscore.Hbond.Weighted>
-9.8919

> <Gold.Chemscore.Metal.Weighted>
-0.0000

> <Gold.Chemscore.Lipo.Weighted>
-13.6157

> <Gold.Chemscore.Internal_Hbond.Weighted>
0.0000

> <Gold.Chemscore.DEClash.Weighted>
0.0504

> <Gold.Chemscore.DEInternal.Weighted>
1.2256

> <Gold.Chemscore.Rot.Weighted>
6.6351

> <Gold.Chemscore.Internal.Correction.Weighted>
   9.000000E+99

> <Gold.Protein.RotatedTorsions>
[ 6907 6896 6895 6894 ] final  120.43 input  -60.11 | X-H torsion
[ 7974 7965 7964 7962 ] final -151.91 input  175.53 | X-H torsion
[ 8008 7997 7996 7995 ] final  -96.46 input   59.86 | X-H torsion
[ 10167 10162 10161 10158 ] final -154.31 input  -65.29 | X-H torsion
[ 10718 10713 10712 10709 ] final  -49.09 input   66.30 | X-H torsion
[ 10763 10752 10751 10750 ] final   44.28 input  -60.55 | X-H torsion
[ 11005 11000 10999 10996 ] final   48.81 input  -57.11 | X-H torsion

> <Gold.Protein.ActiveResidues>
 VAL166  LYS551  ARG553  GLY616  TRP617  ASP618  TYR619  PRO620  LYS621  CYS622 
 ASP623  PHE694  ASN695  SER759  ASP760  ASP761  ALA762  ILE779  LEU786  VAL792 
 PHE793  MET794  SER795  GLU796  ALA797  LYS798  CYS799  TRP800  GLU811  SER814 

> <Gold.Protein.RotatedAtoms>
  152.4398  133.7428  159.6650 H   0  0  0  0  0  0  0  0  0  0  0  0  # atno 6907 bound_to 6896
  150.8287  133.8117  159.3113 H   0  0  0  0  0  0  0  0  0  0  0  0  # atno 6908 bound_to 6896
  151.5777  135.1062  160.0061 H   0  0  0  0  0  0  0  0  0  0  0  0  # atno 6909 bound_to 6896
  144.7823  140.4734  143.5830 H   0  0  0  0  0  0  0  0  0  0  0  0  # atno 7974 bound_to 7965
  154.7748  140.0471  157.1080 H   0  0  0  0  0  0  0  0  0  0  0  0  # atno 8008 bound_to 7997
  154.9776  140.3097  155.4941 H   0  0  0  0  0  0  0  0  0  0  0  0  # atno 8009 bound_to 7997
  156.2927  140.2242  156.4873 H   0  0  0  0  0  0  0  0  0  0  0  0  # atno 8010 bound_to 7997
  139.7024  143.9241  152.2434 H   0  0  0  0  0  0  0  0  0  0  0  0  # atno 10167 bound_to 10162
  156.1926  130.4153  149.9350 H   0  0  0  0  0  0  0  0  0  0  0  0  # atno 10718 bound_to 10713
  152.9844  135.6075  154.3249 H   0  0  0  0  0  0  0  0  0  0  0  0  # atno 10763 bound_to 10752
  154.2956  135.2774  155.2636 H   0  0  0  0  0  0  0  0  0  0  0  0  # atno 10764 bound_to 10752
  154.4912  135.5891  153.6517 H   0  0  0  0  0  0  0  0  0  0  0  0  # atno 10765 bound_to 10752
  140.1158  134.4895  155.8639 H   0  0  0  0  0  0  0  0  0  0  0  0  # atno 11005 bound_to 11000
  145.6016  139.1504  143.3126 LP  0  0  0  0  0  0  0  0  0  0  0  0  # atno 17320 bound_to 7965
  146.2038  140.6137  142.9090 LP  0  0  0  0  0  0  0  0  0  0  0  0  # atno 17321 bound_to 7965
  139.9088  144.6869  150.8585 LP  0  0  0  0  0  0  0  0  0  0  0  0  # atno 17342 bound_to 10162
  140.7713  143.3459  151.2112 LP  0  0  0  0  0  0  0  0  0  0  0  0  # atno 17343 bound_to 10162
  156.7085  130.8961  151.3607 LP  0  0  0  0  0  0  0  0  0  0  0  0  # atno 17370 bound_to 10713
  157.6938  130.9261  150.0588 LP  0  0  0  0  0  0  0  0  0  0  0  0  # atno 17371 bound_to 10713
  141.2141  133.6743  156.6793 LP  0  0  0  0  0  0  0  0  0  0  0  0  # atno 17394 bound_to 11000
  140.3031  134.8148  157.4114 LP  0  0  0  0  0  0  0  0  0  0  0  0  # atno 17395 bound_to 11000

$$$$
