#       Name:                AV-unprocessed.smi:1876
#       Creating user name   scv26
#       Creation time:       Fri Mar 27 09:34:59 2020


#       File generated by GOLD software.
#

@<TRIPOS>MOLECULE
AV-unprocessed.smi:1876
    38    39     1
SMALL
NO_CHARGES


@<TRIPOS>ATOM
      1 ****        -6.2096  -1.9995   0.5431 C.3            1 S1                 0.0000
      2 ****        -4.8843  -1.3313   0.4097 C.2            1 S1                 0.0000
      3 ****        -3.6248  -1.8025   0.1657 C.2            1 S1                 0.0000
      4 ****        -2.8360  -0.6213   0.1648 C.2            1 S1                 0.0000
      5 ****        -1.4368  -0.6798  -0.0603 N.am           1 S1                 0.0000
      6 ****        -0.5735   0.3486  -0.1176 C.2            1 S1                 0.0000
      7 ****        -0.8721   1.5343   0.0292 O.2            1 S1                 0.0000
      8 ****         0.6750  -0.0761  -0.3609 N.am           1 S1                 0.0000
      9 ****         1.8437   0.7844  -0.5345 C.3            1 S1                 0.0000
     10 ****         2.4154   1.2228   0.8269 C.3            1 S1                 0.0000
     11 ****         3.7383   1.9688   0.6307 C.3            1 S1                 0.0000
     12 ****         4.7518   1.0833  -0.1125 C.3            1 S1                 0.0000
     13 ****         4.1789   0.3904  -1.2679 N.am           1 S1                 0.0000
     14 ****         2.8737   0.1522  -1.4877 C.2            1 S1                 0.0000
     15 ****         2.4986  -0.5209  -2.4466 O.2            1 S1                 0.0000
     16 ****        -3.5494   0.4716   0.3896 N.2            1 S1                 0.0000
     17 ****        -4.8657   0.0222   0.5469 O.3            1 S1                 0.0000
     18 ****        -6.0977  -3.0829   0.5855 H              1 S1                 0.0000
     19 ****        -6.8501  -1.7585  -0.3053 H              1 S1                 0.0000
     20 ****        -6.7163  -1.6764   1.4526 H              1 S1                 0.0000
     21 ****        -3.3209  -2.8272   0.0109 H              1 S1                 0.0000
     22 ****        -1.0543  -1.6029  -0.2027 H              1 S1                 0.0000
     23 ****         0.8280  -1.0681  -0.4693 H              1 S1                 0.0000
     24 ****         1.5180   1.6869  -1.0553 H              1 S1                 0.0000
     25 ****         1.7035   1.8623   1.3499 H              1 S1                 0.0000
     26 ****         2.5792   0.3518   1.4633 H              1 S1                 0.0000
     27 ****         3.5586   2.8798   0.0584 H              1 S1                 0.0000
     28 ****         4.1461   2.2813   1.5923 H              1 S1                 0.0000
     29 ****         5.6043   1.6796  -0.4387 H              1 S1                 0.0000
     30 ****         5.1422   0.3255   0.5675 H              1 S1                 0.0000
     31 ****         4.8371   0.0003  -1.9270 H              1 S1                 0.0000
     32 ****        -1.8218   1.7925   0.2067 LP             1 S1                 0.0000
     33 ****        -0.1649   2.2390  -0.0291 LP             1 S1                 0.0000
     34 ****         1.5215  -0.6589  -2.6090 LP             1 S1                 0.0000
     35 ****         3.1707  -0.9300  -3.0638 LP             1 S1                 0.0000
     36 ****        -3.2191   1.4143   0.4368 LP             1 S1                 0.0000
     37 ****        -5.2005   0.2730   1.4552 LP             1 S1                 0.0000
     38 ****        -5.4491   0.4391  -0.1502 LP             1 S1                 0.0000
@<TRIPOS>BOND
    1    1    2 1     
    2    1   18 1     
    3    1   19 1     
    4    1   20 1     
    5    2   17 1     
    6    2    3 2     
    7    3    4 1     
    8    3   21 1     
    9    4    5 1     
   10    4   16 2     
   11    5    6 am    
   12    5   22 1     
   13    6    7 2     
   14    6    8 am    
   15    8    9 1     
   16    8   23 1     
   17    9   14 1     
   18    9   10 1     
   19    9   24 1     
   20   10   11 1     
   21   10   25 1     
   22   10   26 1     
   23   11   12 1     
   24   11   27 1     
   25   11   28 1     
   26   12   13 1     
   27   12   29 1     
   28   12   30 1     
   29   13   14 am    
   30   13   31 1     
   31   14   15 2     
   32   16   17 1     
   33    7   32 1     
   34    7   33 1     
   35   15   34 1     
   36   15   35 1     
   37   16   36 1     
   38   17   37 1     
   39   17   38 1     
@<TRIPOS>SUBSTRUCTURE
      1 S1             1
@<TRIPOS>SET
LONE_PAIRS      STATIC     ATOMS    <user>   **** ""
7 32 33 34 35 36 37 38
DONOR_HYDROGENS      STATIC     ATOMS    <user>   **** ""
3 22 23 31
ATOM$BLUE        STATIC     ATOMS    COLORGROUP SYSTEM
7 32 33 34 35 36 37 38
ATOM$RED        STATIC     ATOMS    COLORGROUP SYSTEM
3 22 23 31
