#       Name:                AV-unprocessed.smi:3238
#       Creating user name   scv26
#       Creation time:       Fri Mar 27 18:24:02 2020


#       File generated by GOLD software.
#

@<TRIPOS>MOLECULE
AV-unprocessed.smi:3238
    43    45     1
SMALL
NO_CHARGES


@<TRIPOS>ATOM
      1 ****        -3.8547   1.6549   0.0451 C.3            1 S1                 0.0000
      2 ****        -3.4012   0.3557   0.5161 N.am           1 S1                 0.0000
      3 ****        -3.6169  -0.1187   1.7527 C.2            1 S1                 0.0000
      4 ****        -4.2446   0.4994   2.6124 O.2            1 S1                 0.0000
      5 ****        -3.0467  -1.5041   2.0692 C.3            1 S1                 0.0000
      6 ****        -1.5515  -1.4737   2.0773 C.2            1 S1                 0.0000
      7 ****        -0.8687  -1.2159   3.1870 N.2            1 S1                 0.0000
      8 ****         0.4663  -1.2374   2.7581 O.3            1 S1                 0.0000
      9 ****         0.4254  -1.5302   1.4362 C.2            1 S1                 0.0000
     10 ****         1.6996  -1.5377   0.6583 C.3            1 S1                 0.0000
     11 ****         2.1640  -0.1250   0.2484 C.3            1 S1                 0.0000
     12 ****         3.3659  -0.0965  -0.7192 C.3            1 S1                 0.0000
     13 ****         2.8954   0.8712  -1.8224 C.3            1 S1                 0.0000
     14 ****         1.8477   0.1633  -2.7000 C.3            1 S1                 0.0000
     15 ****         0.6176   0.1062  -1.7759 C.3            1 S1                 0.0000
     16 ****         1.1295   0.7687  -0.4795 C.3            1 S1                 0.0000
     17 ****         2.0339   1.8599  -1.0435 C.3            1 S1                 0.0000
     18 ****        -0.8059  -1.6892   0.9583 N.2            1 S1                 0.0000
     19 ****        -3.5428   1.8045  -0.9883 H              1 S1                 0.0000
     20 ****        -3.4283   2.4568   0.6492 H              1 S1                 0.0000
     21 ****        -4.9423   1.7260   0.0880 H              1 S1                 0.0000
     22 ****        -2.8760  -0.2138  -0.1322 H              1 S1                 0.0000
     23 ****        -3.4138  -1.8456   3.0382 H              1 S1                 0.0000
     24 ****        -3.3963  -2.2219   1.3261 H              1 S1                 0.0000
     25 ****         2.4714  -2.0198   1.2591 H              1 S1                 0.0000
     26 ****         1.5643  -2.1687  -0.2204 H              1 S1                 0.0000
     27 ****         2.4512   0.3966   1.1633 H              1 S1                 0.0000
     28 ****         4.2533   0.2875  -0.2144 H              1 S1                 0.0000
     29 ****         3.6142  -1.0801  -1.1204 H              1 S1                 0.0000
     30 ****         3.7118   1.3167  -2.3915 H              1 S1                 0.0000
     31 ****         1.6285   0.7483  -3.5942 H              1 S1                 0.0000
     32 ****         2.1749  -0.8267  -3.0199 H              1 S1                 0.0000
     33 ****        -0.2022   0.6865  -2.2014 H              1 S1                 0.0000
     34 ****         0.2516  -0.9090  -1.6284 H              1 S1                 0.0000
     35 ****         0.3317   1.1331   0.1688 H              1 S1                 0.0000
     36 ****         2.5872   2.4071  -0.2781 H              1 S1                 0.0000
     37 ****         1.5079   2.5726  -1.6815 H              1 S1                 0.0000
     38 ****        -4.6226   1.4014   2.4038 LP             1 S1                 0.0000
     39 ****        -4.3767   0.0995   3.5194 LP             1 S1                 0.0000
     40 ****        -1.2218  -1.0471   4.1072 LP             1 S1                 0.0000
     41 ****         0.9800  -1.9376   3.2540 LP             1 S1                 0.0000
     42 ****         0.8931  -0.3449   2.9039 LP             1 S1                 0.0000
     43 ****        -1.1035  -1.9078   0.0289 LP             1 S1                 0.0000
@<TRIPOS>BOND
    1    1    2 1     
    2    1   19 1     
    3    1   20 1     
    4    1   21 1     
    5    2    3 am    
    6    2   22 1     
    7    3    4 2     
    8    3    5 1     
    9    5    6 1     
   10    5   23 1     
   11    5   24 1     
   12    6   18 1     
   13    6    7 2     
   14    7    8 1     
   15    8    9 1     
   16    9   10 1     
   17    9   18 2     
   18   10   11 1     
   19   10   25 1     
   20   10   26 1     
   21   11   16 1     
   22   11   12 1     
   23   11   27 1     
   24   12   13 1     
   25   12   28 1     
   26   12   29 1     
   27   13   17 1     
   28   13   14 1     
   29   13   30 1     
   30   14   15 1     
   31   14   31 1     
   32   14   32 1     
   33   15   16 1     
   34   15   33 1     
   35   15   34 1     
   36   16   17 1     
   37   16   35 1     
   38   17   36 1     
   39   17   37 1     
   40    4   38 1     
   41    4   39 1     
   42    7   40 1     
   43    8   41 1     
   44    8   42 1     
   45   18   43 1     
@<TRIPOS>SUBSTRUCTURE
      1 S1             1
@<TRIPOS>SET
LONE_PAIRS      STATIC     ATOMS    <user>   **** ""
6 38 39 40 41 42 43
DONOR_HYDROGENS      STATIC     ATOMS    <user>   **** ""
1 22
ATOM$BLUE        STATIC     ATOMS    COLORGROUP SYSTEM
6 38 39 40 41 42 43
ATOM$RED        STATIC     ATOMS    COLORGROUP SYSTEM
1 22
