AV-unprocessed.smi:3303|AV-procd|sdf|12667|dock2
  -GOLD-   2272019 03D 1   1.00000     0.00000
 Structure written by MMmdl.
 45 46  0  0  0  0  0  0  0  0  3 V2000
  150.9747  139.5645  154.8917 C   0  0  0  0  0  0  0  0  0  0  0  0
  149.7360  139.8837  155.7555 C   0  0  2  0  0  0  0  0  0  0  0  0
  148.5505  138.9684  155.3842 C   0  0  0  0  0  0  0  0  0  0  0  0
  147.9844  139.3221  154.0562 N   0  3  1  0  0  0  0  0  0  0  0  0
  146.9945  138.3326  153.5727 C   0  0  0  0  0  0  0  0  0  0  0  0
  147.5322  140.7407  153.9574 C   0  0  1  0  0  0  0  0  0  0  0  0
  146.2418  141.0343  154.7533 C   0  0  0  0  0  0  0  0  0  0  0  0
  148.6817  141.7017  154.3333 C   0  0  0  0  0  0  0  0  0  0  0  0
  149.2947  141.3657  155.7105 C   0  0  2  0  0  0  0  0  0  0  0  0
  150.4148  142.2678  156.0683 N   0  3  0  0  0  0  0  0  0  0  0  0
  151.0664  141.9885  157.3651 C   0  0  0  0  0  0  0  0  0  0  0  0
  151.7501  143.2475  157.9162 C   0  0  0  0  0  0  0  0  0  0  0  0
  152.1917  143.0773  159.3573 C   0  0  0  0  0  0  0  0  0  0  0  0
  151.8308  144.0236  160.3398 C   0  0  0  0  0  0  0  0  0  0  0  0
  152.2686  143.8166  161.6625 C   0  0  0  0  0  0  0  0  0  0  0  0
  153.0476  142.6792  161.9489 C   0  0  0  0  0  0  0  0  0  0  0  0
  153.3552  141.7947  160.8961 C   0  0  0  0  0  0  0  0  0  0  0  0
  152.9402  141.9835  159.6244 N   0  0  0  0  0  0  0  0  0  0  0  0
  150.7967  139.7511  153.8329 H   0  0  0  0  0  0  0  0  0  0  0  0
  151.2568  138.5162  154.9925 H   0  0  0  0  0  0  0  0  0  0  0  0
  151.8399  140.1553  155.1917 H   0  0  0  0  0  0  0  0  0  0  0  0
  150.0102  139.6535  156.7862 H   0  0  0  0  0  0  0  0  0  0  0  0
  148.8804  137.9285  155.3740 H   0  0  0  0  0  0  0  0  0  0  0  0
  147.7720  139.0307  156.1454 H   0  0  0  0  0  0  0  0  0  0  0  0
  146.1491  138.2437  154.2558 H   0  0  0  0  0  0  0  0  0  0  0  0
  147.4562  137.3488  153.4836 H   0  0  0  0  0  0  0  0  0  0  0  0
  146.6171  138.6102  152.5880 H   0  0  0  0  0  0  0  0  0  0  0  0
  147.3001  140.9236  152.9071 H   0  0  0  0  0  0  0  0  0  0  0  0
  145.9599  142.0828  154.6546 H   0  0  0  0  0  0  0  0  0  0  0  0
  146.3505  140.8277  155.8174 H   0  0  0  0  0  0  0  0  0  0  0  0
  145.3986  140.4494  154.3864 H   0  0  0  0  0  0  0  0  0  0  0  0
  149.4554  141.6558  153.5661 H   0  0  0  0  0  0  0  0  0  0  0  0
  148.3107  142.7264  154.3149 H   0  0  0  0  0  0  0  0  0  0  0  0
  148.5271  141.4974  156.4742 H   0  0  0  0  0  0  0  0  0  0  0  0
  151.1232  142.1749  155.3540 H   0  0  0  0  0  0  0  0  0  0  0  0
  150.3261  141.6304  158.0804 H   0  0  0  0  0  0  0  0  0  0  0  0
  151.8032  141.1944  157.2367 H   0  0  0  0  0  0  0  0  0  0  0  0
  152.6164  143.5001  157.3030 H   0  0  0  0  0  0  0  0  0  0  0  0
  151.0722  144.1004  157.8551 H   0  0  0  0  0  0  0  0  0  0  0  0
  151.2315  144.8871  160.0912 H   0  0  0  0  0  0  0  0  0  0  0  0
  152.0110  144.5173  162.4430 H   0  0  0  0  0  0  0  0  0  0  0  0
  153.3998  142.4881  162.9519 H   0  0  0  0  0  0  0  0  0  0  0  0
  153.9506  140.9127  161.0800 H   0  0  0  0  0  0  0  0  0  0  0  0
  150.0828  143.2219  156.0637 H   0  0  0  0  0  0  0  0  0  0  0  0
  148.7586  139.2498  153.4112 H   0  0  0  0  0  0  0  0  0  0  0  0
  1  2  1  0  0  0  0
  1 19  1  0  0  0  0
  1 20  1  0  0  0  0
  1 21  1  0  0  0  0
  2  9  1  0  0  0  0
  2  3  1  0  0  0  0
  2 22  1  0  0  0  0
  3  4  1  0  0  0  0
  3 23  1  0  0  0  0
  3 24  1  0  0  0  0
  4  5  1  0  0  0  0
  4  6  1  0  0  0  0
  4 45  1  0  0  0  0
  5 25  1  0  0  0  0
  5 26  1  0  0  0  0
  5 27  1  0  0  0  0
  6  7  1  0  0  0  0
  6  8  1  0  0  0  0
  6 28  1  0  0  0  0
  7 29  1  0  0  0  0
  7 30  1  0  0  0  0
  7 31  1  0  0  0  0
  8  9  1  0  0  0  0
  8 32  1  0  0  0  0
  8 33  1  0  0  0  0
  9 10  1  0  0  0  0
  9 34  1  0  0  0  0
 10 11  1  0  0  0  0
 10 35  1  0  0  0  0
 10 44  1  0  0  0  0
 11 12  1  0  0  0  0
 11 36  1  0  0  0  0
 11 37  1  0  0  0  0
 12 13  1  0  0  0  0
 12 38  1  0  0  0  0
 12 39  1  0  0  0  0
 13 18  1  0  0  0  0
 13 14  2  0  0  0  0
 14 15  1  0  0  0  0
 14 40  1  0  0  0  0
 15 16  2  0  0  0  0
 15 41  1  0  0  0  0
 16 17  1  0  0  0  0
 16 42  1  0  0  0  0
 17 18  2  0  0  0  0
 17 43  1  0  0  0  0
M  CHG  1   4   1
M  CHG  1  10   1
M  END
> <s_m_source_file>
AV-unprocessed.smi

> <i_m_source_file_index>
3303

> <i_lp_mmshare_version>
43012

> <i_f3d_flags>
0

> <s_epik_input>
W0NIM11bQ0BASF0xW0NIMl1OKFtDSDNdKVtDQEBIXShbQ0gzXSlbQ0gyXVtDQEhdMVtOSF1bQ0gyXVtDSDJdYzJbY0hdW2NIXVtjSF1bY0hdbjI=

> <s_epik_cmdline>
J2VwaWtfcHl0aG9uJywgJy1waCcsICc3LjAnLCAnLXRuJywgJzgnLCAnLW1hJywgJzIwMCcsICctbWV0YWxfYmluZGluZycsICctaW1hZScsICc8aW5maWxlLm1hZT4nLCAnLW9tYWUnLCAnPG91dGZpbGUubWFlPic=

> <r_epik_Ionization_Penalty>
0.0769462

> <r_epik_Ionization_Penalty_Charging>
0.0759813

> <r_epik_Ionization_Penalty_Neutral>
0.000964829

> <r_epik_State_Penalty>
0.0654373

> <r_epik_Charging_Adjusted_Penalty>
0.141419

> <i_epik_Tot_Q>
2

> <i_epik_Tot_abs_Q>
2

> <r_epik_Metal_State_Penalty>
0.0656439

> <b_epik_Metal_Only>
0

> <s_lp_Force_Field>
OPLS_2005

> <r_lp_Energy>
31.612

> <b_lp_Chiralities_Consistent>
1

> <s_lp_Variant>
AV-unprocessed.smi:3303-11

> <Gold.Version>
5.8.1

> <Gold.Id.Protein>
6NUR|6NUR_protein|mol2

> <Gold.PLP.Fitness>
45.2406

> <Gold.PLP.PLP>
-39.6945

> <Gold.PLP.part.hbond>
-1.0000

> <Gold.PLP.part.metal>
0.0000

> <Gold.PLP.part.buried>
-3.6475

> <Gold.PLP.part.nonpolar>
-34.7234

> <Gold.PLP.part.repulsive>
0.1308

> <Gold.PLP.ligand.clash>
0.0000

> <Gold.PLP.ligand.torsion>
0.2353

> <Gold.PLP.Chemscore.Hbond>
2.0000

> <Gold.PLP.Chemscore.CHOScore>
0.0000

> <Gold.PLP.Chemscore.Metal>
0.0000

> <Gold.Chemscore.Hbonds>
donor molecule, donor type, donor heavy atom, donor atom, acceptor molecule, acceptor atom, score
      L1  H    10    44       P1  8028  2.00

> <Gold.PLP.Chemscore.Internal.Correction>
0.0166

> <Gold.Rescore>
     Score         DG    S(hbond)    S(metal)    S(lipo)     H(rot)  DE(clash)    DE(int)     intcor
     19.11     -19.33       1.00        0.00     119.96       1.37       0.11       0.11       ----

> <Gold.Chemscore.Fitness>
19.1074

> <Gold.Chemscore.DG>
-19.3333

> <Gold.Chemscore.ZeroCoef>
-5.4800

> <Gold.Chemscore.Hbond>
0.9991

> <Gold.Chemscore.Metal>
0.0000

> <Gold.Chemscore.Lipo>
119.9565

> <Gold.Chemscore.Internal_Hbond>
0.0000

> <Gold.Chemscore.DEClash>
0.1118

> <Gold.Chemscore.DEInternal>
0.1142

> <Gold.Chemscore.Rot>
1.3744

> <Gold.Chemscore.Internal.Correction>
   9.000000E+99

> <Gold.Chemscore.Hbonds>
donor molecule, donor type, donor heavy atom, donor atom, acceptor molecule, acceptor atom, score
      L1  H     4    45       P1  7957  0.01
      L1  H    10    44       P1  8028  0.98

> <Gold.Chemscore.Hbond.Weighted>
-3.3369

> <Gold.Chemscore.Metal.Weighted>
-0.0000

> <Gold.Chemscore.Lipo.Weighted>
-14.0349

> <Gold.Chemscore.Internal_Hbond.Weighted>
0.0000

> <Gold.Chemscore.DEClash.Weighted>
0.1118

> <Gold.Chemscore.DEInternal.Weighted>
0.1142

> <Gold.Chemscore.Rot.Weighted>
3.5185

> <Gold.Chemscore.Internal.Correction.Weighted>
   9.000000E+99

> <Gold.Protein.RotatedTorsions>
[ 6907 6896 6895 6894 ] final -133.98 input  -60.11 | X-H torsion
[ 7974 7965 7964 7962 ] final  -66.67 input  175.53 | X-H torsion
[ 8008 7997 7996 7995 ] final -175.34 input   59.86 | X-H torsion
[ 10167 10162 10161 10158 ] final   71.82 input  -65.29 | X-H torsion
[ 10718 10713 10712 10709 ] final   45.53 input   66.30 | X-H torsion
[ 10763 10752 10751 10750 ] final  -29.24 input  -60.55 | X-H torsion
[ 11005 11000 10999 10996 ] final -123.37 input  -57.11 | X-H torsion

> <Gold.Protein.ActiveResidues>
 VAL166  LYS551  ARG553  GLY616  TRP617  ASP618  TYR619  PRO620  LYS621  CYS622 
 ASP623  PHE694  ASN695  SER759  ASP760  ASP761  ALA762  ILE779  LEU786  VAL792 
 PHE793  MET794  SER795  GLU796  ALA797  LYS798  CYS799  TRP800  GLU811  SER814 

> <Gold.Protein.RotatedAtoms>
  150.9804  133.6252  159.2723 H   0  0  0  0  0  0  0  0  0  0  0  0  # atno 6907 bound_to 6896
  151.3509  135.0883  159.9412 H   0  0  0  0  0  0  0  0  0  0  0  0  # atno 6908 bound_to 6896
  152.5213  133.9396  159.7674 H   0  0  0  0  0  0  0  0  0  0  0  0  # atno 6909 bound_to 6896
  145.7388  140.8963  143.0541 H   0  0  0  0  0  0  0  0  0  0  0  0  # atno 7974 bound_to 7965
  155.9813  140.1182  157.0724 H   0  0  0  0  0  0  0  0  0  0  0  0  # atno 8008 bound_to 7997
  154.4183  140.1144  156.5507 H   0  0  0  0  0  0  0  0  0  0  0  0  # atno 8009 bound_to 7997
  155.6467  140.3473  155.4736 H   0  0  0  0  0  0  0  0  0  0  0  0  # atno 8010 bound_to 7997
  140.0419  144.5382  150.7427 H   0  0  0  0  0  0  0  0  0  0  0  0  # atno 10167 bound_to 10162
  157.4385  130.8067  149.7671 H   0  0  0  0  0  0  0  0  0  0  0  0  # atno 10718 bound_to 10713
  153.7615  135.6919  153.4924 H   0  0  0  0  0  0  0  0  0  0  0  0  # atno 10763 bound_to 10752
  153.1935  135.4462  155.0178 H   0  0  0  0  0  0  0  0  0  0  0  0  # atno 10764 bound_to 10752
  154.8151  135.3395  154.7130 H   0  0  0  0  0  0  0  0  0  0  0  0  # atno 10765 bound_to 10752
  140.9924  134.0520  157.3638 H   0  0  0  0  0  0  0  0  0  0  0  0  # atno 11005 bound_to 11000
  144.6875  139.9432  143.7476 LP  0  0  0  0  0  0  0  0  0  0  0  0  # atno 17320 bound_to 7965
  146.0467  139.3473  143.0664 LP  0  0  0  0  0  0  0  0  0  0  0  0  # atno 17321 bound_to 7965
  140.7256  143.2633  151.4131 LP  0  0  0  0  0  0  0  0  0  0  0  0  # atno 17342 bound_to 10162
  139.6008  144.1299  152.2196 LP  0  0  0  0  0  0  0  0  0  0  0  0  # atno 17343 bound_to 10162
  155.9939  130.3921  150.2879 LP  0  0  0  0  0  0  0  0  0  0  0  0  # atno 17370 bound_to 10713
  157.1042  131.0204  151.3074 LP  0  0  0  0  0  0  0  0  0  0  0  0  # atno 17371 bound_to 10713
  139.8998  135.0160  156.7214 LP  0  0  0  0  0  0  0  0  0  0  0  0  # atno 17394 bound_to 11000
  140.7019  133.9298  155.8030 LP  0  0  0  0  0  0  0  0  0  0  0  0  # atno 17395 bound_to 11000

$$$$
