AV-unprocessed.smi:49|AV-procd|sdf|488|dock3
  -GOLD-   2262016353D 1   1.00000     0.00000
 Structure written by MMmdl.
 26 27  0  0  0  0  0  0  0  0  2 V2000
  152.4634  140.7821  159.1884 C   0  0  0  0  0  0  0  0  0  0  0  0
  151.7696  139.5325  158.6369 C   0  0  0  0  0  0  0  0  0  0  0  0
  151.4787  139.6498  157.1569 C   0  0  0  0  0  0  0  0  0  0  0  0
  150.2748  139.6081  156.5951 N   0  0  0  0  0  0  0  0  0  0  0  0
  150.4775  139.7816  155.2814 C   0  0  0  0  0  0  0  0  0  0  0  0
  149.3639  139.8381  154.2527 C   0  0  1  0  0  0  0  0  0  0  0  0
  147.9945  139.4945  154.8523 C   0  0  0  0  0  0  0  0  0  0  0  0
  147.0384  140.2588  153.9486 C   0  0  1  0  0  0  0  0  0  0  0  0
  145.7856  140.5056  154.5512 O   0  0  0  0  0  0  0  0  0  0  0  0
  147.8172  141.5425  153.6761 C   0  0  0  0  0  0  0  0  0  0  0  0
  149.2215  141.1464  153.6016 N   0  0  0  0  0  0  0  0  0  0  0  0
  151.7841  139.9557  155.0231 N   0  0  0  0  0  0  0  0  0  0  0  0
  152.3877  139.8713  156.1913 N   0  5  0  0  0  0  0  0  0  0  0  0
  149.5907  139.1000  153.4823 H   0  0  0  0  0  0  0  0  0  0  0  0
  146.8897  139.7094  153.0179 H   0  0  0  0  0  0  0  0  0  0  0  0
  152.6634  140.6777  160.2548 H   0  0  0  0  0  0  0  0  0  0  0  0
  151.8432  141.6680  159.0488 H   0  0  0  0  0  0  0  0  0  0  0  0
  153.4147  140.9564  158.6847 H   0  0  0  0  0  0  0  0  0  0  0  0
  152.3936  138.6543  158.8047 H   0  0  0  0  0  0  0  0  0  0  0  0
  150.8332  139.3598  159.1681 H   0  0  0  0  0  0  0  0  0  0  0  0
  147.8010  138.4223  154.8901 H   0  0  0  0  0  0  0  0  0  0  0  0
  147.9243  139.8846  155.8695 H   0  0  0  0  0  0  0  0  0  0  0  0
  145.1137  140.4115  153.8935 H   0  0  0  0  0  0  0  0  0  0  0  0
  147.4878  142.0493  152.7687 H   0  0  0  0  0  0  0  0  0  0  0  0
  147.6851  142.2356  154.5081 H   0  0  0  0  0  0  0  0  0  0  0  0
  149.4782  141.0449  152.6254 H   0  0  0  0  0  0  0  0  0  0  0  0
  1  2  1  0  0  0  0
  1 16  1  0  0  0  0
  1 17  1  0  0  0  0
  1 18  1  0  0  0  0
  2  3  1  0  0  0  0
  2 19  1  0  0  0  0
  2 20  1  0  0  0  0
  3 13  1  0  0  0  0
  3  4  2  0  0  0  0
  4  5  1  0  0  0  0
  5  6  1  0  0  0  0
  5 12  2  0  0  0  0
  6 14  1  0  0  0  0
  6 11  1  0  0  0  0
  6  7  1  0  0  0  0
  7  8  1  0  0  0  0
  7 21  1  0  0  0  0
  7 22  1  0  0  0  0
  8 15  1  0  0  0  0
  8  9  1  0  0  0  0
  8 10  1  0  0  0  0
  9 23  1  0  0  0  0
 10 11  1  0  0  0  0
 10 24  1  0  0  0  0
 10 25  1  0  0  0  0
 11 26  1  0  0  0  0
 12 13  1  0  0  0  0
M  CHG  1  13  -1
M  END
> <s_m_source_file>
AV-unprocessed.smi

> <i_m_source_file_index>
49

> <i_lp_mmshare_version>
43012

> <i_f3d_flags>
0

> <s_epik_input>
W0NIM11bQ0gyXWMxbmMobltuSF0xKVtDQEBIXTJbQ0gyXVtDQEBIXShbT0hdKVtDSDJdW05IXTI=

> <s_epik_cmdline>
J2VwaWtfcHl0aG9uJywgJy1waCcsICc3LjAnLCAnLXRuJywgJzgnLCAnLW1hJywgJzIwMCcsICctbWV0YWxfYmluZGluZycsICctaW1hZScsICc8aW5maWxlLm1hZT4nLCAnLW9tYWUnLCAnPG91dGZpbGUubWFlPic=

> <r_lp_tautomer_probability>
0.948284

> <r_epik_Ionization_Penalty>
20.726

> <r_epik_Ionization_Penalty_Charging>
17.6814

> <r_epik_Ionization_Penalty_Neutral>
3.04463

> <r_epik_State_Penalty>
7.95092

> <r_epik_Charging_Adjusted_Penalty>
25.6323

> <i_epik_Tot_Q>
-1

> <i_epik_Tot_abs_Q>
1

> <r_epik_Metal_State_Penalty>
4.146

> <b_epik_Metal_Only>
1

> <s_lp_Force_Field>
OPLS_2005

> <r_lp_Energy>
18.1794

> <b_lp_Chiralities_Consistent>
1

> <s_lp_Variant>
AV-unprocessed.smi:49-26

> <Gold.Version>
5.8.1

> <Gold.Id.Protein>
6NUR|6NUR_protein|mol2

> <Gold.PLP.Fitness>
36.8112

> <Gold.PLP.PLP>
-21.9859

> <Gold.PLP.part.hbond>
-6.0000

> <Gold.PLP.part.metal>
0.0000

> <Gold.PLP.part.buried>
-3.2539

> <Gold.PLP.part.nonpolar>
-12.9315

> <Gold.PLP.part.repulsive>
0.0400

> <Gold.PLP.ligand.clash>
0.0000

> <Gold.PLP.ligand.torsion>
0.0600

> <Gold.PLP.Chemscore.Hbond>
4.9760

> <Gold.PLP.Chemscore.CHOScore>
0.0000

> <Gold.PLP.Chemscore.Metal>
0.0000

> <Gold.Chemscore.Hbonds>
donor molecule, donor type, donor heavy atom, donor atom, acceptor molecule, acceptor atom, score
      L1  H     9    23       P1 10175  1.00
      L1  H    11    26       P1  7957  1.00
      P1  H  7989  7998       L1    12  0.98
      P1  H  7997  8008       L1    13  2.00

> <Gold.PLP.Chemscore.Internal.Correction>
0.0173

> <Gold.Rescore>
     Score         DG    S(hbond)    S(metal)    S(lipo)     H(rot)  DE(clash)    DE(int)     intcor
     16.30     -16.40       3.45        0.00      34.64       1.82       0.07       0.03       ----

> <Gold.Chemscore.Fitness>
16.3006

> <Gold.Chemscore.DG>
-16.4001

> <Gold.Chemscore.ZeroCoef>
-5.4800

> <Gold.Chemscore.Hbond>
3.4530

> <Gold.Chemscore.Metal>
0.0000

> <Gold.Chemscore.Lipo>
34.6398

> <Gold.Chemscore.Internal_Hbond>
0.0000

> <Gold.Chemscore.DEClash>
0.0663

> <Gold.Chemscore.DEInternal>
0.0331

> <Gold.Chemscore.Rot>
1.8226

> <Gold.Chemscore.Internal.Correction>
   9.000000E+99

> <Gold.Chemscore.Hbonds>
donor molecule, donor type, donor heavy atom, donor atom, acceptor molecule, acceptor atom, score
      L1  H     9    23       P1 10175  0.95
      L1  H    11    26       P1  7957  0.95
      P1  H  7989  7998       L1    12  0.24
      P1  H  7997  8008       L1    13  0.94

> <Gold.Chemscore.Hbond.Weighted>
-11.5331

> <Gold.Chemscore.Metal.Weighted>
-0.0000

> <Gold.Chemscore.Lipo.Weighted>
-4.0529

> <Gold.Chemscore.Internal_Hbond.Weighted>
0.0000

> <Gold.Chemscore.DEClash.Weighted>
0.0663

> <Gold.Chemscore.DEInternal.Weighted>
0.0331

> <Gold.Chemscore.Rot.Weighted>
4.6658

> <Gold.Chemscore.Internal.Correction.Weighted>
   9.000000E+99

> <Gold.Protein.RotatedTorsions>
[ 6907 6896 6895 6894 ] final    9.26 input  -60.11 | X-H torsion
[ 7974 7965 7964 7962 ] final -128.74 input  175.53 | X-H torsion
[ 8008 7997 7996 7995 ] final  -37.40 input   59.86 | X-H torsion
[ 10167 10162 10161 10158 ] final   45.52 input  -65.29 | X-H torsion
[ 10718 10713 10712 10709 ] final  175.42 input   66.30 | X-H torsion
[ 10763 10752 10751 10750 ] final   69.74 input  -60.55 | X-H torsion
[ 11005 11000 10999 10996 ] final -144.11 input  -57.11 | X-H torsion

> <Gold.Protein.ActiveResidues>
 VAL166  LYS551  ARG553  GLY616  TRP617  ASP618  TYR619  PRO620  LYS621  CYS622 
 ASP623  PHE694  ASN695  SER759  ASP760  ASP761  ALA762  ILE779  LEU786  VAL792 
 PHE793  MET794  SER795  GLU796  ALA797  LYS798  CYS799  TRP800  GLU811  SER814 

> <Gold.Protein.RotatedAtoms>
  151.7192  135.0897  160.0280 H   0  0  0  0  0  0  0  0  0  0  0  0  # atno 6907 bound_to 6896
  152.3612  133.6295  159.6025 H   0  0  0  0  0  0  0  0  0  0  0  0  # atno 6908 bound_to 6896
  150.7606  133.9336  159.3476 H   0  0  0  0  0  0  0  0  0  0  0  0  # atno 6909 bound_to 6896
  144.9641  140.7478  143.4711 H   0  0  0  0  0  0  0  0  0  0  0  0  # atno 7974 bound_to 7965
  154.4054  140.1605  156.2530 H   0  0  0  0  0  0  0  0  0  0  0  0  # atno 8008 bound_to 7997
  155.9102  140.3428  155.6070 H   0  0  0  0  0  0  0  0  0  0  0  0  # atno 8009 bound_to 7997
  155.7345  140.0784  157.2264 H   0  0  0  0  0  0  0  0  0  0  0  0  # atno 8010 bound_to 7997
  140.3233  144.2678  150.6179 H   0  0  0  0  0  0  0  0  0  0  0  0  # atno 10167 bound_to 10162
  156.9352  130.9983  151.2979 H   0  0  0  0  0  0  0  0  0  0  0  0  # atno 10718 bound_to 10713
  153.0303  135.5199  154.7334 H   0  0  0  0  0  0  0  0  0  0  0  0  # atno 10763 bound_to 10752
  154.6355  135.2905  155.0168 H   0  0  0  0  0  0  0  0  0  0  0  0  # atno 10764 bound_to 10752
  154.1105  135.6623  153.4936 H   0  0  0  0  0  0  0  0  0  0  0  0  # atno 10765 bound_to 10752
  140.8057  134.2804  157.4961 H   0  0  0  0  0  0  0  0  0  0  0  0  # atno 11005 bound_to 11000
  145.2656  139.1975  143.4869 LP  0  0  0  0  0  0  0  0  0  0  0  0  # atno 17320 bound_to 7965
  146.3362  140.2593  142.8601 LP  0  0  0  0  0  0  0  0  0  0  0  0  # atno 17321 bound_to 7965
  140.5464  143.2214  151.8000 LP  0  0  0  0  0  0  0  0  0  0  0  0  # atno 17342 bound_to 10162
  139.4870  144.4534  151.9627 LP  0  0  0  0  0  0  0  0  0  0  0  0  # atno 17343 bound_to 10162
  157.5821  130.8384  149.8537 LP  0  0  0  0  0  0  0  0  0  0  0  0  # atno 17370 bound_to 10713
  156.0429  130.3734  150.1390 LP  0  0  0  0  0  0  0  0  0  0  0  0  # atno 17371 bound_to 10713
  139.8718  134.9455  156.3911 LP  0  0  0  0  0  0  0  0  0  0  0  0  # atno 17394 bound_to 11000
  140.9249  133.7619  155.9952 LP  0  0  0  0  0  0  0  0  0  0  0  0  # atno 17395 bound_to 11000

$$$$
