AV-unprocessed.smi:2178|AV-procd|sdf|8853|dock8
  -GOLD-   2272012 43D 1   1.00000     0.00000
 Structure written by MMmdl.
 46 48  0  0  0  0  0  0  0  0  1 V2000
  148.9988  136.5315  162.6337 C   0  0  0  0  0  0  0  0  0  0  0  0
  148.4927  135.8304  161.3869 C   0  0  0  0  0  0  0  0  0  0  0  0
  147.2740  135.1222  161.4297 C   0  0  0  0  0  0  0  0  0  0  0  0
  146.7995  134.4592  160.2829 C   0  0  0  0  0  0  0  0  0  0  0  0
  147.5451  134.4957  159.0902 C   0  0  0  0  0  0  0  0  0  0  0  0
  148.7662  135.1992  159.0359 C   0  0  0  0  0  0  0  0  0  0  0  0
  149.5619  135.2102  157.7440 C   0  0  0  0  0  0  0  0  0  0  0  0
  149.2354  135.8814  160.1839 C   0  0  0  0  0  0  0  0  0  0  0  0
  150.4204  136.5696  160.1459 O   0  0  0  0  0  0  0  0  0  0  0  0
  150.4150  137.6661  159.2431 C   0  0  0  0  0  0  0  0  0  0  0  0
  151.7734  138.3765  159.3178 C   0  0  1  0  0  0  0  0  0  0  0  0
  152.7455  137.4471  159.7528 O   0  0  0  0  0  0  0  0  0  0  0  0
  152.1921  138.9825  157.9633 C   0  0  0  0  0  0  0  0  0  0  0  0
  151.7226  140.3513  157.7957 N   0  0  0  0  0  0  0  0  0  0  0  0
  150.8236  140.8339  156.9006 C   0  0  0  0  0  0  0  0  0  0  0  0
  150.1530  139.9355  155.9001 C   0  0  0  0  0  0  0  0  0  0  0  0
  151.0383  139.3552  154.9630 O   0  0  0  0  0  0  0  0  0  0  0  0
  150.5790  142.1445  156.9802 N   0  0  0  0  0  0  0  0  0  0  0  0
  151.3952  142.5469  158.0187 C   0  0  0  0  0  0  0  0  0  0  0  0
  151.5945  143.8244  158.5893 C   0  0  0  0  0  0  0  0  0  0  0  0
  152.4941  143.9944  159.6622 C   0  0  0  0  0  0  0  0  0  0  0  0
  153.2044  142.8918  160.1800 C   0  0  0  0  0  0  0  0  0  0  0  0
  153.0200  141.6104  159.6259 C   0  0  0  0  0  0  0  0  0  0  0  0
  152.1227  141.4471  158.5534 C   0  0  0  0  0  0  0  0  0  0  0  0
  148.4235  136.2417  163.5133 H   0  0  0  0  0  0  0  0  0  0  0  0
  148.9226  137.6128  162.5192 H   0  0  0  0  0  0  0  0  0  0  0  0
  150.0430  136.2774  162.8177 H   0  0  0  0  0  0  0  0  0  0  0  0
  146.6984  135.0825  162.3430 H   0  0  0  0  0  0  0  0  0  0  0  0
  145.8657  133.9178  160.3197 H   0  0  0  0  0  0  0  0  0  0  0  0
  147.1770  133.9779  158.2164 H   0  0  0  0  0  0  0  0  0  0  0  0
  150.6336  135.1911  157.9431 H   0  0  0  0  0  0  0  0  0  0  0  0
  149.3329  136.1060  157.1669 H   0  0  0  0  0  0  0  0  0  0  0  0
  149.3229  134.3404  157.1315 H   0  0  0  0  0  0  0  0  0  0  0  0
  150.2424  137.2943  158.2323 H   0  0  0  0  0  0  0  0  0  0  0  0
  149.6075  138.3643  159.4714 H   0  0  0  0  0  0  0  0  0  0  0  0
  151.7174  139.1644  160.0699 H   0  0  0  0  0  0  0  0  0  0  0  0
  152.4696  137.0903  160.5833 H   0  0  0  0  0  0  0  0  0  0  0  0
  153.2746  138.9439  157.8431 H   0  0  0  0  0  0  0  0  0  0  0  0
  151.7788  138.3889  157.1474 H   0  0  0  0  0  0  0  0  0  0  0  0
  149.6375  139.1310  156.4244 H   0  0  0  0  0  0  0  0  0  0  0  0
  149.4003  140.5087  155.3581 H   0  0  0  0  0  0  0  0  0  0  0  0
  150.7845  138.4555  154.8274 H   0  0  0  0  0  0  0  0  0  0  0  0
  151.0545  144.6749  158.2004 H   0  0  0  0  0  0  0  0  0  0  0  0
  152.6397  144.9756  160.0898 H   0  0  0  0  0  0  0  0  0  0  0  0
  153.8910  143.0304  161.0023 H   0  0  0  0  0  0  0  0  0  0  0  0
  153.5626  140.7636  160.0191 H   0  0  0  0  0  0  0  0  0  0  0  0
  1  2  1  0  0  0  0
  1 25  1  0  0  0  0
  1 26  1  0  0  0  0
  1 27  1  0  0  0  0
  2  8  1  0  0  0  0
  2  3  2  0  0  0  0
  3  4  1  0  0  0  0
  3 28  1  0  0  0  0
  4  5  2  0  0  0  0
  4 29  1  0  0  0  0
  5  6  1  0  0  0  0
  5 30  1  0  0  0  0
  6  7  1  0  0  0  0
  6  8  2  0  0  0  0
  7 31  1  0  0  0  0
  7 32  1  0  0  0  0
  7 33  1  0  0  0  0
  8  9  1  0  0  0  0
  9 10  1  0  0  0  0
 10 11  1  0  0  0  0
 10 34  1  0  0  0  0
 10 35  1  0  0  0  0
 11 12  1  0  0  0  0
 11 13  1  0  0  0  0
 11 36  1  0  0  0  0
 12 37  1  0  0  0  0
 13 14  1  0  0  0  0
 13 38  1  0  0  0  0
 13 39  1  0  0  0  0
 14 24  1  0  0  0  0
 14 15  1  0  0  0  0
 15 16  1  0  0  0  0
 15 18  2  0  0  0  0
 16 17  1  0  0  0  0
 16 40  1  0  0  0  0
 16 41  1  0  0  0  0
 17 42  1  0  0  0  0
 18 19  1  0  0  0  0
 19 24  2  0  0  0  0
 19 20  1  0  0  0  0
 20 21  2  0  0  0  0
 20 43  1  0  0  0  0
 21 22  1  0  0  0  0
 21 44  1  0  0  0  0
 22 23  2  0  0  0  0
 22 45  1  0  0  0  0
 23 24  1  0  0  0  0
 23 46  1  0  0  0  0
M  END
> <s_m_source_file>
AV-unprocessed.smi

> <i_m_source_file_index>
2178

> <i_lp_mmshare_version>
43012

> <i_f3d_flags>
0

> <s_epik_input>
W0NIM11jMVtjSF1bY0hdW2NIXWMoW0NIM10pYzFPW0NIMl1bQ0BIXShbT0hdKVtDSDJdbihjKG4yKVtDSDJdW09IXSljKGMyMylbY0hdW2NIXVtjSF1bY0hdMw==

> <s_epik_cmdline>
J2VwaWtfcHl0aG9uJywgJy1waCcsICc3LjAnLCAnLXRuJywgJzgnLCAnLW1hJywgJzIwMCcsICctbWV0YWxfYmluZGluZycsICctaW1hZScsICc8aW5maWxlLm1hZT4nLCAnLW9tYWUnLCAnPG91dGZpbGUubWFlPic=

> <r_lp_tautomer_probability>
1

> <r_epik_Ionization_Penalty>
0.0555874

> <r_epik_Ionization_Penalty_Charging>
0

> <r_epik_Ionization_Penalty_Neutral>
0.0555874

> <r_epik_State_Penalty>
0.0478234

> <r_epik_Charging_Adjusted_Penalty>
0.0478234

> <i_epik_Tot_Q>
0

> <i_epik_Tot_abs_Q>
0

> <r_epik_Metal_State_Penalty>
4.98044e-05

> <b_epik_Metal_Only>
0

> <s_lp_Force_Field>
OPLS_2005

> <r_lp_Energy>
18.9383

> <b_lp_Chiralities_Consistent>
1

> <s_lp_Variant>
AV-unprocessed.smi:2178-2

> <Gold.Version>
5.8.1

> <Gold.Id.Protein>
6NUR|6NUR_protein|mol2

> <Gold.PLP.Fitness>
46.1350

> <Gold.PLP.PLP>
-41.7425

> <Gold.PLP.part.hbond>
-2.6484

> <Gold.PLP.part.metal>
0.0000

> <Gold.PLP.part.buried>
-6.8160

> <Gold.PLP.part.nonpolar>
-32.8410

> <Gold.PLP.part.repulsive>
0.0894

> <Gold.PLP.ligand.clash>
0.0000

> <Gold.PLP.ligand.torsion>
0.8817

> <Gold.PLP.Chemscore.Hbond>
2.0000

> <Gold.PLP.Chemscore.CHOScore>
0.0000

> <Gold.PLP.Chemscore.Metal>
0.0000

> <Gold.Chemscore.Hbonds>
donor molecule, donor type, donor heavy atom, donor atom, acceptor molecule, acceptor atom, score
      P1  H  7989  7998       L1    17  0.62

> <Gold.PLP.Chemscore.Internal.Correction>
0.1560

> <Gold.Rescore>
     Score         DG    S(hbond)    S(metal)    S(lipo)     H(rot)  DE(clash)    DE(int)     intcor
     15.00     -16.14       1.80        0.00     104.48       2.96       0.02       1.13       ----

> <Gold.Chemscore.Fitness>
14.9950

> <Gold.Chemscore.DG>
-16.1387

> <Gold.Chemscore.ZeroCoef>
-5.4800

> <Gold.Chemscore.Hbond>
1.7972

> <Gold.Chemscore.Metal>
0.0000

> <Gold.Chemscore.Lipo>
104.4753

> <Gold.Chemscore.Internal_Hbond>
0.0000

> <Gold.Chemscore.DEClash>
0.0174

> <Gold.Chemscore.DEInternal>
1.1263

> <Gold.Chemscore.Rot>
2.9561

> <Gold.Chemscore.Internal.Correction>
   9.000000E+99

> <Gold.Chemscore.Hbonds>
donor molecule, donor type, donor heavy atom, donor atom, acceptor molecule, acceptor atom, score
      P1  H  7989  7998       L1    17  0.45

> <Gold.Chemscore.Hbond.Weighted>
-6.0027

> <Gold.Chemscore.Metal.Weighted>
-0.0000

> <Gold.Chemscore.Lipo.Weighted>
-12.2236

> <Gold.Chemscore.Internal_Hbond.Weighted>
0.0000

> <Gold.Chemscore.DEClash.Weighted>
0.0174

> <Gold.Chemscore.DEInternal.Weighted>
1.1263

> <Gold.Chemscore.Rot.Weighted>
7.5677

> <Gold.Chemscore.Internal.Correction.Weighted>
   9.000000E+99

> <Gold.Protein.RotatedTorsions>
[ 6907 6896 6895 6894 ] final -159.58 input  -60.11 | X-H torsion
[ 7974 7965 7964 7962 ] final -112.32 input  175.53 | X-H torsion
[ 8008 7997 7996 7995 ] final -172.13 input   59.86 | X-H torsion
[ 10167 10162 10161 10158 ] final  131.38 input  -65.29 | X-H torsion
[ 10718 10713 10712 10709 ] final -127.16 input   66.30 | X-H torsion
[ 10763 10752 10751 10750 ] final -153.54 input  -60.55 | X-H torsion
[ 11005 11000 10999 10996 ] final  -66.64 input  -57.11 | X-H torsion

> <Gold.Protein.ActiveResidues>
 VAL166  LYS551  ARG553  GLY616  TRP617  ASP618  TYR619  PRO620  LYS621  CYS622 
 ASP623  PHE694  ASN695  SER759  ASP760  ASP761  ALA762  ILE779  LEU786  VAL792 
 PHE793  MET794  SER795  GLU796  ALA797  LYS798  CYS799  TRP800  GLU811  SER814 

> <Gold.Protein.RotatedAtoms>
  151.3358  133.3982  159.2666 H   0  0  0  0  0  0  0  0  0  0  0  0  # atno 6907 bound_to 6896
  150.9918  134.9252  159.7914 H   0  0  0  0  0  0  0  0  0  0  0  0  # atno 6908 bound_to 6896
  152.5249  134.3322  159.9239 H   0  0  0  0  0  0  0  0  0  0  0  0  # atno 6909 bound_to 6896
  145.1454  140.8800  143.3677 H   0  0  0  0  0  0  0  0  0  0  0  0  # atno 7974 bound_to 7965
  155.9406  140.1108  157.1058 H   0  0  0  0  0  0  0  0  0  0  0  0  # atno 8008 bound_to 7997
  154.4088  140.1220  156.4988 H   0  0  0  0  0  0  0  0  0  0  0  0  # atno 8009 bound_to 7997
  155.6966  140.3472  155.4918 H   0  0  0  0  0  0  0  0  0  0  0  0  # atno 8010 bound_to 7997
  139.5386  144.6708  151.4700 H   0  0  0  0  0  0  0  0  0  0  0  0  # atno 10167 bound_to 10162
  156.1832  130.6745  151.0330 H   0  0  0  0  0  0  0  0  0  0  0  0  # atno 10718 bound_to 10713
  154.7921  135.3210  154.7753 H   0  0  0  0  0  0  0  0  0  0  0  0  # atno 10763 bound_to 10752
  153.8440  135.6868  153.4804 H   0  0  0  0  0  0  0  0  0  0  0  0  # atno 10764 bound_to 10752
  153.1595  135.4666  154.9693 H   0  0  0  0  0  0  0  0  0  0  0  0  # atno 10765 bound_to 10752
  141.1487  133.6703  156.6171 H   0  0  0  0  0  0  0  0  0  0  0  0  # atno 11005 bound_to 11000
  145.0488  139.3199  143.5939 LP  0  0  0  0  0  0  0  0  0  0  0  0  # atno 17320 bound_to 7965
  146.3500  139.9888  142.8688 LP  0  0  0  0  0  0  0  0  0  0  0  0  # atno 17321 bound_to 7965
  140.6606  143.8507  150.6883 LP  0  0  0  0  0  0  0  0  0  0  0  0  # atno 17342 bound_to 10162
  140.1900  143.4044  152.1870 LP  0  0  0  0  0  0  0  0  0  0  0  0  # atno 17343 bound_to 10162
  157.6881  131.0818  150.7184 LP  0  0  0  0  0  0  0  0  0  0  0  0  # atno 17370 bound_to 10713
  156.7241  130.4689  149.5515 LP  0  0  0  0  0  0  0  0  0  0  0  0  # atno 17371 bound_to 10713
  140.3569  134.7721  157.4507 LP  0  0  0  0  0  0  0  0  0  0  0  0  # atno 17394 bound_to 11000
  140.0816  134.5724  155.8535 LP  0  0  0  0  0  0  0  0  0  0  0  0  # atno 17395 bound_to 11000

$$$$
