AV-unprocessed.smi:160|AV-procd|sdf|1357|dock2
  -GOLD-   2262019 63D 1   1.00000     0.00000
 Structure written by MMmdl.
 29 30  0  0  0  0  0  0  0  0  1 V2000
  151.9028  137.9523  155.8245 N   0  0  0  0  0  0  0  0  0  0  0  0
  152.1623  139.0859  156.4842 C   0  0  0  0  0  0  0  0  0  0  0  0
  153.1864  139.2427  157.1471 O   0  0  0  0  0  0  0  0  0  0  0  0
  151.1266  140.1704  156.3741 C   0  0  0  0  0  0  0  0  0  0  0  0
  151.2881  141.3687  157.0099 N   0  0  0  0  0  0  0  0  0  0  0  0
  150.1630  141.9600  156.6287 C   0  0  0  0  0  0  0  0  0  0  0  0
  149.3904  141.2097  155.8367 N   0  0  0  0  0  0  0  0  0  0  0  0
  148.0632  141.5264  155.2133 C   0  0  2  0  0  0  0  0  0  0  0  0
  147.1512  140.5391  155.5951 O   0  0  0  0  0  0  0  0  0  0  0  0
  146.9424  139.6342  154.5154 C   0  0  1  0  0  0  0  0  0  0  0  0
  145.6075  138.8967  154.7006 C   0  0  0  0  0  0  0  0  0  0  0  0
  145.1578  138.3913  153.4614 O   0  0  0  0  0  0  0  0  0  0  0  0
  146.9601  140.5873  153.3196 C   0  0  2  0  0  0  0  0  0  0  0  0
  147.1375  139.9204  152.0838 O   0  0  0  0  0  0  0  0  0  0  0  0
  148.0964  141.5489  153.6656 C   0  0  2  0  0  0  0  0  0  0  0  0
  149.3386  141.1547  153.1012 O   0  0  0  0  0  0  0  0  0  0  0  0
  150.0121  140.0167  155.6576 N   0  0  0  0  0  0  0  0  0  0  0  0
  147.7791  142.4831  155.6532 H   0  0  0  0  0  0  0  0  0  0  0  0
  147.7744  138.9313  154.4412 H   0  0  0  0  0  0  0  0  0  0  0  0
  146.0220  141.1439  153.2876 H   0  0  0  0  0  0  0  0  0  0  0  0
  147.8701  142.5568  153.3163 H   0  0  0  0  0  0  0  0  0  0  0  0
  152.5597  137.1870  155.8599 H   0  0  0  0  0  0  0  0  0  0  0  0
  151.0474  137.8703  155.2937 H   0  0  0  0  0  0  0  0  0  0  0  0
  149.8980  142.9624  156.9311 H   0  0  0  0  0  0  0  0  0  0  0  0
  145.6944  138.0924  155.4316 H   0  0  0  0  0  0  0  0  0  0  0  0
  144.8460  139.5862  155.0662 H   0  0  0  0  0  0  0  0  0  0  0  0
  144.9055  139.1186  152.9135 H   0  0  0  0  0  0  0  0  0  0  0  0
  148.0329  140.0376  151.8061 H   0  0  0  0  0  0  0  0  0  0  0  0
  149.1749  140.5135  152.4266 H   0  0  0  0  0  0  0  0  0  0  0  0
  1  2  1  0  0  0  0
  1 22  1  0  0  0  0
  1 23  1  0  0  0  0
  2  3  2  0  0  0  0
  2  4  1  0  0  0  0
  4 17  2  0  0  0  0
  4  5  1  0  0  0  0
  5  6  2  0  0  0  0
  6  7  1  0  0  0  0
  6 24  1  0  0  0  0
  7  8  1  0  0  0  0
  7 17  1  0  0  0  0
  8 18  1  0  0  0  0
  8 15  1  0  0  0  0
  8  9  1  0  0  0  0
  9 10  1  0  0  0  0
 10 19  1  0  0  0  0
 10 11  1  0  0  0  0
 10 13  1  0  0  0  0
 11 12  1  0  0  0  0
 11 25  1  0  0  0  0
 11 26  1  0  0  0  0
 12 27  1  0  0  0  0
 13 20  1  0  0  0  0
 13 14  1  0  0  0  0
 13 15  1  0  0  0  0
 14 28  1  0  0  0  0
 15 21  1  0  0  0  0
 15 16  1  0  0  0  0
 16 29  1  0  0  0  0
M  END
> <s_m_source_file>
AV-unprocessed.smi

> <i_m_source_file_index>
160

> <i_lp_mmshare_version>
43012

> <i_f3d_flags>
0

> <s_epik_input>
W05IMl1DKD1PKWMxbltjSF1uKG4xKVtDQEBIXTJPW0NASF0oW0NIMl1bT0hdKVtDQEBIXShbT0hdKVtDQEhdMltPSF0=

> <s_epik_cmdline>
J2VwaWtfcHl0aG9uJywgJy1waCcsICc3LjAnLCAnLXRuJywgJzgnLCAnLW1hJywgJzIwMCcsICctbWV0YWxfYmluZGluZycsICctaW1hZScsICc8aW5maWxlLm1hZT4nLCAnLW9tYWUnLCAnPG91dGZpbGUubWFlPic=

> <r_lp_tautomer_probability>
1

> <r_epik_Ionization_Penalty>
1.06932e-05

> <r_epik_Ionization_Penalty_Charging>
0

> <r_epik_Ionization_Penalty_Neutral>
1.06932e-05

> <r_epik_State_Penalty>
-0

> <r_epik_Charging_Adjusted_Penalty>
0

> <i_epik_Tot_Q>
0

> <i_epik_Tot_abs_Q>
0

> <r_epik_Metal_State_Penalty>
0.0142097

> <b_epik_Metal_Only>
0

> <s_epik_Chemistry_Notes>
This compound contains an acetal/aminal-like group ( X-CH(R)-Y where X, Y are N, S, or O) that may be acid/base labile, releasing an aldehyde.

> <s_lp_Force_Field>
OPLS_2005

> <r_lp_Energy>
46.1783

> <b_lp_Chiralities_Consistent>
1

> <s_lp_Variant>
AV-unprocessed.smi:160-15

> <Gold.Version>
5.8.1

> <Gold.Id.Protein>
6NUR|6NUR_protein|mol2

> <Gold.PLP.Fitness>
39.9815

> <Gold.PLP.PLP>
-22.5522

> <Gold.PLP.part.hbond>
-5.4142

> <Gold.PLP.part.metal>
0.0000

> <Gold.PLP.part.buried>
-2.5640

> <Gold.PLP.part.nonpolar>
-14.2254

> <Gold.PLP.part.repulsive>
0.1895

> <Gold.PLP.ligand.clash>
0.0000

> <Gold.PLP.ligand.torsion>
0.1871

> <Gold.PLP.Chemscore.Hbond>
4.9670

> <Gold.PLP.Chemscore.CHOScore>
0.9622

> <Gold.PLP.Chemscore.Metal>
0.0000

> <Gold.Chemscore.Hbonds>
donor molecule, donor type, donor heavy atom, donor atom, acceptor molecule, acceptor atom, score
      L1  H    12    27       P1 10175  0.99
      L1  H    14    28       P1  7957  1.00
      L1  H    16    29       P1  7957  0.63
      P1  H  7989  7998       L1    16  0.03
      P1  H  7997  8008       L1     3  1.00
      P1  H  8011  8017       L1    16  1.00
      L1  C     6    24       P1  8028  1.00

> <Gold.PLP.Chemscore.Internal.Correction>
0.0161

> <Gold.Rescore>
     Score         DG    S(hbond)    S(metal)    S(lipo)     H(rot)  DE(clash)    DE(int)     intcor
      9.20     -10.76       4.02        0.00      19.15       4.06       0.00       1.56       ----

> <Gold.Chemscore.Fitness>
9.1982

> <Gold.Chemscore.DG>
-10.7593

> <Gold.Chemscore.ZeroCoef>
-5.4800

> <Gold.Chemscore.Hbond>
4.0216

> <Gold.Chemscore.Metal>
0.0000

> <Gold.Chemscore.Lipo>
19.1508

> <Gold.Chemscore.Internal_Hbond>
0.0000

> <Gold.Chemscore.DEClash>
0.0000

> <Gold.Chemscore.DEInternal>
1.5611

> <Gold.Chemscore.Rot>
4.0600

> <Gold.Chemscore.Internal.Correction>
   9.000000E+99

> <Gold.Chemscore.Hbonds>
donor molecule, donor type, donor heavy atom, donor atom, acceptor molecule, acceptor atom, score
      L1  H    12    27       P1 10175  0.94
      L1  H    14    28       P1  7957  1.00
      L1  H    16    29       P1  7957  0.61
      P1  H  7989  7998       L1    16  0.01
      P1  H  7997  8008       L1     3  0.95
      P1  H  8011  8017       L1    16  0.19

> <Gold.Chemscore.Hbond.Weighted>
-13.4322

> <Gold.Chemscore.Metal.Weighted>
-0.0000

> <Gold.Chemscore.Lipo.Weighted>
-2.2406

> <Gold.Chemscore.Internal_Hbond.Weighted>
0.0000

> <Gold.Chemscore.DEClash.Weighted>
0.0000

> <Gold.Chemscore.DEInternal.Weighted>
1.5611

> <Gold.Chemscore.Rot.Weighted>
10.3936

> <Gold.Chemscore.Internal.Correction.Weighted>
   9.000000E+99

> <Gold.Protein.RotatedTorsions>
[ 6907 6896 6895 6894 ] final -109.77 input  -60.11 | X-H torsion
[ 7974 7965 7964 7962 ] final  101.81 input  175.53 | X-H torsion
[ 8008 7997 7996 7995 ] final  -85.01 input   59.86 | X-H torsion
[ 10167 10162 10161 10158 ] final  -61.78 input  -65.29 | X-H torsion
[ 10718 10713 10712 10709 ] final  -84.35 input   66.30 | X-H torsion
[ 10763 10752 10751 10750 ] final   90.68 input  -60.55 | X-H torsion
[ 11005 11000 10999 10996 ] final -149.50 input  -57.11 | X-H torsion

> <Gold.Protein.ActiveResidues>
 VAL166  LYS551  ARG553  GLY616  TRP617  ASP618  TYR619  PRO620  LYS621  CYS622 
 ASP623  PHE694  ASN695  SER759  ASP760  ASP761  ALA762  ILE779  LEU786  VAL792 
 PHE793  MET794  SER795  GLU796  ALA797  LYS798  CYS799  TRP800  GLU811  SER814 

> <Gold.Protein.RotatedAtoms>
  150.7583  133.9480  159.3476 H   0  0  0  0  0  0  0  0  0  0  0  0  # atno 6907 bound_to 6896
  151.7394  135.0855  160.0322 H   0  0  0  0  0  0  0  0  0  0  0  0  # atno 6908 bound_to 6896
  152.3538  133.6174  159.6000 H   0  0  0  0  0  0  0  0  0  0  0  0  # atno 6909 bound_to 6896
  145.3674  139.2405  143.3473 H   0  0  0  0  0  0  0  0  0  0  0  0  # atno 7974 bound_to 7965
  154.6360  140.0597  156.9789 H   0  0  0  0  0  0  0  0  0  0  0  0  # atno 8008 bound_to 7997
  155.1591  140.3281  155.4396 H   0  0  0  0  0  0  0  0  0  0  0  0  # atno 8009 bound_to 7997
  156.2507  140.1934  156.6699 H   0  0  0  0  0  0  0  0  0  0  0  0  # atno 8010 bound_to 7997
  140.5983  143.2355  151.5986 H   0  0  0  0  0  0  0  0  0  0  0  0  # atno 10167 bound_to 10162
  156.0007  130.4695  150.4396 H   0  0  0  0  0  0  0  0  0  0  0  0  # atno 10718 bound_to 10713
  153.2001  135.4425  155.0256 H   0  0  0  0  0  0  0  0  0  0  0  0  # atno 10763 bound_to 10752
  154.8142  135.3307  154.7225 H   0  0  0  0  0  0  0  0  0  0  0  0  # atno 10764 bound_to 10752
  153.7671  135.6987  153.4969 H   0  0  0  0  0  0  0  0  0  0  0  0  # atno 10765 bound_to 10752
  140.7500  134.3417  157.5128 H   0  0  0  0  0  0  0  0  0  0  0  0  # atno 11005 bound_to 11000
  146.2900  140.4319  142.8743 LP  0  0  0  0  0  0  0  0  0  0  0  0  # atno 17320 bound_to 7965
  144.8601  140.7127  143.6113 LP  0  0  0  0  0  0  0  0  0  0  0  0  # atno 17321 bound_to 7965
  139.5273  144.3020  152.1065 LP  0  0  0  0  0  0  0  0  0  0  0  0  # atno 17342 bound_to 10162
  140.2196  144.4479  150.6348 LP  0  0  0  0  0  0  0  0  0  0  0  0  # atno 17343 bound_to 10162
  157.2439  131.0531  151.2420 LP  0  0  0  0  0  0  0  0  0  0  0  0  # atno 17370 bound_to 10713
  157.3594  130.7123  149.6492 LP  0  0  0  0  0  0  0  0  0  0  0  0  # atno 17371 bound_to 10713
  139.8789  134.9136  156.3087 LP  0  0  0  0  0  0  0  0  0  0  0  0  # atno 17394 bound_to 11000
  140.9759  133.7298  156.0601 LP  0  0  0  0  0  0  0  0  0  0  0  0  # atno 17395 bound_to 11000

$$$$
