#       Name:                AV-unprocessed.smi:2348
#       Creating user name   scv26
#       Creation time:       Fri Mar 27 12:59:44 2020


#       File generated by GOLD software.
#

@<TRIPOS>MOLECULE
AV-unprocessed.smi:2348
    36    37     1
SMALL
NO_CHARGES


@<TRIPOS>ATOM
      1 ****        -3.8032  -0.8966   0.0064 C.3            1 S1                 0.0000
      2 ****        -2.9655  -2.0492   0.0081 O.3            1 S1                 0.0000
      3 ****        -1.6216  -1.8816   0.0078 C.ar           1 S1                 0.0000
      4 ****        -0.9328  -3.0293   0.0056 N.ar           1 S1                 0.0000
      5 ****         0.3904  -2.8395   0.0036 C.ar           1 S1                 0.0000
      6 ****         1.1653  -3.9736   0.0014 N.pl3          1 S1                 0.0000
      7 ****         1.0475  -1.6751   0.0032 N.ar           1 S1                 0.0000
      8 ****         0.2260  -0.6187   0.0066 C.ar           1 S1                 0.0000
      9 ****         0.8421   0.6194   0.0042 N.3            1 S1                 0.0000
     10 ****         0.7259   1.4060  -1.2171 C.3            1 S1                 0.0000
     11 ****         1.7082   2.5895  -1.1852 C.3            1 S1                 0.0000
     12 ****         1.4783   3.3696  -0.0158 O.3            1 S1                 0.0000
     13 ****         1.6774   2.6136   1.1748 C.3            1 S1                 0.0000
     14 ****         0.6933   1.4315   1.2052 C.3            1 S1                 0.0000
     15 ****        -1.1147  -0.6363   0.0090 N.ar           1 S1                 0.0000
     16 ****        -4.8471  -1.2100   0.0051 H              1 S1                 0.0000
     17 ****        -3.6406  -0.2855  -0.8827 H              1 S1                 0.0000
     18 ****        -3.6429  -0.2847   0.8954 H              1 S1                 0.0000
     19 ****         0.7347  -4.8867   0.0013 H              1 S1                 0.0000
     20 ****         2.1726  -3.9040  -0.0092 H              1 S1                 0.0000
     21 ****         0.9279   0.7753  -2.0837 H              1 S1                 0.0000
     22 ****        -0.2973   1.7712  -1.3156 H              1 S1                 0.0000
     23 ****         2.7410   2.2377  -1.2040 H              1 S1                 0.0000
     24 ****         1.5694   3.2179  -2.0650 H              1 S1                 0.0000
     25 ****         2.7090   2.2617   1.2272 H              1 S1                 0.0000
     26 ****         1.5167   3.2598   2.0377 H              1 S1                 0.0000
     27 ****        -0.3317   1.7993   1.2689 H              1 S1                 0.0000
     28 ****         0.8717   0.8189   2.0898 H              1 S1                 0.0000
     29 ****        -3.1952  -2.5801  -0.8076 LP             1 S1                 0.0000
     30 ****        -3.1951  -2.5777   0.8254 LP             1 S1                 0.0000
     31 ****        -1.3622  -3.9324   0.0054 LP             1 S1                 0.0000
     32 ****         2.0448  -1.6016   0.0006 LP             1 S1                 0.0000
     33 ****         1.7940   0.3134   0.0227 LP             1 S1                 0.0000
     34 ****         0.5367   3.7059  -0.0315 LP             1 S1                 0.0000
     35 ****         2.1094   4.1453  -0.0155 LP             1 S1                 0.0000
     36 ****        -1.6782   0.1898   0.0114 LP             1 S1                 0.0000
@<TRIPOS>BOND
    1    1    2 1     
    2    1   16 1     
    3    1   17 1     
    4    1   18 1     
    5    2    3 1     
    6    3   15 ar    
    7    3    4 ar    
    8    4    5 ar    
    9    5    6 1     
   10    5    7 ar    
   11    6   19 1     
   12    6   20 1     
   13    7    8 ar    
   14    8    9 1     
   15    8   15 ar    
   16    9   14 1     
   17    9   10 1     
   18   10   11 1     
   19   10   21 1     
   20   10   22 1     
   21   11   12 1     
   22   11   23 1     
   23   11   24 1     
   24   12   13 1     
   25   13   14 1     
   26   13   25 1     
   27   13   26 1     
   28   14   27 1     
   29   14   28 1     
   30    2   29 1     
   31    2   30 1     
   32    4   31 1     
   33    7   32 1     
   34    9   33 1     
   35   12   34 1     
   36   12   35 1     
   37   15   36 1     
@<TRIPOS>SUBSTRUCTURE
      1 S1             1
@<TRIPOS>SET
LONE_PAIRS      STATIC     ATOMS    <user>   **** ""
8 29 30 31 32 33 34 35 36
DONOR_HYDROGENS      STATIC     ATOMS    <user>   **** ""
2 19 20
ATOM$BLUE        STATIC     ATOMS    COLORGROUP SYSTEM
8 29 30 31 32 33 34 35 36
ATOM$RED        STATIC     ATOMS    COLORGROUP SYSTEM
2 19 20
