#       Name:                AV-unprocessed.smi:824
#       Creating user name   scv26
#       Creation time:       Fri Mar 27 01:29:36 2020


#       File generated by GOLD software.
#

@<TRIPOS>MOLECULE
AV-unprocessed.smi:824
    59    60     1
SMALL
NO_CHARGES


@<TRIPOS>ATOM
      1 ****        -0.3720   0.6599   2.4417 C.3            1 S1                 0.0000
      2 ****        -0.8098   1.2617   1.1178 C.2            1 S1                 0.0000
      3 ****        -2.1799   1.3468   0.9501 N.pl3          1 S1                 0.0000
      4 ****        -2.6868   1.8780  -0.2293 C.2            1 S1                 0.0000
      5 ****        -4.0779   1.9205  -0.2875 N.pl3          1 S1                 0.0000
      6 ****        -4.8343   0.6727  -0.1900 C.3            1 S1                 0.0000
      7 ****        -6.3010   0.9374   0.1901 C.3            1 S1                 0.0000
      8 ****        -6.8830   1.8358  -0.7453 O.3            1 S1                 0.0000
      9 ****        -6.2116   3.0890  -0.7502 C.3            1 S1                 0.0000
     10 ****        -4.7434   2.8869  -1.1604 C.3            1 S1                 0.0000
     11 ****        -1.9310   2.3103  -1.1971 N.2            1 S1                 0.0000
     12 ****        -0.5338   2.2444  -1.0895 C.2            1 S1                 0.0000
     13 ****         0.1820   2.6424  -2.0074 O.2            1 S1                 0.0000
     14 ****         0.0401   1.6806   0.1501 C.2            1 S1                 0.0000
     15 ****         1.5587   1.6101   0.2861 C.3            1 S1                 0.0000
     16 ****         2.1351   0.3295  -0.3499 C.3            1 S1                 0.0000
     17 ****         3.6631   0.1966  -0.2088 C.2            1 S1                 0.0000
     18 ****         4.3114   1.1661   0.1902 O.2            1 S1                 0.0000
     19 ****         4.2621  -0.9705  -0.5518 N.am           1 S1                 0.0000
     20 ****         5.7258  -1.0671  -0.5498 C.3            1 S1                 0.0000
     21 ****         3.5472  -2.1741  -1.0073 C.3            1 S1                 0.0000
     22 ****         3.0581  -3.0715   0.1556 C.3            1 S1                 0.0000
     23 ****         4.2105  -3.6059   1.0231 C.3            1 S1                 0.0000
     24 ****         2.2077  -4.2323  -0.3810 C.3            1 S1                 0.0000
     25 ****        -2.7702   1.0201   1.7012 H              1 S1                 0.0000
     26 ****         0.2839  -0.1947   2.2743 H              1 S1                 0.0000
     27 ****        -1.2244   0.3174   3.0295 H              1 S1                 0.0000
     28 ****         0.1681   1.3988   3.0342 H              1 S1                 0.0000
     29 ****        -4.3884   0.0023   0.5454 H              1 S1                 0.0000
     30 ****        -4.7882   0.1594  -1.1514 H              1 S1                 0.0000
     31 ****        -6.8646   0.0043   0.1828 H              1 S1                 0.0000
     32 ****        -6.3739   1.3452   1.1995 H              1 S1                 0.0000
     33 ****        -6.7096   3.7556  -1.4543 H              1 S1                 0.0000
     34 ****        -6.2796   3.5558   0.2337 H              1 S1                 0.0000
     35 ****        -4.6897   2.5330  -2.1910 H              1 S1                 0.0000
     36 ****        -4.2231   3.8453  -1.1246 H              1 S1                 0.0000
     37 ****         1.8360   1.6546   1.3393 H              1 S1                 0.0000
     38 ****         2.0050   2.4976  -0.1656 H              1 S1                 0.0000
     39 ****         1.6452  -0.5294   0.1048 H              1 S1                 0.0000
     40 ****         1.8877   0.3094  -1.4118 H              1 S1                 0.0000
     41 ****         6.1357  -0.7572   0.4127 H              1 S1                 0.0000
     42 ****         6.1498  -0.4254  -1.3233 H              1 S1                 0.0000
     43 ****         6.0789  -2.0824  -0.7325 H              1 S1                 0.0000
     44 ****         2.7040  -1.8911  -1.6381 H              1 S1                 0.0000
     45 ****         4.1885  -2.7577  -1.6694 H              1 S1                 0.0000
     46 ****         2.4155  -2.4831   0.8094 H              1 S1                 0.0000
     47 ****         4.9217  -4.1801   0.4285 H              1 S1                 0.0000
     48 ****         3.8367  -4.2577   1.8133 H              1 S1                 0.0000
     49 ****         4.7555  -2.7962   1.5082 H              1 S1                 0.0000
     50 ****         2.7892  -4.8783  -1.0396 H              1 S1                 0.0000
     51 ****         1.3514  -3.8639  -0.9464 H              1 S1                 0.0000
     52 ****         1.8220  -4.8472   0.4326 H              1 S1                 0.0000
     53 ****        -7.8420   1.9817  -0.5025 LP             1 S1                 0.0000
     54 ****        -6.8281   1.4340  -1.6594 LP             1 S1                 0.0000
     55 ****        -2.3487   2.6915  -2.0219 LP             1 S1                 0.0000
     56 ****        -0.2313   3.0162  -2.8377 LP             1 S1                 0.0000
     57 ****         1.1772   2.5921  -1.9233 LP             1 S1                 0.0000
     58 ****         3.8445   2.0210   0.4163 LP             1 S1                 0.0000
     59 ****         5.3043   1.0977   0.2878 LP             1 S1                 0.0000
@<TRIPOS>BOND
    1    1   26 1     
    2    1   27 1     
    3    1   28 1     
    4    1    2 1     
    5    2   14 2     
    6    2    3 1     
    7    3   25 1     
    8    3    4 1     
    9    4    5 1     
   10    4   11 2     
   11    5   10 1     
   12    5    6 1     
   13    6    7 1     
   14    6   29 1     
   15    6   30 1     
   16    7    8 1     
   17    7   31 1     
   18    7   32 1     
   19    8    9 1     
   20    9   10 1     
   21    9   33 1     
   22    9   34 1     
   23   10   35 1     
   24   10   36 1     
   25   11   12 1     
   26   12   13 2     
   27   12   14 1     
   28   14   15 1     
   29   15   16 1     
   30   15   37 1     
   31   15   38 1     
   32   16   17 1     
   33   16   39 1     
   34   16   40 1     
   35   17   18 2     
   36   17   19 am    
   37   19   20 1     
   38   19   21 1     
   39   20   41 1     
   40   20   42 1     
   41   20   43 1     
   42   21   22 1     
   43   21   44 1     
   44   21   45 1     
   45   22   23 1     
   46   22   24 1     
   47   22   46 1     
   48   23   47 1     
   49   23   48 1     
   50   23   49 1     
   51   24   50 1     
   52   24   51 1     
   53   24   52 1     
   54    8   53 1     
   55    8   54 1     
   56   11   55 1     
   57   13   56 1     
   58   13   57 1     
   59   18   58 1     
   60   18   59 1     
@<TRIPOS>SUBSTRUCTURE
      1 S1             1
@<TRIPOS>SET
LONE_PAIRS      STATIC     ATOMS    <user>   **** ""
7 53 54 55 56 57 58 59
DONOR_HYDROGENS      STATIC     ATOMS    <user>   **** ""
1 25
ATOM$BLUE        STATIC     ATOMS    COLORGROUP SYSTEM
7 53 54 55 56 57 58 59
ATOM$RED        STATIC     ATOMS    COLORGROUP SYSTEM
1 25
