#       Name:                AV-unprocessed.smi:2812
#       Creating user name   scv26
#       Creation time:       Fri Mar 27 15:27:28 2020


#       File generated by GOLD software.
#

@<TRIPOS>MOLECULE
AV-unprocessed.smi:2812
    59    60     1
SMALL
NO_CHARGES


@<TRIPOS>ATOM
      1 ****        -0.8971   4.6617  -1.2618 C.3            1 S1                 0.0000
      2 ****        -1.2038   4.7089   0.2268 C.2            1 S1                 0.0000
      3 ****        -1.0372   5.9567   0.9426 C.2            1 S1                 0.0000
      4 ****        -1.2904   6.0012   2.2574 C.2            1 S1                 0.0000
      5 ****        -1.7286   4.8706   2.9619 N.am           1 S1                 0.0000
      6 ****        -1.9955   5.0266   4.3943 C.3            1 S1                 0.0000
      7 ****        -1.9390   3.6681   2.3530 C.2            1 S1                 0.0000
      8 ****        -2.3934   2.7108   2.9839 O.2            1 S1                 0.0000
      9 ****        -1.6074   3.6050   0.9089 C.2            1 S1                 0.0000
     10 ****        -1.7812   2.4012   0.2089 N.am           1 S1                 0.0000
     11 ****        -1.1873   1.2290   0.4933 C.2            1 S1                 0.0000
     12 ****        -0.4324   1.0336   1.4468 O.2            1 S1                 0.0000
     13 ****        -1.4857   0.2941  -0.4200 N.am           1 S1                 0.0000
     14 ****        -0.9594  -1.0685  -0.4266 C.3            1 S1                 0.0000
     15 ****         0.5460  -1.1469  -0.8172 C.3            1 S1                 0.0000
     16 ****         0.7873  -0.3896  -2.1499 C.3            1 S1                 0.0000
     17 ****         2.2548  -0.4171  -2.5796 C.3            1 S1                 0.0000
     18 ****         2.7270  -1.8653  -2.6670 C.3            1 S1                 0.0000
     19 ****         2.4994  -2.5816  -1.3307 C.3            1 S1                 0.0000
     20 ****         1.0662  -2.5552  -0.9132 N.4            1 S1                 1.0000
     21 ****         0.8347  -3.3901   0.3053 C.3            1 S1                 0.0000
     22 ****         1.0506  -4.9082   0.0926 C.3            1 S1                 0.0000
     23 ****         0.1688  -5.4642  -1.0385 C.3            1 S1                 0.0000
     24 ****         0.7872  -5.6736   1.3983 C.3            1 S1                 0.0000
     25 ****        -0.5766   5.6366  -1.6299 H              1 S1                 0.0000
     26 ****        -1.7807   4.3635  -1.8267 H              1 S1                 0.0000
     27 ****        -0.0986   3.9473  -1.4644 H              1 S1                 0.0000
     28 ****        -0.7053   6.8463   0.4275 H              1 S1                 0.0000
     29 ****        -1.1826   6.9018   2.8442 H              1 S1                 0.0000
     30 ****        -1.4719   4.2636   4.9725 H              1 S1                 0.0000
     31 ****        -3.0639   4.9320   4.5935 H              1 S1                 0.0000
     32 ****        -1.6737   5.9952   4.7785 H              1 S1                 0.0000
     33 ****        -2.2848   2.4690  -0.6633 H              1 S1                 0.0000
     34 ****        -2.1119   0.5455  -1.1712 H              1 S1                 0.0000
     35 ****        -1.1472  -1.4663   0.5695 H              1 S1                 0.0000
     36 ****        -1.5580  -1.6592  -1.1206 H              1 S1                 0.0000
     37 ****         1.1248  -0.6496  -0.0371 H              1 S1                 0.0000
     38 ****         0.1702  -0.8268  -2.9362 H              1 S1                 0.0000
     39 ****         0.4823   0.6536  -2.0674 H              1 S1                 0.0000
     40 ****         2.3769   0.0796  -3.5426 H              1 S1                 0.0000
     41 ****         2.8643   0.1327  -1.8611 H              1 S1                 0.0000
     42 ****         2.1919  -2.3854  -3.4629 H              1 S1                 0.0000
     43 ****         3.7844  -1.8960  -2.9315 H              1 S1                 0.0000
     44 ****         2.8548  -3.6023  -1.4516 H              1 S1                 0.0000
     45 ****         3.1133  -2.1258  -0.5520 H              1 S1                 0.0000
     46 ****         1.4708  -3.0244   1.1130 H              1 S1                 0.0000
     47 ****        -0.1881  -3.2928   0.6561 H              1 S1                 0.0000
     48 ****         2.0910  -5.1038  -0.1612 H              1 S1                 0.0000
     49 ****        -0.8897  -5.2983  -0.8347 H              1 S1                 0.0000
     50 ****         0.3184  -6.5375  -1.1603 H              1 S1                 0.0000
     51 ****         0.4016  -4.9962  -1.9951 H              1 S1                 0.0000
     52 ****        -0.2463  -5.5573   1.7269 H              1 S1                 0.0000
     53 ****         1.4335  -5.3171   2.2010 H              1 S1                 0.0000
     54 ****         0.9771  -6.7404   1.2750 H              1 S1                 0.0000
     55 ****         0.5412  -2.9942  -1.6558 H              1 S1                 0.0000
     56 ****        -2.6126   2.8104   3.9545 LP             1 S1                 0.0000
     57 ****        -2.5427   1.8350   2.5249 LP             1 S1                 0.0000
     58 ****        -0.2218   1.7794   2.0788 LP             1 S1                 0.0000
     59 ****        -0.0302   0.1292   1.5889 LP             1 S1                 0.0000
@<TRIPOS>BOND
    1    1    2 1     
    2    1   25 1     
    3    1   26 1     
    4    1   27 1     
    5    2    9 2     
    6    2    3 1     
    7    3    4 2     
    8    3   28 1     
    9    4    5 1     
   10    4   29 1     
   11    5    6 1     
   12    5    7 am    
   13    6   30 1     
   14    6   31 1     
   15    6   32 1     
   16    7    8 2     
   17    7    9 1     
   18    9   10 1     
   19   10   11 am    
   20   10   33 1     
   21   11   12 2     
   22   11   13 am    
   23   13   14 1     
   24   13   34 1     
   25   14   15 1     
   26   14   35 1     
   27   14   36 1     
   28   15   20 1     
   29   15   16 1     
   30   15   37 1     
   31   16   17 1     
   32   16   38 1     
   33   16   39 1     
   34   17   18 1     
   35   17   40 1     
   36   17   41 1     
   37   18   19 1     
   38   18   42 1     
   39   18   43 1     
   40   19   20 1     
   41   19   44 1     
   42   19   45 1     
   43   20   21 1     
   44   20   55 1     
   45   21   22 1     
   46   21   46 1     
   47   21   47 1     
   48   22   23 1     
   49   22   24 1     
   50   22   48 1     
   51   23   49 1     
   52   23   50 1     
   53   23   51 1     
   54   24   52 1     
   55   24   53 1     
   56   24   54 1     
   57    8   56 1     
   58    8   57 1     
   59   12   58 1     
   60   12   59 1     
@<TRIPOS>SUBSTRUCTURE
      1 S1             1
@<TRIPOS>SET
LONE_PAIRS      STATIC     ATOMS    <user>   **** ""
4 56 57 58 59
DONOR_HYDROGENS      STATIC     ATOMS    <user>   **** ""
3 33 34 55
ATOM$BLUE        STATIC     ATOMS    COLORGROUP SYSTEM
4 56 57 58 59
ATOM$RED        STATIC     ATOMS    COLORGROUP SYSTEM
3 33 34 55
