#       Name:                AV-unprocessed.smi:1323
#       Creating user name   scv26
#       Creation time:       Fri Mar 27 05:03:47 2020


#       File generated by GOLD software.
#

@<TRIPOS>MOLECULE
AV-unprocessed.smi:1323
    51    52     1
SMALL
NO_CHARGES


@<TRIPOS>ATOM
      1 ****        -2.1478  -0.2036  -1.5565 C.3            1 S1                 0.0000
      2 ****        -2.3652   0.5126  -0.2154 C.3            1 S1                 0.0000
      3 ****        -1.2401   1.5238   0.0831 C.3            1 S1                 0.0000
      4 ****        -1.4999   2.2844   1.3927 C.3            1 S1                 0.0000
      5 ****        -1.6944   1.3174   2.5701 C.3            1 S1                 0.0000
      6 ****        -2.8077   0.2965   2.2784 C.3            1 S1                 0.0000
      7 ****        -2.5559  -0.4688   0.9661 C.3            1 S1                 0.0000
      8 ****        -1.3812  -1.2492   1.1480 O.3            1 S1                 0.0000
      9 ****        -1.4959  -2.6081   0.7569 C.3            1 S1                 0.0000
     10 ****        -0.1124  -3.2696   0.8339 C.3            1 S1                 0.0000
     11 ****         0.7848  -2.7631  -0.2003 N.am           1 S1                 0.0000
     12 ****         1.5595  -1.6727  -0.0882 C.2            1 S1                 0.0000
     13 ****         1.6091  -0.9821   0.9306 O.2            1 S1                 0.0000
     14 ****         2.4260  -1.3317  -1.3088 C.3            1 S1                 0.0000
     15 ****         2.7855   0.0944  -1.3806 N.am           1 S1                 0.0000
     16 ****         4.0043   0.4777  -0.7857 C.2            1 S1                 0.0000
     17 ****         4.4215   1.7535  -0.7794 C.2            1 S1                 0.0000
     18 ****         3.5827   2.7488  -1.4043 C.2            1 S1                 0.0000
     19 ****         2.4156   2.3930  -1.9771 C.2            1 S1                 0.0000
     20 ****         1.9591   0.9986  -1.9913 C.2            1 S1                 0.0000
     21 ****         0.8995   0.6657  -2.5217 O.2            1 S1                 0.0000
     22 ****        -1.2204  -0.7761  -1.5576 H              1 S1                 0.0000
     23 ****        -2.0929   0.5117  -2.3775 H              1 S1                 0.0000
     24 ****        -2.9659  -0.8909  -1.7721 H              1 S1                 0.0000
     25 ****        -3.2917   1.0800  -0.3145 H              1 S1                 0.0000
     26 ****        -0.2832   1.0053   0.1489 H              1 S1                 0.0000
     27 ****        -1.1471   2.2345  -0.7386 H              1 S1                 0.0000
     28 ****        -0.6694   2.9595   1.6004 H              1 S1                 0.0000
     29 ****        -2.3868   2.9093   1.2825 H              1 S1                 0.0000
     30 ****        -0.7585   0.7935   2.7693 H              1 S1                 0.0000
     31 ****        -1.9316   1.8771   3.4751 H              1 S1                 0.0000
     32 ****        -2.8943  -0.4058   3.1082 H              1 S1                 0.0000
     33 ****        -3.7647   0.8159   2.2154 H              1 S1                 0.0000
     34 ****        -3.4205  -1.1080   0.7757 H              1 S1                 0.0000
     35 ****        -2.1890  -3.1144   1.4299 H              1 S1                 0.0000
     36 ****        -1.9001  -2.6984  -0.2520 H              1 S1                 0.0000
     37 ****         0.3220  -3.1409   1.8267 H              1 S1                 0.0000
     38 ****        -0.2167  -4.3437   0.6806 H              1 S1                 0.0000
     39 ****         0.8112  -3.2747  -1.0703 H              1 S1                 0.0000
     40 ****         3.3271  -1.9451  -1.2667 H              1 S1                 0.0000
     41 ****         1.9121  -1.6441  -2.2200 H              1 S1                 0.0000
     42 ****         4.5669  -0.3258  -0.3326 H              1 S1                 0.0000
     43 ****         5.3569   2.0287  -0.3149 H              1 S1                 0.0000
     44 ****         3.8914   3.7838  -1.4103 H              1 S1                 0.0000
     45 ****         1.7996   3.1514  -2.4377 H              1 S1                 0.0000
     46 ****        -1.1403  -1.2252   2.1183 LP             1 S1                 0.0000
     47 ****        -0.6467  -0.8333   0.6118 LP             1 S1                 0.0000
     48 ****         1.0546  -1.2248   1.7267 LP             1 S1                 0.0000
     49 ****         2.2038  -0.1788   0.9617 LP             1 S1                 0.0000
     50 ****         0.6170  -0.2936  -2.5157 LP             1 S1                 0.0000
     51 ****         0.3210   1.3545  -2.9586 LP             1 S1                 0.0000
@<TRIPOS>BOND
    1    1    2 1     
    2    1   22 1     
    3    1   23 1     
    4    1   24 1     
    5    2    7 1     
    6    2    3 1     
    7    2   25 1     
    8    3    4 1     
    9    3   26 1     
   10    3   27 1     
   11    4    5 1     
   12    4   28 1     
   13    4   29 1     
   14    5    6 1     
   15    5   30 1     
   16    5   31 1     
   17    6    7 1     
   18    6   32 1     
   19    6   33 1     
   20    7    8 1     
   21    7   34 1     
   22    8    9 1     
   23    9   10 1     
   24    9   35 1     
   25    9   36 1     
   26   10   11 1     
   27   10   37 1     
   28   10   38 1     
   29   11   12 am    
   30   11   39 1     
   31   12   13 2     
   32   12   14 1     
   33   14   15 1     
   34   14   40 1     
   35   14   41 1     
   36   15   20 am    
   37   15   16 1     
   38   16   17 2     
   39   16   42 1     
   40   17   18 1     
   41   17   43 1     
   42   18   19 2     
   43   18   44 1     
   44   19   20 1     
   45   19   45 1     
   46   20   21 2     
   47    8   46 1     
   48    8   47 1     
   49   13   48 1     
   50   13   49 1     
   51   21   50 1     
   52   21   51 1     
@<TRIPOS>SUBSTRUCTURE
      1 S1             1
@<TRIPOS>SET
LONE_PAIRS      STATIC     ATOMS    <user>   **** ""
6 46 47 48 49 50 51
DONOR_HYDROGENS      STATIC     ATOMS    <user>   **** ""
1 39
ATOM$BLUE        STATIC     ATOMS    COLORGROUP SYSTEM
6 46 47 48 49 50 51
ATOM$RED        STATIC     ATOMS    COLORGROUP SYSTEM
1 39
