AV-unprocessed.smi:499|AV-procd|sdf|2733|dock5
  -GOLD-   2262023183D 1   1.00000     0.00000
 Structure written by MMmdl.
 36 37  0  0  0  0  0  0  0  0  1 V2000
  146.0795  142.4302  157.3271 C   0  0  0  0  0  0  0  0  0  0  0  0
  146.8209  141.2987  156.5873 C   0  0  2  0  0  0  0  0  0  0  0  0
  146.7994  140.1106  157.4607 C   0  0  0  0  0  0  0  0  0  0  0  0
  146.7793  139.1782  158.1462 N   0  0  0  0  0  0  0  0  0  0  0  0
  148.2252  141.6705  156.3962 N   0  0  0  0  0  0  0  0  0  0  0  0
  149.2789  140.8592  156.2034 C   0  0  0  0  0  0  0  0  0  0  0  0
  149.1917  139.6335  156.1299 O   0  0  0  0  0  0  0  0  0  0  0  0
  150.6382  141.5559  156.0496 C   0  0  0  0  0  0  0  0  0  0  0  0
  151.3324  141.7620  157.3317 N   0  0  0  0  0  0  0  0  0  0  0  0
  150.9778  142.9028  158.0781 C   0  0  0  0  0  0  0  0  0  0  0  0
  151.5297  143.1997  159.2703 C   0  0  0  0  0  0  0  0  0  0  0  0
  151.1688  144.4712  160.0224 C   0  0  0  0  0  0  0  0  0  0  0  0
  151.5305  145.5368  159.3092 F   0  0  0  0  0  0  0  0  0  0  0  0
  149.8558  144.5444  160.2424 F   0  0  0  0  0  0  0  0  0  0  0  0
  151.7946  144.5281  161.1986 F   0  0  0  0  0  0  0  0  0  0  0  0
  152.5516  142.2911  159.7520 C   0  0  0  0  0  0  0  0  0  0  0  0
  152.9131  141.2034  159.0437 C   0  0  0  0  0  0  0  0  0  0  0  0
  152.2914  140.8856  157.7562 C   0  0  0  0  0  0  0  0  0  0  0  0
  152.6129  139.8948  157.0996 O   0  0  0  0  0  0  0  0  0  0  0  0
  146.0960  140.9788  155.2750 C   0  0  0  0  0  0  0  0  0  0  0  0
  146.8334  140.6003  154.0095 C   0  0  0  0  0  0  0  0  0  0  0  0
  146.0991  141.9209  154.0924 C   0  0  0  0  0  0  0  0  0  0  0  0
  145.0578  142.1334  157.5665 H   0  0  0  0  0  0  0  0  0  0  0  0
  146.0176  143.3408  156.7312 H   0  0  0  0  0  0  0  0  0  0  0  0
  146.5744  142.6810  158.2662 H   0  0  0  0  0  0  0  0  0  0  0  0
  148.4178  142.6614  156.4303 H   0  0  0  0  0  0  0  0  0  0  0  0
  151.2512  140.9579  155.3741 H   0  0  0  0  0  0  0  0  0  0  0  0
  150.5031  142.5120  155.5399 H   0  0  0  0  0  0  0  0  0  0  0  0
  150.2319  143.5306  157.6124 H   0  0  0  0  0  0  0  0  0  0  0  0
  153.0345  142.4836  160.6987 H   0  0  0  0  0  0  0  0  0  0  0  0
  153.6777  140.5478  159.4342 H   0  0  0  0  0  0  0  0  0  0  0  0
  145.1677  140.4309  155.4233 H   0  0  0  0  0  0  0  0  0  0  0  0
  147.9209  140.6292  154.0133 H   0  0  0  0  0  0  0  0  0  0  0  0
  146.3944  139.8204  153.3907 H   0  0  0  0  0  0  0  0  0  0  0  0
  145.1726  142.0178  153.5301 H   0  0  0  0  0  0  0  0  0  0  0  0
  146.6982  142.8267  154.1554 H   0  0  0  0  0  0  0  0  0  0  0  0
  1  2  1  0  0  0  0
  1 23  1  0  0  0  0
  1 24  1  0  0  0  0
  1 25  1  0  0  0  0
  2  3  1  0  0  0  0
  2  5  1  0  0  0  0
  2 20  1  0  0  0  0
  3  4  3  0  0  0  0
  5  6  1  0  0  0  0
  5 26  1  0  0  0  0
  6  7  2  0  0  0  0
  6  8  1  0  0  0  0
  8  9  1  0  0  0  0
  8 27  1  0  0  0  0
  8 28  1  0  0  0  0
  9 18  1  0  0  0  0
  9 10  1  0  0  0  0
 10 11  2  0  0  0  0
 10 29  1  0  0  0  0
 11 12  1  0  0  0  0
 11 16  1  0  0  0  0
 12 13  1  0  0  0  0
 12 14  1  0  0  0  0
 12 15  1  0  0  0  0
 16 17  2  0  0  0  0
 16 30  1  0  0  0  0
 17 18  1  0  0  0  0
 17 31  1  0  0  0  0
 18 19  2  0  0  0  0
 20 22  1  0  0  0  0
 20 21  1  0  0  0  0
 20 32  1  0  0  0  0
 21 22  1  0  0  0  0
 21 33  1  0  0  0  0
 21 34  1  0  0  0  0
 22 35  1  0  0  0  0
 22 36  1  0  0  0  0
M  END
> <s_m_source_file>
AV-unprocessed.smi

> <i_m_source_file_index>
499

> <i_lp_mmshare_version>
43012

> <i_f3d_flags>
0

> <s_epik_input>
W0NIMl0xW0NIMl1bQ0hdMVtDQF0oW0NIM10pKEMjTilbTkhdQyg9TylbQ0gyXW4yW2NIXWMoQyhGKShGKUYpW2NIXVtjSF1jMj1P

> <s_epik_cmdline>
J2VwaWtfcHl0aG9uJywgJy1waCcsICc3LjAnLCAnLXRuJywgJzgnLCAnLW1hJywgJzIwMCcsICctbWV0YWxfYmluZGluZycsICctaW1hZScsICc8aW5maWxlLm1hZT4nLCAnLW9tYWUnLCAnPG91dGZpbGUubWFlPic=

> <r_lp_tautomer_probability>
1

> <r_epik_Ionization_Penalty>
4.79953e-07

> <r_epik_Ionization_Penalty_Charging>
1.46911e-08

> <r_epik_Ionization_Penalty_Neutral>
4.65262e-07

> <r_epik_State_Penalty>
-0

> <r_epik_Charging_Adjusted_Penalty>
1.46911e-08

> <i_epik_Tot_Q>
0

> <i_epik_Tot_abs_Q>
0

> <r_epik_Metal_State_Penalty>
-0

> <b_epik_Metal_Only>
0

> <s_lp_Force_Field>
OPLS_2005

> <r_lp_Energy>
23.9412

> <b_lp_Chiralities_Consistent>
1

> <s_lp_Variant>
AV-unprocessed.smi:499-2

> <Gold.Version>
5.8.1

> <Gold.Id.Protein>
6NUR|6NUR_protein|mol2

> <Gold.PLP.Fitness>
50.2418

> <Gold.PLP.PLP>
-44.0841

> <Gold.PLP.part.hbond>
-2.2350

> <Gold.PLP.part.metal>
0.0000

> <Gold.PLP.part.buried>
-5.3221

> <Gold.PLP.part.nonpolar>
-34.6434

> <Gold.PLP.part.repulsive>
0.0499

> <Gold.PLP.ligand.clash>
0.0000

> <Gold.PLP.ligand.torsion>
2.1001

> <Gold.PLP.Chemscore.Hbond>
1.9913

> <Gold.PLP.Chemscore.CHOScore>
0.9247

> <Gold.PLP.Chemscore.Metal>
0.0000

> <Gold.Chemscore.Hbonds>
donor molecule, donor type, donor heavy atom, donor atom, acceptor molecule, acceptor atom, score
      L1  H     5    26       P1  8028  0.49
      P1  H  7997  8009       L1    19  1.00
      L1  C    10    29       P1  8028  0.73

> <Gold.PLP.Chemscore.Internal.Correction>
1.6102

> <Gold.Rescore>
     Score         DG    S(hbond)    S(metal)    S(lipo)     H(rot)  DE(clash)    DE(int)     intcor
     12.50     -16.47       1.94        0.00      80.29       1.90       0.92       3.05       ----

> <Gold.Chemscore.Fitness>
12.5038

> <Gold.Chemscore.DG>
-16.4699

> <Gold.Chemscore.ZeroCoef>
-5.4800

> <Gold.Chemscore.Hbond>
1.9363

> <Gold.Chemscore.Metal>
0.0000

> <Gold.Chemscore.Lipo>
80.2936

> <Gold.Chemscore.Internal_Hbond>
0.0000

> <Gold.Chemscore.DEClash>
0.9196

> <Gold.Chemscore.DEInternal>
3.0465

> <Gold.Chemscore.Rot>
1.9030

> <Gold.Chemscore.Internal.Correction>
   9.000000E+99

> <Gold.Chemscore.Hbonds>
donor molecule, donor type, donor heavy atom, donor atom, acceptor molecule, acceptor atom, score
      L1  H     5    26       P1  8028  0.43
      P1  H  7997  8009       L1    19  0.48

> <Gold.Chemscore.Hbond.Weighted>
-6.4673

> <Gold.Chemscore.Metal.Weighted>
-0.0000

> <Gold.Chemscore.Lipo.Weighted>
-9.3943

> <Gold.Chemscore.Internal_Hbond.Weighted>
0.0000

> <Gold.Chemscore.DEClash.Weighted>
0.9196

> <Gold.Chemscore.DEInternal.Weighted>
3.0465

> <Gold.Chemscore.Rot.Weighted>
4.8718

> <Gold.Chemscore.Internal.Correction.Weighted>
   9.000000E+99

> <Gold.Protein.RotatedTorsions>
[ 6907 6896 6895 6894 ] final -136.25 input  -60.11 | X-H torsion
[ 7974 7965 7964 7962 ] final  -70.38 input  175.53 | X-H torsion
[ 8008 7997 7996 7995 ] final  167.73 input   59.86 | X-H torsion
[ 10167 10162 10161 10158 ] final  -48.35 input  -65.29 | X-H torsion
[ 10718 10713 10712 10709 ] final -112.54 input   66.30 | X-H torsion
[ 10763 10752 10751 10750 ] final  178.82 input  -60.55 | X-H torsion
[ 11005 11000 10999 10996 ] final -159.05 input  -57.11 | X-H torsion

> <Gold.Protein.ActiveResidues>
 VAL166  LYS551  ARG553  GLY616  TRP617  ASP618  TYR619  PRO620  LYS621  CYS622 
 ASP623  PHE694  ASN695  SER759  ASP760  ASP761  ALA762  ILE779  LEU786  VAL792 
 PHE793  MET794  SER795  GLU796  ALA797  LYS798  CYS799  TRP800  GLU811  SER814 

> <Gold.Protein.RotatedAtoms>
  151.0078  133.5994  159.2686 H   0  0  0  0  0  0  0  0  0  0  0  0  # atno 6907 bound_to 6896
  151.3157  135.0805  159.9298 H   0  0  0  0  0  0  0  0  0  0  0  0  # atno 6908 bound_to 6896
  152.5291  133.9734  159.7827 H   0  0  0  0  0  0  0  0  0  0  0  0  # atno 6909 bound_to 6896
  145.6917  140.9150  143.0778 H   0  0  0  0  0  0  0  0  0  0  0  0  # atno 7974 bound_to 7965
  156.1608  140.1609  156.8614 H   0  0  0  0  0  0  0  0  0  0  0  0  # atno 8008 bound_to 7997
  154.5159  140.0789  156.8116 H   0  0  0  0  0  0  0  0  0  0  0  0  # atno 8009 bound_to 7997
  155.3710  140.3400  155.4245 H   0  0  0  0  0  0  0  0  0  0  0  0  # atno 8010 bound_to 7997
  140.6734  143.2744  151.4059 H   0  0  0  0  0  0  0  0  0  0  0  0  # atno 10167 bound_to 10162
  156.0712  130.5925  150.8522 H   0  0  0  0  0  0  0  0  0  0  0  0  # atno 10718 bound_to 10713
  154.5126  135.2789  155.1330 H   0  0  0  0  0  0  0  0  0  0  0  0  # atno 10763 bound_to 10752
  154.2919  135.6265  153.5392 H   0  0  0  0  0  0  0  0  0  0  0  0  # atno 10764 bound_to 10752
  152.9921  135.5676  154.5595 H   0  0  0  0  0  0  0  0  0  0  0  0  # atno 10765 bound_to 10752
  140.6468  134.4493  157.5234 H   0  0  0  0  0  0  0  0  0  0  0  0  # atno 11005 bound_to 11000
  144.6995  139.8830  143.7448 LP  0  0  0  0  0  0  0  0  0  0  0  0  # atno 17320 bound_to 7965
  146.0876  139.3865  143.0426 LP  0  0  0  0  0  0  0  0  0  0  0  0  # atno 17321 bound_to 7965
  139.6014  144.1287  152.2202 LP  0  0  0  0  0  0  0  0  0  0  0  0  # atno 17342 bound_to 10162
  140.0672  144.5808  150.7218 LP  0  0  0  0  0  0  0  0  0  0  0  0  # atno 17343 bound_to 10162
  157.5783  131.0946  150.9310 LP  0  0  0  0  0  0  0  0  0  0  0  0  # atno 17370 bound_to 10713
  156.9511  130.5420  149.5282 LP  0  0  0  0  0  0  0  0  0  0  0  0  # atno 17371 bound_to 10713
  139.9060  134.8448  156.1705 LP  0  0  0  0  0  0  0  0  0  0  0  0  # atno 17394 bound_to 11000
  141.0566  133.6862  156.1872 LP  0  0  0  0  0  0  0  0  0  0  0  0  # atno 17395 bound_to 11000

$$$$
