AV-unprocessed.smi:1005|AV-procd|sdf|4380|dock7
  -GOLD-   22720 2303D 1   1.00000     0.00000
 Structure written by MMmdl.
 58 60  0  0  0  0  0  0  0  0  4 V2000
  152.4880  143.8208  160.9778 C   0  0  0  0  0  0  0  0  0  0  0  0
  152.1775  142.9382  159.7807 C   0  0  0  0  0  0  0  0  0  0  0  0
  151.2907  143.4256  158.7945 C   0  0  0  0  0  0  0  0  0  0  0  0
  151.0240  142.5936  157.7137 C   0  0  0  0  0  0  0  0  0  0  0  0
  150.2068  142.7801  156.5970 N   0  3  0  0  0  0  0  0  0  0  0  0
  150.2608  141.6744  155.8042 C   0  0  0  0  0  0  0  0  0  0  0  0
  151.1074  140.7866  156.3936 N   0  0  0  0  0  0  0  0  0  0  0  0
  151.4944  139.4366  155.9589 C   0  0  0  0  0  0  0  0  0  0  0  0
  150.4720  138.7878  155.0042 C   0  0  2  0  0  0  0  0  0  0  0  0
  150.5801  139.4577  153.7647 O   0  0  0  0  0  0  0  0  0  0  0  0
  149.0136  138.8857  155.5035 C   0  0  0  0  0  0  0  0  0  0  0  0
  148.1611  139.7403  154.6331 N   0  3  2  0  0  0  0  0  0  0  0  0
  147.1711  140.5509  155.3826 C   0  0  0  0  0  0  0  0  0  0  0  0
  145.9638  139.6981  155.8075 C   0  0  0  0  0  0  0  0  0  0  0  0
  145.3751  139.1118  154.6530 O   0  0  0  0  0  0  0  0  0  0  0  0
  146.2616  138.2303  153.9711 C   0  0  1  0  0  0  0  0  0  0  0  0
  145.4993  137.6259  152.7763 C   0  0  0  0  0  0  0  0  0  0  0  0
  146.1643  136.4227  152.2120 N   0  3  0  0  0  0  0  0  0  0  0  0
  145.6004  135.9903  150.9120 C   0  0  0  0  0  0  0  0  0  0  0  0
  146.2053  135.3052  153.1815 C   0  0  0  0  0  0  0  0  0  0  0  0
  147.5037  139.0271  153.5072 C   0  0  0  0  0  0  0  0  0  0  0  0
  151.6031  141.3151  157.5924 C   0  0  0  0  0  0  0  0  0  0  0  0
  152.4785  140.8196  158.5566 C   0  0  0  0  0  0  0  0  0  0  0  0
  152.7647  141.6520  159.6622 C   0  0  0  0  0  0  0  0  0  0  0  0
  153.7169  141.1379  160.7286 C   0  0  0  0  0  0  0  0  0  0  0  0
  151.9695  144.7779  160.9145 H   0  0  0  0  0  0  0  0  0  0  0  0
  153.5571  144.0255  161.0374 H   0  0  0  0  0  0  0  0  0  0  0  0
  152.1761  143.3345  161.9025 H   0  0  0  0  0  0  0  0  0  0  0  0
  150.8366  144.4021  158.8808 H   0  0  0  0  0  0  0  0  0  0  0  0
  149.7223  141.5257  154.8789 H   0  0  0  0  0  0  0  0  0  0  0  0
  152.4889  139.4690  155.5134 H   0  0  0  0  0  0  0  0  0  0  0  0
  151.5899  138.8333  156.8630 H   0  0  0  0  0  0  0  0  0  0  0  0
  150.7578  137.7475  154.8505 H   0  0  0  0  0  0  0  0  0  0  0  0
  149.7208  139.5445  153.3817 H   0  0  0  0  0  0  0  0  0  0  0  0
  148.5672  137.8962  155.5863 H   0  0  0  0  0  0  0  0  0  0  0  0
  149.0289  139.2925  156.5158 H   0  0  0  0  0  0  0  0  0  0  0  0
  147.6352  141.0283  156.2465 H   0  0  0  0  0  0  0  0  0  0  0  0
  146.8291  141.3594  154.7350 H   0  0  0  0  0  0  0  0  0  0  0  0
  146.2530  138.9259  156.5221 H   0  0  0  0  0  0  0  0  0  0  0  0
  145.2201  140.3239  156.3011 H   0  0  0  0  0  0  0  0  0  0  0  0
  146.5742  137.4351  154.6470 H   0  0  0  0  0  0  0  0  0  0  0  0
  144.4958  137.3587  153.1121 H   0  0  0  0  0  0  0  0  0  0  0  0
  145.3693  138.3691  151.9882 H   0  0  0  0  0  0  0  0  0  0  0  0
  144.5454  135.7315  151.0103 H   0  0  0  0  0  0  0  0  0  0  0  0
  146.1295  135.1129  150.5383 H   0  0  0  0  0  0  0  0  0  0  0  0
  145.6935  136.7663  150.1535 H   0  0  0  0  0  0  0  0  0  0  0  0
  145.1988  134.9715  153.4370 H   0  0  0  0  0  0  0  0  0  0  0  0
  146.7105  135.6057  154.1001 H   0  0  0  0  0  0  0  0  0  0  0  0
  146.7526  134.4563  152.7697 H   0  0  0  0  0  0  0  0  0  0  0  0
  147.1987  139.7755  152.7741 H   0  0  0  0  0  0  0  0  0  0  0  0
  148.2091  138.3738  152.9951 H   0  0  0  0  0  0  0  0  0  0  0  0
  152.9249  139.8400  158.4731 H   0  0  0  0  0  0  0  0  0  0  0  0
  154.0882  140.1414  160.4867 H   0  0  0  0  0  0  0  0  0  0  0  0
  153.2144  141.0805  161.6945 H   0  0  0  0  0  0  0  0  0  0  0  0
  154.5784  141.7992  160.8248 H   0  0  0  0  0  0  0  0  0  0  0  0
  147.1283  136.6762  152.0455 H   0  0  0  0  0  0  0  0  0  0  0  0
  148.7985  140.4074  154.2215 H   0  0  0  0  0  0  0  0  0  0  0  0
  149.6416  143.5955  156.3954 H   0  0  0  0  0  0  0  0  0  0  0  0
  1  2  1  0  0  0  0
  1 26  1  0  0  0  0
  1 27  1  0  0  0  0
  1 28  1  0  0  0  0
  2 24  1  0  0  0  0
  2  3  2  0  0  0  0
  3  4  1  0  0  0  0
  3 29  1  0  0  0  0
  4 22  2  0  0  0  0
  4  5  1  0  0  0  0
  5  6  2  0  0  0  0
  5 58  1  0  0  0  0
  6  7  1  0  0  0  0
  6 30  1  0  0  0  0
  7  8  1  0  0  0  0
  7 22  1  0  0  0  0
  8  9  1  0  0  0  0
  8 31  1  0  0  0  0
  8 32  1  0  0  0  0
  9 10  1  0  0  0  0
  9 11  1  0  0  0  0
  9 33  1  0  0  0  0
 10 34  1  0  0  0  0
 11 12  1  0  0  0  0
 11 35  1  0  0  0  0
 11 36  1  0  0  0  0
 12 21  1  0  0  0  0
 12 13  1  0  0  0  0
 12 57  1  0  0  0  0
 13 14  1  0  0  0  0
 13 37  1  0  0  0  0
 13 38  1  0  0  0  0
 14 15  1  0  0  0  0
 14 39  1  0  0  0  0
 14 40  1  0  0  0  0
 15 16  1  0  0  0  0
 16 17  1  0  0  0  0
 16 21  1  0  0  0  0
 16 41  1  0  0  0  0
 17 18  1  0  0  0  0
 17 42  1  0  0  0  0
 17 43  1  0  0  0  0
 18 19  1  0  0  0  0
 18 20  1  0  0  0  0
 18 56  1  0  0  0  0
 19 44  1  0  0  0  0
 19 45  1  0  0  0  0
 19 46  1  0  0  0  0
 20 47  1  0  0  0  0
 20 48  1  0  0  0  0
 20 49  1  0  0  0  0
 21 50  1  0  0  0  0
 21 51  1  0  0  0  0
 22 23  1  0  0  0  0
 23 24  2  0  0  0  0
 23 52  1  0  0  0  0
 24 25  1  0  0  0  0
 25 53  1  0  0  0  0
 25 54  1  0  0  0  0
 25 55  1  0  0  0  0
M  CHG  1   5   1
M  CHG  1  12   1
M  CHG  1  18   1
M  END
> <s_m_source_file>
AV-unprocessed.smi

> <i_m_source_file_index>
1005

> <i_lp_mmshare_version>
43012

> <i_f3d_flags>
0

> <s_epik_input>
W0NIM11jKFtjSF0xKWMoW0NIM10pW2NIXWMoYzEyKW4oW2NIXW4yKVtDSDJdW0NASF0oW09IXSlbQ0gyXU4zW0NIMl1bQ0gyXU9bQ0BIXShbQ0gyXTMpW0NIMl1OKFtDSDNdKVtDSDNd

> <s_epik_cmdline>
J2VwaWtfcHl0aG9uJywgJy1waCcsICc3LjAnLCAnLXRuJywgJzgnLCAnLW1hJywgJzIwMCcsICctbWV0YWxfYmluZGluZycsICctaW1hZScsICc8aW5maWxlLm1hZT4nLCAnLW9tYWUnLCAnPG91dGZpbGUubWFlPic=

> <r_epik_Ionization_Penalty>
2.30802

> <r_epik_Ionization_Penalty_Charging>
2.30798

> <r_epik_Ionization_Penalty_Neutral>
3.4851e-05

> <r_epik_State_Penalty>
2.52618

> <r_epik_Charging_Adjusted_Penalty>
4.83416

> <i_epik_Tot_Q>
3

> <i_epik_Tot_abs_Q>
3

> <r_epik_Metal_State_Penalty>
6.53149

> <b_epik_Metal_Only>
0

> <s_lp_Force_Field>
OPLS_2005

> <r_lp_Energy>
52.3538

> <b_lp_Chiralities_Consistent>
1

> <s_lp_Variant>
AV-unprocessed.smi:1005-19

> <Gold.Version>
5.8.1

> <Gold.Id.Protein>
6NUR|6NUR_protein|mol2

> <Gold.PLP.Fitness>
55.3543

> <Gold.PLP.PLP>
-43.2760

> <Gold.PLP.part.hbond>
-3.9745

> <Gold.PLP.part.metal>
0.0000

> <Gold.PLP.part.buried>
-3.8651

> <Gold.PLP.part.nonpolar>
-35.9384

> <Gold.PLP.part.repulsive>
0.5350

> <Gold.PLP.ligand.clash>
0.0000

> <Gold.PLP.ligand.torsion>
1.7262

> <Gold.PLP.Chemscore.Hbond>
5.1310

> <Gold.PLP.Chemscore.CHOScore>
0.0000

> <Gold.PLP.Chemscore.Metal>
0.0000

> <Gold.Chemscore.Hbonds>
donor molecule, donor type, donor heavy atom, donor atom, acceptor molecule, acceptor atom, score
      L1  H     5    58       P1  8028  2.00
      L1  H    10    34       P1  7957  0.13
      L1  H    18    56       P1  7948  2.00
      P1  H  7989  7998       L1    10  1.00

> <Gold.PLP.Chemscore.Internal.Correction>
0.1377

> <Gold.Rescore>
     Score         DG    S(hbond)    S(metal)    S(lipo)     H(rot)  DE(clash)    DE(int)     intcor
     18.97     -22.22       2.89        0.00     116.67       2.56       0.38       2.88       ----

> <Gold.Chemscore.Fitness>
18.9667

> <Gold.Chemscore.DG>
-22.2232

> <Gold.Chemscore.ZeroCoef>
-5.4800

> <Gold.Chemscore.Hbond>
2.8856

> <Gold.Chemscore.Metal>
0.0000

> <Gold.Chemscore.Lipo>
116.6687

> <Gold.Chemscore.Internal_Hbond>
0.0000

> <Gold.Chemscore.DEClash>
0.3811

> <Gold.Chemscore.DEInternal>
2.8754

> <Gold.Chemscore.Rot>
2.5566

> <Gold.Chemscore.Internal.Correction>
   9.000000E+99

> <Gold.Chemscore.Hbonds>
donor molecule, donor type, donor heavy atom, donor atom, acceptor molecule, acceptor atom, score
      L1  H     5    58       P1  8028  0.94
      L1  H    10    34       P1  7957  0.13
      L1  H    18    56       P1  7948  0.96
      P1  H  7989  7998       L1    10  0.80

> <Gold.Chemscore.Hbond.Weighted>
-9.6380

> <Gold.Chemscore.Metal.Weighted>
-0.0000

> <Gold.Chemscore.Lipo.Weighted>
-13.6502

> <Gold.Chemscore.Internal_Hbond.Weighted>
0.0000

> <Gold.Chemscore.DEClash.Weighted>
0.3811

> <Gold.Chemscore.DEInternal.Weighted>
2.8754

> <Gold.Chemscore.Rot.Weighted>
6.5450

> <Gold.Chemscore.Internal.Correction.Weighted>
   9.000000E+99

> <Gold.Protein.RotatedTorsions>
[ 6907 6896 6895 6894 ] final   97.03 input  -60.11 | X-H torsion
[ 7974 7965 7964 7962 ] final  122.69 input  175.53 | X-H torsion
[ 8008 7997 7996 7995 ] final   39.25 input   59.86 | X-H torsion
[ 10167 10162 10161 10158 ] final -146.11 input  -65.29 | X-H torsion
[ 10718 10713 10712 10709 ] final  166.54 input   66.30 | X-H torsion
[ 10763 10752 10751 10750 ] final  -93.12 input  -60.55 | X-H torsion
[ 11005 11000 10999 10996 ] final  -22.70 input  -57.11 | X-H torsion

> <Gold.Protein.ActiveResidues>
 VAL166  LYS551  ARG553  GLY616  TRP617  ASP618  TYR619  PRO620  LYS621  CYS622 
 ASP623  PHE694  ASN695  SER759  ASP760  ASP761  ALA762  ILE779  LEU786  VAL792 
 PHE793  MET794  SER795  GLU796  ALA797  LYS798  CYS799  TRP800  GLU811  SER814 

> <Gold.Protein.RotatedAtoms>
  152.5428  134.0795  159.8229 H   0  0  0  0  0  0  0  0  0  0  0  0  # atno 6907 bound_to 6896
  151.0899  133.5317  159.2623 H   0  0  0  0  0  0  0  0  0  0  0  0  # atno 6908 bound_to 6896
  151.2112  135.0490  159.8966 H   0  0  0  0  0  0  0  0  0  0  0  0  # atno 6909 bound_to 6896
  145.1046  139.3495  143.4794 H   0  0  0  0  0  0  0  0  0  0  0  0  # atno 7974 bound_to 7965
  155.2335  140.3340  155.4300 H   0  0  0  0  0  0  0  0  0  0  0  0  # atno 8008 bound_to 7997
  156.2285  140.1840  156.7348 H   0  0  0  0  0  0  0  0  0  0  0  0  # atno 8009 bound_to 7997
  154.5938  140.0634  156.9261 H   0  0  0  0  0  0  0  0  0  0  0  0  # atno 8010 bound_to 7997
  139.7743  143.8192  152.2629 H   0  0  0  0  0  0  0  0  0  0  0  0  # atno 10167 bound_to 10162
  157.0644  131.0349  151.2635 H   0  0  0  0  0  0  0  0  0  0  0  0  # atno 10718 bound_to 10713
  154.6928  135.5206  153.8416 H   0  0  0  0  0  0  0  0  0  0  0  0  # atno 10763 bound_to 10752
  153.0645  135.6580  154.0396 H   0  0  0  0  0  0  0  0  0  0  0  0  # atno 10764 bound_to 10752
  154.0267  135.2989  155.3353 H   0  0  0  0  0  0  0  0  0  0  0  0  # atno 10765 bound_to 10752
  140.8682  133.7739  156.0155 H   0  0  0  0  0  0  0  0  0  0  0  0  # atno 11005 bound_to 11000
  146.3528  140.0938  142.8611 LP  0  0  0  0  0  0  0  0  0  0  0  0  # atno 17320 bound_to 7965
  145.0916  140.9288  143.4765 LP  0  0  0  0  0  0  0  0  0  0  0  0  # atno 17321 bound_to 7965
  139.8236  144.7285  150.9541 LP  0  0  0  0  0  0  0  0  0  0  0  0  # atno 17342 bound_to 10162
  140.7815  143.4136  151.0953 LP  0  0  0  0  0  0  0  0  0  0  0  0  # atno 17343 bound_to 10162
  157.4929  130.7833  149.7526 LP  0  0  0  0  0  0  0  0  0  0  0  0  # atno 17370 bound_to 10713
  155.9969  130.3903  150.2761 LP  0  0  0  0  0  0  0  0  0  0  0  0  # atno 17371 bound_to 10713
  140.8604  134.2847  157.5237 LP  0  0  0  0  0  0  0  0  0  0  0  0  # atno 17394 bound_to 11000
  139.8710  134.9515  156.4087 LP  0  0  0  0  0  0  0  0  0  0  0  0  # atno 17395 bound_to 11000

$$$$
