AV-unprocessed.smi:3081|AV-procd|sdf|11741|dock1
  -GOLD-   2272017133D 1   1.00000     0.00000
 Structure written by MMmdl.
 26 27  0  0  0  0  0  0  0  0  2 V2000
  150.7624  136.8367  155.2563 C   0  0  0  0  0  0  0  0  0  0  0  0
  149.7970  137.7758  154.8390 C   0  0  0  0  0  0  0  0  0  0  0  0
  150.2714  139.0722  154.5443 C   0  0  0  0  0  0  0  0  0  0  0  0
  149.3279  140.1733  154.0808 C   0  0  1  0  0  0  0  0  0  0  0  0
  147.8717  139.6820  153.9575 C   0  0  0  0  0  0  0  0  0  0  0  0
  146.9566  140.8258  153.4935 C   0  0  0  0  0  0  0  0  0  0  0  0
  147.0947  142.0491  154.4153 C   0  0  0  0  0  0  0  0  0  0  0  0
  148.5047  142.4897  154.4912 N   0  3  0  0  0  0  0  0  0  0  0  0
  149.4173  141.4293  154.9734 C   0  0  0  0  0  0  0  0  0  0  0  0
  151.5823  139.3875  154.6576 N   0  0  0  0  0  0  0  0  0  0  0  0
  152.4057  138.4164  155.0628 C   0  0  0  0  0  0  0  0  0  0  0  0
  152.0687  137.1609  155.3664 N   0  0  0  0  0  0  0  0  0  0  0  0
  150.4852  135.8221  155.5014 H   0  0  0  0  0  0  0  0  0  0  0  0
  148.7538  137.5093  154.7530 H   0  0  0  0  0  0  0  0  0  0  0  0
  149.6527  140.4663  153.0810 H   0  0  0  0  0  0  0  0  0  0  0  0
  147.8116  138.8495  153.2555 H   0  0  0  0  0  0  0  0  0  0  0  0
  147.5183  139.3056  154.9186 H   0  0  0  0  0  0  0  0  0  0  0  0
  147.2103  141.1068  152.4705 H   0  0  0  0  0  0  0  0  0  0  0  0
  145.9199  140.4887  153.4730 H   0  0  0  0  0  0  0  0  0  0  0  0
  146.4840  142.8724  154.0450 H   0  0  0  0  0  0  0  0  0  0  0  0
  146.7372  141.8122  155.4183 H   0  0  0  0  0  0  0  0  0  0  0  0
  148.8020  142.7757  153.5692 H   0  0  0  0  0  0  0  0  0  0  0  0
  149.1606  141.1887  156.0061 H   0  0  0  0  0  0  0  0  0  0  0  0
  150.4360  141.8180  154.9804 H   0  0  0  0  0  0  0  0  0  0  0  0
  153.4508  138.6732  155.1521 H   0  0  0  0  0  0  0  0  0  0  0  0
  148.5674  143.2829  155.1138 H   0  0  0  0  0  0  0  0  0  0  0  0
  1 12  1  0  0  0  0
  1  2  2  0  0  0  0
  1 13  1  0  0  0  0
  2  3  1  0  0  0  0
  2 14  1  0  0  0  0
  3  4  1  0  0  0  0
  3 10  2  0  0  0  0
  4  9  1  0  0  0  0
  4  5  1  0  0  0  0
  4 15  1  0  0  0  0
  5  6  1  0  0  0  0
  5 16  1  0  0  0  0
  5 17  1  0  0  0  0
  6  7  1  0  0  0  0
  6 18  1  0  0  0  0
  6 19  1  0  0  0  0
  7  8  1  0  0  0  0
  7 20  1  0  0  0  0
  7 21  1  0  0  0  0
  8  9  1  0  0  0  0
  8 22  1  0  0  0  0
  8 26  1  0  0  0  0
  9 23  1  0  0  0  0
  9 24  1  0  0  0  0
 10 11  1  0  0  0  0
 11 12  2  0  0  0  0
 11 25  1  0  0  0  0
M  CHG  1   8   1
M  END
> <s_m_source_file>
AV-unprocessed.smi

> <i_m_source_file_index>
3081

> <i_lp_mmshare_version>
43012

> <i_f3d_flags>
0

> <s_epik_input>
bjFbY0hdbltjSF1bY0hdYzFbQ0BASF0yW0NIMl1bQ0gyXVtDSDJdW05IXVtDSDJdMg==

> <s_epik_cmdline>
J2VwaWtfcHl0aG9uJywgJy1waCcsICc3LjAnLCAnLXRuJywgJzgnLCAnLW1hJywgJzIwMCcsICctbWV0YWxfYmluZGluZycsICctaW1hZScsICc8aW5maWxlLm1hZT4nLCAnLW9tYWUnLCAnPG91dGZpbGUubWFlPic=

> <r_lp_tautomer_probability>
1

> <r_epik_Ionization_Penalty>
0.000373217

> <r_epik_Ionization_Penalty_Charging>
0.000372054

> <r_epik_Ionization_Penalty_Neutral>
1.16293e-06

> <r_epik_State_Penalty>
0.00022692

> <r_epik_Charging_Adjusted_Penalty>
0.000598973

> <i_epik_Tot_Q>
1

> <i_epik_Tot_abs_Q>
1

> <r_epik_Metal_State_Penalty>
-0

> <b_epik_Metal_Only>
0

> <s_epik_Chemistry_Notes>
This compound contains an electron-poor aromatic ring that is susceptible to covalent hydrolysis at low pH, typically resulting in measured values for nitrogen ring protonation that are around two units higher than predicted values.

> <s_lp_Force_Field>
OPLS_2005

> <r_lp_Energy>
7.17513

> <b_lp_Chiralities_Consistent>
1

> <s_lp_Variant>
AV-unprocessed.smi:3081-2

> <Gold.Version>
5.8.1

> <Gold.Id.Protein>
6NUR|6NUR_protein|mol2

> <Gold.PLP.Fitness>
35.6519

> <Gold.PLP.PLP>
-23.8788

> <Gold.PLP.part.hbond>
-2.9600

> <Gold.PLP.part.metal>
0.0000

> <Gold.PLP.part.buried>
-2.8696

> <Gold.PLP.part.nonpolar>
-20.9036

> <Gold.PLP.part.repulsive>
1.4453

> <Gold.PLP.ligand.clash>
0.0000

> <Gold.PLP.ligand.torsion>
0.0235

> <Gold.PLP.Chemscore.Hbond>
3.9280

> <Gold.PLP.Chemscore.CHOScore>
0.0000

> <Gold.PLP.Chemscore.Metal>
0.0000

> <Gold.Chemscore.Hbonds>
donor molecule, donor type, donor heavy atom, donor atom, acceptor molecule, acceptor atom, score
      L1  H     8    26       P1  8028  2.00
      P1  H  7989  7998       L1    10  1.00
      P1  H 10752 10765       L1    12  0.91

> <Gold.PLP.Chemscore.Internal.Correction>
0.0360

> <Gold.Rescore>
     Score         DG    S(hbond)    S(metal)    S(lipo)     H(rot)  DE(clash)    DE(int)     intcor
     16.89     -17.18       2.64        0.00      46.40       1.00       0.26       0.03       ----

> <Gold.Chemscore.Fitness>
16.8910

> <Gold.Chemscore.DG>
-17.1816

> <Gold.Chemscore.ZeroCoef>
-5.4800

> <Gold.Chemscore.Hbond>
2.6445

> <Gold.Chemscore.Metal>
0.0000

> <Gold.Chemscore.Lipo>
46.4015

> <Gold.Chemscore.Internal_Hbond>
0.0000

> <Gold.Chemscore.DEClash>
0.2581

> <Gold.Chemscore.DEInternal>
0.0325

> <Gold.Chemscore.Rot>
1.0000

> <Gold.Chemscore.Internal.Correction>
   9.000000E+99

> <Gold.Chemscore.Hbonds>
donor molecule, donor type, donor heavy atom, donor atom, acceptor molecule, acceptor atom, score
      L1  H     8    26       P1  8028  0.95
      P1  H  7989  7998       L1    10  0.25
      P1  H 10752 10765       L1    12  0.40

> <Gold.Chemscore.Hbond.Weighted>
-8.8326

> <Gold.Chemscore.Metal.Weighted>
-0.0000

> <Gold.Chemscore.Lipo.Weighted>
-5.4290

> <Gold.Chemscore.Internal_Hbond.Weighted>
0.0000

> <Gold.Chemscore.DEClash.Weighted>
0.2581

> <Gold.Chemscore.DEInternal.Weighted>
0.0325

> <Gold.Chemscore.Rot.Weighted>
2.5600

> <Gold.Chemscore.Internal.Correction.Weighted>
   9.000000E+99

> <Gold.Protein.RotatedTorsions>
[ 6907 6896 6895 6894 ] final  -15.10 input  -60.11 | X-H torsion
[ 7974 7965 7964 7962 ] final  145.93 input  175.53 | X-H torsion
[ 8008 7997 7996 7995 ] final  -71.31 input   59.86 | X-H torsion
[ 10167 10162 10161 10158 ] final -154.79 input  -65.29 | X-H torsion
[ 10718 10713 10712 10709 ] final  127.61 input   66.30 | X-H torsion
[ 10763 10752 10751 10750 ] final -169.55 input  -60.55 | X-H torsion
[ 11005 11000 10999 10996 ] final    3.71 input  -57.11 | X-H torsion

> <Gold.Protein.ActiveResidues>
 VAL166  LYS551  ARG553  GLY616  TRP617  ASP618  TYR619  PRO620  LYS621  CYS622 
 ASP623  PHE694  ASN695  SER759  ASP760  ASP761  ALA762  ILE779  LEU786  VAL792 
 PHE793  MET794  SER795  GLU796  ALA797  LYS798  CYS799  TRP800  GLU811  SER814 

> <Gold.Protein.RotatedAtoms>
  151.3291  135.0837  159.9332 H   0  0  0  0  0  0  0  0  0  0  0  0  # atno 6907 bound_to 6896
  152.5239  133.9561  159.7705 H   0  0  0  0  0  0  0  0  0  0  0  0  # atno 6908 bound_to 6896
  150.9896  133.6110  159.2740 H   0  0  0  0  0  0  0  0  0  0  0  0  # atno 6909 bound_to 6896
  144.8712  139.5843  143.5886 H   0  0  0  0  0  0  0  0  0  0  0  0  # atno 7974 bound_to 7965
  154.5078  140.0818  156.7929 H   0  0  0  0  0  0  0  0  0  0  0  0  # atno 8008 bound_to 7997
  155.3854  140.3430  155.4230 H   0  0  0  0  0  0  0  0  0  0  0  0  # atno 8009 bound_to 7997
  156.1536  140.1566  156.8716 H   0  0  0  0  0  0  0  0  0  0  0  0  # atno 8010 bound_to 7997
  139.6984  143.9303  152.2418 H   0  0  0  0  0  0  0  0  0  0  0  0  # atno 10167 bound_to 10162
  157.5317  131.1098  150.8998 H   0  0  0  0  0  0  0  0  0  0  0  0  # atno 10718 bound_to 10713
  154.6511  135.2911  154.9986 H   0  0  0  0  0  0  0  0  0  0  0  0  # atno 10763 bound_to 10752
  154.1078  135.6567  153.4883 H   0  0  0  0  0  0  0  0  0  0  0  0  # atno 10764 bound_to 10752
  153.0377  135.5258  154.7419 H   0  0  0  0  0  0  0  0  0  0  0  0  # atno 10765 bound_to 10752
  140.5900  133.9933  155.8084 H   0  0  0  0  0  0  0  0  0  0  0  0  # atno 11005 bound_to 11000
  146.2932  139.7199  142.9146 LP  0  0  0  0  0  0  0  0  0  0  0  0  # atno 17320 bound_to 7965
  145.4126  141.0398  143.3008 LP  0  0  0  0  0  0  0  0  0  0  0  0  # atno 17321 bound_to 7965
  139.9139  144.6840  150.8533 LP  0  0  0  0  0  0  0  0  0  0  0  0  # atno 17342 bound_to 10162
  140.7703  143.3423  151.2182 LP  0  0  0  0  0  0  0  0  0  0  0  0  # atno 17343 bound_to 10162
  156.9577  130.5443  149.5284 LP  0  0  0  0  0  0  0  0  0  0  0  0  # atno 17370 bound_to 10713
  156.0428  130.5508  150.8810 LP  0  0  0  0  0  0  0  0  0  0  0  0  # atno 17371 bound_to 10713
  141.0941  133.9871  157.3189 LP  0  0  0  0  0  0  0  0  0  0  0  0  # atno 17394 bound_to 11000
  139.9278  135.0201  156.8296 LP  0  0  0  0  0  0  0  0  0  0  0  0  # atno 17395 bound_to 11000

$$$$
