AV-unprocessed.smi:2740|AV-procd|sdf|10556|dock2
  -GOLD-   2272015 03D 1   1.00000     0.00000
 Structure written by MMmdl.
 30 31  0  0  0  0  0  0  0  0  2 V2000
  147.9621  137.5184  154.8358 C   0  0  0  0  0  0  0  0  0  0  0  0
  149.2469  138.2464  155.0432 C   0  0  0  0  0  0  0  0  0  0  0  0
  150.1116  138.7050  154.0836 C   0  0  0  0  0  0  0  0  0  0  0  0
  151.2335  139.3535  154.6018 N   0  0  0  0  0  0  0  0  0  0  0  0
  151.2435  139.4112  155.9378 C   0  0  0  0  0  0  0  0  0  0  0  0
  152.2313  139.9916  156.6388 N   0  5  0  0  0  0  0  0  0  0  0  0
  152.0209  140.3603  157.9232 C   0  0  0  0  0  0  0  0  0  0  0  0
  150.9641  140.2533  158.5499 O   0  0  0  0  0  0  0  0  0  0  0  0
  153.1012  140.8846  158.5198 N   0  0  0  0  0  0  0  0  0  0  0  0
  153.1643  141.3676  159.8951 C   0  0  0  0  0  0  0  0  0  0  0  0
  153.0931  142.9022  159.9620 C   0  0  2  0  0  0  0  0  0  0  0  0
  152.3232  143.4313  161.1714 C   0  0  0  0  0  0  0  0  0  0  0  0
  151.7828  144.7744  160.7013 C   0  0  0  0  0  0  0  0  0  0  0  0
  152.0373  144.7737  159.1917 C   0  0  0  0  0  0  0  0  0  0  0  0
  152.3442  143.4243  158.8754 O   0  0  0  0  0  0  0  0  0  0  0  0
  149.8310  138.6211  156.6424 S   0  0  0  0  0  0  0  0  0  0  0  0
  147.2459  138.1456  154.3050 H   0  0  0  0  0  0  0  0  0  0  0  0
  147.5146  137.2275  155.7865 H   0  0  0  0  0  0  0  0  0  0  0  0
  148.1205  136.6143  154.2479 H   0  0  0  0  0  0  0  0  0  0  0  0
  150.0085  138.6142  153.0125 H   0  0  0  0  0  0  0  0  0  0  0  0
  153.9474  140.9502  157.9734 H   0  0  0  0  0  0  0  0  0  0  0  0
  152.3386  140.9276  160.4547 H   0  0  0  0  0  0  0  0  0  0  0  0
  154.0811  141.0114  160.3680 H   0  0  0  0  0  0  0  0  0  0  0  0
  154.0939  143.3384  159.9479 H   0  0  0  0  0  0  0  0  0  0  0  0
  151.4909  142.7680  161.4107 H   0  0  0  0  0  0  0  0  0  0  0  0
  152.9516  143.5138  162.0586 H   0  0  0  0  0  0  0  0  0  0  0  0
  150.7190  144.8584  160.9259 H   0  0  0  0  0  0  0  0  0  0  0  0
  152.2946  145.6090  161.1814 H   0  0  0  0  0  0  0  0  0  0  0  0
  151.1797  145.1301  158.6205 H   0  0  0  0  0  0  0  0  0  0  0  0
  152.8949  145.4021  158.9467 H   0  0  0  0  0  0  0  0  0  0  0  0
  1  2  1  0  0  0  0
  1 17  1  0  0  0  0
  1 18  1  0  0  0  0
  1 19  1  0  0  0  0
  2 16  1  0  0  0  0
  2  3  2  0  0  0  0
  3  4  1  0  0  0  0
  3 20  1  0  0  0  0
  4  5  2  0  0  0  0
  5  6  1  0  0  0  0
  5 16  1  0  0  0  0
  6  7  1  0  0  0  0
  7  8  2  0  0  0  0
  7  9  1  0  0  0  0
  9 10  1  0  0  0  0
  9 21  1  0  0  0  0
 10 11  1  0  0  0  0
 10 22  1  0  0  0  0
 10 23  1  0  0  0  0
 11 15  1  0  0  0  0
 11 12  1  0  0  0  0
 11 24  1  0  0  0  0
 12 13  1  0  0  0  0
 12 25  1  0  0  0  0
 12 26  1  0  0  0  0
 13 14  1  0  0  0  0
 13 27  1  0  0  0  0
 13 28  1  0  0  0  0
 14 15  1  0  0  0  0
 14 29  1  0  0  0  0
 14 30  1  0  0  0  0
M  CHG  1   6  -1
M  END
> <s_m_source_file>
AV-unprocessed.smi

> <i_m_source_file_index>
2740

> <i_lp_mmshare_version>
43012

> <i_f3d_flags>
0

> <s_epik_input>
W0NIM11jMVtjSF1uYyhzMSlbTkhdQyg9TylbTkhdW0NIMl1bQ0BASF0yW0NIMl1bQ0gyXVtDSDJdTzI=

> <s_epik_cmdline>
J2VwaWtfcHl0aG9uJywgJy1waCcsICc3LjAnLCAnLXRuJywgJzgnLCAnLW1hJywgJzIwMCcsICctbWV0YWxfYmluZGluZycsICctaW1hZScsICc8aW5maWxlLm1hZT4nLCAnLW9tYWUnLCAnPG91dGZpbGUubWFlPic=

> <r_lp_tautomer_probability>
0.999

> <r_epik_Ionization_Penalty>
8.54039

> <r_epik_Ionization_Penalty_Charging>
6.77868

> <r_epik_Ionization_Penalty_Neutral>
1.76171

> <r_epik_State_Penalty>
6.77885

> <r_epik_Charging_Adjusted_Penalty>
13.5575

> <i_epik_Tot_Q>
-1

> <i_epik_Tot_abs_Q>
1

> <r_epik_Metal_State_Penalty>
2.69888

> <b_epik_Metal_Only>
1

> <s_lp_Force_Field>
OPLS_2005

> <r_lp_Energy>
13.1736

> <b_lp_Chiralities_Consistent>
1

> <s_lp_Variant>
AV-unprocessed.smi:2740-3

> <Gold.Version>
5.8.1

> <Gold.Id.Protein>
6NUR|6NUR_protein|mol2

> <Gold.PLP.Fitness>
42.5191

> <Gold.PLP.PLP>
-31.3199

> <Gold.PLP.part.hbond>
-2.0000

> <Gold.PLP.part.metal>
0.0000

> <Gold.PLP.part.buried>
-4.8483

> <Gold.PLP.part.nonpolar>
-25.8204

> <Gold.PLP.part.repulsive>
0.3510

> <Gold.PLP.ligand.clash>
0.0000

> <Gold.PLP.ligand.torsion>
0.6428

> <Gold.PLP.Chemscore.Hbond>
3.0000

> <Gold.PLP.Chemscore.CHOScore>
1.1478

> <Gold.PLP.Chemscore.Metal>
0.0000

> <Gold.Chemscore.Hbonds>
donor molecule, donor type, donor heavy atom, donor atom, acceptor molecule, acceptor atom, score
      P1  H  7989  7998       L1     4  1.00
      P1  H  7997  8010       L1     6  1.53
      L1  C     3    20       P1  7948  0.27
      L1  C     3    20       P1  7957  1.00

> <Gold.PLP.Chemscore.Internal.Correction>
0.0413

> <Gold.Rescore>
     Score         DG    S(hbond)    S(metal)    S(lipo)     H(rot)  DE(clash)    DE(int)     intcor
     15.72     -16.73       1.62        0.00      77.36       1.25       0.07       0.94       ----

> <Gold.Chemscore.Fitness>
15.7197

> <Gold.Chemscore.DG>
-16.7328

> <Gold.Chemscore.ZeroCoef>
-5.4800

> <Gold.Chemscore.Hbond>
1.6182

> <Gold.Chemscore.Metal>
0.0000

> <Gold.Chemscore.Lipo>
77.3632

> <Gold.Chemscore.Internal_Hbond>
0.0000

> <Gold.Chemscore.DEClash>
0.0694

> <Gold.Chemscore.DEInternal>
0.9438

> <Gold.Chemscore.Rot>
1.2514

> <Gold.Chemscore.Internal.Correction>
   9.000000E+99

> <Gold.Chemscore.Hbonds>
donor molecule, donor type, donor heavy atom, donor atom, acceptor molecule, acceptor atom, score
      P1  H  7989  7998       L1     4  0.69
      P1  H  7997  8010       L1     6  0.19

> <Gold.Chemscore.Hbond.Weighted>
-5.4049

> <Gold.Chemscore.Metal.Weighted>
-0.0000

> <Gold.Chemscore.Lipo.Weighted>
-9.0515

> <Gold.Chemscore.Internal_Hbond.Weighted>
0.0000

> <Gold.Chemscore.DEClash.Weighted>
0.0694

> <Gold.Chemscore.DEInternal.Weighted>
0.9438

> <Gold.Chemscore.Rot.Weighted>
3.2036

> <Gold.Chemscore.Internal.Correction.Weighted>
   9.000000E+99

> <Gold.Protein.RotatedTorsions>
[ 6907 6896 6895 6894 ] final   51.45 input  -60.11 | X-H torsion
[ 7974 7965 7964 7962 ] final  -53.05 input  175.53 | X-H torsion
[ 8008 7997 7996 7995 ] final   64.85 input   59.86 | X-H torsion
[ 10167 10162 10161 10158 ] final   42.92 input  -65.29 | X-H torsion
[ 10718 10713 10712 10709 ] final -169.33 input   66.30 | X-H torsion
[ 10763 10752 10751 10750 ] final   99.71 input  -60.55 | X-H torsion
[ 11005 11000 10999 10996 ] final  104.01 input  -57.11 | X-H torsion

> <Gold.Protein.ActiveResidues>
 VAL166  LYS551  ARG553  GLY616  TRP617  ASP618  TYR619  PRO620  LYS621  CYS622 
 ASP623  PHE694  ASN695  SER759  ASP760  ASP761  ALA762  ILE779  LEU786  VAL792 
 PHE793  MET794  SER795  GLU796  ALA797  LYS798  CYS799  TRP800  GLU811  SER814 

> <Gold.Protein.RotatedAtoms>
  152.3128  134.7476  160.0332 H   0  0  0  0  0  0  0  0  0  0  0  0  # atno 6907 bound_to 6896
  151.7951  133.3358  159.3518 H   0  0  0  0  0  0  0  0  0  0  0  0  # atno 6908 bound_to 6896
  150.7329  134.5736  159.5947 H   0  0  0  0  0  0  0  0  0  0  0  0  # atno 6909 bound_to 6896
  145.9011  140.7993  142.9742 H   0  0  0  0  0  0  0  0  0  0  0  0  # atno 7974 bound_to 7965
  155.6525  140.3497  155.4753 H   0  0  0  0  0  0  0  0  0  0  0  0  # atno 8008 bound_to 7997
  155.9836  140.1179  157.0727 H   0  0  0  0  0  0  0  0  0  0  0  0  # atno 8009 bound_to 7997
  154.4198  140.1133  156.5455 H   0  0  0  0  0  0  0  0  0  0  0  0  # atno 8010 bound_to 7997
  140.3495  144.2368  150.6147 H   0  0  0  0  0  0  0  0  0  0  0  0  # atno 10167 bound_to 10162
  156.7100  130.9229  151.3088 H   0  0  0  0  0  0  0  0  0  0  0  0  # atno 10718 bound_to 10713
  153.3048  135.4104  155.1285 H   0  0  0  0  0  0  0  0  0  0  0  0  # atno 10763 bound_to 10752
  154.8559  135.3550  154.5802 H   0  0  0  0  0  0  0  0  0  0  0  0  # atno 10764 bound_to 10752
  153.6229  135.7064  153.5362 H   0  0  0  0  0  0  0  0  0  0  0  0  # atno 10765 bound_to 10752
  139.8788  134.9284  156.5296 H   0  0  0  0  0  0  0  0  0  0  0  0  # atno 11005 bound_to 11000
  144.6736  140.1679  143.7417 LP  0  0  0  0  0  0  0  0  0  0  0  0  # atno 17320 bound_to 7965
  145.8789  139.2312  143.1617 LP  0  0  0  0  0  0  0  0  0  0  0  0  # atno 17321 bound_to 7965
  140.5232  143.2260  151.8356 LP  0  0  0  0  0  0  0  0  0  0  0  0  # atno 17342 bound_to 10162
  139.4828  144.4811  151.9305 LP  0  0  0  0  0  0  0  0  0  0  0  0  # atno 17343 bound_to 10162
  157.6940  130.9262  150.0592 LP  0  0  0  0  0  0  0  0  0  0  0  0  # atno 17370 bound_to 10713
  156.1668  130.3645  149.9221 LP  0  0  0  0  0  0  0  0  0  0  0  0  # atno 17371 bound_to 10713
  140.8390  133.8219  155.9057 LP  0  0  0  0  0  0  0  0  0  0  0  0  # atno 17394 bound_to 11000
  140.9255  134.2087  157.4898 LP  0  0  0  0  0  0  0  0  0  0  0  0  # atno 17395 bound_to 11000

$$$$
