AV-unprocessed.smi:3264|AV-procd|sdf|12495|dock10
  -GOLD-   2272018393D 1   1.00000     0.00000
 Structure written by MMmdl.
 32 33  0  0  0  0  0  0  0  0  1 V2000
  152.4879  143.2385  161.6729 C   0  0  0  0  0  0  0  0  0  0  0  0
  151.9699  143.5912  160.3207 C   0  0  0  0  0  0  0  0  0  0  0  0
  151.9652  142.7461  159.2864 N   0  0  0  0  0  0  0  0  0  0  0  0
  151.4329  143.3178  158.1264 C   0  0  0  0  0  0  0  0  0  0  0  0
  151.3468  142.5120  156.8658 C   0  0  0  0  0  0  0  0  0  0  0  0
  150.1125  141.6000  156.8404 C   0  0  0  0  0  0  0  0  0  0  0  0
  150.4657  140.2761  156.3460 N   0  0  0  0  0  0  0  0  0  0  0  0
  150.4044  139.8990  155.0608 C   0  0  0  0  0  0  0  0  0  0  0  0
  150.0393  140.6493  154.1550 O   0  0  0  0  0  0  0  0  0  0  0  0
  150.8373  138.4588  154.7607 C   0  0  1  0  0  0  0  0  0  0  0  0
  152.2546  138.0941  155.2443 C   0  0  0  0  0  0  0  0  0  0  0  0
  152.0095  137.0921  156.3559 C   0  0  0  0  0  0  0  0  0  0  0  0
  150.6899  136.4653  155.9298 C   0  0  0  0  0  0  0  0  0  0  0  0
  149.9526  137.5778  155.4497 O   0  0  0  0  0  0  0  0  0  0  0  0
  151.0277  144.6177  158.3008 C   0  0  0  0  0  0  0  0  0  0  0  0
  151.3036  145.1716  159.9293 S   0  0  0  0  0  0  0  0  0  0  0  0
  152.7981  142.1935  161.7061 H   0  0  0  0  0  0  0  0  0  0  0  0
  151.7121  143.3968  162.4221 H   0  0  0  0  0  0  0  0  0  0  0  0
  153.3452  143.8656  161.9177 H   0  0  0  0  0  0  0  0  0  0  0  0
  151.3218  143.1783  156.0026 H   0  0  0  0  0  0  0  0  0  0  0  0
  152.2483  141.9085  156.7507 H   0  0  0  0  0  0  0  0  0  0  0  0
  149.6910  141.5035  157.8420 H   0  0  0  0  0  0  0  0  0  0  0  0
  149.3413  142.0413  156.2062 H   0  0  0  0  0  0  0  0  0  0  0  0
  150.7817  139.5997  157.0260 H   0  0  0  0  0  0  0  0  0  0  0  0
  150.7614  138.2670  153.6888 H   0  0  0  0  0  0  0  0  0  0  0  0
  152.8062  137.6199  154.4315 H   0  0  0  0  0  0  0  0  0  0  0  0
  152.8500  138.9427  155.5839 H   0  0  0  0  0  0  0  0  0  0  0  0
  152.8141  136.3643  156.4629 H   0  0  0  0  0  0  0  0  0  0  0  0
  151.8850  137.6105  157.3075 H   0  0  0  0  0  0  0  0  0  0  0  0
  150.8397  135.7472  155.1219 H   0  0  0  0  0  0  0  0  0  0  0  0
  150.1751  135.9643  156.7497 H   0  0  0  0  0  0  0  0  0  0  0  0
  150.5841  145.2807  157.5728 H   0  0  0  0  0  0  0  0  0  0  0  0
  1  2  1  0  0  0  0
  1 17  1  0  0  0  0
  1 18  1  0  0  0  0
  1 19  1  0  0  0  0
  2 16  1  0  0  0  0
  2  3  2  0  0  0  0
  3  4  1  0  0  0  0
  4  5  1  0  0  0  0
  4 15  2  0  0  0  0
  5  6  1  0  0  0  0
  5 20  1  0  0  0  0
  5 21  1  0  0  0  0
  6  7  1  0  0  0  0
  6 22  1  0  0  0  0
  6 23  1  0  0  0  0
  7  8  1  0  0  0  0
  7 24  1  0  0  0  0
  8  9  2  0  0  0  0
  8 10  1  0  0  0  0
 10 14  1  0  0  0  0
 10 11  1  0  0  0  0
 10 25  1  0  0  0  0
 11 12  1  0  0  0  0
 11 26  1  0  0  0  0
 11 27  1  0  0  0  0
 12 13  1  0  0  0  0
 12 28  1  0  0  0  0
 12 29  1  0  0  0  0
 13 14  1  0  0  0  0
 13 30  1  0  0  0  0
 13 31  1  0  0  0  0
 15 16  1  0  0  0  0
 15 32  1  0  0  0  0
M  END
> <s_m_source_file>
AV-unprocessed.smi

> <i_m_source_file_index>
3264

> <i_lp_mmshare_version>
43012

> <i_f3d_flags>
0

> <s_epik_input>
W0NIM11jMW5jKFtjSF1zMSlbQ0gyXVtDSDJdW05IXUMoPU8pW0NAQEhdMltDSDJdW0NIMl1bQ0gyXU8y

> <s_epik_cmdline>
J2VwaWtfcHl0aG9uJywgJy1waCcsICc3LjAnLCAnLXRuJywgJzgnLCAnLW1hJywgJzIwMCcsICctbWV0YWxfYmluZGluZycsICctaW1hZScsICc8aW5maWxlLm1hZT4nLCAnLW9tYWUnLCAnPG91dGZpbGUubWFlPic=

> <r_epik_Ionization_Penalty>
0.00112246

> <r_epik_Ionization_Penalty_Charging>
0

> <r_epik_Ionization_Penalty_Neutral>
0.00112246

> <r_epik_State_Penalty>
0.000737392

> <r_epik_Charging_Adjusted_Penalty>
0.000737392

> <i_epik_Tot_Q>
0

> <i_epik_Tot_abs_Q>
0

> <r_epik_Metal_State_Penalty>
-0

> <b_epik_Metal_Only>
0

> <s_lp_Force_Field>
OPLS_2005

> <r_lp_Energy>
13.6214

> <b_lp_Chiralities_Consistent>
1

> <s_lp_Variant>
AV-unprocessed.smi:3264-2

> <Gold.Version>
5.8.1

> <Gold.Id.Protein>
6NUR|6NUR_protein|mol2

> <Gold.PLP.Fitness>
35.1322

> <Gold.PLP.PLP>
-32.7387

> <Gold.PLP.part.hbond>
-1.0000

> <Gold.PLP.part.metal>
0.0000

> <Gold.PLP.part.buried>
-5.2489

> <Gold.PLP.part.nonpolar>
-27.3610

> <Gold.PLP.part.repulsive>
0.6200

> <Gold.PLP.ligand.clash>
0.0000

> <Gold.PLP.ligand.torsion>
0.8309

> <Gold.PLP.Chemscore.Hbond>
0.5760

> <Gold.PLP.Chemscore.CHOScore>
0.7722

> <Gold.PLP.Chemscore.Metal>
0.0000

> <Gold.Chemscore.Hbonds>
donor molecule, donor type, donor heavy atom, donor atom, acceptor molecule, acceptor atom, score
      P1  H  7989  7998       L1     9  0.56
      L1  C    15    32       P1  8028  0.62
      L1  C    15    32       P1  8029  0.11

> <Gold.PLP.Chemscore.Internal.Correction>
0.0106

> <Gold.Rescore>
     Score         DG    S(hbond)    S(metal)    S(lipo)     H(rot)  DE(clash)    DE(int)     intcor
     13.96     -14.99       0.73        0.00      93.71       1.52       0.24       0.79       ----

> <Gold.Chemscore.Fitness>
13.9586

> <Gold.Chemscore.DG>
-14.9946

> <Gold.Chemscore.ZeroCoef>
-5.4800

> <Gold.Chemscore.Hbond>
0.7279

> <Gold.Chemscore.Metal>
0.0000

> <Gold.Chemscore.Lipo>
93.7093

> <Gold.Chemscore.Internal_Hbond>
0.0000

> <Gold.Chemscore.DEClash>
0.2433

> <Gold.Chemscore.DEInternal>
0.7928

> <Gold.Chemscore.Rot>
1.5159

> <Gold.Chemscore.Internal.Correction>
   9.000000E+99

> <Gold.Chemscore.Hbonds>
donor molecule, donor type, donor heavy atom, donor atom, acceptor molecule, acceptor atom, score
      P1  H  7989  7998       L1     9  0.08

> <Gold.Chemscore.Hbond.Weighted>
-2.4313

> <Gold.Chemscore.Metal.Weighted>
-0.0000

> <Gold.Chemscore.Lipo.Weighted>
-10.9640

> <Gold.Chemscore.Internal_Hbond.Weighted>
0.0000

> <Gold.Chemscore.DEClash.Weighted>
0.2433

> <Gold.Chemscore.DEInternal.Weighted>
0.7928

> <Gold.Chemscore.Rot.Weighted>
3.8807

> <Gold.Chemscore.Internal.Correction.Weighted>
   9.000000E+99

> <Gold.Protein.RotatedTorsions>
[ 6907 6896 6895 6894 ] final   35.51 input  -60.11 | X-H torsion
[ 7974 7965 7964 7962 ] final -139.58 input  175.53 | X-H torsion
[ 8008 7997 7996 7995 ] final  -20.61 input   59.86 | X-H torsion
[ 10167 10162 10161 10158 ] final  -82.77 input  -65.29 | X-H torsion
[ 10718 10713 10712 10709 ] final -140.58 input   66.30 | X-H torsion
[ 10763 10752 10751 10750 ] final  167.42 input  -60.55 | X-H torsion
[ 11005 11000 10999 10996 ] final  -74.38 input  -57.11 | X-H torsion

> <Gold.Protein.ActiveResidues>
 VAL166  LYS551  ARG553  GLY616  TRP617  ASP618  TYR619  PRO620  LYS621  CYS622 
 ASP623  PHE694  ASN695  SER759  ASP760  ASP761  ALA762  ILE779  LEU786  VAL792 
 PHE793  MET794  SER795  GLU796  ALA797  LYS798  CYS799  TRP800  GLU811  SER814 

> <Gold.Protein.RotatedAtoms>
  152.1171  134.9232  160.0564 H   0  0  0  0  0  0  0  0  0  0  0  0  # atno 6907 bound_to 6896
  152.0387  133.3963  159.4336 H   0  0  0  0  0  0  0  0  0  0  0  0  # atno 6908 bound_to 6896
  150.6847  134.3360  159.4891 H   0  0  0  0  0  0  0  0  0  0  0  0  # atno 6909 bound_to 6896
  144.8666  140.6302  143.5294 H   0  0  0  0  0  0  0  0  0  0  0  0  # atno 7974 bound_to 7965
  154.4759  140.2057  155.9880 H   0  0  0  0  0  0  0  0  0  0  0  0  # atno 8008 bound_to 7997
  156.1087  140.3232  155.8013 H   0  0  0  0  0  0  0  0  0  0  0  0  # atno 8009 bound_to 7997
  155.4672  140.0528  157.2975 H   0  0  0  0  0  0  0  0  0  0  0  0  # atno 8010 bound_to 7997
  140.4289  143.2556  151.8787 H   0  0  0  0  0  0  0  0  0  0  0  0  # atno 10167 bound_to 10162
  156.3240  130.7550  151.1653 H   0  0  0  0  0  0  0  0  0  0  0  0  # atno 10718 bound_to 10713
  154.3536  135.2753  155.2358 H   0  0  0  0  0  0  0  0  0  0  0  0  # atno 10763 bound_to 10752
  154.4577  135.5915  153.6238 H   0  0  0  0  0  0  0  0  0  0  0  0  # atno 10764 bound_to 10752
  152.9848  135.6057  154.3749 H   0  0  0  0  0  0  0  0  0  0  0  0  # atno 10765 bound_to 10752
  141.1634  133.6909  156.7355 H   0  0  0  0  0  0  0  0  0  0  0  0  # atno 11005 bound_to 11000
  145.4211  139.1564  143.4074 LP  0  0  0  0  0  0  0  0  0  0  0  0  # atno 17320 bound_to 7965
  146.2900  140.4321  142.8743 LP  0  0  0  0  0  0  0  0  0  0  0  0  # atno 17321 bound_to 7965
  139.4784  144.5356  151.8603 LP  0  0  0  0  0  0  0  0  0  0  0  0  # atno 17342 bound_to 10162
  140.4450  144.1934  150.5893 LP  0  0  0  0  0  0  0  0  0  0  0  0  # atno 17343 bound_to 10162
  157.7417  131.0500  150.5075 LP  0  0  0  0  0  0  0  0  0  0  0  0  # atno 17370 bound_to 10713
  156.5231  130.4167  149.6240 LP  0  0  0  0  0  0  0  0  0  0  0  0  # atno 17371 bound_to 10713
  140.2713  134.8390  157.3849 LP  0  0  0  0  0  0  0  0  0  0  0  0  # atno 17394 bound_to 11000
  140.1519  134.4839  155.7955 LP  0  0  0  0  0  0  0  0  0  0  0  0  # atno 17395 bound_to 11000

$$$$
