AV-unprocessed.smi:1834|AV-procd|sdf|7470|dock2
  -GOLD-   22720 9163D 1   1.00000     0.00000
 Structure written by MMmdl.
 46 47  0  0  0  0  0  0  0  0  2 V2000
  148.2296  132.9786  152.7400 C   0  0  0  0  0  0  0  0  0  0  0  0
  146.8382  132.4719  152.3332 C   0  0  0  0  0  0  0  0  0  0  0  0
  145.8455  133.5673  152.1887 N   0  3  2  0  0  0  0  0  0  0  0  0
  144.4703  133.0441  151.9776 C   0  0  0  0  0  0  0  0  0  0  0  0
  143.4336  134.1786  151.9440 C   0  0  0  0  0  0  0  0  0  0  0  0
  143.8009  135.2353  150.8915 C   0  0  0  0  0  0  0  0  0  0  0  0
  145.2374  135.7513  151.0971 C   0  0  1  0  0  0  0  0  0  0  0  0
  145.3413  136.7054  152.3115 C   0  0  0  0  0  0  0  0  0  0  0  0
  146.7113  137.1421  152.5656 N   0  0  0  0  0  0  0  0  0  0  0  0
  147.0584  138.2097  153.2991 C   0  0  0  0  0  0  0  0  0  0  0  0
  146.2388  138.9585  153.8310 O   0  0  0  0  0  0  0  0  0  0  0  0
  148.3943  138.3302  153.3816 N   0  0  0  0  0  0  0  0  0  0  0  0
  149.1229  139.2271  154.0980 C   0  0  0  0  0  0  0  0  0  0  0  0
  148.7344  140.4344  154.6118 C   0  0  0  0  0  0  0  0  0  0  0  0
  149.9209  140.9007  155.2494 C   0  0  0  0  0  0  0  0  0  0  0  0
  150.1251  142.1851  155.9974 C   0  0  0  0  0  0  0  0  0  0  0  0
  150.9342  140.0506  155.1300 N   0  0  0  0  0  0  0  0  0  0  0  0
  150.4454  139.0116  154.4196 N   0  0  0  0  0  0  0  0  0  0  0  0
  151.3095  137.8905  154.1042 C   0  0  0  0  0  0  0  0  0  0  0  0
  146.2166  134.5540  151.1384 C   0  0  0  0  0  0  0  0  0  0  0  0
  148.9147  132.1419  152.8767 H   0  0  0  0  0  0  0  0  0  0  0  0
  148.1893  133.5241  153.6828 H   0  0  0  0  0  0  0  0  0  0  0  0
  148.6684  133.6350  151.9890 H   0  0  0  0  0  0  0  0  0  0  0  0
  146.8941  131.8950  151.4089 H   0  0  0  0  0  0  0  0  0  0  0  0
  146.5020  131.7802  153.1068 H   0  0  0  0  0  0  0  0  0  0  0  0
  144.4366  132.4787  151.0449 H   0  0  0  0  0  0  0  0  0  0  0  0
  144.2112  132.3497  152.7778 H   0  0  0  0  0  0  0  0  0  0  0  0
  142.4464  133.7697  151.7267 H   0  0  0  0  0  0  0  0  0  0  0  0
  143.3598  134.6391  152.9295 H   0  0  0  0  0  0  0  0  0  0  0  0
  143.7168  134.7924  149.8981 H   0  0  0  0  0  0  0  0  0  0  0  0
  143.0880  136.0603  150.9174 H   0  0  0  0  0  0  0  0  0  0  0  0
  145.4929  136.3440  150.2174 H   0  0  0  0  0  0  0  0  0  0  0  0
  144.7483  137.6004  152.1206 H   0  0  0  0  0  0  0  0  0  0  0  0
  144.9111  136.2503  153.2044 H   0  0  0  0  0  0  0  0  0  0  0  0
  147.4485  136.5842  152.1586 H   0  0  0  0  0  0  0  0  0  0  0  0
  148.9357  137.6420  152.8794 H   0  0  0  0  0  0  0  0  0  0  0  0
  147.7731  140.9221  154.5528 H   0  0  0  0  0  0  0  0  0  0  0  0
  149.1882  142.7316  156.1062 H   0  0  0  0  0  0  0  0  0  0  0  0
  150.8292  142.8343  155.4764 H   0  0  0  0  0  0  0  0  0  0  0  0
  150.5185  142.0002  156.9973 H   0  0  0  0  0  0  0  0  0  0  0  0
  150.7179  136.9893  153.9427 H   0  0  0  0  0  0  0  0  0  0  0  0
  152.0026  137.7085  154.9263 H   0  0  0  0  0  0  0  0  0  0  0  0
  151.8779  138.1111  153.2005 H   0  0  0  0  0  0  0  0  0  0  0  0
  147.2364  134.9069  151.2808 H   0  0  0  0  0  0  0  0  0  0  0  0
  146.2122  134.0507  150.1701 H   0  0  0  0  0  0  0  0  0  0  0  0
  145.8320  134.0615  153.0700 H   0  0  0  0  0  0  0  0  0  0  0  0
  1  2  1  0  0  0  0
  1 21  1  0  0  0  0
  1 22  1  0  0  0  0
  1 23  1  0  0  0  0
  2  3  1  0  0  0  0
  2 24  1  0  0  0  0
  2 25  1  0  0  0  0
  3 20  1  0  0  0  0
  3  4  1  0  0  0  0
  3 46  1  0  0  0  0
  4  5  1  0  0  0  0
  4 26  1  0  0  0  0
  4 27  1  0  0  0  0
  5  6  1  0  0  0  0
  5 28  1  0  0  0  0
  5 29  1  0  0  0  0
  6  7  1  0  0  0  0
  6 30  1  0  0  0  0
  6 31  1  0  0  0  0
  7  8  1  0  0  0  0
  7 20  1  0  0  0  0
  7 32  1  0  0  0  0
  8  9  1  0  0  0  0
  8 33  1  0  0  0  0
  8 34  1  0  0  0  0
  9 10  1  0  0  0  0
  9 35  1  0  0  0  0
 10 11  2  0  0  0  0
 10 12  1  0  0  0  0
 12 13  1  0  0  0  0
 12 36  1  0  0  0  0
 13 18  1  0  0  0  0
 13 14  2  0  0  0  0
 14 15  1  0  0  0  0
 14 37  1  0  0  0  0
 15 16  1  0  0  0  0
 15 17  2  0  0  0  0
 16 38  1  0  0  0  0
 16 39  1  0  0  0  0
 16 40  1  0  0  0  0
 17 18  1  0  0  0  0
 18 19  1  0  0  0  0
 19 41  1  0  0  0  0
 19 42  1  0  0  0  0
 19 43  1  0  0  0  0
 20 44  1  0  0  0  0
 20 45  1  0  0  0  0
M  CHG  1   3   1
M  END
> <s_m_source_file>
AV-unprocessed.smi

> <i_m_source_file_index>
1834

> <i_lp_mmshare_version>
43012

> <i_f3d_flags>
0

> <s_epik_input>
W0NIM11bQ0gyXU4xW0NIMl1bQ0gyXVtDSDJdW0NASF0oW0NIMl0xKVtDSDJdW05IXUMoPU8pW05IXWMyW2NIXWMoW0NIM10pbm4yW0NIM10=

> <s_epik_cmdline>
J2VwaWtfcHl0aG9uJywgJy1waCcsICc3LjAnLCAnLXRuJywgJzgnLCAnLW1hJywgJzIwMCcsICctbWV0YWxfYmluZGluZycsICctaW1hZScsICc8aW5maWxlLm1hZT4nLCAnLW9tYWUnLCAnPG91dGZpbGUubWFlPic=

> <r_lp_tautomer_probability>
1

> <r_epik_Ionization_Penalty>
0.000466842

> <r_epik_Ionization_Penalty_Charging>
0.000378984

> <r_epik_Ionization_Penalty_Neutral>
8.78572e-05

> <r_epik_State_Penalty>
0.000231434

> <r_epik_Charging_Adjusted_Penalty>
0.000610418

> <i_epik_Tot_Q>
1

> <i_epik_Tot_abs_Q>
1

> <r_epik_Metal_State_Penalty>
-0

> <b_epik_Metal_Only>
0

> <s_lp_Force_Field>
OPLS_2005

> <r_lp_Energy>
21.1664

> <b_lp_Chiralities_Consistent>
1

> <s_lp_Variant>
AV-unprocessed.smi:1834-2

> <Gold.Version>
5.8.1

> <Gold.Id.Protein>
6NUR|6NUR_protein|mol2

> <Gold.PLP.Fitness>
40.9707

> <Gold.PLP.PLP>
-34.1163

> <Gold.PLP.part.hbond>
-3.9205

> <Gold.PLP.part.metal>
0.0000

> <Gold.PLP.part.buried>
0.6030

> <Gold.PLP.part.nonpolar>
-32.5447

> <Gold.PLP.part.repulsive>
0.3056

> <Gold.PLP.ligand.clash>
0.0000

> <Gold.PLP.ligand.torsion>
0.2520

> <Gold.PLP.Chemscore.Hbond>
2.4420

> <Gold.PLP.Chemscore.CHOScore>
0.0000

> <Gold.PLP.Chemscore.Metal>
0.0000

> <Gold.Chemscore.Hbonds>
donor molecule, donor type, donor heavy atom, donor atom, acceptor molecule, acceptor atom, score
      L1  H     9    35       P1  7948  1.00
      L1  H    12    36       P1  7948  0.99
      P1  H  7989  7998       L1    17  0.41

> <Gold.PLP.Chemscore.Internal.Correction>
0.0325

> <Gold.Rescore>
     Score         DG    S(hbond)    S(metal)    S(lipo)     H(rot)  DE(clash)    DE(int)     intcor
     15.62     -17.16       1.93        0.00      75.97       1.43       0.29       1.26       ----

> <Gold.Chemscore.Fitness>
15.6170

> <Gold.Chemscore.DG>
-17.1638

> <Gold.Chemscore.ZeroCoef>
-5.4800

> <Gold.Chemscore.Hbond>
1.9324

> <Gold.Chemscore.Metal>
0.0000

> <Gold.Chemscore.Lipo>
75.9660

> <Gold.Chemscore.Internal_Hbond>
0.0000

> <Gold.Chemscore.DEClash>
0.2890

> <Gold.Chemscore.DEInternal>
1.2578

> <Gold.Chemscore.Rot>
1.4291

> <Gold.Chemscore.Internal.Correction>
   9.000000E+99

> <Gold.Chemscore.Hbonds>
donor molecule, donor type, donor heavy atom, donor atom, acceptor molecule, acceptor atom, score
      L1  H     9    35       P1  7948  0.94
      L1  H    12    36       P1  7948  0.93

> <Gold.Chemscore.Hbond.Weighted>
-6.4542

> <Gold.Chemscore.Metal.Weighted>
-0.0000

> <Gold.Chemscore.Lipo.Weighted>
-8.8880

> <Gold.Chemscore.Internal_Hbond.Weighted>
0.0000

> <Gold.Chemscore.DEClash.Weighted>
0.2890

> <Gold.Chemscore.DEInternal.Weighted>
1.2578

> <Gold.Chemscore.Rot.Weighted>
3.6584

> <Gold.Chemscore.Internal.Correction.Weighted>
   9.000000E+99

> <Gold.Protein.RotatedTorsions>
[ 6907 6896 6895 6894 ] final   22.75 input  -60.11 | X-H torsion
[ 7974 7965 7964 7962 ] final   -5.01 input  175.53 | X-H torsion
[ 8008 7997 7996 7995 ] final   33.11 input   59.86 | X-H torsion
[ 10167 10162 10161 10158 ] final  151.15 input  -65.29 | X-H torsion
[ 10718 10713 10712 10709 ] final -168.83 input   66.30 | X-H torsion
[ 10763 10752 10751 10750 ] final  -56.11 input  -60.55 | X-H torsion
[ 11005 11000 10999 10996 ] final    5.55 input  -57.11 | X-H torsion

> <Gold.Protein.ActiveResidues>
 VAL166  LYS551  ARG553  GLY616  TRP617  ASP618  TYR619  PRO620  LYS621  CYS622 
 ASP623  PHE694  ASN695  SER759  ASP760  ASP761  ALA762  ILE779  LEU786  VAL792 
 PHE793  MET794  SER795  GLU796  ALA797  LYS798  CYS799  TRP800  GLU811  SER814 

> <Gold.Protein.RotatedAtoms>
  151.9319  135.0252  160.0529 H   0  0  0  0  0  0  0  0  0  0  0  0  # atno 6907 bound_to 6896
  152.2111  133.4907  159.5119 H   0  0  0  0  0  0  0  0  0  0  0  0  # atno 6908 bound_to 6896
  150.6976  134.1383  159.4138 H   0  0  0  0  0  0  0  0  0  0  0  0  # atno 6909 bound_to 6896
  146.2361  140.1956  142.8333 H   0  0  0  0  0  0  0  0  0  0  0  0  # atno 7974 bound_to 7965
  155.1334  140.3259  155.4469 H   0  0  0  0  0  0  0  0  0  0  0  0  # atno 8008 bound_to 7997
  156.2627  140.2006  156.6401 H   0  0  0  0  0  0  0  0  0  0  0  0  # atno 8009 bound_to 7997
  154.6596  140.0549  157.0033 H   0  0  0  0  0  0  0  0  0  0  0  0  # atno 8010 bound_to 7997
  139.4843  144.5464  151.7477 H   0  0  0  0  0  0  0  0  0  0  0  0  # atno 10167 bound_to 10162
  156.7026  130.9202  151.3081 H   0  0  0  0  0  0  0  0  0  0  0  0  # atno 10718 bound_to 10713
  154.2014  135.6410  153.5088 H   0  0  0  0  0  0  0  0  0  0  0  0  # atno 10763 bound_to 10752
  153.0011  135.5452  154.6311 H   0  0  0  0  0  0  0  0  0  0  0  0  # atno 10764 bound_to 10752
  154.5725  135.2918  155.0786 H   0  0  0  0  0  0  0  0  0  0  0  0  # atno 10765 bound_to 10752
  140.5694  134.0117  155.8002 H   0  0  0  0  0  0  0  0  0  0  0  0  # atno 11005 bound_to 11000
  144.9823  140.8470  143.5390 LP  0  0  0  0  0  0  0  0  0  0  0  0  # atno 17320 bound_to 7965
  145.1951  139.2281  143.5222 LP  0  0  0  0  0  0  0  0  0  0  0  0  # atno 17321 bound_to 7965
  140.5011  144.1167  150.5971 LP  0  0  0  0  0  0  0  0  0  0  0  0  # atno 17342 bound_to 10162
  140.4061  143.2680  151.9890 LP  0  0  0  0  0  0  0  0  0  0  0  0  # atno 17343 bound_to 10162
  157.6967  130.9289  150.0665 LP  0  0  0  0  0  0  0  0  0  0  0  0  # atno 17370 bound_to 10713
  156.1718  130.3646  149.9155 LP  0  0  0  0  0  0  0  0  0  0  0  0  # atno 17371 bound_to 10713
  141.1065  133.9685  157.2987 LP  0  0  0  0  0  0  0  0  0  0  0  0  # atno 17394 bound_to 11000
  139.9369  135.0195  156.8584 LP  0  0  0  0  0  0  0  0  0  0  0  0  # atno 17395 bound_to 11000

$$$$
