#       Name:                AV-unprocessed.smi:910
#       Creating user name   scv26
#       Creation time:       Fri Mar 27 02:04:02 2020


#       File generated by GOLD software.
#

@<TRIPOS>MOLECULE
AV-unprocessed.smi:910
    53    54     1
SMALL
NO_CHARGES


@<TRIPOS>ATOM
      1 ****        -4.2011   2.0940  -0.1813 C.3            1 S1                 0.0000
      2 ****        -3.5762   1.1335   0.7805 C.2            1 S1                 0.0000
      3 ****        -2.7542   0.0995   0.3606 N.2            1 S1                 0.0000
      4 ****        -2.3763  -0.5379   1.4705 C.2            1 S1                 0.0000
      5 ****        -1.5633  -1.6044   1.5334 N.pl3          1 S1                -1.0000
      6 ****        -0.2422  -1.4215   1.7537 C.2            1 S1                 0.0000
      7 ****         0.3121  -0.3510   2.0147 O.2            1 S1                 0.0000
      8 ****         0.4847  -2.5428   1.6396 N.am           1 S1                 0.0000
      9 ****         1.9417  -2.6238   1.6773 C.3            1 S1                 0.0000
     10 ****         2.5424  -2.3694   0.2861 C.3            1 S1                 0.0000
     11 ****         2.3514  -1.0058  -0.0585 O.3            1 S1                 0.0000
     12 ****         2.6277  -0.6784  -1.4142 C.3            1 S1                 0.0000
     13 ****         3.5193   0.5771  -1.4076 C.3            1 S1                 0.0000
     14 ****         2.7772   1.8039  -0.8492 C.3            1 S1                 0.0000
     15 ****         1.4705   2.0621  -1.6140 C.3            1 S1                 0.0000
     16 ****         0.5710   0.8162  -1.6197 C.3            1 S1                 0.0000
     17 ****         1.3102  -0.4136  -2.1849 C.3            1 S1                 0.0000
     18 ****         0.3917  -1.6431  -2.2493 C.3            1 S1                 0.0000
     19 ****        -2.9201   0.0160   2.5912 O.3            1 S1                 0.0000
     20 ****        -3.6710   1.0690   2.1447 C.2            1 S1                 0.0000
     21 ****        -4.3961   1.8892   3.1565 C.3            1 S1                 0.0000
     22 ****        -5.1355   1.6975  -0.5785 H              1 S1                 0.0000
     23 ****        -3.5402   2.2959  -1.0246 H              1 S1                 0.0000
     24 ****        -4.4226   3.0473   0.2987 H              1 S1                 0.0000
     25 ****        -0.0134  -3.3964   1.4348 H              1 S1                 0.0000
     26 ****         2.3576  -1.9337   2.4129 H              1 S1                 0.0000
     27 ****         2.2077  -3.6272   2.0094 H              1 S1                 0.0000
     28 ****         3.6106  -2.5888   0.2902 H              1 S1                 0.0000
     29 ****         2.0782  -3.0320  -0.4454 H              1 S1                 0.0000
     30 ****         3.1817  -1.4840  -1.9004 H              1 S1                 0.0000
     31 ****         4.4202   0.3905  -0.8224 H              1 S1                 0.0000
     32 ****         3.8522   0.7894  -2.4242 H              1 S1                 0.0000
     33 ****         2.5556   1.6494   0.2077 H              1 S1                 0.0000
     34 ****         3.4197   2.6828  -0.9034 H              1 S1                 0.0000
     35 ****         0.9375   2.9014  -1.1664 H              1 S1                 0.0000
     36 ****         1.6988   2.3522  -2.6402 H              1 S1                 0.0000
     37 ****         0.2271   0.6098  -0.6057 H              1 S1                 0.0000
     38 ****        -0.3246   1.0172  -2.2085 H              1 S1                 0.0000
     39 ****         1.5850  -0.1796  -3.2145 H              1 S1                 0.0000
     40 ****         0.0219  -1.9179  -1.2616 H              1 S1                 0.0000
     41 ****         0.9142  -2.5047  -2.6652 H              1 S1                 0.0000
     42 ****        -0.4765  -1.4485  -2.8792 H              1 S1                 0.0000
     43 ****        -3.9449   2.8773   3.2449 H              1 S1                 0.0000
     44 ****        -4.3685   1.4155   4.1380 H              1 S1                 0.0000
     45 ****        -5.4405   2.0172   2.8724 H              1 S1                 0.0000
     46 ****        -2.4974  -0.1229  -0.5799 LP             1 S1                 0.0000
     47 ****        -1.9321  -2.5267   1.4182 LP             1 S1                 0.0000
     48 ****        -0.2273   0.4885   2.0798 LP             1 S1                 0.0000
     49 ****         1.3009  -0.3226   2.1612 LP             1 S1                 0.0000
     50 ****         2.9506  -0.4536   0.5212 LP             1 S1                 0.0000
     51 ****         1.3976  -0.7704   0.1282 LP             1 S1                 0.0000
     52 ****        -2.2011   0.3352   3.2086 LP             1 S1                 0.0000
     53 ****        -3.4965  -0.6488   3.0664 LP             1 S1                 0.0000
@<TRIPOS>BOND
    1    1   22 1     
    2    1   23 1     
    3    1   24 1     
    4    1    2 1     
    5    2    3 1     
    6    2   20 2     
    7    3    4 2     
    8    4   19 1     
    9    4    5 1     
   10    5    6 1     
   11    6    8 am    
   12    6    7 2     
   13    8    9 1     
   14    8   25 1     
   15    9   10 1     
   16    9   26 1     
   17    9   27 1     
   18   10   11 1     
   19   10   28 1     
   20   10   29 1     
   21   11   12 1     
   22   12   17 1     
   23   12   13 1     
   24   12   30 1     
   25   13   14 1     
   26   13   31 1     
   27   13   32 1     
   28   14   15 1     
   29   14   33 1     
   30   14   34 1     
   31   15   16 1     
   32   15   35 1     
   33   15   36 1     
   34   16   17 1     
   35   16   37 1     
   36   16   38 1     
   37   17   18 1     
   38   17   39 1     
   39   18   40 1     
   40   18   41 1     
   41   18   42 1     
   42   19   20 1     
   43   20   21 1     
   44   21   43 1     
   45   21   44 1     
   46   21   45 1     
   47    3   46 1     
   48    5   47 1     
   49    7   48 1     
   50    7   49 1     
   51   11   50 1     
   52   11   51 1     
   53   19   52 1     
   54   19   53 1     
@<TRIPOS>SUBSTRUCTURE
      1 S1             1
@<TRIPOS>SET
LONE_PAIRS      STATIC     ATOMS    <user>   **** ""
8 46 47 48 49 50 51 52 53
DONOR_HYDROGENS      STATIC     ATOMS    <user>   **** ""
1 25
ATOM$BLUE        STATIC     ATOMS    COLORGROUP SYSTEM
8 46 47 48 49 50 51 52 53
ATOM$RED        STATIC     ATOMS    COLORGROUP SYSTEM
1 25
