AV-unprocessed.smi:2724|AV-procd|sdf|10513|dock5
  -GOLD-   2272014553D 1   1.00000     0.00000
 Structure written by MMmdl.
 26 27  0  0  0  0  0  0  0  0  2 V2000
  150.2500  138.8590  157.3153 O   0  0  0  0  0  0  0  0  0  0  0  0
  151.2374  139.8563  157.1331 C   0  0  2  0  0  0  0  0  0  0  0  0
  151.3073  140.7580  158.3756 C   0  0  0  0  0  0  0  0  0  0  0  0
  151.6229  142.1533  157.8397 C   0  0  0  0  0  0  0  0  0  0  0  0
  150.8513  142.2153  156.5237 C   0  0  0  0  0  0  0  0  0  0  0  0
  150.9956  140.8041  155.9294 C   0  0  2  0  0  0  0  0  0  0  0  0
  149.8781  140.4062  154.9668 C   0  0  0  0  0  0  0  0  0  0  0  0
  148.8378  141.3164  154.6709 C   0  0  0  0  0  0  0  0  0  0  0  0
  147.8129  140.9373  153.7792 C   0  0  0  0  0  0  0  0  0  0  0  0
  147.8476  139.6535  153.1991 C   0  0  0  0  0  0  0  0  0  0  0  0
  148.8565  138.8080  153.5009 N   0  3  0  0  0  0  0  0  0  0  0  0
  149.8554  139.1333  154.3503 C   0  0  0  0  0  0  0  0  0  0  0  0
  149.6599  139.1403  157.9977 H   0  0  0  0  0  0  0  0  0  0  0  0
  152.1936  139.3491  156.9966 H   0  0  0  0  0  0  0  0  0  0  0  0
  150.3392  140.7877  158.8789 H   0  0  0  0  0  0  0  0  0  0  0  0
  152.0430  140.4120  159.1023 H   0  0  0  0  0  0  0  0  0  0  0  0
  151.3358  142.9440  158.5333 H   0  0  0  0  0  0  0  0  0  0  0  0
  152.6930  142.2459  157.6489 H   0  0  0  0  0  0  0  0  0  0  0  0
  149.8096  142.4409  156.7522 H   0  0  0  0  0  0  0  0  0  0  0  0
  151.2143  142.9943  155.8524 H   0  0  0  0  0  0  0  0  0  0  0  0
  151.9239  140.8130  155.3554 H   0  0  0  0  0  0  0  0  0  0  0  0
  148.8215  142.2986  155.1205 H   0  0  0  0  0  0  0  0  0  0  0  0
  147.0117  141.6227  153.5438 H   0  0  0  0  0  0  0  0  0  0  0  0
  147.1063  139.2809  152.5071 H   0  0  0  0  0  0  0  0  0  0  0  0
  150.6065  138.3718  154.5019 H   0  0  0  0  0  0  0  0  0  0  0  0
  148.8658  137.8839  153.0681 H   0  0  0  0  0  0  0  0  0  0  0  0
  1  2  1  0  0  0  0
  1 13  1  0  0  0  0
  2  6  1  0  0  0  0
  2  3  1  0  0  0  0
  2 14  1  0  0  0  0
  3  4  1  0  0  0  0
  3 15  1  0  0  0  0
  3 16  1  0  0  0  0
  4  5  1  0  0  0  0
  4 17  1  0  0  0  0
  4 18  1  0  0  0  0
  5  6  1  0  0  0  0
  5 19  1  0  0  0  0
  5 20  1  0  0  0  0
  6  7  1  0  0  0  0
  6 21  1  0  0  0  0
  7 12  1  0  0  0  0
  7  8  2  0  0  0  0
  8  9  1  0  0  0  0
  8 22  1  0  0  0  0
  9 10  2  0  0  0  0
  9 23  1  0  0  0  0
 10 11  1  0  0  0  0
 10 24  1  0  0  0  0
 11 12  2  0  0  0  0
 11 26  1  0  0  0  0
 12 25  1  0  0  0  0
M  CHG  1  11   1
M  END
> <s_m_source_file>
AV-unprocessed.smi

> <i_m_source_file_index>
2724

> <i_lp_mmshare_version>
43012

> <i_f3d_flags>
0

> <s_epik_input>
W09IXVtDQEBIXTFbQ0gyXVtDSDJdW0NIMl1bQ0BIXTFjMltjSF1bY0hdW2NIXW5bY0hdMg==

> <s_epik_cmdline>
J2VwaWtfcHl0aG9uJywgJy1waCcsICc3LjAnLCAnLXRuJywgJzgnLCAnLW1hJywgJzIwMCcsICctbWV0YWxfYmluZGluZycsICctaW1hZScsICc8aW5maWxlLm1hZT4nLCAnLW9tYWUnLCAnPG91dGZpbGUubWFlPic=

> <r_epik_Ionization_Penalty>
2.09455

> <r_epik_Ionization_Penalty_Charging>
2.09455

> <r_epik_Ionization_Penalty_Neutral>
5.26757e-08

> <r_epik_State_Penalty>
2.23025

> <r_epik_Charging_Adjusted_Penalty>
4.3248

> <i_epik_Tot_Q>
1

> <i_epik_Tot_abs_Q>
1

> <r_epik_Metal_State_Penalty>
6.30911

> <b_epik_Metal_Only>
0

> <s_lp_Force_Field>
OPLS_2005

> <r_lp_Energy>
31.8011

> <b_lp_Chiralities_Consistent>
1

> <s_lp_Variant>
AV-unprocessed.smi:2724-7

> <Gold.Version>
5.8.1

> <Gold.Id.Protein>
6NUR|6NUR_protein|mol2

> <Gold.PLP.Fitness>
30.2429

> <Gold.PLP.PLP>
-24.2791

> <Gold.PLP.part.hbond>
-2.0000

> <Gold.PLP.part.metal>
0.0000

> <Gold.PLP.part.buried>
0.2291

> <Gold.PLP.part.nonpolar>
-23.1666

> <Gold.PLP.part.repulsive>
0.0647

> <Gold.PLP.ligand.clash>
0.0000

> <Gold.PLP.ligand.torsion>
0.0273

> <Gold.PLP.Chemscore.Hbond>
2.0000

> <Gold.PLP.Chemscore.CHOScore>
0.0000

> <Gold.PLP.Chemscore.Metal>
0.0000

> <Gold.Chemscore.Hbonds>
donor molecule, donor type, donor heavy atom, donor atom, acceptor molecule, acceptor atom, score
      L1  H    11    26       P1  7948  2.00

> <Gold.PLP.Chemscore.Internal.Correction>
0.0185

> <Gold.Rescore>
     Score         DG    S(hbond)    S(metal)    S(lipo)     H(rot)  DE(clash)    DE(int)     intcor
     13.15     -13.32       1.00        0.00      68.01       1.35       0.14       0.03       ----

> <Gold.Chemscore.Fitness>
13.1452

> <Gold.Chemscore.DG>
-13.3160

> <Gold.Chemscore.ZeroCoef>
-5.4800

> <Gold.Chemscore.Hbond>
0.9980

> <Gold.Chemscore.Metal>
0.0000

> <Gold.Chemscore.Lipo>
68.0146

> <Gold.Chemscore.Internal_Hbond>
0.0000

> <Gold.Chemscore.DEClash>
0.1374

> <Gold.Chemscore.DEInternal>
0.0334

> <Gold.Chemscore.Rot>
1.3496

> <Gold.Chemscore.Internal.Correction>
   9.000000E+99

> <Gold.Chemscore.Hbonds>
donor molecule, donor type, donor heavy atom, donor atom, acceptor molecule, acceptor atom, score
      L1  H    11    26       P1  7948  0.93

> <Gold.Chemscore.Hbond.Weighted>
-3.3333

> <Gold.Chemscore.Metal.Weighted>
-0.0000

> <Gold.Chemscore.Lipo.Weighted>
-7.9577

> <Gold.Chemscore.Internal_Hbond.Weighted>
0.0000

> <Gold.Chemscore.DEClash.Weighted>
0.1374

> <Gold.Chemscore.DEInternal.Weighted>
0.0334

> <Gold.Chemscore.Rot.Weighted>
3.4550

> <Gold.Chemscore.Internal.Correction.Weighted>
   9.000000E+99

> <Gold.Protein.RotatedTorsions>
[ 6907 6896 6895 6894 ] final -175.37 input  -60.11 | X-H torsion
[ 7974 7965 7964 7962 ] final  154.09 input  175.53 | X-H torsion
[ 8008 7997 7996 7995 ] final -162.31 input   59.86 | X-H torsion
[ 10167 10162 10161 10158 ] final -139.64 input  -65.29 | X-H torsion
[ 10718 10713 10712 10709 ] final  -74.85 input   66.30 | X-H torsion
[ 10763 10752 10751 10750 ] final   11.61 input  -60.55 | X-H torsion
[ 11005 11000 10999 10996 ] final  124.46 input  -57.11 | X-H torsion

> <Gold.Protein.ActiveResidues>
 VAL166  LYS551  ARG553  GLY616  TRP617  ASP618  TYR619  PRO620  LYS621  CYS622 
 ASP623  PHE694  ASN695  SER759  ASP760  ASP761  ALA762  ILE779  LEU786  VAL792 
 PHE793  MET794  SER795  GLU796  ALA797  LYS798  CYS799  TRP800  GLU811  SER814 

> <Gold.Protein.RotatedAtoms>
  151.5875  133.3370  159.3020 H   0  0  0  0  0  0  0  0  0  0  0  0  # atno 6907 bound_to 6896
  150.8278  134.7521  159.6839 H   0  0  0  0  0  0  0  0  0  0  0  0  # atno 6908 bound_to 6896
  152.4366  134.5681  159.9965 H   0  0  0  0  0  0  0  0  0  0  0  0  # atno 6909 bound_to 6896
  144.8111  139.6887  143.6141 H   0  0  0  0  0  0  0  0  0  0  0  0  # atno 7974 bound_to 7965
  155.8049  140.0897  157.1936 H   0  0  0  0  0  0  0  0  0  0  0  0  # atno 8008 bound_to 7997
  154.3981  140.1465  156.3378 H   0  0  0  0  0  0  0  0  0  0  0  0  # atno 8009 bound_to 7997
  155.8424  140.3438  155.5643 H   0  0  0  0  0  0  0  0  0  0  0  0  # atno 8010 bound_to 7997
  139.8359  143.7385  152.2665 H   0  0  0  0  0  0  0  0  0  0  0  0  # atno 10167 bound_to 10162
  156.0228  130.4427  150.2954 H   0  0  0  0  0  0  0  0  0  0  0  0  # atno 10718 bound_to 10713
  153.1908  135.6842  153.8355 H   0  0  0  0  0  0  0  0  0  0  0  0  # atno 10763 bound_to 10752
  153.7655  135.3203  155.3345 H   0  0  0  0  0  0  0  0  0  0  0  0  # atno 10764 bound_to 10752
  154.8116  135.4713  154.0630 H   0  0  0  0  0  0  0  0  0  0  0  0  # atno 10765 bound_to 10752
  139.9360  134.9639  156.8413 H   0  0  0  0  0  0  0  0  0  0  0  0  # atno 11005 bound_to 11000
  146.2410  139.6001  142.9491 LP  0  0  0  0  0  0  0  0  0  0  0  0  # atno 17320 bound_to 7965
  145.5321  141.0426  143.2377 LP  0  0  0  0  0  0  0  0  0  0  0  0  # atno 17321 bound_to 7965
  139.7607  144.7507  151.0368 LP  0  0  0  0  0  0  0  0  0  0  0  0  # atno 17342 bound_to 10162
  140.7802  143.4754  151.0089 LP  0  0  0  0  0  0  0  0  0  0  0  0  # atno 17343 bound_to 10162
  157.1058  131.0208  151.3068 LP  0  0  0  0  0  0  0  0  0  0  0  0  # atno 17370 bound_to 10713
  157.4744  130.7728  149.7354 LP  0  0  0  0  0  0  0  0  0  0  0  0  # atno 17371 bound_to 10713
  140.6075  134.0114  155.7563 LP  0  0  0  0  0  0  0  0  0  0  0  0  # atno 17394 bound_to 11000
  141.0973  133.9823  157.3138 LP  0  0  0  0  0  0  0  0  0  0  0  0  # atno 17395 bound_to 11000

$$$$
