AV-unprocessed.smi:1830|AV-procd|sdf|7435|dock4
  -GOLD-   22720 9123D 1   1.00000     0.00000
 Structure written by MMmdl.
 53 56  0  0  0  0  0  0  0  0  2 V2000
  147.3780  137.8767  151.8245 O   0  0  0  0  0  0  0  0  0  0  0  0
  146.3192  138.4420  152.0983 C   0  0  0  0  0  0  0  0  0  0  0  0
  146.2467  139.7243  152.4811 N   0  0  0  0  0  0  0  0  0  0  0  0
  147.3906  140.6205  152.6123 C   0  0  0  0  0  0  0  0  0  0  0  0
  148.0818  140.4784  153.9803 C   0  0  1  0  0  0  0  0  0  0  0  0
  148.6239  139.0579  154.2029 C   0  0  0  0  0  0  0  0  0  0  0  0
  149.3204  138.9428  155.5091 N   0  3  1  0  0  0  0  0  0  0  0  0
  150.0916  137.6851  155.6243 C   0  0  0  0  0  0  0  0  0  0  0  0
  151.5521  138.0295  155.2787 C   0  0  0  0  0  0  0  0  0  0  0  0
  151.5813  139.5470  155.0645 C   0  0  0  0  0  0  0  0  0  0  0  0
  150.2980  140.0285  155.7414 C   0  0  1  0  0  0  0  0  0  0  0  0
  149.7832  141.4171  155.3096 C   0  0  0  0  0  0  0  0  0  0  0  0
  149.1892  141.3698  154.0201 O   0  0  0  0  0  0  0  0  0  0  0  0
  145.1004  137.8799  152.0415 N   0  0  0  0  0  0  0  0  0  0  0  0
  144.7575  136.5513  151.6598 C   0  0  0  0  0  0  0  0  0  0  0  0
  145.6300  135.7516  150.8814 C   0  0  0  0  0  0  0  0  0  0  0  0
  145.2358  134.4535  150.5156 C   0  0  0  0  0  0  0  0  0  0  0  0
  143.9791  133.9957  150.9441 C   0  0  0  0  0  0  0  0  0  0  0  0
  143.1456  134.7355  151.7019 N   0  0  0  0  0  0  0  0  0  0  0  0
  143.5185  135.9842  152.0768 C   0  0  0  0  0  0  0  0  0  0  0  0
  142.6126  136.7021  152.8910 N   0  0  0  0  0  0  0  0  0  0  0  0
  141.5184  135.9652  153.5164 C   0  0  0  0  0  0  0  0  0  0  0  0
  140.3025  136.8979  153.5023 C   0  0  0  0  0  0  0  0  0  0  0  0
  140.9155  138.2875  153.3606 C   0  0  0  0  0  0  0  0  0  0  0  0
  142.1336  138.0186  152.4818 C   0  0  0  0  0  0  0  0  0  0  0  0
  145.3369  140.1121  152.6846 H   0  0  0  0  0  0  0  0  0  0  0  0
  148.0992  140.4196  151.8069 H   0  0  0  0  0  0  0  0  0  0  0  0
  147.0449  141.6449  152.4702 H   0  0  0  0  0  0  0  0  0  0  0  0
  147.3733  140.7240  154.7736 H   0  0  0  0  0  0  0  0  0  0  0  0
  147.8095  138.3329  154.1713 H   0  0  0  0  0  0  0  0  0  0  0  0
  149.3086  138.7999  153.3931 H   0  0  0  0  0  0  0  0  0  0  0  0
  150.0320  137.3408  156.6575 H   0  0  0  0  0  0  0  0  0  0  0  0
  149.6899  136.8888  154.9957 H   0  0  0  0  0  0  0  0  0  0  0  0
  152.2099  137.7419  156.0998 H   0  0  0  0  0  0  0  0  0  0  0  0
  151.8913  137.5026  154.3865 H   0  0  0  0  0  0  0  0  0  0  0  0
  152.4758  140.0134  155.4786 H   0  0  0  0  0  0  0  0  0  0  0  0
  151.5529  139.7704  153.9971 H   0  0  0  0  0  0  0  0  0  0  0  0
  150.4906  140.0597  156.8153 H   0  0  0  0  0  0  0  0  0  0  0  0
  149.0505  141.7880  156.0282 H   0  0  0  0  0  0  0  0  0  0  0  0
  150.6009  142.1381  155.3017 H   0  0  0  0  0  0  0  0  0  0  0  0
  144.3180  138.4988  152.1952 H   0  0  0  0  0  0  0  0  0  0  0  0
  146.5980  136.1082  150.5646 H   0  0  0  0  0  0  0  0  0  0  0  0
  145.8803  133.8254  149.9188 H   0  0  0  0  0  0  0  0  0  0  0  0
  143.6365  133.0066  150.6790 H   0  0  0  0  0  0  0  0  0  0  0  0
  141.3061  135.0268  153.0018 H   0  0  0  0  0  0  0  0  0  0  0  0
  141.7952  135.7339  154.5450 H   0  0  0  0  0  0  0  0  0  0  0  0
  139.6838  136.6807  152.6307 H   0  0  0  0  0  0  0  0  0  0  0  0
  139.6792  136.7951  154.3908 H   0  0  0  0  0  0  0  0  0  0  0  0
  140.2305  139.0158  152.9257 H   0  0  0  0  0  0  0  0  0  0  0  0
  141.2320  138.6569  154.3368 H   0  0  0  0  0  0  0  0  0  0  0  0
  142.9030  138.7798  152.6120 H   0  0  0  0  0  0  0  0  0  0  0  0
  141.8296  138.0145  151.4343 H   0  0  0  0  0  0  0  0  0  0  0  0
  148.6156  138.9763  156.2322 H   0  0  0  0  0  0  0  0  0  0  0  0
  1  2  2  0  0  0  0
  2  3  1  0  0  0  0
  2 14  1  0  0  0  0
  3  4  1  0  0  0  0
  3 26  1  0  0  0  0
  4  5  1  0  0  0  0
  4 27  1  0  0  0  0
  4 28  1  0  0  0  0
  5 13  1  0  0  0  0
  5  6  1  0  0  0  0
  5 29  1  0  0  0  0
  6  7  1  0  0  0  0
  6 30  1  0  0  0  0
  6 31  1  0  0  0  0
  7 11  1  0  0  0  0
  7  8  1  0  0  0  0
  7 53  1  0  0  0  0
  8  9  1  0  0  0  0
  8 32  1  0  0  0  0
  8 33  1  0  0  0  0
  9 10  1  0  0  0  0
  9 34  1  0  0  0  0
  9 35  1  0  0  0  0
 10 11  1  0  0  0  0
 10 36  1  0  0  0  0
 10 37  1  0  0  0  0
 11 12  1  0  0  0  0
 11 38  1  0  0  0  0
 12 13  1  0  0  0  0
 12 39  1  0  0  0  0
 12 40  1  0  0  0  0
 14 15  1  0  0  0  0
 14 41  1  0  0  0  0
 15 20  1  0  0  0  0
 15 16  2  0  0  0  0
 16 17  1  0  0  0  0
 16 42  1  0  0  0  0
 17 18  2  0  0  0  0
 17 43  1  0  0  0  0
 18 19  1  0  0  0  0
 18 44  1  0  0  0  0
 19 20  2  0  0  0  0
 20 21  1  0  0  0  0
 21 25  1  0  0  0  0
 21 22  1  0  0  0  0
 22 23  1  0  0  0  0
 22 45  1  0  0  0  0
 22 46  1  0  0  0  0
 23 24  1  0  0  0  0
 23 47  1  0  0  0  0
 23 48  1  0  0  0  0
 24 25  1  0  0  0  0
 24 49  1  0  0  0  0
 24 50  1  0  0  0  0
 25 51  1  0  0  0  0
 25 52  1  0  0  0  0
M  CHG  1   7   1
M  END
> <s_m_source_file>
AV-unprocessed.smi

> <i_m_source_file_index>
1830

> <i_lp_mmshare_version>
43012

> <i_f3d_flags>
0

> <s_epik_input>
W0NIMl0xW0NIMl1bQ0gyXVtDQEhdKE4xMilbQ0gyXU9bQ0BASF0oW0NIMl0yKVtDSDJdW05IXUMoPU8pW05IXWMzW2NIXVtjSF1bY0hdbmMzTjRbQ0gyXVtDSDJdW0NIMl1bQ0gyXTQ=

> <s_epik_cmdline>
J2VwaWtfcHl0aG9uJywgJy1waCcsICc3LjAnLCAnLXRuJywgJzgnLCAnLW1hJywgJzIwMCcsICctbWV0YWxfYmluZGluZycsICctaW1hZScsICc8aW5maWxlLm1hZT4nLCAnLW9tYWUnLCAnPG91dGZpbGUubWFlPic=

> <r_lp_tautomer_probability>
1

> <r_epik_Ionization_Penalty>
0.193547

> <r_epik_Ionization_Penalty_Charging>
0.10673

> <r_epik_Ionization_Penalty_Neutral>
0.0868166

> <r_epik_State_Penalty>
0.173595

> <r_epik_Charging_Adjusted_Penalty>
0.280326

> <i_epik_Tot_Q>
1

> <i_epik_Tot_abs_Q>
1

> <r_epik_Metal_State_Penalty>
0.164683

> <b_epik_Metal_Only>
0

> <s_lp_Force_Field>
OPLS_2005

> <r_lp_Energy>
64.3317

> <b_lp_Chiralities_Consistent>
1

> <s_lp_Variant>
AV-unprocessed.smi:1830-4

> <Gold.Version>
5.8.1

> <Gold.Id.Protein>
6NUR|6NUR_protein|mol2

> <Gold.PLP.Fitness>
46.2996

> <Gold.PLP.PLP>
-36.9015

> <Gold.PLP.part.hbond>
-5.9017

> <Gold.PLP.part.metal>
0.0000

> <Gold.PLP.part.buried>
2.5584

> <Gold.PLP.part.nonpolar>
-39.0024

> <Gold.PLP.part.repulsive>
6.1866

> <Gold.PLP.ligand.clash>
0.0000

> <Gold.PLP.ligand.torsion>
0.4518

> <Gold.PLP.Chemscore.Hbond>
3.3263

> <Gold.PLP.Chemscore.CHOScore>
0.0000

> <Gold.PLP.Chemscore.Metal>
0.0000

> <Gold.Chemscore.Hbonds>
donor molecule, donor type, donor heavy atom, donor atom, acceptor molecule, acceptor atom, score
      L1  H     3    26       P1 10175  1.00
      L1  H    14    41       P1 10175  0.87
      P1  H  7954  7966       L1     1  0.88
      P1  H  8011  8017       L1    13  0.66

> <Gold.PLP.Chemscore.Internal.Correction>
0.3227

> <Gold.Rescore>
     Score         DG    S(hbond)    S(metal)    S(lipo)     H(rot)  DE(clash)    DE(int)     intcor
     15.34     -24.85       3.30        0.00     102.03       1.41       6.81       2.70       ----

> <Gold.Chemscore.Fitness>
15.3408

> <Gold.Chemscore.DG>
-24.8522

> <Gold.Chemscore.ZeroCoef>
-5.4800

> <Gold.Chemscore.Hbond>
3.3042

> <Gold.Chemscore.Metal>
0.0000

> <Gold.Chemscore.Lipo>
102.0269

> <Gold.Chemscore.Internal_Hbond>
0.0000

> <Gold.Chemscore.DEClash>
6.8087

> <Gold.Chemscore.DEInternal>
2.7027

> <Gold.Chemscore.Rot>
1.4067

> <Gold.Chemscore.Internal.Correction>
   9.000000E+99

> <Gold.Chemscore.Hbonds>
donor molecule, donor type, donor heavy atom, donor atom, acceptor molecule, acceptor atom, score
      L1  H     3    26       P1 10175  0.96
      L1  H    14    41       P1 10175  0.82
      P1  H  7954  7966       L1     1  0.85
      P1  H  8011  8017       L1    13  0.64

> <Gold.Chemscore.Hbond.Weighted>
-11.0362

> <Gold.Chemscore.Metal.Weighted>
-0.0000

> <Gold.Chemscore.Lipo.Weighted>
-11.9372

> <Gold.Chemscore.Internal_Hbond.Weighted>
0.0000

> <Gold.Chemscore.DEClash.Weighted>
6.8087

> <Gold.Chemscore.DEInternal.Weighted>
2.7027

> <Gold.Chemscore.Rot.Weighted>
3.6011

> <Gold.Chemscore.Internal.Correction.Weighted>
   9.000000E+99

> <Gold.Protein.RotatedTorsions>
[ 6907 6896 6895 6894 ] final  130.24 input  -60.11 | X-H torsion
[ 7974 7965 7964 7962 ] final   33.46 input  175.53 | X-H torsion
[ 8008 7997 7996 7995 ] final  -61.81 input   59.86 | X-H torsion
[ 10167 10162 10161 10158 ] final  176.95 input  -65.29 | X-H torsion
[ 10718 10713 10712 10709 ] final    0.88 input   66.30 | X-H torsion
[ 10763 10752 10751 10750 ] final   88.13 input  -60.55 | X-H torsion
[ 11005 11000 10999 10996 ] final   87.65 input  -57.11 | X-H torsion

> <Gold.Protein.ActiveResidues>
 VAL166  LYS551  ARG553  GLY616  TRP617  ASP618  TYR619  PRO620  LYS621  CYS622 
 ASP623  PHE694  ASN695  SER759  ASP760  ASP761  ALA762  ILE779  LEU786  VAL792 
 PHE793  MET794  SER795  GLU796  ALA797  LYS798  CYS799  TRP800  GLU811  SER814 

> <Gold.Protein.RotatedAtoms>
  152.3545  133.6220  159.5968 H   0  0  0  0  0  0  0  0  0  0  0  0  # atno 6907 bound_to 6896
  150.7559  133.9522  159.3498 H   0  0  0  0  0  0  0  0  0  0  0  0  # atno 6908 bound_to 6896
  151.7369  135.0864  160.0360 H   0  0  0  0  0  0  0  0  0  0  0  0  # atno 6909 bound_to 6896
  146.1419  139.6394  142.9157 H   0  0  0  0  0  0  0  0  0  0  0  0  # atno 7974 bound_to 7965
  154.4467  140.1009  156.6489 H   0  0  0  0  0  0  0  0  0  0  0  0  # atno 8008 bound_to 7997
  155.5419  140.3484  155.4430 H   0  0  0  0  0  0  0  0  0  0  0  0  # atno 8009 bound_to 7997
  156.0591  140.1322  156.9951 H   0  0  0  0  0  0  0  0  0  0  0  0  # atno 8010 bound_to 7997
  139.5234  144.2855  152.0509 H   0  0  0  0  0  0  0  0  0  0  0  0  # atno 10167 bound_to 10162
  156.8399  130.5517  149.5678 H   0  0  0  0  0  0  0  0  0  0  0  0  # atno 10718 bound_to 10713
  153.1737  135.4518  154.9937 H   0  0  0  0  0  0  0  0  0  0  0  0  # atno 10763 bound_to 10752
  154.7983  135.3246  154.7614 H   0  0  0  0  0  0  0  0  0  0  0  0  # atno 10764 bound_to 10752
  153.8087  135.6956  153.4899 H   0  0  0  0  0  0  0  0  0  0  0  0  # atno 10765 bound_to 10752
  139.8914  134.8436  156.2890 H   0  0  0  0  0  0  0  0  0  0  0  0  # atno 11005 bound_to 11000
  145.5026  141.0437  143.2532 LP  0  0  0  0  0  0  0  0  0  0  0  0  # atno 17320 bound_to 7965
  144.7802  139.6542  143.7157 LP  0  0  0  0  0  0  0  0  0  0  0  0  # atno 17321 bound_to 7965
  140.2308  144.4370  150.6301 LP  0  0  0  0  0  0  0  0  0  0  0  0  # atno 17342 bound_to 10162
  140.6356  143.2194  151.6401 LP  0  0  0  0  0  0  0  0  0  0  0  0  # atno 17343 bound_to 10162
  156.0886  130.5878  150.9693 LP  0  0  0  0  0  0  0  0  0  0  0  0  # atno 17370 bound_to 10713
  157.6361  131.0916  150.8345 LP  0  0  0  0  0  0  0  0  0  0  0  0  # atno 17371 bound_to 10713
  140.9989  133.7163  156.0929 LP  0  0  0  0  0  0  0  0  0  0  0  0  # atno 17394 bound_to 11000
  140.7525  134.4029  157.5539 LP  0  0  0  0  0  0  0  0  0  0  0  0  # atno 17395 bound_to 11000

$$$$
