AV-unprocessed.smi:169|AV-procd|sdf|1398|dock3
  -GOLD-   2262019143D 1   1.00000     0.00000
 Structure written by MMmdl.
 56 60  0  0  0  0  0  0  0  0  2 V2000
  147.8968  127.9220  151.7939 C   0  0  0  0  0  0  0  0  0  0  0  0
  146.6662  128.7678  151.4223 C   0  0  0  0  0  0  0  0  0  0  0  0
  146.6450  130.1117  152.0574 N   0  3  2  0  0  0  0  0  0  0  0  0
  146.6838  130.0606  153.5413 C   0  0  0  0  0  0  0  0  0  0  0  0
  147.5359  131.1900  154.1530 C   0  0  0  0  0  0  0  0  0  0  0  0
  147.2895  132.6047  153.5846 C   0  0  1  0  0  0  0  0  0  0  0  0
  148.0996  132.9034  152.3041 C   0  0  0  0  0  0  0  0  0  0  0  0
  147.0627  133.0517  151.1859 C   0  0  0  0  0  0  0  0  0  0  0  0
  145.7709  132.5029  151.7984 C   0  0  1  0  0  0  0  0  0  0  0  0
  145.5694  130.9932  151.5210 C   0  0  0  0  0  0  0  0  0  0  0  0
  145.8882  132.8053  153.2243 N   0  0  0  0  0  0  0  0  0  0  0  0
  145.2990  133.9098  153.7543 C   0  0  0  0  0  0  0  0  0  0  0  0
  145.2279  134.0776  155.1018 N   0  0  0  0  0  0  0  0  0  0  0  0
  144.6354  135.1583  155.6184 C   0  0  0  0  0  0  0  0  0  0  0  0
  144.0602  136.1793  154.9805 N   0  0  0  0  0  0  0  0  0  0  0  0
  144.1342  136.0219  153.6280 C   0  0  0  0  0  0  0  0  0  0  0  0
  144.7307  134.9287  152.9392 C   0  0  0  0  0  0  0  0  0  0  0  0
  144.6210  135.1177  151.5668 N   0  0  0  0  0  0  0  0  0  0  0  0
  143.9886  136.2535  151.4510 C   0  0  0  0  0  0  0  0  0  0  0  0
  143.6649  136.8696  152.6391 N   0  0  0  0  0  0  0  0  0  0  0  0
  142.9625  138.1334  152.8032 C   0  0  0  0  0  0  0  0  0  0  0  0
  141.5558  137.9906  153.4143 C   0  0  0  0  0  0  0  0  0  0  0  0
  140.7742  139.2956  153.1591 C   0  0  0  0  0  0  0  0  0  0  0  0
  139.8618  139.1802  152.0851 O   0  0  0  0  0  0  0  0  0  0  0  0
  140.8094  136.6854  153.1011 C   0  0  0  0  0  0  0  0  0  0  0  0
  140.6101  136.3925  154.5016 O   0  0  0  0  0  0  0  0  0  0  0  0
  141.5286  137.4515  154.8518 C   0  0  0  0  0  0  0  0  0  0  0  0
  147.8690  126.9630  151.2761 H   0  0  0  0  0  0  0  0  0  0  0  0
  147.9357  127.7099  152.8623 H   0  0  0  0  0  0  0  0  0  0  0  0
  148.8278  128.4147  151.5138 H   0  0  0  0  0  0  0  0  0  0  0  0
  146.6207  128.8901  150.3394 H   0  0  0  0  0  0  0  0  0  0  0  0
  145.7574  128.2315  151.6977 H   0  0  0  0  0  0  0  0  0  0  0  0
  145.6683  130.0863  153.9400 H   0  0  0  0  0  0  0  0  0  0  0  0
  147.1076  129.1126  153.8757 H   0  0  0  0  0  0  0  0  0  0  0  0
  147.3325  131.2076  155.2242 H   0  0  0  0  0  0  0  0  0  0  0  0
  148.5949  130.9432  154.0694 H   0  0  0  0  0  0  0  0  0  0  0  0
  147.6063  133.3258  154.3400 H   0  0  0  0  0  0  0  0  0  0  0  0
  148.6778  133.8220  152.4103 H   0  0  0  0  0  0  0  0  0  0  0  0
  148.8064  132.1051  152.0753 H   0  0  0  0  0  0  0  0  0  0  0  0
  146.9335  134.1091  150.9506 H   0  0  0  0  0  0  0  0  0  0  0  0
  147.3529  132.5445  150.2652 H   0  0  0  0  0  0  0  0  0  0  0  0
  144.9183  133.0128  151.3492 H   0  0  0  0  0  0  0  0  0  0  0  0
  145.5042  130.8549  150.4409 H   0  0  0  0  0  0  0  0  0  0  0  0
  144.6052  130.6787  151.9222 H   0  0  0  0  0  0  0  0  0  0  0  0
  144.6195  135.2125  156.6972 H   0  0  0  0  0  0  0  0  0  0  0  0
  143.7399  136.6744  150.4879 H   0  0  0  0  0  0  0  0  0  0  0  0
  143.5859  138.7761  153.4264 H   0  0  0  0  0  0  0  0  0  0  0  0
  142.9100  138.6288  151.8329 H   0  0  0  0  0  0  0  0  0  0  0  0
  140.2145  139.5924  154.0468 H   0  0  0  0  0  0  0  0  0  0  0  0
  141.4479  140.1182  152.9197 H   0  0  0  0  0  0  0  0  0  0  0  0
  140.2705  139.5228  151.3049 H   0  0  0  0  0  0  0  0  0  0  0  0
  139.8706  136.8241  152.5634 H   0  0  0  0  0  0  0  0  0  0  0  0
  141.4227  135.9236  152.6186 H   0  0  0  0  0  0  0  0  0  0  0  0
  142.4856  137.0564  155.1962 H   0  0  0  0  0  0  0  0  0  0  0  0
  141.1129  138.1425  155.5861 H   0  0  0  0  0  0  0  0  0  0  0  0
  147.5168  130.5376  151.7764 H   0  0  0  0  0  0  0  0  0  0  0  0
  1  2  1  0  0  0  0
  1 28  1  0  0  0  0
  1 29  1  0  0  0  0
  1 30  1  0  0  0  0
  2  3  1  0  0  0  0
  2 31  1  0  0  0  0
  2 32  1  0  0  0  0
  3 10  1  0  0  0  0
  3  4  1  0  0  0  0
  3 56  1  0  0  0  0
  4  5  1  0  0  0  0
  4 33  1  0  0  0  0
  4 34  1  0  0  0  0
  5  6  1  0  0  0  0
  5 35  1  0  0  0  0
  5 36  1  0  0  0  0
  6 11  1  0  0  0  0
  6  7  1  0  0  0  0
  6 37  1  0  0  0  0
  7  8  1  0  0  0  0
  7 38  1  0  0  0  0
  7 39  1  0  0  0  0
  8  9  1  0  0  0  0
  8 40  1  0  0  0  0
  8 41  1  0  0  0  0
  9 10  1  0  0  0  0
  9 11  1  0  0  0  0
  9 42  1  0  0  0  0
 10 43  1  0  0  0  0
 10 44  1  0  0  0  0
 11 12  1  0  0  0  0
 12 17  1  0  0  0  0
 12 13  2  0  0  0  0
 13 14  1  0  0  0  0
 14 15  2  0  0  0  0
 14 45  1  0  0  0  0
 15 16  1  0  0  0  0
 16 20  1  0  0  0  0
 16 17  2  0  0  0  0
 17 18  1  0  0  0  0
 18 19  2  0  0  0  0
 19 20  1  0  0  0  0
 19 46  1  0  0  0  0
 20 21  1  0  0  0  0
 21 22  1  0  0  0  0
 21 47  1  0  0  0  0
 21 48  1  0  0  0  0
 22 27  1  0  0  0  0
 22 23  1  0  0  0  0
 22 25  1  0  0  0  0
 23 24  1  0  0  0  0
 23 49  1  0  0  0  0
 23 50  1  0  0  0  0
 24 51  1  0  0  0  0
 25 26  1  0  0  0  0
 25 52  1  0  0  0  0
 25 53  1  0  0  0  0
 26 27  1  0  0  0  0
 27 54  1  0  0  0  0
 27 55  1  0  0  0  0
M  CHG  1   3   1
M  END
> <s_m_source_file>
AV-unprocessed.smi

> <i_m_source_file_index>
169

> <i_lp_mmshare_version>
43012

> <i_f3d_flags>
0

> <s_epik_input>
W0NASF0xMltDSDJdW0NIMl1OKFtDSDJdW0NIM10pW0NIMl1bQ0BIXShbQ0gyXVtDSDJdMSlOMmMobltjSF1uMyljKGMzNCluW2NIXW40W0NIMl1DNShbQ0gyXVtPSF0pW0NIMl1PW0NIMl01

> <s_epik_cmdline>
J2VwaWtfcHl0aG9uJywgJy1waCcsICc3LjAnLCAnLXRuJywgJzgnLCAnLW1hJywgJzIwMCcsICctbWV0YWxfYmluZGluZycsICctaW1hZScsICc8aW5maWxlLm1hZT4nLCAnLW9tYWUnLCAnPG91dGZpbGUubWFlPic=

> <r_lp_tautomer_probability>
1

> <r_epik_Ionization_Penalty>
0.00274162

> <r_epik_Ionization_Penalty_Charging>
0.00243722

> <r_epik_Ionization_Penalty_Neutral>
0.000304399

> <r_epik_State_Penalty>
-0

> <r_epik_Charging_Adjusted_Penalty>
0.00243722

> <i_epik_Tot_Q>
1

> <i_epik_Tot_abs_Q>
1

> <r_epik_Metal_State_Penalty>
-0

> <b_epik_Metal_Only>
0

> <s_lp_Force_Field>
OPLS_2005

> <r_lp_Energy>
78.5453

> <b_lp_Chiralities_Consistent>
1

> <s_lp_Variant>
AV-unprocessed.smi:169-1

> <Gold.Version>
5.8.1

> <Gold.Id.Protein>
6NUR|6NUR_protein|mol2

> <Gold.PLP.Fitness>
44.5456

> <Gold.PLP.PLP>
-35.2951

> <Gold.PLP.part.hbond>
-3.0000

> <Gold.PLP.part.metal>
0.0000

> <Gold.PLP.part.buried>
0.3390

> <Gold.PLP.part.nonpolar>
-31.9686

> <Gold.PLP.part.repulsive>
0.4345

> <Gold.PLP.ligand.clash>
0.0000

> <Gold.PLP.ligand.torsion>
1.2535

> <Gold.PLP.Chemscore.Hbond>
2.7840

> <Gold.PLP.Chemscore.CHOScore>
0.9556

> <Gold.PLP.Chemscore.Metal>
0.0000

> <Gold.Chemscore.Hbonds>
donor molecule, donor type, donor heavy atom, donor atom, acceptor molecule, acceptor atom, score
      L1  H     3    56       P1 10747  0.79
      P1  H 11000 11005       L1    26  0.22
      L1  C    19    46       P1 10171  0.96

> <Gold.PLP.Chemscore.Internal.Correction>
0.5387

> <Gold.Rescore>
     Score         DG    S(hbond)    S(metal)    S(lipo)     H(rot)  DE(clash)    DE(int)     intcor
     13.63     -17.82       2.55        0.00      90.09       2.62       1.40       2.78       ----

> <Gold.Chemscore.Fitness>
13.6341

> <Gold.Chemscore.DG>
-17.8186

> <Gold.Chemscore.ZeroCoef>
-5.4800

> <Gold.Chemscore.Hbond>
2.5474

> <Gold.Chemscore.Metal>
0.0000

> <Gold.Chemscore.Lipo>
90.0887

> <Gold.Chemscore.Internal_Hbond>
0.0000

> <Gold.Chemscore.DEClash>
1.4044

> <Gold.Chemscore.DEInternal>
2.7801

> <Gold.Chemscore.Rot>
2.6212

> <Gold.Chemscore.Internal.Correction>
   9.000000E+99

> <Gold.Chemscore.Hbonds>
donor molecule, donor type, donor heavy atom, donor atom, acceptor molecule, acceptor atom, score
      L1  H     3    56       P1 10747  0.73
      L1  H    24    51       P1 10160  0.02
      P1  H 11000 11005       L1    26  0.22

> <Gold.Chemscore.Hbond.Weighted>
-8.5084

> <Gold.Chemscore.Metal.Weighted>
-0.0000

> <Gold.Chemscore.Lipo.Weighted>
-10.5404

> <Gold.Chemscore.Internal_Hbond.Weighted>
0.0000

> <Gold.Chemscore.DEClash.Weighted>
1.4044

> <Gold.Chemscore.DEInternal.Weighted>
2.7801

> <Gold.Chemscore.Rot.Weighted>
6.7102

> <Gold.Chemscore.Internal.Correction.Weighted>
   9.000000E+99

> <Gold.Protein.RotatedTorsions>
[ 6907 6896 6895 6894 ] final -157.68 input  -60.11 | X-H torsion
[ 7974 7965 7964 7962 ] final   17.97 input  175.53 | X-H torsion
[ 8008 7997 7996 7995 ] final  -88.15 input   59.86 | X-H torsion
[ 10167 10162 10161 10158 ] final  -44.54 input  -65.29 | X-H torsion
[ 10718 10713 10712 10709 ] final -128.53 input   66.30 | X-H torsion
[ 10763 10752 10751 10750 ] final  149.90 input  -60.55 | X-H torsion
[ 11005 11000 10999 10996 ] final   71.91 input  -57.11 | X-H torsion

> <Gold.Protein.ActiveResidues>
 VAL166  LYS551  ARG553  GLY616  TRP617  ASP618  TYR619  PRO620  LYS621  CYS622 
 ASP623  PHE694  ASN695  SER759  ASP760  ASP761  ALA762  ILE779  LEU786  VAL792 
 PHE793  MET794  SER795  GLU796  ALA797  LYS798  CYS799  TRP800  GLU811  SER814 

> <Gold.Protein.RotatedAtoms>
  151.3065  133.4099  159.2643 H   0  0  0  0  0  0  0  0  0  0  0  0  # atno 6907 bound_to 6896
  151.0150  134.9427  159.8039 H   0  0  0  0  0  0  0  0  0  0  0  0  # atno 6908 bound_to 6896
  152.5310  134.3029  159.9137 H   0  0  0  0  0  0  0  0  0  0  0  0  # atno 6909 bound_to 6896
  146.2201  139.8525  142.8620 H   0  0  0  0  0  0  0  0  0  0  0  0  # atno 7974 bound_to 7965
  154.6714  140.0557  157.0170 H   0  0  0  0  0  0  0  0  0  0  0  0  # atno 8008 bound_to 7997
  155.1083  140.3235  155.4510 H   0  0  0  0  0  0  0  0  0  0  0  0  # atno 8009 bound_to 7997
  156.2659  140.2019  156.6207 H   0  0  0  0  0  0  0  0  0  0  0  0  # atno 8010 bound_to 7997
  140.6893  143.2925  151.3511 H   0  0  0  0  0  0  0  0  0  0  0  0  # atno 10167 bound_to 10162
  156.1960  130.6826  151.0482 H   0  0  0  0  0  0  0  0  0  0  0  0  # atno 10718 bound_to 10713
  154.0788  135.2861  155.3294 H   0  0  0  0  0  0  0  0  0  0  0  0  # atno 10763 bound_to 10752
  154.6698  135.5304  153.8126 H   0  0  0  0  0  0  0  0  0  0  0  0  # atno 10764 bound_to 10752
  153.0457  135.6554  154.0964 H   0  0  0  0  0  0  0  0  0  0  0  0  # atno 10765 bound_to 10752
  139.9519  134.7213  156.0844 H   0  0  0  0  0  0  0  0  0  0  0  0  # atno 11005 bound_to 11000
  145.2786  141.0131  143.3730 LP  0  0  0  0  0  0  0  0  0  0  0  0  # atno 17320 bound_to 7965
  144.9167  139.4461  143.6561 LP  0  0  0  0  0  0  0  0  0  0  0  0  # atno 17321 bound_to 7965
  139.6279  144.0777  152.2451 LP  0  0  0  0  0  0  0  0  0  0  0  0  # atno 17342 bound_to 10162
  140.0243  144.6129  150.7541 LP  0  0  0  0  0  0  0  0  0  0  0  0  # atno 17343 bound_to 10162
  157.6957  131.0794  150.6974 LP  0  0  0  0  0  0  0  0  0  0  0  0  # atno 17370 bound_to 10713
  156.7031  130.4629  149.5567 LP  0  0  0  0  0  0  0  0  0  0  0  0  # atno 17371 bound_to 10713
  141.1183  133.6621  156.3149 LP  0  0  0  0  0  0  0  0  0  0  0  0  # atno 17394 bound_to 11000
  140.5700  134.5850  157.5455 LP  0  0  0  0  0  0  0  0  0  0  0  0  # atno 17395 bound_to 11000

$$$$
