#       Name:                AV-unprocessed.smi:2053
#       Creating user name   scv26
#       Creation time:       Fri Mar 27 10:59:44 2020


#       File generated by GOLD software.
#

@<TRIPOS>MOLECULE
AV-unprocessed.smi:2053
    52    53     1
SMALL
NO_CHARGES


@<TRIPOS>ATOM
      1 ****        -8.3047  -0.1070  -0.7521 C.3            1 S1                 0.0000
      2 ****        -6.9086   0.0739  -0.9113 O.3            1 S1                 0.0000
      3 ****        -6.4745   1.3529  -0.4797 C.3            1 S1                 0.0000
      4 ****        -4.9589   1.4620  -0.6712 C.3            1 S1                 0.0000
      5 ****        -4.3135   0.6774   0.3272 O.3            1 S1                 0.0000
      6 ****        -2.9345   0.6410   0.3486 C.ar           1 S1                 0.0000
      7 ****        -2.2980  -0.1491   1.3260 C.ar           1 S1                 0.0000
      8 ****        -0.8911  -0.1919   1.3580 C.ar           1 S1                 0.0000
      9 ****        -0.1623   0.5679   0.4122 C.ar           1 S1                 0.0000
     10 ****         1.2555   0.5950   0.3224 N.am           1 S1                 0.0000
     11 ****         2.1721   0.2538   1.2469 C.2            1 S1                 0.0000
     12 ****         1.9029  -0.1160   2.3898 O.2            1 S1                 0.0000
     13 ****         3.6348   0.3716   0.7874 C.3            1 S1                 0.0000
     14 ****         4.6616   0.3277   1.9333 C.3            1 S1                 0.0000
     15 ****         5.0603  -1.1395   2.0056 C.3            1 S1                 0.0000
     16 ****         5.0373  -1.5728   0.5413 C.3            1 S1                 0.0000
     17 ****         4.0308  -0.7239  -0.1137 N.3            1 S1                 0.0000
     18 ****         4.2033  -0.3862  -1.8030 S.o2           1 S1                 0.0000
     19 ****         4.0871  -2.0552  -2.5655 C.3            1 S1                 0.0000
     20 ****         3.0290   0.3937  -2.2230 O.2            1 S1                 0.0000
     21 ****         5.5552   0.1516  -2.0185 O.2            1 S1                 0.0000
     22 ****        -0.8950   1.3151  -0.5331 C.ar           1 S1                 0.0000
     23 ****        -2.2434   1.3608  -0.5692 N.ar           1 S1                 0.0000
     24 ****        -8.5874  -1.1012  -1.0982 H              1 S1                 0.0000
     25 ****        -8.8667   0.6242  -1.3344 H              1 S1                 0.0000
     26 ****        -8.5965  -0.0195   0.2953 H              1 S1                 0.0000
     27 ****        -6.9720   2.1191  -1.0761 H              1 S1                 0.0000
     28 ****        -6.7401   1.5257   0.5645 H              1 S1                 0.0000
     29 ****        -4.6802   1.1357  -1.6747 H              1 S1                 0.0000
     30 ****        -4.6606   2.5060  -0.5621 H              1 S1                 0.0000
     31 ****        -2.8793  -0.7179   2.0365 H              1 S1                 0.0000
     32 ****        -0.4071  -0.8141   2.0940 H              1 S1                 0.0000
     33 ****         1.6251   0.9500  -0.5483 H              1 S1                 0.0000
     34 ****         3.7412   1.3264   0.2696 H              1 S1                 0.0000
     35 ****         5.5304   0.9317   1.6675 H              1 S1                 0.0000
     36 ****         4.2888   0.7066   2.8858 H              1 S1                 0.0000
     37 ****         6.0317  -1.2923   2.4767 H              1 S1                 0.0000
     38 ****         4.3177  -1.7017   2.5734 H              1 S1                 0.0000
     39 ****         6.0130  -1.3986   0.0862 H              1 S1                 0.0000
     40 ****         4.7901  -2.6281   0.4238 H              1 S1                 0.0000
     41 ****         4.1517  -1.9628  -3.6495 H              1 S1                 0.0000
     42 ****         3.1344  -2.5115  -2.2976 H              1 S1                 0.0000
     43 ****         4.9043  -2.6810  -2.2084 H              1 S1                 0.0000
     44 ****        -0.3837   1.8991  -1.2843 H              1 S1                 0.0000
     45 ****        -6.6796  -0.0329  -1.8788 LP             1 S1                 0.0000
     46 ****        -6.4317  -0.6239  -0.3768 LP             1 S1                 0.0000
     47 ****        -4.6316  -0.2638   0.2139 LP             1 S1                 0.0000
     48 ****        -4.6131   1.0258   1.2154 LP             1 S1                 0.0000
     49 ****         0.9490  -0.1782   2.6836 LP             1 S1                 0.0000
     50 ****         2.6381  -0.3541   3.0245 LP             1 S1                 0.0000
     51 ****         3.2191  -1.2937  -0.2421 LP             1 S1                 0.0000
     52 ****        -2.7201   1.9111  -1.2547 LP             1 S1                 0.0000
@<TRIPOS>BOND
    1    1    2 1     
    2    1   24 1     
    3    1   25 1     
    4    1   26 1     
    5    2    3 1     
    6    3    4 1     
    7    3   27 1     
    8    3   28 1     
    9    4    5 1     
   10    4   29 1     
   11    4   30 1     
   12    5    6 1     
   13    6   23 ar    
   14    6    7 ar    
   15    7    8 ar    
   16    7   31 1     
   17    8    9 ar    
   18    8   32 1     
   19    9   10 1     
   20    9   22 ar    
   21   10   11 am    
   22   10   33 1     
   23   11   12 2     
   24   11   13 1     
   25   13   17 1     
   26   13   14 1     
   27   13   34 1     
   28   14   15 1     
   29   14   35 1     
   30   14   36 1     
   31   15   16 1     
   32   15   37 1     
   33   15   38 1     
   34   16   17 1     
   35   16   39 1     
   36   16   40 1     
   37   17   18 1     
   38   18   19 1     
   39   18   20 2     
   40   18   21 2     
   41   19   41 1     
   42   19   42 1     
   43   19   43 1     
   44   22   23 ar    
   45   22   44 1     
   46    2   45 1     
   47    2   46 1     
   48    5   47 1     
   49    5   48 1     
   50   12   49 1     
   51   12   50 1     
   52   17   51 1     
   53   23   52 1     
@<TRIPOS>SUBSTRUCTURE
      1 S1             1
@<TRIPOS>SET
LONE_PAIRS      STATIC     ATOMS    <user>   **** ""
10 45 46 47 48 49 50 51 20 21 52
DONOR_HYDROGENS      STATIC     ATOMS    <user>   **** ""
1 33
ATOM$BLUE        STATIC     ATOMS    COLORGROUP SYSTEM
10 45 46 47 48 49 50 51 20 21 52
ATOM$RED        STATIC     ATOMS    COLORGROUP SYSTEM
1 33
