AV-unprocessed.smi:1761|AV-procd|sdf|7098|dock8
  -GOLD-   22720 8313D 1   1.00000     0.00000
 Structure written by MMmdl.
 34 35  0  0  0  0  0  0  0  0  1 V2000
  150.4817  140.8533  157.8818 O   0  0  0  0  0  0  0  0  0  0  0  0
  150.1222  141.8471  157.2498 C   0  0  0  0  0  0  0  0  0  0  0  0
  150.4384  143.1180  157.5543 N   0  0  0  0  0  0  0  0  0  0  0  0
  151.2104  143.5934  158.6478 C   0  0  0  0  0  0  0  0  0  0  0  0
  151.3499  144.9983  158.7146 C   0  0  0  0  0  0  0  0  0  0  0  0
  152.0947  145.5716  159.7633 C   0  0  0  0  0  0  0  0  0  0  0  0
  152.6809  144.7241  160.7201 C   0  0  0  0  0  0  0  0  0  0  0  0
  152.4937  143.3366  160.5808 C   0  0  0  0  0  0  0  0  0  0  0  0
  151.7805  142.7850  159.5764 N   0  0  0  0  0  0  0  0  0  0  0  0
  149.3566  141.7906  156.1503 N   0  0  0  0  0  0  0  0  0  0  0  0
  148.8428  140.5685  155.5346 C   0  0  1  0  0  0  0  0  0  0  0  0
  147.7960  139.9601  156.4908 C   0  0  0  0  0  0  0  0  0  0  0  0
  147.0826  138.7480  155.8749 C   0  0  0  0  0  0  0  0  0  0  0  0
  146.4324  139.1175  154.5352 C   0  0  0  0  0  0  0  0  0  0  0  0
  147.4781  139.6773  153.5617 C   0  0  0  0  0  0  0  0  0  0  0  0
  148.2193  140.8912  154.1548 C   0  0  2  0  0  0  0  0  0  0  0  0
  149.2346  141.2545  153.2406 O   0  0  0  0  0  0  0  0  0  0  0  0
  150.0820  143.8292  156.9334 H   0  0  0  0  0  0  0  0  0  0  0  0
  150.8921  145.6347  157.9710 H   0  0  0  0  0  0  0  0  0  0  0  0
  152.2133  146.6429  159.8308 H   0  0  0  0  0  0  0  0  0  0  0  0
  153.2586  145.1265  161.5390 H   0  0  0  0  0  0  0  0  0  0  0  0
  152.9270  142.6512  161.2940 H   0  0  0  0  0  0  0  0  0  0  0  0
  149.1160  142.6593  155.6960 H   0  0  0  0  0  0  0  0  0  0  0  0
  149.6398  139.8338  155.4033 H   0  0  0  0  0  0  0  0  0  0  0  0
  148.2731  139.6672  157.4267 H   0  0  0  0  0  0  0  0  0  0  0  0
  147.0507  140.7138  156.7502 H   0  0  0  0  0  0  0  0  0  0  0  0
  147.7974  137.9373  155.7274 H   0  0  0  0  0  0  0  0  0  0  0  0
  146.3261  138.3721  156.5643 H   0  0  0  0  0  0  0  0  0  0  0  0
  145.9504  138.2413  154.1005 H   0  0  0  0  0  0  0  0  0  0  0  0
  145.6470  139.8566  154.6972 H   0  0  0  0  0  0  0  0  0  0  0  0
  148.1932  138.8899  153.3182 H   0  0  0  0  0  0  0  0  0  0  0  0
  146.9956  139.9557  152.6241 H   0  0  0  0  0  0  0  0  0  0  0  0
  147.5217  141.7249  154.2485 H   0  0  0  0  0  0  0  0  0  0  0  0
  149.2790  140.5967  152.5633 H   0  0  0  0  0  0  0  0  0  0  0  0
  1  2  2  0  0  0  0
  2  3  1  0  0  0  0
  2 10  1  0  0  0  0
  3  4  1  0  0  0  0
  3 18  1  0  0  0  0
  4  9  1  0  0  0  0
  4  5  2  0  0  0  0
  5  6  1  0  0  0  0
  5 19  1  0  0  0  0
  6  7  2  0  0  0  0
  6 20  1  0  0  0  0
  7  8  1  0  0  0  0
  7 21  1  0  0  0  0
  8  9  2  0  0  0  0
  8 22  1  0  0  0  0
 10 11  1  0  0  0  0
 10 23  1  0  0  0  0
 11 16  1  0  0  0  0
 11 12  1  0  0  0  0
 11 24  1  0  0  0  0
 12 13  1  0  0  0  0
 12 25  1  0  0  0  0
 12 26  1  0  0  0  0
 13 14  1  0  0  0  0
 13 27  1  0  0  0  0
 13 28  1  0  0  0  0
 14 15  1  0  0  0  0
 14 29  1  0  0  0  0
 14 30  1  0  0  0  0
 15 16  1  0  0  0  0
 15 31  1  0  0  0  0
 15 32  1  0  0  0  0
 16 17  1  0  0  0  0
 16 33  1  0  0  0  0
 17 34  1  0  0  0  0
M  END
> <s_m_source_file>
AV-unprocessed.smi

> <i_m_source_file_index>
1761

> <i_lp_mmshare_version>
43012

> <i_f3d_flags>
0

> <s_epik_input>
bjFbY0hdW2NIXVtjSF1bY0hdYzFbTkhdQyg9TylbTkhdW0NAQEhdMltDSDJdW0NIMl1bQ0gyXVtDSDJdW0NASF0yW09IXQ==

> <s_epik_cmdline>
J2VwaWtfcHl0aG9uJywgJy1waCcsICc3LjAnLCAnLXRuJywgJzgnLCAnLW1hJywgJzIwMCcsICctbWV0YWxfYmluZGluZycsICctaW1hZScsICc8aW5maWxlLm1hZT4nLCAnLW9tYWUnLCAnPG91dGZpbGUubWFlPic=

> <r_lp_tautomer_probability>
1

> <r_epik_Ionization_Penalty>
4.92589e-05

> <r_epik_Ionization_Penalty_Charging>
0

> <r_epik_Ionization_Penalty_Neutral>
4.92589e-05

> <r_epik_State_Penalty>
-0

> <r_epik_Charging_Adjusted_Penalty>
0

> <i_epik_Tot_Q>
0

> <i_epik_Tot_abs_Q>
0

> <r_epik_Metal_State_Penalty>
-0

> <b_epik_Metal_Only>
0

> <s_lp_Force_Field>
OPLS_2005

> <r_lp_Energy>
12.6575

> <b_lp_Chiralities_Consistent>
1

> <s_lp_Variant>
AV-unprocessed.smi:1761-4

> <Gold.Version>
5.8.1

> <Gold.Id.Protein>
6NUR|6NUR_protein|mol2

> <Gold.PLP.Fitness>
42.9802

> <Gold.PLP.PLP>
-31.5245

> <Gold.PLP.part.hbond>
-5.1838

> <Gold.PLP.part.metal>
0.0000

> <Gold.PLP.part.buried>
-5.6900

> <Gold.PLP.part.nonpolar>
-21.3709

> <Gold.PLP.part.repulsive>
0.1098

> <Gold.PLP.ligand.clash>
0.0000

> <Gold.PLP.ligand.torsion>
0.0840

> <Gold.PLP.Chemscore.Hbond>
3.8742

> <Gold.PLP.Chemscore.CHOScore>
0.0000

> <Gold.PLP.Chemscore.Metal>
0.0000

> <Gold.Chemscore.Hbonds>
donor molecule, donor type, donor heavy atom, donor atom, acceptor molecule, acceptor atom, score
      L1  H     3    18       P1  8028  1.00
      L1  H    10    23       P1  8028  0.89
      L1  H    17    34       P1  7957  1.00
      P1  H  8011  8017       L1    17  0.70

> <Gold.PLP.Chemscore.Internal.Correction>
0.0011

> <Gold.Rescore>
     Score         DG    S(hbond)    S(metal)    S(lipo)     H(rot)  DE(clash)    DE(int)     intcor
     19.01     -20.71       3.20        0.00      71.00       1.47       0.17       1.53       ----

> <Gold.Chemscore.Fitness>
19.0114

> <Gold.Chemscore.DG>
-20.7120

> <Gold.Chemscore.ZeroCoef>
-5.4800

> <Gold.Chemscore.Hbond>
3.1964

> <Gold.Chemscore.Metal>
0.0000

> <Gold.Chemscore.Lipo>
71.0009

> <Gold.Chemscore.Internal_Hbond>
0.0000

> <Gold.Chemscore.DEClash>
0.1745

> <Gold.Chemscore.DEInternal>
1.5260

> <Gold.Chemscore.Rot>
1.4653

> <Gold.Chemscore.Internal.Correction>
   9.000000E+99

> <Gold.Chemscore.Hbonds>
donor molecule, donor type, donor heavy atom, donor atom, acceptor molecule, acceptor atom, score
      L1  H     3    18       P1  8028  0.97
      L1  H    10    23       P1  8028  0.84
      L1  H    17    34       P1  7957  0.93
      P1  H  8011  8017       L1    17  0.07

> <Gold.Chemscore.Hbond.Weighted>
-10.6760

> <Gold.Chemscore.Metal.Weighted>
-0.0000

> <Gold.Chemscore.Lipo.Weighted>
-8.3071

> <Gold.Chemscore.Internal_Hbond.Weighted>
0.0000

> <Gold.Chemscore.DEClash.Weighted>
0.1745

> <Gold.Chemscore.DEInternal.Weighted>
1.5260

> <Gold.Chemscore.Rot.Weighted>
3.7511

> <Gold.Chemscore.Internal.Correction.Weighted>
   9.000000E+99

> <Gold.Protein.RotatedTorsions>
[ 6907 6896 6895 6894 ] final -113.19 input  -60.11 | X-H torsion
[ 7974 7965 7964 7962 ] final  150.65 input  175.53 | X-H torsion
[ 8008 7997 7996 7995 ] final  -14.69 input   59.86 | X-H torsion
[ 10167 10162 10161 10158 ] final  -34.39 input  -65.29 | X-H torsion
[ 10718 10713 10712 10709 ] final  -79.05 input   66.30 | X-H torsion
[ 10763 10752 10751 10750 ] final -107.76 input  -60.55 | X-H torsion
[ 11005 11000 10999 10996 ] final   68.20 input  -57.11 | X-H torsion

> <Gold.Protein.ActiveResidues>
 VAL166  LYS551  ARG553  GLY616  TRP617  ASP618  TYR619  PRO620  LYS621  CYS622 
 ASP623  PHE694  ASN695  SER759  ASP760  ASP761  ALA762  ILE779  LEU786  VAL792 
 PHE793  MET794  SER795  GLU796  ALA797  LYS798  CYS799  TRP800  GLU811  SER814 

> <Gold.Protein.RotatedAtoms>
  150.7811  133.8981  159.3332 H   0  0  0  0  0  0  0  0  0  0  0  0  # atno 6907 bound_to 6896
  151.6843  135.0955  160.0231 H   0  0  0  0  0  0  0  0  0  0  0  0  # atno 6908 bound_to 6896
  152.3863  133.6577  159.6237 H   0  0  0  0  0  0  0  0  0  0  0  0  # atno 6909 bound_to 6896
  144.8349  139.6436  143.6042 H   0  0  0  0  0  0  0  0  0  0  0  0  # atno 7974 bound_to 7965
  154.5190  140.2216  155.9012 H   0  0  0  0  0  0  0  0  0  0  0  0  # atno 8008 bound_to 7997
  156.1640  140.3136  155.8821 H   0  0  0  0  0  0  0  0  0  0  0  0  # atno 8009 bound_to 7997
  155.3694  140.0466  157.3036 H   0  0  0  0  0  0  0  0  0  0  0  0  # atno 8010 bound_to 7997
  140.7186  143.3551  151.2076 H   0  0  0  0  0  0  0  0  0  0  0  0  # atno 10167 bound_to 10162
  156.0102  130.4535  150.3589 H   0  0  0  0  0  0  0  0  0  0  0  0  # atno 10718 bound_to 10713
  154.8094  135.4663  154.0478 H   0  0  0  0  0  0  0  0  0  0  0  0  # atno 10763 bound_to 10752
  153.1920  135.6856  153.8347 H   0  0  0  0  0  0  0  0  0  0  0  0  # atno 10764 bound_to 10752
  153.7861  135.3250  155.3349 H   0  0  0  0  0  0  0  0  0  0  0  0  # atno 10765 bound_to 10752
  139.9725  134.6876  156.0418 H   0  0  0  0  0  0  0  0  0  0  0  0  # atno 11005 bound_to 11000
  146.2648  139.6495  142.9337 LP  0  0  0  0  0  0  0  0  0  0  0  0  # atno 17320 bound_to 7965
  145.4817  141.0438  143.2642 LP  0  0  0  0  0  0  0  0  0  0  0  0  # atno 17321 bound_to 7965
  139.7091  143.9407  152.2939 LP  0  0  0  0  0  0  0  0  0  0  0  0  # atno 17342 bound_to 10162
  139.9125  144.6848  150.8547 LP  0  0  0  0  0  0  0  0  0  0  0  0  # atno 17343 bound_to 10162
  157.1678  131.0361  151.2810 LP  0  0  0  0  0  0  0  0  0  0  0  0  # atno 17370 bound_to 10713
  157.4255  130.7461  149.6948 LP  0  0  0  0  0  0  0  0  0  0  0  0  # atno 17371 bound_to 10713
  141.1404  133.6566  156.3714 LP  0  0  0  0  0  0  0  0  0  0  0  0  # atno 17394 bound_to 11000
  140.5262  134.6256  157.5335 LP  0  0  0  0  0  0  0  0  0  0  0  0  # atno 17395 bound_to 11000

$$$$
