AV-unprocessed.smi:1389|AV-procd|sdf|5650|dock6
  -GOLD-   22720 5273D 1   1.00000     0.00000
 Structure written by MMmdl.
 52 54  0  0  0  0  0  0  0  0  2 V2000
  147.9174  136.8454  155.9631 C   0  0  0  0  0  0  0  0  0  0  0  0
  149.1373  136.7449  155.0183 C   0  0  2  0  0  0  0  0  0  0  0  0
  149.6205  135.2704  155.0110 C   0  0  0  0  0  0  0  0  0  0  0  0
  148.8854  134.4675  154.0361 N   0  0  0  0  0  0  0  0  0  0  0  0
  148.7078  133.1404  154.0901 C   0  0  0  0  0  0  0  0  0  0  0  0
  149.2372  132.4079  154.9257 O   0  0  0  0  0  0  0  0  0  0  0  0
  147.8567  132.7288  153.1371 N   0  0  0  0  0  0  0  0  0  0  0  0
  147.3302  131.4197  152.9565 C   0  0  0  0  0  0  0  0  0  0  0  0
  147.9231  130.2873  153.5697 C   0  0  0  0  0  0  0  0  0  0  0  0
  147.3695  129.0095  153.3606 C   0  0  0  0  0  0  0  0  0  0  0  0
  146.2382  128.8831  152.5346 C   0  0  0  0  0  0  0  0  0  0  0  0
  145.7079  129.9792  151.9529 N   0  3  0  0  0  0  0  0  0  0  0  0
  146.1966  131.2331  152.1196 C   0  0  0  0  0  0  0  0  0  0  0  0
  145.5736  132.3051  151.4468 N   0  0  0  0  0  0  0  0  0  0  0  0
  145.6013  132.1984  149.9910 C   0  0  0  0  0  0  0  0  0  0  0  0
  144.2922  132.8100  149.4890 C   0  0  0  0  0  0  0  0  0  0  0  0
  143.3377  132.5850  150.6550 C   0  0  0  0  0  0  0  0  0  0  0  0
  144.2489  132.7580  151.8688 C   0  0  0  0  0  0  0  0  0  0  0  0
  150.2060  137.7218  155.3206 N   0  0  0  0  0  0  0  0  0  0  0  0
  149.7300  139.1081  155.3259 C   0  0  0  0  0  0  0  0  0  0  0  0
  150.8525  140.1145  155.6350 C   0  0  0  0  0  0  0  0  0  0  0  0
  151.9114  139.9583  154.6993 O   0  0  0  0  0  0  0  0  0  0  0  0
  152.4437  138.6400  154.7021 C   0  0  0  0  0  0  0  0  0  0  0  0
  151.3262  137.6345  154.3786 C   0  0  0  0  0  0  0  0  0  0  0  0
  147.2091  136.0362  155.7823 H   0  0  0  0  0  0  0  0  0  0  0  0
  147.3625  137.7712  155.8141 H   0  0  0  0  0  0  0  0  0  0  0  0
  148.2146  136.7960  157.0112 H   0  0  0  0  0  0  0  0  0  0  0  0
  148.7669  136.9552  154.0139 H   0  0  0  0  0  0  0  0  0  0  0  0
  150.6742  135.2350  154.7325 H   0  0  0  0  0  0  0  0  0  0  0  0
  149.5883  134.8288  156.0069 H   0  0  0  0  0  0  0  0  0  0  0  0
  148.4128  134.9776  153.3046 H   0  0  0  0  0  0  0  0  0  0  0  0
  147.4285  133.4545  152.5815 H   0  0  0  0  0  0  0  0  0  0  0  0
  148.8011  130.3807  154.1908 H   0  0  0  0  0  0  0  0  0  0  0  0
  147.8097  128.1393  153.8252 H   0  0  0  0  0  0  0  0  0  0  0  0
  145.7493  127.9447  152.3164 H   0  0  0  0  0  0  0  0  0  0  0  0
  146.4645  132.7165  149.5723 H   0  0  0  0  0  0  0  0  0  0  0  0
  145.6622  131.1498  149.6939 H   0  0  0  0  0  0  0  0  0  0  0  0
  144.4222  133.8803  149.3219 H   0  0  0  0  0  0  0  0  0  0  0  0
  143.9435  132.3626  148.5581 H   0  0  0  0  0  0  0  0  0  0  0  0
  142.4933  133.2747  150.6560 H   0  0  0  0  0  0  0  0  0  0  0  0
  142.9466  131.5671  150.6244 H   0  0  0  0  0  0  0  0  0  0  0  0
  143.8510  132.2496  152.7466 H   0  0  0  0  0  0  0  0  0  0  0  0
  144.3273  133.8151  152.1248 H   0  0  0  0  0  0  0  0  0  0  0  0
  149.2796  139.3495  154.3620 H   0  0  0  0  0  0  0  0  0  0  0  0
  148.9554  139.2434  156.0794 H   0  0  0  0  0  0  0  0  0  0  0  0
  150.4730  141.1347  155.5755 H   0  0  0  0  0  0  0  0  0  0  0  0
  151.2300  139.9722  156.6487 H   0  0  0  0  0  0  0  0  0  0  0  0
  153.2387  138.5752  153.9592 H   0  0  0  0  0  0  0  0  0  0  0  0
  152.8919  138.4196  155.6724 H   0  0  0  0  0  0  0  0  0  0  0  0
  151.7664  136.6404  154.3878 H   0  0  0  0  0  0  0  0  0  0  0  0
  150.9691  137.8070  153.3623 H   0  0  0  0  0  0  0  0  0  0  0  0
  144.8935  129.8559  151.3511 H   0  0  0  0  0  0  0  0  0  0  0  0
  1  2  1  0  0  0  0
  1 25  1  0  0  0  0
  1 26  1  0  0  0  0
  1 27  1  0  0  0  0
  2  3  1  0  0  0  0
  2 19  1  0  0  0  0
  2 28  1  0  0  0  0
  3  4  1  0  0  0  0
  3 29  1  0  0  0  0
  3 30  1  0  0  0  0
  4  5  1  0  0  0  0
  4 31  1  0  0  0  0
  5  6  2  0  0  0  0
  5  7  1  0  0  0  0
  7  8  1  0  0  0  0
  7 32  1  0  0  0  0
  8 13  1  0  0  0  0
  8  9  2  0  0  0  0
  9 10  1  0  0  0  0
  9 33  1  0  0  0  0
 10 11  2  0  0  0  0
 10 34  1  0  0  0  0
 11 12  1  0  0  0  0
 11 35  1  0  0  0  0
 12 13  2  0  0  0  0
 12 52  1  0  0  0  0
 13 14  1  0  0  0  0
 14 18  1  0  0  0  0
 14 15  1  0  0  0  0
 15 16  1  0  0  0  0
 15 36  1  0  0  0  0
 15 37  1  0  0  0  0
 16 17  1  0  0  0  0
 16 38  1  0  0  0  0
 16 39  1  0  0  0  0
 17 18  1  0  0  0  0
 17 40  1  0  0  0  0
 17 41  1  0  0  0  0
 18 42  1  0  0  0  0
 18 43  1  0  0  0  0
 19 24  1  0  0  0  0
 19 20  1  0  0  0  0
 20 21  1  0  0  0  0
 20 44  1  0  0  0  0
 20 45  1  0  0  0  0
 21 22  1  0  0  0  0
 21 46  1  0  0  0  0
 21 47  1  0  0  0  0
 22 23  1  0  0  0  0
 23 24  1  0  0  0  0
 23 48  1  0  0  0  0
 23 49  1  0  0  0  0
 24 50  1  0  0  0  0
 24 51  1  0  0  0  0
M  CHG  1  12   1
M  END
> <s_m_source_file>
AV-unprocessed.smi

> <i_m_source_file_index>
1389

> <i_lp_mmshare_version>
43012

> <i_f3d_flags>
0

> <s_epik_input>
W0NIMl0xW0NIMl1PW0NIMl1bQ0gyXU4xW0NASF0oW0NIM10pW0NIMl1bTkhdQyg9TylbTkhdYzJbY0hdW2NIXVtjSF1uYzJOM1tDSDJdW0NIMl1bQ0gyXVtDSDJdMw==

> <s_epik_cmdline>
J2VwaWtfcHl0aG9uJywgJy1waCcsICc3LjAnLCAnLXRuJywgJzgnLCAnLW1hJywgJzIwMCcsICctbWV0YWxfYmluZGluZycsICctaW1hZScsICc8aW5maWxlLm1hZT4nLCAnLW9tYWUnLCAnPG91dGZpbGUubWFlPic=

> <r_epik_Ionization_Penalty>
1.37675

> <r_epik_Ionization_Penalty_Charging>
1.11074

> <r_epik_Ionization_Penalty_Neutral>
0.26601

> <r_epik_State_Penalty>
1.46015

> <r_epik_Charging_Adjusted_Penalty>
2.57089

> <i_epik_Tot_Q>
1

> <i_epik_Tot_abs_Q>
1

> <r_epik_Metal_State_Penalty>
1.54223

> <b_epik_Metal_Only>
0

> <s_lp_Force_Field>
OPLS_2005

> <r_lp_Energy>
66.6842

> <b_lp_Chiralities_Consistent>
1

> <s_lp_Variant>
AV-unprocessed.smi:1389-5

> <Gold.Version>
5.8.1

> <Gold.Id.Protein>
6NUR|6NUR_protein|mol2

> <Gold.PLP.Fitness>
45.1928

> <Gold.PLP.PLP>
-41.3012

> <Gold.PLP.part.hbond>
-1.8402

> <Gold.PLP.part.metal>
0.0000

> <Gold.PLP.part.buried>
-4.4398

> <Gold.PLP.part.nonpolar>
-34.2331

> <Gold.PLP.part.repulsive>
0.3241

> <Gold.PLP.ligand.clash>
0.0000

> <Gold.PLP.ligand.torsion>
0.7129

> <Gold.PLP.Chemscore.Hbond>
1.6960

> <Gold.PLP.Chemscore.CHOScore>
0.0000

> <Gold.PLP.Chemscore.Metal>
0.0000

> <Gold.Chemscore.Hbonds>
donor molecule, donor type, donor heavy atom, donor atom, acceptor molecule, acceptor atom, score
      L1  H     4    31       P1  7948  0.70
      P1  H  7989  7998       L1    22  0.89

> <Gold.PLP.Chemscore.Internal.Correction>
0.2293

> <Gold.Rescore>
     Score         DG    S(hbond)    S(metal)    S(lipo)     H(rot)  DE(clash)    DE(int)     intcor
     15.67     -17.99       1.50        0.00      99.08       1.60       0.11       2.20       ----

> <Gold.Chemscore.Fitness>
15.6715

> <Gold.Chemscore.DG>
-17.9866

> <Gold.Chemscore.ZeroCoef>
-5.4800

> <Gold.Chemscore.Hbond>
1.5028

> <Gold.Chemscore.Metal>
0.0000

> <Gold.Chemscore.Lipo>
99.0796

> <Gold.Chemscore.Internal_Hbond>
0.0000

> <Gold.Chemscore.DEClash>
0.1123

> <Gold.Chemscore.DEInternal>
2.2028

> <Gold.Chemscore.Rot>
1.6035

> <Gold.Chemscore.Internal.Correction>
   9.000000E+99

> <Gold.Chemscore.Hbonds>
donor molecule, donor type, donor heavy atom, donor atom, acceptor molecule, acceptor atom, score
      L1  H     4    31       P1  7948  0.57
      P1  H  7989  7998       L1    22  0.61

> <Gold.Chemscore.Hbond.Weighted>
-5.0192

> <Gold.Chemscore.Metal.Weighted>
-0.0000

> <Gold.Chemscore.Lipo.Weighted>
-11.5923

> <Gold.Chemscore.Internal_Hbond.Weighted>
0.0000

> <Gold.Chemscore.DEClash.Weighted>
0.1123

> <Gold.Chemscore.DEInternal.Weighted>
2.2028

> <Gold.Chemscore.Rot.Weighted>
4.1049

> <Gold.Chemscore.Internal.Correction.Weighted>
   9.000000E+99

> <Gold.Protein.RotatedTorsions>
[ 6907 6896 6895 6894 ] final -101.37 input  -60.11 | X-H torsion
[ 7974 7965 7964 7962 ] final -149.01 input  175.53 | X-H torsion
[ 8008 7997 7996 7995 ] final -171.23 input   59.86 | X-H torsion
[ 10167 10162 10161 10158 ] final  128.69 input  -65.29 | X-H torsion
[ 10718 10713 10712 10709 ] final -154.48 input   66.30 | X-H torsion
[ 10763 10752 10751 10750 ] final   93.51 input  -60.55 | X-H torsion
[ 11005 11000 10999 10996 ] final  102.78 input  -57.11 | X-H torsion

> <Gold.Protein.ActiveResidues>
 VAL166  LYS551  ARG553  GLY616  TRP617  ASP618  TYR619  PRO620  LYS621  CYS622 
 ASP623  PHE694  ASN695  SER759  ASP760  ASP761  ALA762  ILE779  LEU786  VAL792 
 PHE793  MET794  SER795  GLU796  ALA797  LYS798  CYS799  TRP800  GLU811  SER814 

> <Gold.Protein.RotatedAtoms>
  150.7152  134.0745  159.3875 H   0  0  0  0  0  0  0  0  0  0  0  0  # atno 6907 bound_to 6896
  151.8728  135.0481  160.0490 H   0  0  0  0  0  0  0  0  0  0  0  0  # atno 6908 bound_to 6896
  152.2630  133.5278  159.5429 H   0  0  0  0  0  0  0  0  0  0  0  0  # atno 6909 bound_to 6896
  144.7994  140.5121  143.5718 H   0  0  0  0  0  0  0  0  0  0  0  0  # atno 7974 bound_to 7965
  155.9288  140.1087  157.1149 H   0  0  0  0  0  0  0  0  0  0  0  0  # atno 8008 bound_to 7997
  154.4067  140.1241  156.4841 H   0  0  0  0  0  0  0  0  0  0  0  0  # atno 8009 bound_to 7997
  155.7105  140.3471  155.4974 H   0  0  0  0  0  0  0  0  0  0  0  0  # atno 8010 bound_to 7997
  139.5515  144.6816  151.4311 H   0  0  0  0  0  0  0  0  0  0  0  0  # atno 10167 bound_to 10162
  156.4998  130.8386  151.2605 H   0  0  0  0  0  0  0  0  0  0  0  0  # atno 10718 bound_to 10713
  153.2311  135.4323  155.0596 H   0  0  0  0  0  0  0  0  0  0  0  0  # atno 10763 bound_to 10752
  154.8297  135.3380  154.6786 H   0  0  0  0  0  0  0  0  0  0  0  0  # atno 10764 bound_to 10752
  153.7213  135.7017  153.5068 H   0  0  0  0  0  0  0  0  0  0  0  0  # atno 10765 bound_to 10752
  139.8779  134.9238  156.5111 H   0  0  0  0  0  0  0  0  0  0  0  0  # atno 11005 bound_to 11000
  145.5591  139.1479  143.3351 LP  0  0  0  0  0  0  0  0  0  0  0  0  # atno 17320 bound_to 7965
  146.2271  140.5728  142.8991 LP  0  0  0  0  0  0  0  0  0  0  0  0  # atno 17321 bound_to 7965
  140.6778  143.8150  150.7081 LP  0  0  0  0  0  0  0  0  0  0  0  0  # atno 17342 bound_to 10162
  140.1594  143.4288  152.2077 LP  0  0  0  0  0  0  0  0  0  0  0  0  # atno 17343 bound_to 10162
  157.7464  130.9985  150.2856 LP  0  0  0  0  0  0  0  0  0  0  0  0  # atno 17370 bound_to 10713
  156.3343  130.3805  149.7463 LP  0  0  0  0  0  0  0  0  0  0  0  0  # atno 17371 bound_to 10713
  140.8520  133.8125  155.9178 LP  0  0  0  0  0  0  0  0  0  0  0  0  # atno 17394 bound_to 11000
  140.9135  134.2231  157.4971 LP  0  0  0  0  0  0  0  0  0  0  0  0  # atno 17395 bound_to 11000

$$$$
