AV-unprocessed.smi:1066|AV-procd|sdf|4671|dock7
  -GOLD-   22720 3183D 1   1.00000     0.00000
 Structure written by MMmdl.
 38 40  0  0  0  0  0  0  0  0  2 V2000
  148.1311  135.2255  155.8251 C   0  0  0  0  0  0  0  0  0  0  0  0
  149.0734  134.1353  156.2476 C   0  0  0  0  0  0  0  0  0  0  0  0
  149.2773  133.9136  157.5398 N   0  0  0  0  0  0  0  0  0  0  0  0
  150.1905  132.8559  157.6196 O   0  0  0  0  0  0  0  0  0  0  0  0
  150.4872  132.4928  156.3510 C   0  0  0  0  0  0  0  0  0  0  0  0
  151.5926  131.2257  155.9919 Cl  0  0  0  0  0  0  0  0  0  0  0  0
  149.8272  133.2482  155.4246 C   0  0  0  0  0  0  0  0  0  0  0  0
  149.8737  133.1809  153.9193 C   0  0  0  0  0  0  0  0  0  0  0  0
  148.4788  132.8695  153.3784 C   0  0  0  0  0  0  0  0  0  0  0  0
  147.9425  131.7925  153.6365 O   0  0  0  0  0  0  0  0  0  0  0  0
  147.8980  133.8254  152.6379 N   0  0  0  0  0  0  0  0  0  0  0  0
  146.5592  133.7411  152.0677 C   0  0  1  0  0  0  0  0  0  0  0  0
  145.7940  135.0609  152.0456 C   0  0  0  0  0  0  0  0  0  0  0  0
  144.7312  134.8117  150.9699 C   0  0  0  0  0  0  0  0  0  0  0  0
  145.3016  133.8161  150.0282 N   0  3  2  0  0  0  0  0  0  0  0  0
  144.3781  132.7048  149.7109 C   0  0  0  0  0  0  0  0  0  0  0  0
  143.3701  132.4280  150.8007 C   0  0  0  0  0  0  0  0  0  0  0  0
  144.5506  131.5013  150.6065 C   0  0  0  0  0  0  0  0  0  0  0  0
  146.5966  133.3680  150.5864 C   0  0  0  0  0  0  0  0  0  0  0  0
  148.4720  135.7066  154.9081 H   0  0  0  0  0  0  0  0  0  0  0  0
  148.0444  135.9993  156.5888 H   0  0  0  0  0  0  0  0  0  0  0  0
  147.1335  134.8272  155.6396 H   0  0  0  0  0  0  0  0  0  0  0  0
  150.2269  134.1175  153.4859 H   0  0  0  0  0  0  0  0  0  0  0  0
  150.5680  132.4116  153.5787 H   0  0  0  0  0  0  0  0  0  0  0  0
  148.4155  134.6776  152.4761 H   0  0  0  0  0  0  0  0  0  0  0  0
  145.9772  132.9913  152.6080 H   0  0  0  0  0  0  0  0  0  0  0  0
  145.3623  135.3212  153.0126 H   0  0  0  0  0  0  0  0  0  0  0  0
  146.4519  135.8757  151.7385 H   0  0  0  0  0  0  0  0  0  0  0  0
  143.8291  134.4136  151.4377 H   0  0  0  0  0  0  0  0  0  0  0  0
  144.4528  135.7283  150.4494 H   0  0  0  0  0  0  0  0  0  0  0  0
  144.1083  132.5814  148.6632 H   0  0  0  0  0  0  0  0  0  0  0  0
  143.3732  133.0692  151.6806 H   0  0  0  0  0  0  0  0  0  0  0  0
  142.3920  132.0588  150.4985 H   0  0  0  0  0  0  0  0  0  0  0  0
  144.3494  130.5222  150.1763 H   0  0  0  0  0  0  0  0  0  0  0  0
  145.3384  131.5260  151.3576 H   0  0  0  0  0  0  0  0  0  0  0  0
  147.3881  133.9187  150.0755 H   0  0  0  0  0  0  0  0  0  0  0  0
  146.7824  132.3045  150.4283 H   0  0  0  0  0  0  0  0  0  0  0  0
  145.5036  134.2918  149.1602 H   0  0  0  0  0  0  0  0  0  0  0  0
  1  2  1  0  0  0  0
  1 20  1  0  0  0  0
  1 21  1  0  0  0  0
  1 22  1  0  0  0  0
  2  7  1  0  0  0  0
  2  3  2  0  0  0  0
  3  4  1  0  0  0  0
  4  5  1  0  0  0  0
  5  6  1  0  0  0  0
  5  7  2  0  0  0  0
  7  8  1  0  0  0  0
  8  9  1  0  0  0  0
  8 23  1  0  0  0  0
  8 24  1  0  0  0  0
  9 10  2  0  0  0  0
  9 11  1  0  0  0  0
 11 12  1  0  0  0  0
 11 25  1  0  0  0  0
 12 19  1  0  0  0  0
 12 13  1  0  0  0  0
 12 26  1  0  0  0  0
 13 14  1  0  0  0  0
 13 27  1  0  0  0  0
 13 28  1  0  0  0  0
 14 15  1  0  0  0  0
 14 29  1  0  0  0  0
 14 30  1  0  0  0  0
 15 16  1  0  0  0  0
 15 19  1  0  0  0  0
 15 38  1  0  0  0  0
 16 18  1  0  0  0  0
 16 17  1  0  0  0  0
 16 31  1  0  0  0  0
 17 18  1  0  0  0  0
 17 32  1  0  0  0  0
 17 33  1  0  0  0  0
 18 34  1  0  0  0  0
 18 35  1  0  0  0  0
 19 36  1  0  0  0  0
 19 37  1  0  0  0  0
M  CHG  1  15   1
M  END
> <s_m_source_file>
AV-unprocessed.smi

> <i_m_source_file_index>
1066

> <i_lp_mmshare_version>
43012

> <i_f3d_flags>
0

> <s_epik_input>
W0NIM11jMW5vYyhDbCljMVtDSDJdQyg9TylbTkhdW0NAQEhdMltDSDJdW0NIMl1OKFtDSDJdMilbQ0hdM1tDSDJdW0NIMl0z

> <s_epik_cmdline>
J2VwaWtfcHl0aG9uJywgJy1waCcsICc3LjAnLCAnLXRuJywgJzgnLCAnLW1hJywgJzIwMCcsICctbWV0YWxfYmluZGluZycsICctaW1hZScsICc8aW5maWxlLm1hZT4nLCAnLW9tYWUnLCAnPG91dGZpbGUubWFlPic=

> <r_epik_Ionization_Penalty>
0.00108138

> <r_epik_Ionization_Penalty_Charging>
0.00108128

> <r_epik_Ionization_Penalty_Neutral>
9.66632e-08

> <r_epik_State_Penalty>
0.000708577

> <r_epik_Charging_Adjusted_Penalty>
0.00178986

> <i_epik_Tot_Q>
1

> <i_epik_Tot_abs_Q>
1

> <r_epik_Metal_State_Penalty>
-0

> <b_epik_Metal_Only>
0

> <s_lp_Force_Field>
OPLS_2005

> <r_lp_Energy>
31.8821

> <b_lp_Chiralities_Consistent>
1

> <s_lp_Variant>
AV-unprocessed.smi:1066-4

> <Gold.Version>
5.8.1

> <Gold.Id.Protein>
6NUR|6NUR_protein|mol2

> <Gold.PLP.Fitness>
41.5595

> <Gold.PLP.PLP>
-33.6931

> <Gold.PLP.part.hbond>
-3.0304

> <Gold.PLP.part.metal>
0.0000

> <Gold.PLP.part.buried>
-5.4773

> <Gold.PLP.part.nonpolar>
-25.2157

> <Gold.PLP.part.repulsive>
0.1615

> <Gold.PLP.ligand.clash>
0.0000

> <Gold.PLP.ligand.torsion>
1.2000

> <Gold.PLP.Chemscore.Hbond>
3.0000

> <Gold.PLP.Chemscore.CHOScore>
0.0000

> <Gold.PLP.Chemscore.Metal>
0.0000

> <Gold.Chemscore.Hbonds>
donor molecule, donor type, donor heavy atom, donor atom, acceptor molecule, acceptor atom, score
      L1  H    11    25       P1  7948  0.90
      L1  H    15    38       P1  7921  1.00
      P1  H  6896  6908       L1     4  0.15

> <Gold.PLP.Chemscore.Internal.Correction>
1.2664

> <Gold.Rescore>
     Score         DG    S(hbond)    S(metal)    S(lipo)     H(rot)  DE(clash)    DE(int)     intcor
     18.62     -19.75       2.78        0.00      76.93       1.57       0.01       1.11       ----

> <Gold.Chemscore.Fitness>
18.6233

> <Gold.Chemscore.DG>
-19.7463

> <Gold.Chemscore.ZeroCoef>
-5.4800

> <Gold.Chemscore.Hbond>
2.7807

> <Gold.Chemscore.Metal>
0.0000

> <Gold.Chemscore.Lipo>
76.9310

> <Gold.Chemscore.Internal_Hbond>
0.0000

> <Gold.Chemscore.DEClash>
0.0088

> <Gold.Chemscore.DEInternal>
1.1141

> <Gold.Chemscore.Rot>
1.5711

> <Gold.Chemscore.Internal.Correction>
   9.000000E+99

> <Gold.Chemscore.Hbonds>
donor molecule, donor type, donor heavy atom, donor atom, acceptor molecule, acceptor atom, score
      L1  H    11    25       P1  7948  0.18
      L1  H    15    38       P1  7921  0.91

> <Gold.Chemscore.Hbond.Weighted>
-9.2874

> <Gold.Chemscore.Metal.Weighted>
-0.0000

> <Gold.Chemscore.Lipo.Weighted>
-9.0009

> <Gold.Chemscore.Internal_Hbond.Weighted>
0.0000

> <Gold.Chemscore.DEClash.Weighted>
0.0088

> <Gold.Chemscore.DEInternal.Weighted>
1.1141

> <Gold.Chemscore.Rot.Weighted>
4.0221

> <Gold.Chemscore.Internal.Correction.Weighted>
   9.000000E+99

> <Gold.Protein.RotatedTorsions>
[ 6907 6896 6895 6894 ] final  121.94 input  -60.11 | X-H torsion
[ 7974 7965 7964 7962 ] final   24.21 input  175.53 | X-H torsion
[ 8008 7997 7996 7995 ] final  -89.46 input   59.86 | X-H torsion
[ 10167 10162 10161 10158 ] final   48.10 input  -65.29 | X-H torsion
[ 10718 10713 10712 10709 ] final -174.72 input   66.30 | X-H torsion
[ 10763 10752 10751 10750 ] final   68.25 input  -60.55 | X-H torsion
[ 11005 11000 10999 10996 ] final  159.88 input  -57.11 | X-H torsion

> <Gold.Protein.ActiveResidues>
 VAL166  LYS551  ARG553  GLY616  TRP617  ASP618  TYR619  PRO620  LYS621  CYS622 
 ASP623  PHE694  ASN695  SER759  ASP760  ASP761  ALA762  ILE779  LEU786  VAL792 
 PHE793  MET794  SER795  GLU796  ALA797  LYS798  CYS799  TRP800  GLU811  SER814 

> <Gold.Protein.RotatedAtoms>
  152.4282  133.7232  159.6544 H   0  0  0  0  0  0  0  0  0  0  0  0  # atno 6907 bound_to 6896
  150.8160  133.8326  159.3166 H   0  0  0  0  0  0  0  0  0  0  0  0  # atno 6908 bound_to 6896
  151.6022  135.1048  160.0114 H   0  0  0  0  0  0  0  0  0  0  0  0  # atno 6909 bound_to 6896
  146.1948  139.7636  142.8805 H   0  0  0  0  0  0  0  0  0  0  0  0  # atno 7974 bound_to 7965
  154.6869  140.0541  157.0323 H   0  0  0  0  0  0  0  0  0  0  0  0  # atno 8008 bound_to 7997
  155.0872  140.3215  155.4565 H   0  0  0  0  0  0  0  0  0  0  0  0  # atno 8009 bound_to 7997
  156.2714  140.2054  156.6000 H   0  0  0  0  0  0  0  0  0  0  0  0  # atno 8010 bound_to 7997
  140.2967  144.2982  150.6228 H   0  0  0  0  0  0  0  0  0  0  0  0  # atno 10167 bound_to 10162
  156.7892  130.9512  151.3120 H   0  0  0  0  0  0  0  0  0  0  0  0  # atno 10718 bound_to 10713
  153.0226  135.5254  154.7106 H   0  0  0  0  0  0  0  0  0  0  0  0  # atno 10763 bound_to 10752
  154.6189  135.2886  155.0350 H   0  0  0  0  0  0  0  0  0  0  0  0  # atno 10764 bound_to 10752
  154.1344  135.6588  153.4981 H   0  0  0  0  0  0  0  0  0  0  0  0  # atno 10765 bound_to 10752
  140.2005  134.8341  157.3013 H   0  0  0  0  0  0  0  0  0  0  0  0  # atno 11005 bound_to 11000
  145.3678  141.0337  143.3248 LP  0  0  0  0  0  0  0  0  0  0  0  0  # atno 17320 bound_to 7965
  144.8558  139.5251  143.6835 LP  0  0  0  0  0  0  0  0  0  0  0  0  # atno 17321 bound_to 7965
  140.5686  143.2183  151.7640 LP  0  0  0  0  0  0  0  0  0  0  0  0  # atno 17342 bound_to 10162
  139.4924  144.4249  151.9937 LP  0  0  0  0  0  0  0  0  0  0  0  0  # atno 17343 bound_to 10162
  157.6609  130.8965  149.9827 LP  0  0  0  0  0  0  0  0  0  0  0  0  # atno 17370 bound_to 10713
  156.1169  130.3647  149.9952 LP  0  0  0  0  0  0  0  0  0  0  0  0  # atno 17371 bound_to 10713
  140.2059  134.4197  155.7638 LP  0  0  0  0  0  0  0  0  0  0  0  0  # atno 17394 bound_to 11000
  141.2227  133.7094  156.8260 LP  0  0  0  0  0  0  0  0  0  0  0  0  # atno 17395 bound_to 11000

$$$$
