#       Name:                AV-unprocessed.smi:1625
#       Creating user name   scv26
#       Creation time:       Fri Mar 27 07:17:24 2020


#       File generated by GOLD software.
#

@<TRIPOS>MOLECULE
AV-unprocessed.smi:1625
    55    57     1
SMALL
NO_CHARGES


@<TRIPOS>ATOM
      1 ****         2.0960   0.2429  -1.0854 O.2            1 S1                 0.0000
      2 ****         1.5365  -0.8513  -1.1479 C.2            1 S1                 0.0000
      3 ****         2.1975  -2.0172  -1.1706 N.am           1 S1                 0.0000
      4 ****         3.6510  -2.1638  -1.1298 C.3            1 S1                 0.0000
      5 ****         4.2765  -1.7220   0.2113 C.3            1 S1                 0.0000
      6 ****         3.5505  -2.2532   1.3897 N.4            1 S1                 1.0000
      7 ****         3.6386  -3.7208   1.5800 C.3            1 S1                 0.0000
      8 ****         3.8352  -3.9632   3.0830 C.3            1 S1                 0.0000
      9 ****         3.5084  -2.6239   3.7369 C.3            1 S1                 0.0000
     10 ****         3.9186  -1.6159   2.6688 C.3            1 S1                 0.0000
     11 ****         0.2082  -1.0424  -1.2124 N.am           1 S1                 0.0000
     12 ****        -0.8222  -0.0662  -1.1558 C.ar           1 S1                 0.0000
     13 ****        -2.0840  -0.3984  -1.6850 C.ar           1 S1                 0.0000
     14 ****        -3.1257   0.5464  -1.6256 C.ar           1 S1                 0.0000
     15 ****        -2.8830   1.8055  -1.0277 C.ar           1 S1                 0.0000
     16 ****        -3.9095   2.7731  -0.9653 N.3            1 S1                 0.0000
     17 ****        -3.6896   3.9519  -0.1290 C.3            1 S1                 0.0000
     18 ****        -4.9988   4.7406   0.0414 C.3            1 S1                 0.0000
     19 ****        -5.5299   5.0688  -1.2379 O.3            1 S1                 0.0000
     20 ****        -5.8419   3.9042  -1.9948 C.3            1 S1                 0.0000
     21 ****        -4.5654   3.0792  -2.2346 C.3            1 S1                 0.0000
     22 ****        -1.6749   2.1140  -0.4951 N.ar           1 S1                 0.0000
     23 ****        -0.6774   1.2075  -0.5573 C.ar           1 S1                 0.0000
     24 ****         1.6561  -2.8669  -1.2403 H              1 S1                 0.0000
     25 ****         3.8776  -3.2148  -1.3108 H              1 S1                 0.0000
     26 ****         4.1002  -1.6095  -1.9551 H              1 S1                 0.0000
     27 ****         5.3268  -2.0133   0.2549 H              1 S1                 0.0000
     28 ****         4.2616  -0.6327   0.2665 H              1 S1                 0.0000
     29 ****         2.7144  -4.1768   1.2241 H              1 S1                 0.0000
     30 ****         4.4623  -4.1582   1.0140 H              1 S1                 0.0000
     31 ****         3.2163  -4.7769   3.4624 H              1 S1                 0.0000
     32 ****         4.8774  -4.2194   3.2787 H              1 S1                 0.0000
     33 ****         2.4358  -2.5519   3.9238 H              1 S1                 0.0000
     34 ****         4.0272  -2.4746   4.6844 H              1 S1                 0.0000
     35 ****         4.9982  -1.4596   2.7062 H              1 S1                 0.0000
     36 ****         3.4306  -0.6485   2.7922 H              1 S1                 0.0000
     37 ****        -0.1018  -1.9914  -1.3634 H              1 S1                 0.0000
     38 ****        -2.2556  -1.3652  -2.1355 H              1 S1                 0.0000
     39 ****        -4.0958   0.2904  -2.0246 H              1 S1                 0.0000
     40 ****        -3.3169   3.6555   0.8523 H              1 S1                 0.0000
     41 ****        -2.9301   4.5852  -0.5895 H              1 S1                 0.0000
     42 ****        -5.7284   4.1654   0.6140 H              1 S1                 0.0000
     43 ****        -4.8132   5.6605   0.5959 H              1 S1                 0.0000
     44 ****        -6.5964   3.3109  -1.4753 H              1 S1                 0.0000
     45 ****        -6.2768   4.2066  -2.9474 H              1 S1                 0.0000
     46 ****        -3.8716   3.6410  -2.8613 H              1 S1                 0.0000
     47 ****        -4.8270   2.1756  -2.7832 H              1 S1                 0.0000
     48 ****         0.2449   1.5192  -0.0923 H              1 S1                 0.0000
     49 ****         2.5718  -2.0442   1.2521 H              1 S1                 0.0000
     50 ****         3.0940   0.2927  -1.0486 LP             1 S1                 0.0000
     51 ****         1.5526   1.0822  -1.0714 LP             1 S1                 0.0000
     52 ****        -4.5795   2.2562  -0.4324 LP             1 S1                 0.0000
     53 ****        -4.8550   5.6098  -1.7396 LP             1 S1                 0.0000
     54 ****        -6.3634   5.6073  -1.1140 LP             1 S1                 0.0000
     55 ****        -1.5250   3.0025  -0.0615 LP             1 S1                 0.0000
@<TRIPOS>BOND
    1    1    2 2     
    2    2    3 am    
    3    2   11 am    
    4    3    4 1     
    5    3   24 1     
    6    4    5 1     
    7    4   25 1     
    8    4   26 1     
    9    5    6 1     
   10    5   27 1     
   11    5   28 1     
   12    6   10 1     
   13    6    7 1     
   14    6   49 1     
   15    7    8 1     
   16    7   29 1     
   17    7   30 1     
   18    8    9 1     
   19    8   31 1     
   20    8   32 1     
   21    9   10 1     
   22    9   33 1     
   23    9   34 1     
   24   10   35 1     
   25   10   36 1     
   26   11   12 1     
   27   11   37 1     
   28   12   23 ar    
   29   12   13 ar    
   30   13   14 ar    
   31   13   38 1     
   32   14   15 ar    
   33   14   39 1     
   34   15   16 1     
   35   15   22 ar    
   36   16   21 1     
   37   16   17 1     
   38   17   18 1     
   39   17   40 1     
   40   17   41 1     
   41   18   19 1     
   42   18   42 1     
   43   18   43 1     
   44   19   20 1     
   45   20   21 1     
   46   20   44 1     
   47   20   45 1     
   48   21   46 1     
   49   21   47 1     
   50   22   23 ar    
   51   23   48 1     
   52    1   50 1     
   53    1   51 1     
   54   16   52 1     
   55   19   53 1     
   56   19   54 1     
   57   22   55 1     
@<TRIPOS>SUBSTRUCTURE
      1 S1             1
@<TRIPOS>SET
LONE_PAIRS      STATIC     ATOMS    <user>   **** ""
6 50 51 52 53 54 55
DONOR_HYDROGENS      STATIC     ATOMS    <user>   **** ""
3 24 49 37
ATOM$BLUE        STATIC     ATOMS    COLORGROUP SYSTEM
6 50 51 52 53 54 55
ATOM$RED        STATIC     ATOMS    COLORGROUP SYSTEM
3 24 49 37
