AV-unprocessed.smi:3202|AV-procd|sdf|12246|dock1
  -GOLD-   2272018 83D 1   1.00000     0.00000
 Structure written by MMmdl.
 43 44  0  0  0  0  0  0  0  0  2 V2000
  143.9695  133.8350  152.0210 C   0  0  0  0  0  0  0  0  0  0  0  0
  144.5684  135.2087  151.9500 C   0  0  0  0  0  0  0  0  0  0  0  0
  145.9473  135.5702  151.9604 C   0  0  0  0  0  0  0  0  0  0  0  0
  145.9421  136.9352  151.8692 C   0  0  0  0  0  0  0  0  0  0  0  0
  147.0501  137.9414  151.8494 C   0  0  0  0  0  0  0  0  0  0  0  0
  147.1785  138.7903  153.1337 C   0  0  1  0  0  0  0  0  0  0  0  0
  146.1611  138.3636  154.2045 C   0  0  0  0  0  0  0  0  0  0  0  0
  148.5427  138.6808  153.7012 N   0  3  0  0  0  0  0  0  0  0  0  0
  148.8172  139.5036  154.9038 C   0  0  2  0  0  0  0  0  0  0  0  0
  149.4839  140.8512  154.6005 C   0  0  0  0  0  0  0  0  0  0  0  0
  150.2167  141.2408  155.8903 C   0  0  0  0  0  0  0  0  0  0  0  0
  150.1733  140.0055  156.8030 C   0  0  0  0  0  0  0  0  0  0  0  0
  149.7590  138.8167  155.9159 C   0  0  0  0  0  0  0  0  0  0  0  0
  149.0274  137.7381  156.7370 C   0  0  0  0  0  0  0  0  0  0  0  0
  151.0107  138.1984  155.2504 C   0  0  0  0  0  0  0  0  0  0  0  0
  144.6179  137.3077  151.8258 N   0  0  0  0  0  0  0  0  0  0  0  0
  143.7710  136.2627  151.8672 N   0  0  0  0  0  0  0  0  0  0  0  0
  144.2805  138.2579  151.7641 H   0  0  0  0  0  0  0  0  0  0  0  0
  144.7327  133.0826  152.2211 H   0  0  0  0  0  0  0  0  0  0  0  0
  143.4816  133.5710  151.0825 H   0  0  0  0  0  0  0  0  0  0  0  0
  143.2252  133.7694  152.8151 H   0  0  0  0  0  0  0  0  0  0  0  0
  146.8080  134.9210  152.0252 H   0  0  0  0  0  0  0  0  0  0  0  0
  146.8924  138.5907  150.9895 H   0  0  0  0  0  0  0  0  0  0  0  0
  147.9961  137.4313  151.6617 H   0  0  0  0  0  0  0  0  0  0  0  0
  146.9825  139.8361  152.8925 H   0  0  0  0  0  0  0  0  0  0  0  0
  145.1349  138.4906  153.8598 H   0  0  0  0  0  0  0  0  0  0  0  0
  146.2723  138.9617  155.1097 H   0  0  0  0  0  0  0  0  0  0  0  0
  146.2902  137.3164  154.4809 H   0  0  0  0  0  0  0  0  0  0  0  0
  148.6611  137.7189  153.9856 H   0  0  0  0  0  0  0  0  0  0  0  0
  147.8695  139.6998  155.4095 H   0  0  0  0  0  0  0  0  0  0  0  0
  150.2100  140.7459  153.7933 H   0  0  0  0  0  0  0  0  0  0  0  0
  148.7601  141.6080  154.2957 H   0  0  0  0  0  0  0  0  0  0  0  0
  151.2459  141.5249  155.6680 H   0  0  0  0  0  0  0  0  0  0  0  0
  149.7417  142.0940  156.3756 H   0  0  0  0  0  0  0  0  0  0  0  0
  151.1206  139.8397  157.3177 H   0  0  0  0  0  0  0  0  0  0  0  0
  149.4216  140.1724  157.5762 H   0  0  0  0  0  0  0  0  0  0  0  0
  149.6760  137.3247  157.5102 H   0  0  0  0  0  0  0  0  0  0  0  0
  148.7014  136.9119  156.1045 H   0  0  0  0  0  0  0  0  0  0  0  0
  148.1432  138.1395  157.2332 H   0  0  0  0  0  0  0  0  0  0  0  0
  151.6983  137.8071  156.0012 H   0  0  0  0  0  0  0  0  0  0  0  0
  151.5639  138.9267  154.6572 H   0  0  0  0  0  0  0  0  0  0  0  0
  150.7504  137.3682  154.5937 H   0  0  0  0  0  0  0  0  0  0  0  0
  149.2256  138.8827  152.9851 H   0  0  0  0  0  0  0  0  0  0  0  0
  1 19  1  0  0  0  0
  1 20  1  0  0  0  0
  1 21  1  0  0  0  0
  1  2  1  0  0  0  0
  2 17  2  0  0  0  0
  2  3  1  0  0  0  0
  3  4  2  0  0  0  0
  3 22  1  0  0  0  0
  4 16  1  0  0  0  0
  4  5  1  0  0  0  0
  5  6  1  0  0  0  0
  5 23  1  0  0  0  0
  5 24  1  0  0  0  0
  6  7  1  0  0  0  0
  6  8  1  0  0  0  0
  6 25  1  0  0  0  0
  7 26  1  0  0  0  0
  7 27  1  0  0  0  0
  7 28  1  0  0  0  0
  8  9  1  0  0  0  0
  8 29  1  0  0  0  0
  8 43  1  0  0  0  0
  9 13  1  0  0  0  0
  9 10  1  0  0  0  0
  9 30  1  0  0  0  0
 10 11  1  0  0  0  0
 10 31  1  0  0  0  0
 10 32  1  0  0  0  0
 11 12  1  0  0  0  0
 11 33  1  0  0  0  0
 11 34  1  0  0  0  0
 12 13  1  0  0  0  0
 12 35  1  0  0  0  0
 12 36  1  0  0  0  0
 13 14  1  0  0  0  0
 13 15  1  0  0  0  0
 14 37  1  0  0  0  0
 14 38  1  0  0  0  0
 14 39  1  0  0  0  0
 15 40  1  0  0  0  0
 15 41  1  0  0  0  0
 15 42  1  0  0  0  0
 16 17  1  0  0  0  0
 16 18  1  0  0  0  0
M  CHG  1   8   1
M  END
> <s_m_source_file>
AV-unprocessed.smi

> <i_m_source_file_index>
3202

> <i_lp_mmshare_version>
43012

> <i_f3d_flags>
0

> <s_epik_input>
W0NIM11jMVtjSF1jKG5bbkhdMSlbQ0gyXVtDQEhdKFtDSDNdKVtOSF1bQ0BASF0oQzIoW0NIM10pW0NIM10pW0NIMl1bQ0gyXVtDSDJdMg==

> <s_epik_cmdline>
J2VwaWtfcHl0aG9uJywgJy1waCcsICc3LjAnLCAnLXRuJywgJzgnLCAnLW1hJywgJzIwMCcsICctbWV0YWxfYmluZGluZycsICctaW1hZScsICc8aW5maWxlLm1hZT4nLCAnLW9tYWUnLCAnPG91dGZpbGUubWFlPic=

> <r_lp_tautomer_probability>
0.5

> <r_epik_Ionization_Penalty>
0.000449684

> <r_epik_Ionization_Penalty_Charging>
0.000404963

> <r_epik_Ionization_Penalty_Neutral>
4.47208e-05

> <r_epik_State_Penalty>
0.41068

> <r_epik_Charging_Adjusted_Penalty>
0.411085

> <i_epik_Tot_Q>
1

> <i_epik_Tot_abs_Q>
1

> <r_epik_Metal_State_Penalty>
0.410687

> <b_epik_Metal_Only>
0

> <s_lp_Force_Field>
OPLS_2005

> <r_lp_Energy>
31.7221

> <b_lp_Chiralities_Consistent>
1

> <s_lp_Variant>
AV-unprocessed.smi:3202-6

> <Gold.Version>
5.8.1

> <Gold.Id.Protein>
6NUR|6NUR_protein|mol2

> <Gold.PLP.Fitness>
39.9979

> <Gold.PLP.PLP>
-30.8555

> <Gold.PLP.part.hbond>
-4.0000

> <Gold.PLP.part.metal>
0.0000

> <Gold.PLP.part.buried>
2.1788

> <Gold.PLP.part.nonpolar>
-29.0540

> <Gold.PLP.part.repulsive>
1.3410

> <Gold.PLP.ligand.clash>
0.1350

> <Gold.PLP.ligand.torsion>
1.3361

> <Gold.PLP.Chemscore.Hbond>
3.9745

> <Gold.PLP.Chemscore.CHOScore>
0.0000

> <Gold.PLP.Chemscore.Metal>
0.0000

> <Gold.Chemscore.Hbonds>
donor molecule, donor type, donor heavy atom, donor atom, acceptor molecule, acceptor atom, score
      L1  H     8    43       P1  7957  0.55
      L1  H    16    18       P1 10175  0.16

> <Gold.PLP.Chemscore.Internal.Correction>
0.0261

> <Gold.Rescore>
     Score         DG    S(hbond)    S(metal)    S(lipo)     H(rot)  DE(clash)    DE(int)     intcor
     17.80     -20.75       2.85        0.00      81.24       1.46       1.55       1.41       ----

> <Gold.Chemscore.Fitness>
17.7950

> <Gold.Chemscore.DG>
-20.7538

> <Gold.Chemscore.ZeroCoef>
-5.4800

> <Gold.Chemscore.Hbond>
2.8457

> <Gold.Chemscore.Metal>
0.0000

> <Gold.Chemscore.Lipo>
81.2447

> <Gold.Chemscore.Internal_Hbond>
0.0000

> <Gold.Chemscore.DEClash>
1.5520

> <Gold.Chemscore.DEInternal>
1.4067

> <Gold.Chemscore.Rot>
1.4596

> <Gold.Chemscore.Internal.Correction>
   9.000000E+99

> <Gold.Chemscore.Hbonds>
donor molecule, donor type, donor heavy atom, donor atom, acceptor molecule, acceptor atom, score
      L1  H     8    43       P1  7957  0.53
      L1  H    16    18       P1 10175  0.17

> <Gold.Chemscore.Hbond.Weighted>
-9.5046

> <Gold.Chemscore.Metal.Weighted>
-0.0000

> <Gold.Chemscore.Lipo.Weighted>
-9.5056

> <Gold.Chemscore.Internal_Hbond.Weighted>
0.0000

> <Gold.Chemscore.DEClash.Weighted>
1.5520

> <Gold.Chemscore.DEInternal.Weighted>
1.4067

> <Gold.Chemscore.Rot.Weighted>
3.7365

> <Gold.Chemscore.Internal.Correction.Weighted>
   9.000000E+99

> <Gold.Protein.RotatedTorsions>
[ 6907 6896 6895 6894 ] final  -57.44 input  -60.11 | X-H torsion
[ 7974 7965 7964 7962 ] final  177.19 input  175.53 | X-H torsion
[ 8008 7997 7996 7995 ] final  -29.90 input   59.86 | X-H torsion
[ 10167 10162 10161 10158 ] final  -15.26 input  -65.29 | X-H torsion
[ 10718 10713 10712 10709 ] final  -63.61 input   66.30 | X-H torsion
[ 10763 10752 10751 10750 ] final  170.27 input  -60.55 | X-H torsion
[ 11005 11000 10999 10996 ] final  175.04 input  -57.11 | X-H torsion

> <Gold.Protein.ActiveResidues>
 VAL166  LYS551  ARG553  GLY616  TRP617  ASP618  TYR619  PRO620  LYS621  CYS622 
 ASP623  PHE694  ASN695  SER759  ASP760  ASP761  ALA762  ILE779  LEU786  VAL792 
 PHE793  MET794  SER795  GLU796  ALA797  LYS798  CYS799  TRP800  GLU811  SER814 

> <Gold.Protein.RotatedAtoms>
  150.8086  134.7226  159.6666 H   0  0  0  0  0  0  0  0  0  0  0  0  # atno 6907 bound_to 6896
  152.4205  134.5960  159.9997 H   0  0  0  0  0  0  0  0  0  0  0  0  # atno 6908 bound_to 6896
  151.6176  133.3304  159.3117 H   0  0  0  0  0  0  0  0  0  0  0  0  # atno 6909 bound_to 6896
  144.7172  140.0210  143.6440 H   0  0  0  0  0  0  0  0  0  0  0  0  # atno 7974 bound_to 7965
  154.4271  140.1805  156.1322 H   0  0  0  0  0  0  0  0  0  0  0  0  # atno 8008 bound_to 7997
  156.0058  140.3355  155.6866 H   0  0  0  0  0  0  0  0  0  0  0  0  # atno 8009 bound_to 7997
  155.6179  140.0657  157.2677 H   0  0  0  0  0  0  0  0  0  0  0  0  # atno 8010 bound_to 7997
  140.7215  143.5237  150.9603 H   0  0  0  0  0  0  0  0  0  0  0  0  # atno 10167 bound_to 10162
  156.0780  130.4223  150.1302 H   0  0  0  0  0  0  0  0  0  0  0  0  # atno 10718 bound_to 10713
  154.3952  135.2754  155.2130 H   0  0  0  0  0  0  0  0  0  0  0  0  # atno 10763 bound_to 10752
  154.4179  135.6007  153.5995 H   0  0  0  0  0  0  0  0  0  0  0  0  # atno 10764 bound_to 10752
  152.9831  135.5965  154.4213 H   0  0  0  0  0  0  0  0  0  0  0  0  # atno 10765 bound_to 10752
  140.3578  134.7139  157.4311 H   0  0  0  0  0  0  0  0  0  0  0  0  # atno 11005 bound_to 11000
  146.0181  139.3227  143.0830 LP  0  0  0  0  0  0  0  0  0  0  0  0  # atno 17320 bound_to 7965
  145.8602  140.9480  143.0704 LP  0  0  0  0  0  0  0  0  0  0  0  0  # atno 17321 bound_to 7965
  139.8955  143.6900  152.3139 LP  0  0  0  0  0  0  0  0  0  0  0  0  # atno 17342 bound_to 10162
  139.7231  144.7598  151.0922 LP  0  0  0  0  0  0  0  0  0  0  0  0  # atno 17343 bound_to 10162
  156.9339  130.9723  151.3528 LP  0  0  0  0  0  0  0  0  0  0  0  0  # atno 17370 bound_to 10713
  157.5884  130.8426  149.8623 LP  0  0  0  0  0  0  0  0  0  0  0  0  # atno 17371 bound_to 10713
  140.0651  134.5941  155.8705 LP  0  0  0  0  0  0  0  0  0  0  0  0  # atno 17394 bound_to 11000
  141.1993  133.6606  156.5837 LP  0  0  0  0  0  0  0  0  0  0  0  0  # atno 17395 bound_to 11000

$$$$
