#       Name:                AV-unprocessed.smi:779
#       Creating user name   scv26
#       Creation time:       Fri Mar 27 01:12:51 2020


#       File generated by GOLD software.
#

@<TRIPOS>MOLECULE
AV-unprocessed.smi:779
    31    31     1
SMALL
NO_CHARGES


@<TRIPOS>ATOM
      1 ****        -2.4188   2.9026   0.4238 O.co2          1 S1                 0.0000
      2 ****        -2.9451   1.7697   0.5055 C.2            1 S1                 0.0000
      3 ****        -4.1753   1.5439   0.5449 O.co2          1 S1                -1.0000
      4 ****        -1.9197   0.5551   0.5381 C.2            1 S1                 0.0000
      5 ****        -0.5840   0.7023   0.4067 C.2            1 S1                 0.0000
      6 ****         0.3014  -0.3868   0.4235 N.am           1 S1                 0.0000
      7 ****         1.7331  -0.1009   0.2614 C.3            1 S1                 0.0000
      8 ****         2.1585  -0.2133  -1.2110 C.3            1 S1                 0.0000
      9 ****         3.5208   0.1302  -1.3464 O.3            1 S1                 0.0000
     10 ****        -0.1803  -1.6557   0.5558 C.2            1 S1                 0.0000
     11 ****         0.6123  -2.5989   0.5421 O.2            1 S1                 0.0000
     12 ****        -1.5283  -1.8360   0.6961 N.pl3          1 S1                -1.0000
     13 ****        -2.4417  -0.8195   0.7035 C.2            1 S1                 0.0000
     14 ****        -3.6397  -1.0633   0.8465 O.2            1 S1                 0.0000
     15 ****        -0.1103   1.6637   0.2708 H              1 S1                 0.0000
     16 ****         1.9545   0.9011   0.6323 H              1 S1                 0.0000
     17 ****         2.3316  -0.7718   0.8802 H              1 S1                 0.0000
     18 ****         2.0092  -1.2276  -1.5824 H              1 S1                 0.0000
     19 ****         1.5633   0.4542  -1.8348 H              1 S1                 0.0000
     20 ****         3.7587   0.0502  -2.2573 H              1 S1                 0.0000
     21 ****        -2.9942   3.7196   0.3845 LP             1 S1                 0.0000
     22 ****        -1.4230   2.9907   0.3979 LP             1 S1                 0.0000
     23 ****        -4.8245   2.3038   0.5107 LP             1 S1                 0.0000
     24 ****        -4.5092   0.6036   0.6106 LP             1 S1                 0.0000
     25 ****         4.0815  -0.4877  -0.7952 LP             1 S1                 0.0000
     26 ****         3.6638   1.0717  -1.0412 LP             1 S1                 0.0000
     27 ****         1.5917  -2.4274   0.4352 LP             1 S1                 0.0000
     28 ****         0.2762  -3.5358   0.6379 LP             1 S1                 0.0000
     29 ****        -1.8674  -2.7710   0.7999 LP             1 S1                 0.0000
     30 ****        -4.3045  -0.3163   0.8542 LP             1 S1                 0.0000
     31 ****        -3.9482  -2.0083   0.9551 LP             1 S1                 0.0000
@<TRIPOS>BOND
    1    1    2 ar    
    2    2    3 ar    
    3    2    4 1     
    4    4   13 1     
    5    4    5 2     
    6    5    6 1     
    7    5   15 1     
    8    6    7 1     
    9    6   10 am    
   10    7    8 1     
   11    7   16 1     
   12    7   17 1     
   13    8    9 1     
   14    8   18 1     
   15    8   19 1     
   16    9   20 1     
   17   10   11 2     
   18   10   12 1     
   19   12   13 1     
   20   13   14 2     
   21    1   21 1     
   22    1   22 1     
   23    3   23 1     
   24    3   24 1     
   25    9   25 1     
   26    9   26 1     
   27   11   27 1     
   28   11   28 1     
   29   12   29 1     
   30   14   30 1     
   31   14   31 1     
@<TRIPOS>SUBSTRUCTURE
      1 S1             1
@<TRIPOS>SET
LONE_PAIRS      STATIC     ATOMS    <user>   **** ""
11 21 22 23 24 25 26 27 28 29 30 31
DONOR_HYDROGENS      STATIC     ATOMS    <user>   **** ""
1 20
ATOM$BLUE        STATIC     ATOMS    COLORGROUP SYSTEM
11 21 22 23 24 25 26 27 28 29 30 31
ATOM$RED        STATIC     ATOMS    COLORGROUP SYSTEM
1 20
