AV-unprocessed.smi:2913|AV-procd|sdf|11182|dock1
  -GOLD-   2272016 73D 1   1.00000     0.00000
 Structure written by MMmdl.
 41 42  0  0  0  0  0  0  0  0  1 V2000
  145.2862  135.6317  151.9926 C   0  0  0  0  0  0  0  0  0  0  0  0
  145.2767  134.1852  151.5264 C   0  0  0  0  0  0  0  0  0  0  0  0
  144.1932  133.6923  150.8859 C   0  0  0  0  0  0  0  0  0  0  0  0
  144.1145  132.3103  150.4103 C   0  0  0  0  0  0  0  0  0  0  0  0
  143.1245  131.8718  149.8243 O   0  0  0  0  0  0  0  0  0  0  0  0
  145.2088  131.5404  150.6610 N   0  0  0  0  0  0  0  0  0  0  0  0
  145.2263  130.1388  150.2336 C   0  0  0  0  0  0  0  0  0  0  0  0
  146.3410  132.0392  151.3269 C   0  0  0  0  0  0  0  0  0  0  0  0
  146.4243  133.3172  151.7589 C   0  0  0  0  0  0  0  0  0  0  0  0
  147.5311  133.8544  152.4381 N   0  0  0  0  0  0  0  0  0  0  0  0
  148.2706  133.3215  153.4288 C   0  0  0  0  0  0  0  0  0  0  0  0
  148.1275  132.1987  153.9116 O   0  0  0  0  0  0  0  0  0  0  0  0
  149.2243  134.1790  153.8205 N   0  0  0  0  0  0  0  0  0  0  0  0
  150.2386  133.9291  154.8435 C   0  0  2  0  0  0  0  0  0  0  0  0
  150.7244  135.2729  155.4063 C   0  0  0  0  0  0  0  0  0  0  0  0
  151.3934  133.0992  154.2487 C   0  0  2  0  0  0  0  0  0  0  0  0
  150.9557  131.9886  153.2899 C   0  0  0  0  0  0  0  0  0  0  0  0
  152.1134  131.0232  153.3888 C   0  0  0  0  0  0  0  0  0  0  0  0
  152.4482  131.1016  154.8743 C   0  0  0  0  0  0  0  0  0  0  0  0
  152.1125  132.4259  155.2808 O   0  0  0  0  0  0  0  0  0  0  0  0
  144.3632  136.1486  151.7275 H   0  0  0  0  0  0  0  0  0  0  0  0
  146.1158  136.1720  151.5354 H   0  0  0  0  0  0  0  0  0  0  0  0
  145.3987  135.6801  153.0760 H   0  0  0  0  0  0  0  0  0  0  0  0
  143.3429  134.3358  150.7120 H   0  0  0  0  0  0  0  0  0  0  0  0
  146.1578  129.6297  150.4834 H   0  0  0  0  0  0  0  0  0  0  0  0
  145.0984  130.0662  149.1528 H   0  0  0  0  0  0  0  0  0  0  0  0
  144.4162  129.5843  150.7094 H   0  0  0  0  0  0  0  0  0  0  0  0
  147.1151  131.3017  151.4642 H   0  0  0  0  0  0  0  0  0  0  0  0
  147.8142  134.7686  152.1176 H   0  0  0  0  0  0  0  0  0  0  0  0
  149.2650  135.0773  153.3619 H   0  0  0  0  0  0  0  0  0  0  0  0
  149.8079  133.3609  155.6697 H   0  0  0  0  0  0  0  0  0  0  0  0
  151.4595  135.1258  156.1978 H   0  0  0  0  0  0  0  0  0  0  0  0
  149.8968  135.8422  155.8309 H   0  0  0  0  0  0  0  0  0  0  0  0
  151.1880  135.8849  154.6320 H   0  0  0  0  0  0  0  0  0  0  0  0
  152.0973  133.7529  153.7308 H   0  0  0  0  0  0  0  0  0  0  0  0
  150.0414  131.5107  153.6453 H   0  0  0  0  0  0  0  0  0  0  0  0
  150.7822  132.3449  152.2741 H   0  0  0  0  0  0  0  0  0  0  0  0
  151.8632  130.0144  153.0592 H   0  0  0  0  0  0  0  0  0  0  0  0
  152.9537  131.3822  152.7928 H   0  0  0  0  0  0  0  0  0  0  0  0
  151.8329  130.4008  155.4398 H   0  0  0  0  0  0  0  0  0  0  0  0
  153.4945  130.8742  155.0783 H   0  0  0  0  0  0  0  0  0  0  0  0
  1  2  1  0  0  0  0
  1 21  1  0  0  0  0
  1 22  1  0  0  0  0
  1 23  1  0  0  0  0
  2  9  1  0  0  0  0
  2  3  2  0  0  0  0
  3  4  1  0  0  0  0
  3 24  1  0  0  0  0
  4  5  2  0  0  0  0
  4  6  1  0  0  0  0
  6  7  1  0  0  0  0
  6  8  1  0  0  0  0
  7 25  1  0  0  0  0
  7 26  1  0  0  0  0
  7 27  1  0  0  0  0
  8  9  2  0  0  0  0
  8 28  1  0  0  0  0
  9 10  1  0  0  0  0
 10 11  1  0  0  0  0
 10 29  1  0  0  0  0
 11 12  2  0  0  0  0
 11 13  1  0  0  0  0
 13 14  1  0  0  0  0
 13 30  1  0  0  0  0
 14 15  1  0  0  0  0
 14 16  1  0  0  0  0
 14 31  1  0  0  0  0
 15 32  1  0  0  0  0
 15 33  1  0  0  0  0
 15 34  1  0  0  0  0
 16 20  1  0  0  0  0
 16 17  1  0  0  0  0
 16 35  1  0  0  0  0
 17 18  1  0  0  0  0
 17 36  1  0  0  0  0
 17 37  1  0  0  0  0
 18 19  1  0  0  0  0
 18 38  1  0  0  0  0
 18 39  1  0  0  0  0
 19 20  1  0  0  0  0
 19 40  1  0  0  0  0
 19 41  1  0  0  0  0
M  END
> <s_m_source_file>
AV-unprocessed.smi

> <i_m_source_file_index>
2913

> <i_lp_mmshare_version>
43012

> <i_f3d_flags>
0

> <s_epik_input>
W0NIM11jMVtjSF1jKD1PKW4oW0NIM10pW2NIXWMxW05IXUMoPU8pW05IXVtDQEhdKFtDSDNdKVtDQEBIXTJbQ0gyXVtDSDJdW0NIMl1PMg==

> <s_epik_cmdline>
J2VwaWtfcHl0aG9uJywgJy1waCcsICc3LjAnLCAnLXRuJywgJzgnLCAnLW1hJywgJzIwMCcsICctbWV0YWxfYmluZGluZycsICctaW1hZScsICc8aW5maWxlLm1hZT4nLCAnLW9tYWUnLCAnPG91dGZpbGUubWFlPic=

> <r_lp_tautomer_probability>
1

> <r_epik_Ionization_Penalty>
2.72039e-05

> <r_epik_Ionization_Penalty_Charging>
8.03976e-06

> <r_epik_Ionization_Penalty_Neutral>
1.91642e-05

> <r_epik_State_Penalty>
-0

> <r_epik_Charging_Adjusted_Penalty>
8.03976e-06

> <i_epik_Tot_Q>
0

> <i_epik_Tot_abs_Q>
0

> <r_epik_Metal_State_Penalty>
-0

> <b_epik_Metal_Only>
0

> <s_lp_Force_Field>
OPLS_2005

> <r_lp_Energy>
32.2239

> <b_lp_Chiralities_Consistent>
1

> <s_lp_Variant>
AV-unprocessed.smi:2913-1

> <Gold.Version>
5.8.1

> <Gold.Id.Protein>
6NUR|6NUR_protein|mol2

> <Gold.PLP.Fitness>
40.8331

> <Gold.PLP.PLP>
-33.2632

> <Gold.PLP.part.hbond>
-4.0000

> <Gold.PLP.part.metal>
0.0000

> <Gold.PLP.part.buried>
-7.2370

> <Gold.PLP.part.nonpolar>
-24.4745

> <Gold.PLP.part.repulsive>
0.4783

> <Gold.PLP.ligand.clash>
0.0000

> <Gold.PLP.ligand.torsion>
1.0545

> <Gold.PLP.Chemscore.Hbond>
3.2203

> <Gold.PLP.Chemscore.CHOScore>
0.0000

> <Gold.PLP.Chemscore.Metal>
0.0000

> <Gold.Chemscore.Hbonds>
donor molecule, donor type, donor heavy atom, donor atom, acceptor molecule, acceptor atom, score
      L1  H    10    29       P1  7948  1.00
      L1  H    13    30       P1  7948  0.75
      P1  H 10785 10796       L1     5  0.98
      L1  C     8    28       P1 10747  1.00

> <Gold.PLP.Chemscore.Internal.Correction>
0.0181

> <Gold.Rescore>
     Score         DG    S(hbond)    S(metal)    S(lipo)     H(rot)  DE(clash)    DE(int)     intcor
     16.73     -19.74       2.78        0.00      69.06       1.21       1.79       1.22       ----

> <Gold.Chemscore.Fitness>
16.7348

> <Gold.Chemscore.DG>
-19.7423

> <Gold.Chemscore.ZeroCoef>
-5.4800

> <Gold.Chemscore.Hbond>
2.7784

> <Gold.Chemscore.Metal>
0.0000

> <Gold.Chemscore.Lipo>
69.0626

> <Gold.Chemscore.Internal_Hbond>
0.0000

> <Gold.Chemscore.DEClash>
1.7858

> <Gold.Chemscore.DEInternal>
1.2217

> <Gold.Chemscore.Rot>
1.2101

> <Gold.Chemscore.Internal.Correction>
   9.000000E+99

> <Gold.Chemscore.Hbonds>
donor molecule, donor type, donor heavy atom, donor atom, acceptor molecule, acceptor atom, score
      L1  H    10    29       P1  7948  0.60
      L1  H    13    30       P1  7948  0.09
      P1  H 10785 10796       L1     5  0.90

> <Gold.Chemscore.Hbond.Weighted>
-9.2800

> <Gold.Chemscore.Metal.Weighted>
-0.0000

> <Gold.Chemscore.Lipo.Weighted>
-8.0803

> <Gold.Chemscore.Internal_Hbond.Weighted>
0.0000

> <Gold.Chemscore.DEClash.Weighted>
1.7858

> <Gold.Chemscore.DEInternal.Weighted>
1.2217

> <Gold.Chemscore.Rot.Weighted>
3.0979

> <Gold.Chemscore.Internal.Correction.Weighted>
   9.000000E+99

> <Gold.Protein.RotatedTorsions>
[ 6907 6896 6895 6894 ] final   -3.67 input  -60.11 | X-H torsion
[ 7974 7965 7964 7962 ] final  -67.76 input  175.53 | X-H torsion
[ 8008 7997 7996 7995 ] final   36.20 input   59.86 | X-H torsion
[ 10167 10162 10161 10158 ] final    8.79 input  -65.29 | X-H torsion
[ 10718 10713 10712 10709 ] final   25.81 input   66.30 | X-H torsion
[ 10763 10752 10751 10750 ] final -115.30 input  -60.55 | X-H torsion
[ 11005 11000 10999 10996 ] final -139.02 input  -57.11 | X-H torsion

> <Gold.Protein.ActiveResidues>
 VAL166  LYS551  ARG553  GLY616  TRP617  ASP618  TYR619  PRO620  LYS621  CYS622 
 ASP623  PHE694  ASN695  SER759  ASP760  ASP761  ALA762  ILE779  LEU786  VAL792 
 PHE793  MET794  SER795  GLU796  ALA797  LYS798  CYS799  TRP800  GLU811  SER814 

> <Gold.Protein.RotatedAtoms>
  151.5100  135.1064  159.9851 H   0  0  0  0  0  0  0  0  0  0  0  0  # atno 6907 bound_to 6896
  152.4666  133.7932  159.6923 H   0  0  0  0  0  0  0  0  0  0  0  0  # atno 6908 bound_to 6896
  150.8652  133.7521  159.3004 H   0  0  0  0  0  0  0  0  0  0  0  0  # atno 6909 bound_to 6896
  145.7250  140.9022  143.0610 H   0  0  0  0  0  0  0  0  0  0  0  0  # atno 7974 bound_to 7965
  155.1834  140.3302  155.4371 H   0  0  0  0  0  0  0  0  0  0  0  0  # atno 8008 bound_to 7997
  156.2468  140.1923  156.6882 H   0  0  0  0  0  0  0  0  0  0  0  0  # atno 8009 bound_to 7997
  154.6255  140.0589  156.9654 H   0  0  0  0  0  0  0  0  0  0  0  0  # atno 8010 bound_to 7997
  140.6293  143.8030  150.7274 H   0  0  0  0  0  0  0  0  0  0  0  0  # atno 10167 bound_to 10162
  157.1984  130.6878  149.6178 H   0  0  0  0  0  0  0  0  0  0  0  0  # atno 10718 bound_to 10713
  154.8476  135.4386  154.1642 H   0  0  0  0  0  0  0  0  0  0  0  0  # atno 10763 bound_to 10752
  153.2771  135.6950  153.7428 H   0  0  0  0  0  0  0  0  0  0  0  0  # atno 10764 bound_to 10752
  153.6646  135.3429  155.3112 H   0  0  0  0  0  0  0  0  0  0  0  0  # atno 10765 bound_to 10752
  140.8560  134.2227  157.4734 H   0  0  0  0  0  0  0  0  0  0  0  0  # atno 11005 bound_to 11000
  144.6907  139.9254  143.7469 LP  0  0  0  0  0  0  0  0  0  0  0  0  # atno 17320 bound_to 7965
  146.0590  139.3585  143.0593 LP  0  0  0  0  0  0  0  0  0  0  0  0  # atno 17321 bound_to 7965
  140.1637  143.4253  152.2049 LP  0  0  0  0  0  0  0  0  0  0  0  0  # atno 17342 bound_to 10162
  139.5509  144.7337  151.4438 LP  0  0  0  0  0  0  0  0  0  0  0  0  # atno 17343 bound_to 10162
  155.9703  130.4591  150.6023 LP  0  0  0  0  0  0  0  0  0  0  0  0  # atno 17370 bound_to 10713
  157.3791  131.0778  151.1492 LP  0  0  0  0  0  0  0  0  0  0  0  0  # atno 17371 bound_to 10713
  139.8705  134.9706  156.4709 LP  0  0  0  0  0  0  0  0  0  0  0  0  # atno 17394 bound_to 11000
  140.8736  133.7970  155.9391 LP  0  0  0  0  0  0  0  0  0  0  0  0  # atno 17395 bound_to 11000

$$$$
