#       Name:                AV-unprocessed.smi:2976
#       Creating user name   scv26
#       Creation time:       Fri Mar 27 16:27:45 2020


#       File generated by GOLD software.
#

@<TRIPOS>MOLECULE
AV-unprocessed.smi:2976
    45    46     1
SMALL
NO_CHARGES


@<TRIPOS>ATOM
      1 ****        -2.2634  -2.6315  -1.4003 C.3            1 S1                 0.0000
      2 ****        -1.7258  -1.9176  -0.1474 C.3            1 S1                 0.0000
      3 ****        -2.2594  -2.6164   1.1206 C.3            1 S1                 0.0000
      4 ****        -1.7447  -1.9564   2.4070 C.3            1 S1                 0.0000
      5 ****        -2.0822  -0.4579   2.4322 C.3            1 S1                 0.0000
      6 ****        -1.5507   0.2710   1.1841 C.3            1 S1                 0.0000
      7 ****        -0.0882   0.3237   1.2326 N.am           1 S1                 0.0000
      8 ****         0.6804   1.3815   0.9308 C.2            1 S1                 0.0000
      9 ****         0.2306   2.4791   0.6004 O.2            1 S1                 0.0000
     10 ****         2.1957   1.1633   1.0232 C.3            1 S1                 0.0000
     11 ****         2.9031   1.6583  -0.1660 N.am           1 S1                 0.0000
     12 ****         3.5358   2.8754   0.0158 N.2            1 S1                 0.0000
     13 ****         4.1742   3.4109  -0.9671 C.2            1 S1                 0.0000
     14 ****         4.2599   2.7802  -2.2658 C.2            1 S1                 0.0000
     15 ****         5.1309   3.5472  -3.5466 Cl             1 S1                 0.0000
     16 ****         3.6412   1.5842  -2.4315 C.2            1 S1                 0.0000
     17 ****         3.6999   0.7673  -3.9557 Cl             1 S1                 0.0000
     18 ****         2.9047   0.9431  -1.3334 C.2            1 S1                 0.0000
     19 ****         2.3341  -0.1434  -1.4425 O.2            1 S1                 0.0000
     20 ****        -2.0651  -0.4009  -0.1191 C.3            1 S1                 0.0000
     21 ****        -1.5891   0.3487  -1.3803 C.3            1 S1                 0.0000
     22 ****        -3.3406  -2.4974  -1.5023 H              1 S1                 0.0000
     23 ****        -2.0657  -3.7028  -1.3548 H              1 S1                 0.0000
     24 ****        -1.7901  -2.2621  -2.3097 H              1 S1                 0.0000
     25 ****        -0.6401  -2.0262  -0.1559 H              1 S1                 0.0000
     26 ****        -3.3502  -2.5987   1.1181 H              1 S1                 0.0000
     27 ****        -1.9705  -3.6681   1.1162 H              1 S1                 0.0000
     28 ****        -2.1820  -2.4491   3.2759 H              1 S1                 0.0000
     29 ****        -0.6662  -2.0979   2.4853 H              1 S1                 0.0000
     30 ****        -3.1649  -0.3368   2.4851 H              1 S1                 0.0000
     31 ****        -1.6818   0.0007   3.3374 H              1 S1                 0.0000
     32 ****        -1.9425   1.2891   1.2200 H              1 S1                 0.0000
     33 ****         0.3797  -0.5318   1.4941 H              1 S1                 0.0000
     34 ****         2.5550   1.6706   1.9203 H              1 S1                 0.0000
     35 ****         2.4194   0.1055   1.1761 H              1 S1                 0.0000
     36 ****         4.6849   4.3693  -0.8721 H              1 S1                 0.0000
     37 ****        -3.1528  -0.3139  -0.1048 H              1 S1                 0.0000
     38 ****        -0.5254   0.1965  -1.5633 H              1 S1                 0.0000
     39 ****        -1.7602   1.4212  -1.2854 H              1 S1                 0.0000
     40 ****        -2.1278   0.0220  -2.2693 H              1 S1                 0.0000
     41 ****        -0.7581   2.6183   0.5456 LP             1 S1                 0.0000
     42 ****         0.8540   3.2312   0.3868 LP             1 S1                 0.0000
     43 ****         3.4979   3.3357   0.9027 LP             1 S1                 0.0000
     44 ****         1.8469  -0.5330  -0.6610 LP             1 S1                 0.0000
     45 ****         2.3581  -0.6356  -2.3127 LP             1 S1                 0.0000
@<TRIPOS>BOND
    1    1    2 1     
    2    1   22 1     
    3    1   23 1     
    4    1   24 1     
    5    2   20 1     
    6    2    3 1     
    7    2   25 1     
    8    3    4 1     
    9    3   26 1     
   10    3   27 1     
   11    4    5 1     
   12    4   28 1     
   13    4   29 1     
   14    5    6 1     
   15    5   30 1     
   16    5   31 1     
   17    6    7 1     
   18    6   20 1     
   19    6   32 1     
   20    7    8 am    
   21    7   33 1     
   22    8    9 2     
   23    8   10 1     
   24   10   11 1     
   25   10   34 1     
   26   10   35 1     
   27   11   18 am    
   28   11   12 1     
   29   12   13 2     
   30   13   14 1     
   31   13   36 1     
   32   14   15 1     
   33   14   16 2     
   34   16   17 1     
   35   16   18 1     
   36   18   19 2     
   37   20   21 1     
   38   20   37 1     
   39   21   38 1     
   40   21   39 1     
   41   21   40 1     
   42    9   41 1     
   43    9   42 1     
   44   12   43 1     
   45   19   44 1     
   46   19   45 1     
@<TRIPOS>SUBSTRUCTURE
      1 S1             1
@<TRIPOS>SET
LONE_PAIRS      STATIC     ATOMS    <user>   **** ""
5 41 42 43 44 45
DONOR_HYDROGENS      STATIC     ATOMS    <user>   **** ""
1 33
ATOM$BLUE        STATIC     ATOMS    COLORGROUP SYSTEM
5 41 42 43 44 45
ATOM$RED        STATIC     ATOMS    COLORGROUP SYSTEM
1 33
