AV-unprocessed.smi:2685|AV-procd|sdf|10383|dock5
  -GOLD-   2272014413D 1   1.00000     0.00000
 Structure written by MMmdl.
 21 21  0  0  0  0  0  0  0  0  3 V2000
  150.1554  135.7250  156.3903 C   0  0  0  0  0  0  0  0  0  0  0  0
  151.1364  136.8385  156.7096 C   0  0  0  0  0  0  0  0  0  0  0  0
  152.3290  136.7894  156.2359 N   0  0  0  0  0  0  0  0  0  0  0  0
  153.2804  137.7903  156.5119 C   0  0  0  0  0  0  0  0  0  0  0  0
  154.4054  137.6951  156.0262 O   0  0  0  0  0  0  0  0  0  0  0  0
  152.9162  138.8390  157.3161 N   0  5  0  0  0  0  0  0  0  0  0  0
  151.6656  138.9188  157.8359 C   0  0  0  0  0  0  0  0  0  0  0  0
  151.3783  140.1222  158.7217 C   0  0  0  0  0  0  0  0  0  0  0  0
  150.6911  137.9675  157.5714 C   0  0  0  0  0  0  0  0  0  0  0  0
  149.2628  138.0039  158.1219 C   0  0  0  0  0  0  0  0  0  0  0  0
  148.9493  136.9494  159.1910 C   0  0  0  0  0  0  0  0  0  0  0  0
  149.5289  135.8477  159.0716 O   0  0  0  0  0  0  0  0  0  0  0  0
  148.1399  137.2424  160.0993 O   0  5  0  0  0  0  0  0  0  0  0  0
  149.7344  135.3090  157.3056 H   0  0  0  0  0  0  0  0  0  0  0  0
  150.6499  134.9154  155.8521 H   0  0  0  0  0  0  0  0  0  0  0  0
  149.3451  136.0995  155.7649 H   0  0  0  0  0  0  0  0  0  0  0  0
  150.6602  140.7899  158.2460 H   0  0  0  0  0  0  0  0  0  0  0  0
  152.2798  140.7008  158.9274 H   0  0  0  0  0  0  0  0  0  0  0  0
  150.9666  139.8099  159.6815 H   0  0  0  0  0  0  0  0  0  0  0  0
  149.0712  138.9845  158.5564 H   0  0  0  0  0  0  0  0  0  0  0  0
  148.5400  137.9137  157.3114 H   0  0  0  0  0  0  0  0  0  0  0  0
  1  2  1  0  0  0  0
  1 14  1  0  0  0  0
  1 15  1  0  0  0  0
  1 16  1  0  0  0  0
  2  9  1  0  0  0  0
  2  3  2  0  0  0  0
  3  4  1  0  0  0  0
  4  5  2  0  0  0  0
  4  6  1  0  0  0  0
  6  7  1  0  0  0  0
  7  8  1  0  0  0  0
  7  9  2  0  0  0  0
  8 17  1  0  0  0  0
  8 18  1  0  0  0  0
  8 19  1  0  0  0  0
  9 10  1  0  0  0  0
 10 11  1  0  0  0  0
 10 20  1  0  0  0  0
 10 21  1  0  0  0  0
 11 12  2  0  0  0  0
 11 13  1  0  0  0  0
M  CHG  1   6  -1
M  CHG  1  13  -1
M  END
> <s_m_source_file>
AV-unprocessed.smi

> <i_m_source_file_index>
2685

> <i_lp_mmshare_version>
43012

> <i_f3d_flags>
0

> <s_epik_input>
W0NIM11jMW5jKD1PKVtuSF1jKFtDSDNdKWMxW0NIMl1DKD1PKVtPSF0=

> <s_epik_cmdline>
J2VwaWtfcHl0aG9uJywgJy1waCcsICc3LjAnLCAnLXRuJywgJzgnLCAnLW1hJywgJzIwMCcsICctbWV0YWxfYmluZGluZycsICctaW1hZScsICc8aW5maWxlLm1hZT4nLCAnLW9tYWUnLCAnPG91dGZpbGUubWFlPic=

> <r_lp_tautomer_probability>
1

> <r_epik_Ionization_Penalty>
5.93788

> <r_epik_Ionization_Penalty_Charging>
0.439901

> <r_epik_Ionization_Penalty_Neutral>
5.49798

> <r_epik_State_Penalty>
5.49792

> <r_epik_Charging_Adjusted_Penalty>
5.93782

> <i_epik_Tot_Q>
-2

> <i_epik_Tot_abs_Q>
2

> <r_epik_Metal_State_Penalty>
1.50795

> <b_epik_Metal_Only>
1

> <s_lp_Force_Field>
OPLS_2005

> <r_lp_Energy>
12.6786

> <b_lp_Chiralities_Consistent>
1

> <s_lp_Variant>
AV-unprocessed.smi:2685-2

> <Gold.Version>
5.8.1

> <Gold.Id.Protein>
6NUR|6NUR_protein|mol2

> <Gold.PLP.Fitness>
35.9547

> <Gold.PLP.PLP>
-15.0961

> <Gold.PLP.part.hbond>
-7.0000

> <Gold.PLP.part.metal>
0.0000

> <Gold.PLP.part.buried>
-2.2292

> <Gold.PLP.part.nonpolar>
-6.8216

> <Gold.PLP.part.repulsive>
0.0000

> <Gold.PLP.ligand.clash>
0.0000

> <Gold.PLP.ligand.torsion>
0.4642

> <Gold.PLP.Chemscore.Hbond>
7.2619

> <Gold.PLP.Chemscore.CHOScore>
0.0000

> <Gold.PLP.Chemscore.Metal>
0.0000

> <Gold.Chemscore.Hbonds>
donor molecule, donor type, donor heavy atom, donor atom, acceptor molecule, acceptor atom, score
      P1  H  6896  6907       L1    12  2.00
      P1  H  6931  6943       L1    13  0.57
      P1  H  6934  6947       L1    13  0.85
      P1  H  7997  8009       L1     6  1.66
      P1  H 10752 10764       L1     3  1.00

> <Gold.PLP.Chemscore.Internal.Correction>
0.0014

> <Gold.Rescore>
     Score         DG    S(hbond)    S(metal)    S(lipo)     H(rot)  DE(clash)    DE(int)     intcor
     11.86     -14.65       3.10        0.00      22.64       1.50       0.04       2.76       ----

> <Gold.Chemscore.Fitness>
11.8601

> <Gold.Chemscore.DG>
-14.6519

> <Gold.Chemscore.ZeroCoef>
-5.4800

> <Gold.Chemscore.Hbond>
3.1004

> <Gold.Chemscore.Metal>
0.0000

> <Gold.Chemscore.Lipo>
22.6443

> <Gold.Chemscore.Internal_Hbond>
0.0000

> <Gold.Chemscore.DEClash>
0.0354

> <Gold.Chemscore.DEInternal>
2.7564

> <Gold.Chemscore.Rot>
1.4972

> <Gold.Chemscore.Internal.Correction>
   9.000000E+99

> <Gold.Chemscore.Hbonds>
donor molecule, donor type, donor heavy atom, donor atom, acceptor molecule, acceptor atom, score
      P1  H  6896  6907       L1    12  1.00
      P1  H  6931  6943       L1    13  0.26
      P1  H  6934  6947       L1    13  0.43
      P1  H  7997  8009       L1     6  0.13
      P1  H 10752 10764       L1     3  0.58

> <Gold.Chemscore.Hbond.Weighted>
-10.3554

> <Gold.Chemscore.Metal.Weighted>
-0.0000

> <Gold.Chemscore.Lipo.Weighted>
-2.6494

> <Gold.Chemscore.Internal_Hbond.Weighted>
0.0000

> <Gold.Chemscore.DEClash.Weighted>
0.0354

> <Gold.Chemscore.DEInternal.Weighted>
2.7564

> <Gold.Chemscore.Rot.Weighted>
3.8329

> <Gold.Chemscore.Internal.Correction.Weighted>
   9.000000E+99

> <Gold.Protein.RotatedTorsions>
[ 6907 6896 6895 6894 ] final  -59.81 input  -60.11 | X-H torsion
[ 7974 7965 7964 7962 ] final   14.30 input  175.53 | X-H torsion
[ 8008 7997 7996 7995 ] final  159.30 input   59.86 | X-H torsion
[ 10167 10162 10161 10158 ] final   41.13 input  -65.29 | X-H torsion
[ 10718 10713 10712 10709 ] final  -17.53 input   66.30 | X-H torsion
[ 10763 10752 10751 10750 ] final  -27.49 input  -60.55 | X-H torsion
[ 11005 11000 10999 10996 ] final  179.42 input  -57.11 | X-H torsion

> <Gold.Protein.ActiveResidues>
 VAL166  LYS551  ARG553  GLY616  TRP617  ASP618  TYR619  PRO620  LYS621  CYS622 
 ASP623  PHE694  ASN695  SER759  ASP760  ASP761  ALA762  ILE779  LEU786  VAL792 
 PHE793  MET794  SER795  GLU796  ALA797  LYS798  CYS799  TRP800  GLU811  SER814 

> <Gold.Protein.RotatedAtoms>
  150.7902  134.6919  159.6501 H   0  0  0  0  0  0  0  0  0  0  0  0  # atno 6907 bound_to 6896
  152.4006  134.6289  160.0080 H   0  0  0  0  0  0  0  0  0  0  0  0  # atno 6908 bound_to 6896
  151.6561  133.3282  159.3199 H   0  0  0  0  0  0  0  0  0  0  0  0  # atno 6909 bound_to 6896
  146.2308  139.9061  142.8531 H   0  0  0  0  0  0  0  0  0  0  0  0  # atno 7974 bound_to 7965
  156.2248  140.1835  156.7391 H   0  0  0  0  0  0  0  0  0  0  0  0  # atno 8008 bound_to 7997
  154.5922  140.0649  156.9283 H   0  0  0  0  0  0  0  0  0  0  0  0  # atno 8009 bound_to 7997
  155.2316  140.3315  155.4305 H   0  0  0  0  0  0  0  0  0  0  0  0  # atno 8010 bound_to 7997
  140.3674  144.2150  150.6135 H   0  0  0  0  0  0  0  0  0  0  0  0  # atno 10167 bound_to 10162
  156.5723  130.4753  149.6357 H   0  0  0  0  0  0  0  0  0  0  0  0  # atno 10718 bound_to 10713
  153.7329  135.6937  153.4985 H   0  0  0  0  0  0  0  0  0  0  0  0  # atno 10763 bound_to 10752
  153.2123  135.4398  155.0393 H   0  0  0  0  0  0  0  0  0  0  0  0  # atno 10764 bound_to 10752
  154.8247  135.3440  154.6858 H   0  0  0  0  0  0  0  0  0  0  0  0  # atno 10765 bound_to 10752
  140.4059  134.6735  157.4588 H   0  0  0  0  0  0  0  0  0  0  0  0  # atno 11005 bound_to 11000
  145.2275  140.9960  143.4009 LP  0  0  0  0  0  0  0  0  0  0  0  0  # atno 17320 bound_to 7965
  144.9558  139.4033  143.6380 LP  0  0  0  0  0  0  0  0  0  0  0  0  # atno 17321 bound_to 7965
  140.5067  143.2302  151.8597 LP  0  0  0  0  0  0  0  0  0  0  0  0  # atno 17342 bound_to 10162
  139.4807  144.4997  151.9077 LP  0  0  0  0  0  0  0  0  0  0  0  0  # atno 17343 bound_to 10162
  156.2704  130.7013  151.1809 LP  0  0  0  0  0  0  0  0  0  0  0  0  # atno 17370 bound_to 10713
  157.7345  131.0581  150.5519 LP  0  0  0  0  0  0  0  0  0  0  0  0  # atno 17371 bound_to 10713
  140.0302  134.6417  155.9117 LP  0  0  0  0  0  0  0  0  0  0  0  0  # atno 17394 bound_to 11000
  141.1839  133.6552  156.5136 LP  0  0  0  0  0  0  0  0  0  0  0  0  # atno 17395 bound_to 11000

$$$$
