#       Name:                AV-unprocessed.smi:1412
#       Creating user name   scv26
#       Creation time:       Fri Mar 27 05:37:57 2020


#       File generated by GOLD software.
#

@<TRIPOS>MOLECULE
AV-unprocessed.smi:1412
    48    49     1
SMALL
NO_CHARGES


@<TRIPOS>ATOM
      1 ****        -0.4801  -0.7906  -3.8962 C.3            1 S1                 0.0000
      2 ****        -0.8660  -1.3448  -2.5135 C.3            1 S1                 0.0000
      3 ****        -0.5044  -0.4475  -1.2903 C.3            1 S1                 0.0000
      4 ****        -1.1830   0.9373  -1.4568 C.3            1 S1                 0.0000
      5 ****         1.0391  -0.2151  -1.2518 C.3            1 S1                 0.0000
      6 ****         1.5270   0.3471   0.0091 N.am           1 S1                 0.0000
      7 ****         1.7461   1.6476   0.2509 C.2            1 S1                 0.0000
      8 ****         1.5259   2.5363  -0.5717 O.2            1 S1                 0.0000
      9 ****         2.2289   1.8372   1.4917 N.am           1 S1                 0.0000
     10 ****         2.5883   3.0608   2.1172 C.2            1 S1                 0.0000
     11 ****         2.4486   4.2625   1.5359 N.2            1 S1                 0.0000
     12 ****         2.8757   5.2926   2.3635 N.2            1 S1                 0.0000
     13 ****         3.3194   4.8285   3.5351 C.2            1 S1                 0.0000
     14 ****         3.2552   3.0869   3.7437 S.3            1 S1                 0.0000
     15 ****        -0.9670  -1.0812  -0.0003 N.4            1 S1                 1.0000
     16 ****        -2.4414  -1.1621   0.2044 C.3            1 S1                 0.0000
     17 ****        -2.7613  -1.6398   1.6312 C.3            1 S1                 0.0000
     18 ****        -2.1446  -2.8973   1.8697 O.3            1 S1                 0.0000
     19 ****        -0.7304  -2.8201   1.7608 C.3            1 S1                 0.0000
     20 ****        -0.3487  -2.3956   0.3338 C.3            1 S1                 0.0000
     21 ****        -0.7791  -1.4877  -4.6792 H              1 S1                 0.0000
     22 ****         0.5954  -0.6454  -3.9916 H              1 S1                 0.0000
     23 ****        -0.9719   0.1583  -4.1083 H              1 S1                 0.0000
     24 ****        -1.9379  -1.5391  -2.5285 H              1 S1                 0.0000
     25 ****        -0.3892  -2.3196  -2.4153 H              1 S1                 0.0000
     26 ****        -0.6968   1.5376  -2.2261 H              1 S1                 0.0000
     27 ****        -1.1474   1.5174  -0.5342 H              1 S1                 0.0000
     28 ****        -2.2287   0.8501  -1.7524 H              1 S1                 0.0000
     29 ****         1.5662  -1.1566  -1.4064 H              1 S1                 0.0000
     30 ****         1.3584   0.4157  -2.0827 H              1 S1                 0.0000
     31 ****         1.7501  -0.3117   0.7409 H              1 S1                 0.0000
     32 ****         2.3678   1.0097   2.0525 H              1 S1                 0.0000
     33 ****         3.6868   5.5168   4.2817 H              1 S1                 0.0000
     34 ****        -2.9229  -0.1960   0.0666 H              1 S1                 0.0000
     35 ****        -2.8860  -1.8494  -0.5154 H              1 S1                 0.0000
     36 ****        -2.4264  -0.9099   2.3701 H              1 S1                 0.0000
     37 ****        -3.8388  -1.7474   1.7571 H              1 S1                 0.0000
     38 ****        -0.3304  -2.1210   2.4972 H              1 S1                 0.0000
     39 ****        -0.3064  -3.7985   1.9876 H              1 S1                 0.0000
     40 ****        -0.6838  -3.1608  -0.3666 H              1 S1                 0.0000
     41 ****         0.7372  -2.3574   0.2699 H              1 S1                 0.0000
     42 ****        -0.6417  -0.4468   0.7152 H              1 S1                 0.0000
     43 ****         1.1647   2.3035  -1.4746 LP             1 S1                 0.0000
     44 ****         1.7081   3.4911  -0.3370 LP             1 S1                 0.0000
     45 ****         2.0807   4.3997   0.6162 LP             1 S1                 0.0000
     46 ****         2.8538   6.2606   2.1138 LP             1 S1                 0.0000
     47 ****        -2.4854  -3.5572   1.2001 LP             1 S1                 0.0000
     48 ****        -2.3821  -3.2048   2.7912 LP             1 S1                 0.0000
@<TRIPOS>BOND
    1    1    2 1     
    2    1   21 1     
    3    1   22 1     
    4    1   23 1     
    5    2    3 1     
    6    2   24 1     
    7    2   25 1     
    8    3    4 1     
    9    3    5 1     
   10    3   15 1     
   11    4   26 1     
   12    4   27 1     
   13    4   28 1     
   14    5    6 1     
   15    5   29 1     
   16    5   30 1     
   17    6    7 am    
   18    6   31 1     
   19    7    8 2     
   20    7    9 am    
   21    9   10 1     
   22    9   32 1     
   23   10   14 1     
   24   10   11 2     
   25   11   12 1     
   26   12   13 2     
   27   13   14 1     
   28   13   33 1     
   29   15   20 1     
   30   15   16 1     
   31   15   42 1     
   32   16   17 1     
   33   16   34 1     
   34   16   35 1     
   35   17   18 1     
   36   17   36 1     
   37   17   37 1     
   38   18   19 1     
   39   19   20 1     
   40   19   38 1     
   41   19   39 1     
   42   20   40 1     
   43   20   41 1     
   44    8   43 1     
   45    8   44 1     
   46   11   45 1     
   47   12   46 1     
   48   18   47 1     
   49   18   48 1     
@<TRIPOS>SUBSTRUCTURE
      1 S1             1
@<TRIPOS>SET
LONE_PAIRS      STATIC     ATOMS    <user>   **** ""
6 43 44 45 46 47 48
DONOR_HYDROGENS      STATIC     ATOMS    <user>   **** ""
3 31 32 42
ATOM$BLUE        STATIC     ATOMS    COLORGROUP SYSTEM
6 43 44 45 46 47 48
ATOM$RED        STATIC     ATOMS    COLORGROUP SYSTEM
3 31 32 42
