AV-unprocessed.smi:2032|AV-procd|sdf|8232|dock2
  -GOLD-   2272010503D 1   1.00000     0.00000
 Structure written by MMmdl.
 42 43  0  0  0  0  0  0  0  0  1 V2000
  152.1378  138.1752  155.0342 C   0  0  0  0  0  0  0  0  0  0  0  0
  151.4463  139.5236  154.8058 C   0  0  1  0  0  0  0  0  0  0  0  0
  149.9917  139.3581  154.3277 C   0  0  0  0  0  0  0  0  0  0  0  0
  149.2931  140.6379  154.1669 N   0  0  0  0  0  0  0  0  0  0  0  0
  147.8880  140.4665  153.7297 C   0  0  2  0  0  0  0  0  0  0  0  0
  147.0975  141.7993  153.6998 C   0  0  0  0  0  0  0  0  0  0  0  0
  147.0969  139.4383  154.5900 C   0  0  0  0  0  0  0  0  0  0  0  0
  145.7781  139.1246  154.0460 N   0  0  0  0  0  0  0  0  0  0  0  0
  145.1195  137.9744  154.2487 C   0  0  0  0  0  0  0  0  0  0  0  0
  145.5640  137.0504  154.9311 O   0  0  0  0  0  0  0  0  0  0  0  0
  143.9345  137.9722  153.6136 N   0  0  0  0  0  0  0  0  0  0  0  0
  142.9535  136.9459  153.5914 C   0  0  0  0  0  0  0  0  0  0  0  0
  143.2267  135.6388  153.6803 N   0  0  0  0  0  0  0  0  0  0  0  0
  142.0704  134.8563  153.6324 C   0  0  0  0  0  0  0  0  0  0  0  0
  140.9167  135.5894  153.5067 C   0  0  0  0  0  0  0  0  0  0  0  0
  141.2388  137.3019  153.4436 S   0  0  0  0  0  0  0  0  0  0  0  0
  149.4016  141.3707  155.4339 C   0  0  0  0  0  0  0  0  0  0  0  0
  150.8553  141.5261  155.9203 C   0  0  1  0  0  0  0  0  0  0  0  0
  150.9361  142.2111  157.2887 C   0  0  0  0  0  0  0  0  0  0  0  0
  151.4529  140.2409  156.0330 O   0  0  0  0  0  0  0  0  0  0  0  0
  152.1651  137.5882  154.1162 H   0  0  0  0  0  0  0  0  0  0  0  0
  151.6184  137.5882  155.7924 H   0  0  0  0  0  0  0  0  0  0  0  0
  153.1657  138.3167  155.3687 H   0  0  0  0  0  0  0  0  0  0  0  0
  152.0138  140.0857  154.0619 H   0  0  0  0  0  0  0  0  0  0  0  0
  150.0279  138.8229  153.3802 H   0  0  0  0  0  0  0  0  0  0  0  0
  149.4458  138.7254  155.0294 H   0  0  0  0  0  0  0  0  0  0  0  0
  147.9042  140.0871  152.7067 H   0  0  0  0  0  0  0  0  0  0  0  0
  146.0496  141.6562  153.4389 H   0  0  0  0  0  0  0  0  0  0  0  0
  147.4834  142.4892  152.9505 H   0  0  0  0  0  0  0  0  0  0  0  0
  147.1289  142.2997  154.6681 H   0  0  0  0  0  0  0  0  0  0  0  0
  147.6244  138.4915  154.6931 H   0  0  0  0  0  0  0  0  0  0  0  0
  146.9646  139.8250  155.6009 H   0  0  0  0  0  0  0  0  0  0  0  0
  145.3425  139.8314  153.4718 H   0  0  0  0  0  0  0  0  0  0  0  0
  143.7059  138.8015  153.0857 H   0  0  0  0  0  0  0  0  0  0  0  0
  142.1608  133.7819  153.6937 H   0  0  0  0  0  0  0  0  0  0  0  0
  139.9013  135.2269  153.4474 H   0  0  0  0  0  0  0  0  0  0  0  0
  148.9968  142.3753  155.3340 H   0  0  0  0  0  0  0  0  0  0  0  0
  148.8122  140.8664  156.2016 H   0  0  0  0  0  0  0  0  0  0  0  0
  151.4203  142.1183  155.1983 H   0  0  0  0  0  0  0  0  0  0  0  0
  150.4990  143.2094  157.2550 H   0  0  0  0  0  0  0  0  0  0  0  0
  151.9720  142.3125  157.6130 H   0  0  0  0  0  0  0  0  0  0  0  0
  150.4037  141.6378  158.0482 H   0  0  0  0  0  0  0  0  0  0  0  0
  1  2  1  0  0  0  0
  1 21  1  0  0  0  0
  1 22  1  0  0  0  0
  1 23  1  0  0  0  0
  2 20  1  0  0  0  0
  2  3  1  0  0  0  0
  2 24  1  0  0  0  0
  3  4  1  0  0  0  0
  3 25  1  0  0  0  0
  3 26  1  0  0  0  0
  4  5  1  0  0  0  0
  4 17  1  0  0  0  0
  5  6  1  0  0  0  0
  5  7  1  0  0  0  0
  5 27  1  0  0  0  0
  6 28  1  0  0  0  0
  6 29  1  0  0  0  0
  6 30  1  0  0  0  0
  7  8  1  0  0  0  0
  7 31  1  0  0  0  0
  7 32  1  0  0  0  0
  8  9  1  0  0  0  0
  8 33  1  0  0  0  0
  9 10  2  0  0  0  0
  9 11  1  0  0  0  0
 11 12  1  0  0  0  0
 11 34  1  0  0  0  0
 12 16  1  0  0  0  0
 12 13  2  0  0  0  0
 13 14  1  0  0  0  0
 14 15  2  0  0  0  0
 14 35  1  0  0  0  0
 15 16  1  0  0  0  0
 15 36  1  0  0  0  0
 17 18  1  0  0  0  0
 17 37  1  0  0  0  0
 17 38  1  0  0  0  0
 18 19  1  0  0  0  0
 18 20  1  0  0  0  0
 18 39  1  0  0  0  0
 19 40  1  0  0  0  0
 19 41  1  0  0  0  0
 19 42  1  0  0  0  0
M  END
> <s_m_source_file>
AV-unprocessed.smi

> <i_m_source_file_index>
2032

> <i_lp_mmshare_version>
43012

> <i_f3d_flags>
0

> <s_epik_input>
W0NIM11bQ0BASF0xW0NIMl1OKFtDSDJdW0NASF0oTzEpW0NIM10pW0NASF0oW0NIM10pW0NIMl1bTkhdQyg9TylbTkhdYzJuW2NIXVtjSF1zMg==

> <s_epik_cmdline>
J2VwaWtfcHl0aG9uJywgJy1waCcsICc3LjAnLCAnLXRuJywgJzgnLCAnLW1hJywgJzIwMCcsICctbWV0YWxfYmluZGluZycsICctaW1hZScsICc8aW5maWxlLm1hZT4nLCAnLW9tYWUnLCAnPG91dGZpbGUubWFlPic=

> <r_lp_tautomer_probability>
0.999

> <r_epik_Ionization_Penalty>
0.219202

> <r_epik_Ionization_Penalty_Charging>
0

> <r_epik_Ionization_Penalty_Neutral>
0.219202

> <r_epik_State_Penalty>
0.209349

> <r_epik_Charging_Adjusted_Penalty>
0.209349

> <i_epik_Tot_Q>
0

> <i_epik_Tot_abs_Q>
0

> <r_epik_Metal_State_Penalty>
0.247737

> <b_epik_Metal_Only>
0

> <s_lp_Force_Field>
OPLS_2005

> <r_lp_Energy>
24.8092

> <b_lp_Chiralities_Consistent>
1

> <s_lp_Variant>
AV-unprocessed.smi:2032-2

> <Gold.Version>
5.8.1

> <Gold.Id.Protein>
6NUR|6NUR_protein|mol2

> <Gold.PLP.Fitness>
42.7861

> <Gold.PLP.PLP>
-34.2688

> <Gold.PLP.part.hbond>
-2.3945

> <Gold.PLP.part.metal>
0.0000

> <Gold.PLP.part.buried>
-3.8312

> <Gold.PLP.part.nonpolar>
-28.5783

> <Gold.PLP.part.repulsive>
0.2305

> <Gold.PLP.ligand.clash>
0.0000

> <Gold.PLP.ligand.torsion>
0.4842

> <Gold.PLP.Chemscore.Hbond>
1.9120

> <Gold.PLP.Chemscore.CHOScore>
1.2369

> <Gold.PLP.Chemscore.Metal>
0.0000

> <Gold.Chemscore.Hbonds>
donor molecule, donor type, donor heavy atom, donor atom, acceptor molecule, acceptor atom, score
      L1  H     8    33       P1 10175  0.94
      L1  H    11    34       P1 10175  1.00
      L1  C    14    35       P1 10957  1.00
      L1  C    15    36       P1 10187  0.20

> <Gold.PLP.Chemscore.Internal.Correction>
0.0389

> <Gold.Rescore>
     Score         DG    S(hbond)    S(metal)    S(lipo)     H(rot)  DE(clash)    DE(int)     intcor
     16.23     -16.91       1.88        0.00      78.34       1.57       0.07       0.61       ----

> <Gold.Chemscore.Fitness>
16.2335

> <Gold.Chemscore.DG>
-16.9076

> <Gold.Chemscore.ZeroCoef>
-5.4800

> <Gold.Chemscore.Hbond>
1.8842

> <Gold.Chemscore.Metal>
0.0000

> <Gold.Chemscore.Lipo>
78.3427

> <Gold.Chemscore.Internal_Hbond>
0.0000

> <Gold.Chemscore.DEClash>
0.0672

> <Gold.Chemscore.DEInternal>
0.6069

> <Gold.Chemscore.Rot>
1.5750

> <Gold.Chemscore.Internal.Correction>
   9.000000E+99

> <Gold.Chemscore.Hbonds>
donor molecule, donor type, donor heavy atom, donor atom, acceptor molecule, acceptor atom, score
      L1  H     8    33       P1 10175  0.84
      L1  H    11    34       P1 10175  1.00

> <Gold.Chemscore.Hbond.Weighted>
-6.2934

> <Gold.Chemscore.Metal.Weighted>
-0.0000

> <Gold.Chemscore.Lipo.Weighted>
-9.1661

> <Gold.Chemscore.Internal_Hbond.Weighted>
0.0000

> <Gold.Chemscore.DEClash.Weighted>
0.0672

> <Gold.Chemscore.DEInternal.Weighted>
0.6069

> <Gold.Chemscore.Rot.Weighted>
4.0319

> <Gold.Chemscore.Internal.Correction.Weighted>
   9.000000E+99

> <Gold.Protein.RotatedTorsions>
[ 6907 6896 6895 6894 ] final   73.88 input  -60.11 | X-H torsion
[ 7974 7965 7964 7962 ] final  104.80 input  175.53 | X-H torsion
[ 8008 7997 7996 7995 ] final  138.02 input   59.86 | X-H torsion
[ 10167 10162 10161 10158 ] final  -43.57 input  -65.29 | X-H torsion
[ 10718 10713 10712 10709 ] final  -37.66 input   66.30 | X-H torsion
[ 10763 10752 10751 10750 ] final -169.90 input  -60.55 | X-H torsion
[ 11005 11000 10999 10996 ] final  131.73 input  -57.11 | X-H torsion

> <Gold.Protein.ActiveResidues>
 VAL166  LYS551  ARG553  GLY616  TRP617  ASP618  TYR619  PRO620  LYS621  CYS622 
 ASP623  PHE694  ASN695  SER759  ASP760  ASP761  ALA762  ILE779  LEU786  VAL792 
 PHE793  MET794  SER795  GLU796  ALA797  LYS798  CYS799  TRP800  GLU811  SER814 

> <Gold.Protein.RotatedAtoms>
  152.4947  134.4355  159.9526 H   0  0  0  0  0  0  0  0  0  0  0  0  # atno 6907 bound_to 6896
  151.4336  133.3657  159.2780 H   0  0  0  0  0  0  0  0  0  0  0  0  # atno 6908 bound_to 6896
  150.9137  134.8577  159.7502 H   0  0  0  0  0  0  0  0  0  0  0  0  # atno 6909 bound_to 6896
  145.3280  139.2494  143.3676 H   0  0  0  0  0  0  0  0  0  0  0  0  # atno 7974 bound_to 7965
  156.2999  140.2404  156.4005 H   0  0  0  0  0  0  0  0  0  0  0  0  # atno 8008 bound_to 7997
  154.8531  140.0423  157.1637 H   0  0  0  0  0  0  0  0  0  0  0  0  # atno 8009 bound_to 7997
  154.8977  140.2972  155.5339 H   0  0  0  0  0  0  0  0  0  0  0  0  # atno 8010 bound_to 7997
  140.6929  143.2976  151.3370 H   0  0  0  0  0  0  0  0  0  0  0  0  # atno 10167 bound_to 10162
  156.3127  130.4255  149.8035 H   0  0  0  0  0  0  0  0  0  0  0  0  # atno 10718 bound_to 10713
  154.6473  135.2906  155.0030 H   0  0  0  0  0  0  0  0  0  0  0  0  # atno 10763 bound_to 10752
  154.1136  135.6559  153.4893 H   0  0  0  0  0  0  0  0  0  0  0  0  # atno 10764 bound_to 10752
  153.0357  135.5271  154.7365 H   0  0  0  0  0  0  0  0  0  0  0  0  # atno 10765 bound_to 10752
  139.9747  134.9567  156.9480 H   0  0  0  0  0  0  0  0  0  0  0  0  # atno 11005 bound_to 11000
  146.3057  140.3851  142.8688 LP  0  0  0  0  0  0  0  0  0  0  0  0  # atno 17320 bound_to 7965
  144.8887  140.7495  143.5940 LP  0  0  0  0  0  0  0  0  0  0  0  0  # atno 17321 bound_to 7965
  139.6351  144.0646  152.2509 LP  0  0  0  0  0  0  0  0  0  0  0  0  # atno 17342 bound_to 10162
  140.0133  144.6207  150.7628 LP  0  0  0  0  0  0  0  0  0  0  0  0  # atno 17343 bound_to 10162
  156.5372  130.8284  151.3257 LP  0  0  0  0  0  0  0  0  0  0  0  0  # atno 17370 bound_to 10713
  157.7394  130.9832  150.2315 LP  0  0  0  0  0  0  0  0  0  0  0  0  # atno 17371 bound_to 10713
  140.5219  134.0899  155.7294 LP  0  0  0  0  0  0  0  0  0  0  0  0  # atno 17394 bound_to 11000
  141.1425  133.9113  157.2293 LP  0  0  0  0  0  0  0  0  0  0  0  0  # atno 17395 bound_to 11000

$$$$
