AV-unprocessed.smi:1667|AV-procd|sdf|6674|dock7
  -GOLD-   22720 7383D 1   1.00000     0.00000
 Structure written by MMmdl.
 45 47  0  0  0  0  0  0  0  0  1 V2000
  153.6354  137.0802  162.6293 C   0  0  0  0  0  0  0  0  0  0  0  0
  153.4458  137.0763  161.1165 C   0  0  0  0  0  0  0  0  0  0  0  0
  153.5791  136.0284  160.4863 O   0  0  0  0  0  0  0  0  0  0  0  0
  153.1381  138.2619  160.5620 N   0  0  0  0  0  0  0  0  0  0  0  0
  152.8933  138.5866  159.1509 C   0  0  2  0  0  0  0  0  0  0  0  0
  154.0142  138.1405  158.1943 C   0  0  0  0  0  0  0  0  0  0  0  0
  152.5341  140.0474  158.9965 C   0  0  0  0  0  0  0  0  0  0  0  0
  153.2646  141.0283  159.5349 N   0  0  0  0  0  0  0  0  0  0  0  0
  152.5956  142.1695  159.1445 C   0  0  0  0  0  0  0  0  0  0  0  0
  152.8682  143.5306  159.4089 C   0  0  0  0  0  0  0  0  0  0  0  0
  152.0280  144.5396  158.8941 C   0  0  0  0  0  0  0  0  0  0  0  0
  150.9067  144.2021  158.1085 C   0  0  0  0  0  0  0  0  0  0  0  0
  150.6188  142.8515  157.8329 C   0  0  0  0  0  0  0  0  0  0  0  0
  151.4608  141.8485  158.3503 C   0  0  0  0  0  0  0  0  0  0  0  0
  151.4619  140.4598  158.2671 N   0  0  0  0  0  0  0  0  0  0  0  0
  150.4866  139.6623  157.5334 C   0  0  0  0  0  0  0  0  0  0  0  0
  150.5106  139.9421  156.0169 C   0  0  2  0  0  0  0  0  0  0  0  0
  151.7226  140.5730  155.6482 O   0  0  0  0  0  0  0  0  0  0  0  0
  149.2907  140.7414  155.5861 C   0  0  0  0  0  0  0  0  0  0  0  0
  149.1225  141.0952  154.2301 C   0  0  0  0  0  0  0  0  0  0  0  0
  147.9908  141.8283  153.8225 C   0  0  0  0  0  0  0  0  0  0  0  0
  147.0200  142.2103  154.7684 C   0  0  0  0  0  0  0  0  0  0  0  0
  147.1799  141.8568  156.1217 C   0  0  0  0  0  0  0  0  0  0  0  0
  146.2455  142.2208  157.0314 F   0  0  0  0  0  0  0  0  0  0  0  0
  148.3106  141.1227  156.5294 C   0  0  0  0  0  0  0  0  0  0  0  0
  152.0209  137.9821  158.9129 H   0  0  0  0  0  0  0  0  0  0  0  0
  152.6978  137.3264  163.1287 H   0  0  0  0  0  0  0  0  0  0  0  0
  154.3861  137.8163  162.9180 H   0  0  0  0  0  0  0  0  0  0  0  0
  153.9643  136.1022  162.9820 H   0  0  0  0  0  0  0  0  0  0  0  0
  153.0681  139.0441  161.1964 H   0  0  0  0  0  0  0  0  0  0  0  0
  153.7003  138.2563  157.1566 H   0  0  0  0  0  0  0  0  0  0  0  0
  154.2680  137.0911  158.3458 H   0  0  0  0  0  0  0  0  0  0  0  0
  154.9221  138.7301  158.3212 H   0  0  0  0  0  0  0  0  0  0  0  0
  153.7253  143.7981  160.0091 H   0  0  0  0  0  0  0  0  0  0  0  0
  152.2450  145.5769  159.1029 H   0  0  0  0  0  0  0  0  0  0  0  0
  150.2683  144.9806  157.7173 H   0  0  0  0  0  0  0  0  0  0  0  0
  149.7609  142.5900  157.2314 H   0  0  0  0  0  0  0  0  0  0  0  0
  150.7126  138.6102  157.7121 H   0  0  0  0  0  0  0  0  0  0  0  0
  149.4921  139.8167  157.9503 H   0  0  0  0  0  0  0  0  0  0  0  0
  150.4926  138.9874  155.4892 H   0  0  0  0  0  0  0  0  0  0  0  0
  151.9586  141.1863  156.3275 H   0  0  0  0  0  0  0  0  0  0  0  0
  149.8603  140.8042  153.4967 H   0  0  0  0  0  0  0  0  0  0  0  0
  147.8665  142.0975  152.7840 H   0  0  0  0  0  0  0  0  0  0  0  0
  146.1524  142.7723  154.4556 H   0  0  0  0  0  0  0  0  0  0  0  0
  148.4217  140.8515  157.5690 H   0  0  0  0  0  0  0  0  0  0  0  0
  1  2  1  0  0  0  0
  1 27  1  0  0  0  0
  1 28  1  0  0  0  0
  1 29  1  0  0  0  0
  2  3  2  0  0  0  0
  2  4  1  0  0  0  0
  4  5  1  0  0  0  0
  4 30  1  0  0  0  0
  5 26  1  0  0  0  0
  5  6  1  0  0  0  0
  5  7  1  0  0  0  0
  6 31  1  0  0  0  0
  6 32  1  0  0  0  0
  6 33  1  0  0  0  0
  7 15  1  0  0  0  0
  7  8  2  0  0  0  0
  8  9  1  0  0  0  0
  9 14  2  0  0  0  0
  9 10  1  0  0  0  0
 10 11  2  0  0  0  0
 10 34  1  0  0  0  0
 11 12  1  0  0  0  0
 11 35  1  0  0  0  0
 12 13  2  0  0  0  0
 12 36  1  0  0  0  0
 13 14  1  0  0  0  0
 13 37  1  0  0  0  0
 14 15  1  0  0  0  0
 15 16  1  0  0  0  0
 16 17  1  0  0  0  0
 16 38  1  0  0  0  0
 16 39  1  0  0  0  0
 17 18  1  0  0  0  0
 17 19  1  0  0  0  0
 17 40  1  0  0  0  0
 18 41  1  0  0  0  0
 19 25  1  0  0  0  0
 19 20  2  0  0  0  0
 20 21  1  0  0  0  0
 20 42  1  0  0  0  0
 21 22  2  0  0  0  0
 21 43  1  0  0  0  0
 22 23  1  0  0  0  0
 22 44  1  0  0  0  0
 23 24  1  0  0  0  0
 23 25  2  0  0  0  0
 25 45  1  0  0  0  0
M  END
> <s_m_source_file>
AV-unprocessed.smi

> <i_m_source_file_index>
1667

> <i_lp_mmshare_version>
43012

> <i_f3d_flags>
0

> <s_epik_input>
W0NIM11DKD1PKVtOSF1bQ0BASF0oW0NIM10pYyhuMSluKGMoYzEyKVtjSF1bY0hdW2NIXVtjSF0yKVtDSDJdW0NASF0oW09IXSljM1tjSF1bY0hdW2NIXWMoRilbY0hdMw==

> <s_epik_cmdline>
J2VwaWtfcHl0aG9uJywgJy1waCcsICc3LjAnLCAnLXRuJywgJzgnLCAnLW1hJywgJzIwMCcsICctbWV0YWxfYmluZGluZycsICctaW1hZScsICc8aW5maWxlLm1hZT4nLCAnLW9tYWUnLCAnPG91dGZpbGUubWFlPic=

> <r_epik_Ionization_Penalty>
0.133011

> <r_epik_Ionization_Penalty_Charging>
0

> <r_epik_Ionization_Penalty_Neutral>
0.133011

> <r_epik_State_Penalty>
0.122384

> <r_epik_Charging_Adjusted_Penalty>
0.122384

> <i_epik_Tot_Q>
0

> <i_epik_Tot_abs_Q>
0

> <r_epik_Metal_State_Penalty>
0.0997374

> <b_epik_Metal_Only>
0

> <s_lp_Force_Field>
OPLS_2005

> <r_lp_Energy>
10.1709

> <b_lp_Chiralities_Consistent>
1

> <s_lp_Variant>
AV-unprocessed.smi:1667-2

> <Gold.Version>
5.8.1

> <Gold.Id.Protein>
6NUR|6NUR_protein|mol2

> <Gold.PLP.Fitness>
49.0646

> <Gold.PLP.PLP>
-46.3010

> <Gold.PLP.part.hbond>
-2.0000

> <Gold.PLP.part.metal>
0.0000

> <Gold.PLP.part.buried>
-3.9406

> <Gold.PLP.part.nonpolar>
-40.2074

> <Gold.PLP.part.repulsive>
0.0637

> <Gold.PLP.ligand.clash>
0.0173

> <Gold.PLP.ligand.torsion>
1.0722

> <Gold.PLP.Chemscore.Hbond>
1.5733

> <Gold.PLP.Chemscore.CHOScore>
0.0000

> <Gold.PLP.Chemscore.Metal>
0.0000

> <Gold.Chemscore.Hbonds>
donor molecule, donor type, donor heavy atom, donor atom, acceptor molecule, acceptor atom, score
      P1  H  6896  6907       L1     3  1.00
      P1  H  7989  7998       L1    18  0.48

> <Gold.PLP.Chemscore.Internal.Correction>
0.2054

> <Gold.Rescore>
     Score         DG    S(hbond)    S(metal)    S(lipo)     H(rot)  DE(clash)    DE(int)     intcor
     16.25     -18.36       1.61        0.00     118.32       2.48       0.02       2.09       ----

> <Gold.Chemscore.Fitness>
16.2467

> <Gold.Chemscore.DG>
-18.3566

> <Gold.Chemscore.ZeroCoef>
-5.4800

> <Gold.Chemscore.Hbond>
1.6083

> <Gold.Chemscore.Metal>
0.0000

> <Gold.Chemscore.Lipo>
118.3181

> <Gold.Chemscore.Internal_Hbond>
0.0000

> <Gold.Chemscore.DEClash>
0.0205

> <Gold.Chemscore.DEInternal>
2.0894

> <Gold.Chemscore.Rot>
2.4760

> <Gold.Chemscore.Internal.Correction>
   9.000000E+99

> <Gold.Chemscore.Hbonds>
donor molecule, donor type, donor heavy atom, donor atom, acceptor molecule, acceptor atom, score
      P1  H  6896  6907       L1     3  1.00
      P1  H  7989  7998       L1    18  0.31

> <Gold.Chemscore.Hbond.Weighted>
-5.3718

> <Gold.Chemscore.Metal.Weighted>
-0.0000

> <Gold.Chemscore.Lipo.Weighted>
-13.8432

> <Gold.Chemscore.Internal_Hbond.Weighted>
0.0000

> <Gold.Chemscore.DEClash.Weighted>
0.0205

> <Gold.Chemscore.DEInternal.Weighted>
2.0894

> <Gold.Chemscore.Rot.Weighted>
6.3385

> <Gold.Chemscore.Internal.Correction.Weighted>
   9.000000E+99

> <Gold.Protein.RotatedTorsions>
[ 6907 6896 6895 6894 ] final   45.82 input  -60.11 | X-H torsion
[ 7974 7965 7964 7962 ] final  127.40 input  175.53 | X-H torsion
[ 8008 7997 7996 7995 ] final -128.59 input   59.86 | X-H torsion
[ 10167 10162 10161 10158 ] final   88.45 input  -65.29 | X-H torsion
[ 10718 10713 10712 10709 ] final -172.93 input   66.30 | X-H torsion
[ 10763 10752 10751 10750 ] final  136.95 input  -60.55 | X-H torsion
[ 11005 11000 10999 10996 ] final  176.75 input  -57.11 | X-H torsion

> <Gold.Protein.ActiveResidues>
 VAL166  LYS551  ARG553  GLY616  TRP617  ASP618  TYR619  PRO620  LYS621  CYS622 
 ASP623  PHE694  ASN695  SER759  ASP760  ASP761  ALA762  ILE779  LEU786  VAL792 
 PHE793  MET794  SER795  GLU796  ALA797  LYS798  CYS799  TRP800  GLU811  SER814 

> <Gold.Protein.RotatedAtoms>
  152.2490  134.8151  160.0448 H   0  0  0  0  0  0  0  0  0  0  0  0  # atno 6907 bound_to 6896
  151.8838  133.3496  159.3783 H   0  0  0  0  0  0  0  0  0  0  0  0  # atno 6908 bound_to 6896
  150.7078  134.4918  159.5563 H   0  0  0  0  0  0  0  0  0  0  0  0  # atno 6909 bound_to 6896
  145.0510  139.3883  143.5054 H   0  0  0  0  0  0  0  0  0  0  0  0  # atno 7974 bound_to 7965
  155.2652  140.0437  157.3001 H   0  0  0  0  0  0  0  0  0  0  0  0  # atno 8008 bound_to 7997
  154.5687  140.2367  155.8194 H   0  0  0  0  0  0  0  0  0  0  0  0  # atno 8009 bound_to 7997
  156.2105  140.3000  155.9730 H   0  0  0  0  0  0  0  0  0  0  0  0  # atno 8010 bound_to 7997
  139.8672  144.6512  150.8991 H   0  0  0  0  0  0  0  0  0  0  0  0  # atno 10167 bound_to 10162
  156.7628  130.9420  151.3118 H   0  0  0  0  0  0  0  0  0  0  0  0  # atno 10718 bound_to 10713
  153.8650  135.3063  155.3439 H   0  0  0  0  0  0  0  0  0  0  0  0  # atno 10763 bound_to 10752
  154.7832  135.4824  153.9891 H   0  0  0  0  0  0  0  0  0  0  0  0  # atno 10764 bound_to 10752
  153.1439  135.6830  153.9079 H   0  0  0  0  0  0  0  0  0  0  0  0  # atno 10765 bound_to 10752
  140.3766  134.6983  157.4425 H   0  0  0  0  0  0  0  0  0  0  0  0  # atno 11005 bound_to 11000
  146.3518  140.0160  142.8663 LP  0  0  0  0  0  0  0  0  0  0  0  0  # atno 17320 bound_to 7965
  145.1527  140.9632  143.4423 LP  0  0  0  0  0  0  0  0  0  0  0  0  # atno 17321 bound_to 7965
  140.7766  143.3694  151.1677 LP  0  0  0  0  0  0  0  0  0  0  0  0  # atno 17342 bound_to 10162
  139.7318  143.9061  152.3022 LP  0  0  0  0  0  0  0  0  0  0  0  0  # atno 17343 bound_to 10162
  157.6727  130.9065  150.0077 LP  0  0  0  0  0  0  0  0  0  0  0  0  # atno 17370 bound_to 10713
  156.1328  130.3643  149.9704 LP  0  0  0  0  0  0  0  0  0  0  0  0  # atno 17371 bound_to 10713
  140.0511  134.6129  155.8861 LP  0  0  0  0  0  0  0  0  0  0  0  0  # atno 17394 bound_to 11000
  141.1937  133.6580  156.5562 LP  0  0  0  0  0  0  0  0  0  0  0  0  # atno 17395 bound_to 11000

$$$$
