AV-unprocessed.smi:2451|AV-procd|sdf|9669|dock3
  -GOLD-   2272013303D 1   1.00000     0.00000
 Structure written by MMmdl.
 38 39  0  0  0  0  0  0  0  0  1 V2000
  152.8376  143.7186  163.1479 C   0  0  0  0  0  0  0  0  0  0  0  0
  152.8082  142.6500  162.0406 C   0  0  2  0  0  0  0  0  0  0  0  0
  154.0019  141.6881  162.2076 C   0  0  0  0  0  0  0  0  0  0  0  0
  153.9971  140.5773  161.1491 C   0  0  0  0  0  0  0  0  0  0  0  0
  153.9907  141.1580  159.7275 C   0  0  0  0  0  0  0  0  0  0  0  0
  152.8408  142.1597  159.5189 C   0  0  1  0  0  0  0  0  0  0  0  0
  151.5628  141.4426  159.4229 N   0  0  0  0  0  0  0  0  0  0  0  0
  151.3926  140.1968  158.2429 S   0  0  0  0  0  0  0  0  0  0  0  0
  152.6681  140.0986  157.5172 O   0  0  0  0  0  0  0  0  0  0  0  0
  150.8404  139.0134  158.9205 O   0  0  0  0  0  0  0  0  0  0  0  0
  150.1059  140.8834  157.1174 C   0  0  0  0  0  0  0  0  0  0  0  0
  149.8739  139.9321  155.9782 C   0  0  0  0  0  0  0  0  0  0  0  0
  149.9597  140.1858  154.5812 C   0  0  0  0  0  0  0  0  0  0  0  0
  149.6516  138.9809  154.0185 C   0  0  0  0  0  0  0  0  0  0  0  0
  149.4019  138.0575  154.9806 O   0  0  0  0  0  0  0  0  0  0  0  0
  149.5477  138.6737  156.2286 N   0  0  0  0  0  0  0  0  0  0  0  0
  152.7932  143.2578  160.6117 C   0  0  1  0  0  0  0  0  0  0  0  0
  151.6384  144.2495  160.3672 C   0  0  0  0  0  0  0  0  0  0  0  0
  153.6940  144.3840  163.0359 H   0  0  0  0  0  0  0  0  0  0  0  0
  152.9034  143.2580  164.1341 H   0  0  0  0  0  0  0  0  0  0  0  0
  151.9345  144.3286  163.1447 H   0  0  0  0  0  0  0  0  0  0  0  0
  151.8933  142.0710  162.1744 H   0  0  0  0  0  0  0  0  0  0  0  0
  154.9374  142.2457  162.1438 H   0  0  0  0  0  0  0  0  0  0  0  0
  153.9811  141.2370  163.2003 H   0  0  0  0  0  0  0  0  0  0  0  0
  154.8675  139.9340  161.2815 H   0  0  0  0  0  0  0  0  0  0  0  0
  153.1221  139.9418  161.2907 H   0  0  0  0  0  0  0  0  0  0  0  0
  154.9395  141.6660  159.5509 H   0  0  0  0  0  0  0  0  0  0  0  0
  153.9359  140.3549  158.9915 H   0  0  0  0  0  0  0  0  0  0  0  0
  153.0136  142.6557  158.5625 H   0  0  0  0  0  0  0  0  0  0  0  0
  150.7797  142.0950  159.3875 H   0  0  0  0  0  0  0  0  0  0  0  0
  149.1927  141.0402  157.6913 H   0  0  0  0  0  0  0  0  0  0  0  0
  150.4464  141.8559  156.7606 H   0  0  0  0  0  0  0  0  0  0  0  0
  150.2026  141.1075  154.0735 H   0  0  0  0  0  0  0  0  0  0  0  0
  149.5721  138.6365  152.9980 H   0  0  0  0  0  0  0  0  0  0  0  0
  153.7145  143.8332  160.5055 H   0  0  0  0  0  0  0  0  0  0  0  0
  150.6684  143.7958  160.5720 H   0  0  0  0  0  0  0  0  0  0  0  0
  151.6319  144.5929  159.3322 H   0  0  0  0  0  0  0  0  0  0  0  0
  151.7296  145.1363  160.9934 H   0  0  0  0  0  0  0  0  0  0  0  0
  1  2  1  0  0  0  0
  1 19  1  0  0  0  0
  1 20  1  0  0  0  0
  1 21  1  0  0  0  0
  2 17  1  0  0  0  0
  2  3  1  0  0  0  0
  2 22  1  0  0  0  0
  3  4  1  0  0  0  0
  3 23  1  0  0  0  0
  3 24  1  0  0  0  0
  4  5  1  0  0  0  0
  4 25  1  0  0  0  0
  4 26  1  0  0  0  0
  5  6  1  0  0  0  0
  5 27  1  0  0  0  0
  5 28  1  0  0  0  0
  6  7  1  0  0  0  0
  6 17  1  0  0  0  0
  6 29  1  0  0  0  0
  7  8  1  0  0  0  0
  7 30  1  0  0  0  0
  8  9  2  0  0  0  0
  8 10  2  0  0  0  0
  8 11  1  0  0  0  0
 11 12  1  0  0  0  0
 11 31  1  0  0  0  0
 11 32  1  0  0  0  0
 12 16  2  0  0  0  0
 12 13  1  0  0  0  0
 13 14  2  0  0  0  0
 13 33  1  0  0  0  0
 14 15  1  0  0  0  0
 14 34  1  0  0  0  0
 15 16  1  0  0  0  0
 17 18  1  0  0  0  0
 17 35  1  0  0  0  0
 18 36  1  0  0  0  0
 18 37  1  0  0  0  0
 18 38  1  0  0  0  0
M  END
> <s_m_source_file>
AV-unprocessed.smi

> <i_m_source_file_index>
2451

> <i_lp_mmshare_version>
43012

> <i_f3d_flags>
0

> <s_epik_input>
W0NIM11bQ0BASF0xW0NIMl1bQ0gyXVtDSDJdW0NASF0oW0NASF0xW0NIM10pW05IXVMoPU8pKD1PKVtDSDJdYzJbY0hdW2NIXW9uMg==

> <s_epik_cmdline>
J2VwaWtfcHl0aG9uJywgJy1waCcsICc3LjAnLCAnLXRuJywgJzgnLCAnLW1hJywgJzIwMCcsICctbWV0YWxfYmluZGluZycsICctaW1hZScsICc8aW5maWxlLm1hZT4nLCAnLW9tYWUnLCAnPG91dGZpbGUubWFlPic=

> <r_lp_tautomer_probability>
1

> <r_epik_Ionization_Penalty>
8.73668e-05

> <r_epik_Ionization_Penalty_Charging>
0

> <r_epik_Ionization_Penalty_Neutral>
8.73668e-05

> <r_epik_State_Penalty>
-0

> <r_epik_Charging_Adjusted_Penalty>
0

> <i_epik_Tot_Q>
0

> <i_epik_Tot_abs_Q>
0

> <r_epik_Metal_State_Penalty>
0.0716439

> <b_epik_Metal_Only>
0

> <s_lp_Force_Field>
OPLS_2005

> <r_lp_Energy>
9.22722

> <b_lp_Chiralities_Consistent>
1

> <s_lp_Variant>
AV-unprocessed.smi:2451-1

> <Gold.Version>
5.8.1

> <Gold.Id.Protein>
6NUR|6NUR_protein|mol2

> <Gold.PLP.Fitness>
45.6457

> <Gold.PLP.PLP>
-37.4314

> <Gold.PLP.part.hbond>
-1.1551

> <Gold.PLP.part.metal>
0.0000

> <Gold.PLP.part.buried>
0.1518

> <Gold.PLP.part.nonpolar>
-34.8707

> <Gold.PLP.part.repulsive>
0.1287

> <Gold.PLP.ligand.clash>
0.0000

> <Gold.PLP.ligand.torsion>
0.1367

> <Gold.PLP.Chemscore.Hbond>
1.0000

> <Gold.PLP.Chemscore.CHOScore>
1.7804

> <Gold.PLP.Chemscore.Metal>
0.0000

> <Gold.Chemscore.Hbonds>
donor molecule, donor type, donor heavy atom, donor atom, acceptor molecule, acceptor atom, score
      P1  H  7997  8009       L1     9  1.00
      L1  C    14    34       P1  7948  0.61
      L1  C    14    34       P1  7957  0.89

> <Gold.PLP.Chemscore.Internal.Correction>
0.1467

> <Gold.Rescore>
     Score         DG    S(hbond)    S(metal)    S(lipo)     H(rot)  DE(clash)    DE(int)     intcor
     15.54     -17.50       1.00        0.00     110.65       1.66       0.46       1.51       ----

> <Gold.Chemscore.Fitness>
15.5393

> <Gold.Chemscore.DG>
-17.5027

> <Gold.Chemscore.ZeroCoef>
-5.4800

> <Gold.Chemscore.Hbond>
0.9950

> <Gold.Chemscore.Metal>
0.0000

> <Gold.Chemscore.Lipo>
110.6495

> <Gold.Chemscore.Internal_Hbond>
0.0000

> <Gold.Chemscore.DEClash>
0.4566

> <Gold.Chemscore.DEInternal>
1.5068

> <Gold.Chemscore.Rot>
1.6588

> <Gold.Chemscore.Internal.Correction>
   9.000000E+99

> <Gold.Chemscore.Hbonds>
donor molecule, donor type, donor heavy atom, donor atom, acceptor molecule, acceptor atom, score
      P1  H  7997  8009       L1     9  0.97

> <Gold.Chemscore.Hbond.Weighted>
-3.3233

> <Gold.Chemscore.Metal.Weighted>
-0.0000

> <Gold.Chemscore.Lipo.Weighted>
-12.9460

> <Gold.Chemscore.Internal_Hbond.Weighted>
0.0000

> <Gold.Chemscore.DEClash.Weighted>
0.4566

> <Gold.Chemscore.DEInternal.Weighted>
1.5068

> <Gold.Chemscore.Rot.Weighted>
4.2466

> <Gold.Chemscore.Internal.Correction.Weighted>
   9.000000E+99

> <Gold.Protein.RotatedTorsions>
[ 6907 6896 6895 6894 ] final   69.40 input  -60.11 | X-H torsion
[ 7974 7965 7964 7962 ] final  -31.58 input  175.53 | X-H torsion
[ 8008 7997 7996 7995 ] final  175.56 input   59.86 | X-H torsion
[ 10167 10162 10161 10158 ] final  147.74 input  -65.29 | X-H torsion
[ 10718 10713 10712 10709 ] final  -57.10 input   66.30 | X-H torsion
[ 10763 10752 10751 10750 ] final   24.60 input  -60.55 | X-H torsion
[ 11005 11000 10999 10996 ] final -116.61 input  -57.11 | X-H torsion

> <Gold.Protein.ActiveResidues>
 VAL166  LYS551  ARG553  GLY616  TRP617  ASP618  TYR619  PRO620  LYS621  CYS622 
 ASP623  PHE694  ASN695  SER759  ASP760  ASP761  ALA762  ILE779  LEU786  VAL792 
 PHE793  MET794  SER795  GLU796  ALA797  LYS798  CYS799  TRP800  GLU811  SER814 

> <Gold.Protein.RotatedAtoms>
  152.4683  134.5021  159.9727 H   0  0  0  0  0  0  0  0  0  0  0  0  # atno 6907 bound_to 6896
  151.5054  133.3490  159.2884 H   0  0  0  0  0  0  0  0  0  0  0  0  # atno 6908 bound_to 6896
  150.8679  134.8075  159.7195 H   0  0  0  0  0  0  0  0  0  0  0  0  # atno 6909 bound_to 6896
  146.1056  140.5685  142.8801 H   0  0  0  0  0  0  0  0  0  0  0  0  # atno 7974 bound_to 7965
  156.0857  140.1406  156.9656 H   0  0  0  0  0  0  0  0  0  0  0  0  # atno 8008 bound_to 7997
  154.4611  140.0943  156.6944 H   0  0  0  0  0  0  0  0  0  0  0  0  # atno 8009 bound_to 7997
  155.5002  140.3450  155.4372 H   0  0  0  0  0  0  0  0  0  0  0  0  # atno 8010 bound_to 7997
  139.4885  144.5732  151.7015 H   0  0  0  0  0  0  0  0  0  0  0  0  # atno 10167 bound_to 10162
  156.1237  130.4164  150.0394 H   0  0  0  0  0  0  0  0  0  0  0  0  # atno 10718 bound_to 10713
  153.0752  135.6602  154.0161 H   0  0  0  0  0  0  0  0  0  0  0  0  # atno 10763 bound_to 10752
  153.9796  135.2956  155.3422 H   0  0  0  0  0  0  0  0  0  0  0  0  # atno 10764 bound_to 10752
  154.7138  135.5194  153.8778 H   0  0  0  0  0  0  0  0  0  0  0  0  # atno 10765 bound_to 10752
  141.0410  133.9835  157.2994 H   0  0  0  0  0  0  0  0  0  0  0  0  # atno 11005 bound_to 11000
  144.7468  140.5089  143.6830 LP  0  0  0  0  0  0  0  0  0  0  0  0  # atno 17320 bound_to 7965
  145.5767  139.1486  143.3258 LP  0  0  0  0  0  0  0  0  0  0  0  0  # atno 17321 bound_to 7965
  140.5323  144.0710  150.6058 LP  0  0  0  0  0  0  0  0  0  0  0  0  # atno 17342 bound_to 10162
  140.3705  143.2857  152.0284 LP  0  0  0  0  0  0  0  0  0  0  0  0  # atno 17343 bound_to 10162
  156.8326  130.9397  151.3636 LP  0  0  0  0  0  0  0  0  0  0  0  0  # atno 17370 bound_to 10713
  157.6419  130.8813  149.9465 LP  0  0  0  0  0  0  0  0  0  0  0  0  # atno 17371 bound_to 10713
  139.9276  135.0201  156.8288 LP  0  0  0  0  0  0  0  0  0  0  0  0  # atno 17394 bound_to 11000
  140.6234  133.9973  155.7628 LP  0  0  0  0  0  0  0  0  0  0  0  0  # atno 17395 bound_to 11000

$$$$
