AV-unprocessed.smi:1574|AV-procd|sdf|6335|dock4
  -GOLD-   22720 6543D 1   1.00000     0.00000
 Structure written by MMmdl.
 40 41  0  0  0  0  0  0  0  0  1 V2000
  151.2253  144.3665  158.4784 C   0  0  0  0  0  0  0  0  0  0  0  0
  151.6627  143.2260  159.4114 C   0  0  2  0  0  0  0  0  0  0  0  0
  152.7000  143.7286  160.4358 C   0  0  0  0  0  0  0  0  0  0  0  0
  153.1588  142.6071  161.3800 C   0  0  0  0  0  0  0  0  0  0  0  0
  153.7183  141.4174  160.5887 C   0  0  0  0  0  0  0  0  0  0  0  0
  152.6889  140.9024  159.5738 C   0  0  0  0  0  0  0  0  0  0  0  0
  152.2150  142.0192  158.6195 C   0  0  1  0  0  0  0  0  0  0  0  0
  151.1653  141.5116  157.8073 O   0  0  0  0  0  0  0  0  0  0  0  0
  151.0831  142.1005  156.5174 C   0  0  0  0  0  0  0  0  0  0  0  0
  149.8603  141.5219  155.7909 C   0  0  0  0  0  0  0  0  0  0  0  0
  148.6405  142.2299  156.1637 N   0  0  0  0  0  0  0  0  0  0  0  0
  147.4673  141.6485  156.4586 C   0  0  0  0  0  0  0  0  0  0  0  0
  147.2684  140.4374  156.3704 O   0  0  0  0  0  0  0  0  0  0  0  0
  146.3505  142.5730  156.9430 C   0  0  0  0  0  0  0  0  0  0  0  0
  146.1982  142.4946  158.3842 N   0  0  0  0  0  0  0  0  0  0  0  0
  146.4221  143.3986  159.3401 C   0  0  0  0  0  0  0  0  0  0  0  0
  146.1545  142.9153  160.5435 N   0  0  0  0  0  0  0  0  0  0  0  0
  145.7425  141.6200  160.2776 N   0  0  0  0  0  0  0  0  0  0  0  0
  145.7680  141.3642  158.9983 N   0  0  0  0  0  0  0  0  0  0  0  0
  152.0613  144.7349  157.8829 H   0  0  0  0  0  0  0  0  0  0  0  0
  150.8257  145.2070  159.0467 H   0  0  0  0  0  0  0  0  0  0  0  0
  150.4458  144.0393  157.7900 H   0  0  0  0  0  0  0  0  0  0  0  0
  150.7827  142.8937  159.9645 H   0  0  0  0  0  0  0  0  0  0  0  0
  153.5657  144.1380  159.9131 H   0  0  0  0  0  0  0  0  0  0  0  0
  152.2794  144.5463  161.0219 H   0  0  0  0  0  0  0  0  0  0  0  0
  153.9155  142.9853  162.0678 H   0  0  0  0  0  0  0  0  0  0  0  0
  152.3193  142.2770  161.9933 H   0  0  0  0  0  0  0  0  0  0  0  0
  154.6286  141.7165  160.0681 H   0  0  0  0  0  0  0  0  0  0  0  0
  153.9990  140.6153  161.2719 H   0  0  0  0  0  0  0  0  0  0  0  0
  153.1174  140.0691  159.0177 H   0  0  0  0  0  0  0  0  0  0  0  0
  151.8290  140.5015  160.1085 H   0  0  0  0  0  0  0  0  0  0  0  0
  153.0468  142.3574  157.9983 H   0  0  0  0  0  0  0  0  0  0  0  0
  150.9877  143.1821  156.6199 H   0  0  0  0  0  0  0  0  0  0  0  0
  151.9840  141.9154  155.9323 H   0  0  0  0  0  0  0  0  0  0  0  0
  149.9934  141.6100  154.7124 H   0  0  0  0  0  0  0  0  0  0  0  0
  149.7566  140.4578  156.0086 H   0  0  0  0  0  0  0  0  0  0  0  0
  148.7116  143.2325  156.2601 H   0  0  0  0  0  0  0  0  0  0  0  0
  146.5713  143.6046  156.6655 H   0  0  0  0  0  0  0  0  0  0  0  0
  145.4059  142.3056  156.4668 H   0  0  0  0  0  0  0  0  0  0  0  0
  146.7789  144.4011  159.1560 H   0  0  0  0  0  0  0  0  0  0  0  0
  1  2  1  0  0  0  0
  1 20  1  0  0  0  0
  1 21  1  0  0  0  0
  1 22  1  0  0  0  0
  2  7  1  0  0  0  0
  2  3  1  0  0  0  0
  2 23  1  0  0  0  0
  3  4  1  0  0  0  0
  3 24  1  0  0  0  0
  3 25  1  0  0  0  0
  4  5  1  0  0  0  0
  4 26  1  0  0  0  0
  4 27  1  0  0  0  0
  5  6  1  0  0  0  0
  5 28  1  0  0  0  0
  5 29  1  0  0  0  0
  6  7  1  0  0  0  0
  6 30  1  0  0  0  0
  6 31  1  0  0  0  0
  7  8  1  0  0  0  0
  7 32  1  0  0  0  0
  8  9  1  0  0  0  0
  9 10  1  0  0  0  0
  9 33  1  0  0  0  0
  9 34  1  0  0  0  0
 10 11  1  0  0  0  0
 10 35  1  0  0  0  0
 10 36  1  0  0  0  0
 11 12  1  0  0  0  0
 11 37  1  0  0  0  0
 12 13  2  0  0  0  0
 12 14  1  0  0  0  0
 14 15  1  0  0  0  0
 14 38  1  0  0  0  0
 14 39  1  0  0  0  0
 15 19  1  0  0  0  0
 15 16  1  0  0  0  0
 16 17  2  0  0  0  0
 16 40  1  0  0  0  0
 17 18  1  0  0  0  0
 18 19  2  0  0  0  0
M  END
> <s_m_source_file>
AV-unprocessed.smi

> <i_m_source_file_index>
1574

> <i_lp_mmshare_version>
43012

> <i_f3d_flags>
0

> <s_epik_input>
W0NIM11bQ0BASF0xW0NIMl1bQ0gyXVtDSDJdW0NIMl1bQ0BIXTFPW0NIMl1bQ0gyXVtOSF1DKD1PKVtDSDJdbjJbY0hdbm5uMg==

> <s_epik_cmdline>
J2VwaWtfcHl0aG9uJywgJy1waCcsICc3LjAnLCAnLXRuJywgJzgnLCAnLW1hJywgJzIwMCcsICctbWV0YWxfYmluZGluZycsICctaW1hZScsICc8aW5maWxlLm1hZT4nLCAnLW9tYWUnLCAnPG91dGZpbGUubWFlPic=

> <r_lp_tautomer_probability>
1

> <r_epik_Ionization_Penalty>
1.44269e-06

> <r_epik_Ionization_Penalty_Charging>
0

> <r_epik_Ionization_Penalty_Neutral>
1.44269e-06

> <r_epik_State_Penalty>
-0

> <r_epik_Charging_Adjusted_Penalty>
0

> <i_epik_Tot_Q>
0

> <i_epik_Tot_abs_Q>
0

> <r_epik_Metal_State_Penalty>
-0

> <b_epik_Metal_Only>
0

> <s_lp_Force_Field>
OPLS_2005

> <r_lp_Energy>
11.219

> <b_lp_Chiralities_Consistent>
1

> <s_lp_Variant>
AV-unprocessed.smi:1574-1

> <Gold.Version>
5.8.1

> <Gold.Id.Protein>
6NUR|6NUR_protein|mol2

> <Gold.PLP.Fitness>
42.0664

> <Gold.PLP.PLP>
-34.7931

> <Gold.PLP.part.hbond>
-3.1288

> <Gold.PLP.part.metal>
0.0000

> <Gold.PLP.part.buried>
-5.8789

> <Gold.PLP.part.nonpolar>
-25.6968

> <Gold.PLP.part.repulsive>
0.1224

> <Gold.PLP.ligand.clash>
0.0000

> <Gold.PLP.ligand.torsion>
0.8834

> <Gold.PLP.Chemscore.Hbond>
2.0000

> <Gold.PLP.Chemscore.CHOScore>
1.0000

> <Gold.PLP.Chemscore.Metal>
0.0000

> <Gold.Chemscore.Hbonds>
donor molecule, donor type, donor heavy atom, donor atom, acceptor molecule, acceptor atom, score
      L1  H    11    37       P1  8028  1.00
      P1  H  6934  6946       L1    18  0.80
      L1  C    16    40       P1  8029  0.68

> <Gold.PLP.Chemscore.Internal.Correction>
0.0400

> <Gold.Rescore>
     Score         DG    S(hbond)    S(metal)    S(lipo)     H(rot)  DE(clash)    DE(int)     intcor
     12.00     -13.14       1.24        0.00      93.71       2.90       0.16       0.99       ----

> <Gold.Chemscore.Fitness>
11.9975

> <Gold.Chemscore.DG>
-13.1396

> <Gold.Chemscore.ZeroCoef>
-5.4800

> <Gold.Chemscore.Hbond>
1.2373

> <Gold.Chemscore.Metal>
0.0000

> <Gold.Chemscore.Lipo>
93.7066

> <Gold.Chemscore.Internal_Hbond>
0.0000

> <Gold.Chemscore.DEClash>
0.1566

> <Gold.Chemscore.DEInternal>
0.9855

> <Gold.Chemscore.Rot>
2.9050

> <Gold.Chemscore.Internal.Correction>
   9.000000E+99

> <Gold.Chemscore.Hbonds>
donor molecule, donor type, donor heavy atom, donor atom, acceptor molecule, acceptor atom, score
      L1  H    11    37       P1  8028  0.92
      P1  H  6934  6946       L1    18  0.07

> <Gold.Chemscore.Hbond.Weighted>
-4.1326

> <Gold.Chemscore.Metal.Weighted>
-0.0000

> <Gold.Chemscore.Lipo.Weighted>
-10.9637

> <Gold.Chemscore.Internal_Hbond.Weighted>
0.0000

> <Gold.Chemscore.DEClash.Weighted>
0.1566

> <Gold.Chemscore.DEInternal.Weighted>
0.9855

> <Gold.Chemscore.Rot.Weighted>
7.4367

> <Gold.Chemscore.Internal.Correction.Weighted>
   9.000000E+99

> <Gold.Protein.RotatedTorsions>
[ 6907 6896 6895 6894 ] final  -50.81 input  -60.11 | X-H torsion
[ 7974 7965 7964 7962 ] final   98.98 input  175.53 | X-H torsion
[ 8008 7997 7996 7995 ] final   98.31 input   59.86 | X-H torsion
[ 10167 10162 10161 10158 ] final   86.87 input  -65.29 | X-H torsion
[ 10718 10713 10712 10709 ] final  -96.14 input   66.30 | X-H torsion
[ 10763 10752 10751 10750 ] final   36.77 input  -60.55 | X-H torsion
[ 11005 11000 10999 10996 ] final -168.80 input  -57.11 | X-H torsion

> <Gold.Protein.ActiveResidues>
 VAL166  LYS551  ARG553  GLY616  TRP617  ASP618  TYR619  PRO620  LYS621  CYS622 
 ASP623  PHE694  ASN695  SER759  ASP760  ASP761  ALA762  ILE779  LEU786  VAL792 
 PHE793  MET794  SER795  GLU796  ALA797  LYS798  CYS799  TRP800  GLU811  SER814 

> <Gold.Protein.RotatedAtoms>
  150.8671  134.8037  159.7126 H   0  0  0  0  0  0  0  0  0  0  0  0  # atno 6907 bound_to 6896
  152.4689  134.5006  159.9733 H   0  0  0  0  0  0  0  0  0  0  0  0  # atno 6908 bound_to 6896
  151.5101  133.3448  159.2919 H   0  0  0  0  0  0  0  0  0  0  0  0  # atno 6909 bound_to 6896
  145.4050  139.2342  143.3279 H   0  0  0  0  0  0  0  0  0  0  0  0  # atno 7974 bound_to 7965
  156.0991  140.3245  155.7918 H   0  0  0  0  0  0  0  0  0  0  0  0  # atno 8008 bound_to 7997
  155.4867  140.0558  157.2977 H   0  0  0  0  0  0  0  0  0  0  0  0  # atno 8009 bound_to 7997
  154.4685  140.2000  156.0070 H   0  0  0  0  0  0  0  0  0  0  0  0  # atno 8010 bound_to 7997
  139.8832  144.6428  150.8820 H   0  0  0  0  0  0  0  0  0  0  0  0  # atno 10167 bound_to 10162
  156.0056  130.5139  150.6182 H   0  0  0  0  0  0  0  0  0  0  0  0  # atno 10718 bound_to 10713
  153.0064  135.6296  154.2038 H   0  0  0  0  0  0  0  0  0  0  0  0  # atno 10763 bound_to 10752
  154.1781  135.2815  155.3062 H   0  0  0  0  0  0  0  0  0  0  0  0  # atno 10764 bound_to 10752
  154.5856  135.5634  153.7287 H   0  0  0  0  0  0  0  0  0  0  0  0  # atno 10765 bound_to 10752
  140.5379  134.5551  157.5092 H   0  0  0  0  0  0  0  0  0  0  0  0  # atno 11005 bound_to 11000
  146.2733  140.4753  142.8805 LP  0  0  0  0  0  0  0  0  0  0  0  0  # atno 17320 bound_to 7965
  144.8348  140.6764  143.6267 LP  0  0  0  0  0  0  0  0  0  0  0  0  # atno 17321 bound_to 7965
  140.7741  143.3569  151.1904 LP  0  0  0  0  0  0  0  0  0  0  0  0  # atno 17342 bound_to 10162
  139.7177  143.9274  152.2973 LP  0  0  0  0  0  0  0  0  0  0  0  0  # atno 17343 bound_to 10162
  157.4002  131.0809  151.1315 LP  0  0  0  0  0  0  0  0  0  0  0  0  # atno 17370 bound_to 10713
  157.1979  130.6381  149.5728 LP  0  0  0  0  0  0  0  0  0  0  0  0  # atno 17371 bound_to 10713
  139.9519  134.7602  156.0429 LP  0  0  0  0  0  0  0  0  0  0  0  0  # atno 17394 bound_to 11000
  141.1244  133.6603  156.3297 LP  0  0  0  0  0  0  0  0  0  0  0  0  # atno 17395 bound_to 11000

$$$$
