AV-unprocessed.smi:987|AV-procd|sdf|4321|dock2
  -GOLD-   22720 2223D 1   1.00000     0.00000
 Structure written by MMmdl.
 50 52  0  0  0  0  0  0  0  0  1 V2000
  152.1905  145.0750  158.4693 C   0  0  0  0  0  0  0  0  0  0  0  0
  152.3874  143.5561  158.4219 C   0  0  2  0  0  0  0  0  0  0  0  0
  151.2938  142.8606  157.5911 C   0  0  0  0  0  0  0  0  0  0  0  0
  151.4405  141.4102  157.6712 N   0  0  0  0  0  0  0  0  0  0  0  0
  150.7171  140.6180  156.7543 C   0  0  0  0  0  0  0  0  0  0  0  0
  151.3770  140.0395  155.6452 C   0  0  0  0  0  0  0  0  0  0  0  0
  150.6394  139.2484  154.7446 C   0  0  0  0  0  0  0  0  0  0  0  0
  149.2651  139.0433  154.9730 C   0  0  0  0  0  0  0  0  0  0  0  0
  148.5423  138.2534  154.0383 N   0  0  0  0  0  0  0  0  0  0  0  0
  147.2140  138.1986  153.8405 C   0  0  0  0  0  0  0  0  0  0  0  0
  146.3720  138.8173  154.4904 O   0  0  0  0  0  0  0  0  0  0  0  0
  146.9097  137.3567  152.8432 N   0  0  0  0  0  0  0  0  0  0  0  0
  145.5613  137.0768  152.3583 C   0  0  0  0  0  0  0  0  0  0  0  0
  145.5567  136.1225  151.1505 C   0  0  0  0  0  0  0  0  0  0  0  0
  146.1648  136.8465  150.0986 O   0  0  0  0  0  0  0  0  0  0  0  0
  146.0820  134.6842  151.3303 C   0  0  0  0  0  0  0  0  0  0  0  0
  144.9255  134.1764  150.4679 C   0  0  0  0  0  0  0  0  0  0  0  0
  144.2070  135.4975  150.7491 C   0  0  0  0  0  0  0  0  0  0  0  0
  148.6865  139.6756  156.0990 C   0  0  0  0  0  0  0  0  0  0  0  0
  149.3898  140.4387  156.9625 N   0  0  0  0  0  0  0  0  0  0  0  0
  151.4656  140.9102  159.0428 C   0  0  0  0  0  0  0  0  0  0  0  0
  152.5252  141.6499  159.8831 C   0  0  1  0  0  0  0  0  0  0  0  0
  153.9673  141.2077  159.5765 C   0  0  0  0  0  0  0  0  0  0  0  0
  152.3559  143.0641  159.7612 O   0  0  0  0  0  0  0  0  0  0  0  0
  152.2219  145.5058  157.4683 H   0  0  0  0  0  0  0  0  0  0  0  0
  152.9730  145.5511  159.0604 H   0  0  0  0  0  0  0  0  0  0  0  0
  151.2306  145.3351  158.9163 H   0  0  0  0  0  0  0  0  0  0  0  0
  153.3643  143.3578  157.9805 H   0  0  0  0  0  0  0  0  0  0  0  0
  150.3049  143.1421  157.9563 H   0  0  0  0  0  0  0  0  0  0  0  0
  151.3645  143.1891  156.5531 H   0  0  0  0  0  0  0  0  0  0  0  0
  152.4296  140.2054  155.4704 H   0  0  0  0  0  0  0  0  0  0  0  0
  151.1280  138.8040  153.8898 H   0  0  0  0  0  0  0  0  0  0  0  0
  149.0998  137.6203  153.4841 H   0  0  0  0  0  0  0  0  0  0  0  0
  147.6674  136.8844  152.3725 H   0  0  0  0  0  0  0  0  0  0  0  0
  145.0315  136.6198  153.1942 H   0  0  0  0  0  0  0  0  0  0  0  0
  145.0233  138.0048  152.1531 H   0  0  0  0  0  0  0  0  0  0  0  0
  145.6118  137.5912  149.9184 H   0  0  0  0  0  0  0  0  0  0  0  0
  147.0715  134.5021  150.9091 H   0  0  0  0  0  0  0  0  0  0  0  0
  146.0174  134.3290  152.3601 H   0  0  0  0  0  0  0  0  0  0  0  0
  145.2006  134.0603  149.4186 H   0  0  0  0  0  0  0  0  0  0  0  0
  144.4206  133.2914  150.8563 H   0  0  0  0  0  0  0  0  0  0  0  0
  143.5038  135.4198  151.5799 H   0  0  0  0  0  0  0  0  0  0  0  0
  143.7344  135.9436  149.8731 H   0  0  0  0  0  0  0  0  0  0  0  0
  147.6336  139.5999  156.3203 H   0  0  0  0  0  0  0  0  0  0  0  0
  150.4784  141.0689  159.4791 H   0  0  0  0  0  0  0  0  0  0  0  0
  151.6542  139.8380  159.0835 H   0  0  0  0  0  0  0  0  0  0  0  0
  152.3403  141.4124  160.9310 H   0  0  0  0  0  0  0  0  0  0  0  0
  154.1033  140.1509  159.8071 H   0  0  0  0  0  0  0  0  0  0  0  0
  154.6825  141.7707  160.1762 H   0  0  0  0  0  0  0  0  0  0  0  0
  154.2282  141.3444  158.5275 H   0  0  0  0  0  0  0  0  0  0  0  0
  1  2  1  0  0  0  0
  1 25  1  0  0  0  0
  1 26  1  0  0  0  0
  1 27  1  0  0  0  0
  2 24  1  0  0  0  0
  2  3  1  0  0  0  0
  2 28  1  0  0  0  0
  3  4  1  0  0  0  0
  3 29  1  0  0  0  0
  3 30  1  0  0  0  0
  4  5  1  0  0  0  0
  4 21  1  0  0  0  0
  5 20  1  0  0  0  0
  5  6  2  0  0  0  0
  6  7  1  0  0  0  0
  6 31  1  0  0  0  0
  7  8  2  0  0  0  0
  7 32  1  0  0  0  0
  8  9  1  0  0  0  0
  8 19  1  0  0  0  0
  9 10  1  0  0  0  0
  9 33  1  0  0  0  0
 10 11  2  0  0  0  0
 10 12  1  0  0  0  0
 12 13  1  0  0  0  0
 12 34  1  0  0  0  0
 13 14  1  0  0  0  0
 13 35  1  0  0  0  0
 13 36  1  0  0  0  0
 14 18  1  0  0  0  0
 14 15  1  0  0  0  0
 14 16  1  0  0  0  0
 15 37  1  0  0  0  0
 16 17  1  0  0  0  0
 16 38  1  0  0  0  0
 16 39  1  0  0  0  0
 17 18  1  0  0  0  0
 17 40  1  0  0  0  0
 17 41  1  0  0  0  0
 18 42  1  0  0  0  0
 18 43  1  0  0  0  0
 19 20  2  0  0  0  0
 19 44  1  0  0  0  0
 21 22  1  0  0  0  0
 21 45  1  0  0  0  0
 21 46  1  0  0  0  0
 22 23  1  0  0  0  0
 22 24  1  0  0  0  0
 22 47  1  0  0  0  0
 23 48  1  0  0  0  0
 23 49  1  0  0  0  0
 23 50  1  0  0  0  0
M  END
> <s_m_source_file>
AV-unprocessed.smi

> <i_m_source_file_index>
987

> <i_lp_mmshare_version>
43012

> <i_f3d_flags>
0

> <s_epik_input>
W0NIM11bQ0BASF0xW0NIMl1OKFtDSDJdW0NASF0oTzEpW0NIM10pYzJbY0hdW2NIXWMoW2NIXW4yKVtOSF1DKD1PKVtOSF1bQ0gyXUMzKFtPSF0pW0NIMl1bQ0gyXVtDSDJdMw==

> <s_epik_cmdline>
J2VwaWtfcHl0aG9uJywgJy1waCcsICc3LjAnLCAnLXRuJywgJzgnLCAnLW1hJywgJzIwMCcsICctbWV0YWxfYmluZGluZycsICctaW1hZScsICc8aW5maWxlLm1hZT4nLCAnLW9tYWUnLCAnPG91dGZpbGUubWFlPic=

> <r_lp_tautomer_probability>
1

> <r_epik_Ionization_Penalty>
0.00275455

> <r_epik_Ionization_Penalty_Charging>
0

> <r_epik_Ionization_Penalty_Neutral>
0.00275455

> <r_epik_State_Penalty>
0.00189097

> <r_epik_Charging_Adjusted_Penalty>
0.00189097

> <i_epik_Tot_Q>
0

> <i_epik_Tot_abs_Q>
0

> <r_epik_Metal_State_Penalty>
-0

> <b_epik_Metal_Only>
0

> <s_lp_Force_Field>
OPLS_2005

> <r_lp_Energy>
31.3911

> <b_lp_Chiralities_Consistent>
1

> <s_lp_Variant>
AV-unprocessed.smi:987-1

> <Gold.Version>
5.8.1

> <Gold.Id.Protein>
6NUR|6NUR_protein|mol2

> <Gold.PLP.Fitness>
52.2395

> <Gold.PLP.PLP>
-43.8152

> <Gold.PLP.part.hbond>
-4.5021

> <Gold.PLP.part.metal>
0.0000

> <Gold.PLP.part.buried>
-4.0671

> <Gold.PLP.part.nonpolar>
-35.3388

> <Gold.PLP.part.repulsive>
0.1668

> <Gold.PLP.ligand.clash>
0.0000

> <Gold.PLP.ligand.torsion>
0.3558

> <Gold.PLP.Chemscore.Hbond>
2.9148

> <Gold.PLP.Chemscore.CHOScore>
0.0000

> <Gold.PLP.Chemscore.Metal>
0.0000

> <Gold.Chemscore.Hbonds>
donor molecule, donor type, donor heavy atom, donor atom, acceptor molecule, acceptor atom, score
      L1  H     9    33       P1  7948  0.67
      L1  H    12    34       P1  7948  0.98
      L1  H    15    37       P1 10171  1.00
      P1  H  7954  7966       L1    15  0.28

> <Gold.PLP.Chemscore.Internal.Correction>
0.3916

> <Gold.Rescore>
     Score         DG    S(hbond)    S(metal)    S(lipo)     H(rot)  DE(clash)    DE(int)     intcor
     21.35     -23.20       2.86        0.00     112.03       1.93       0.27       1.58       ----

> <Gold.Chemscore.Fitness>
21.3550

> <Gold.Chemscore.DG>
-23.1979

> <Gold.Chemscore.ZeroCoef>
-5.4800

> <Gold.Chemscore.Hbond>
2.8628

> <Gold.Chemscore.Metal>
0.0000

> <Gold.Chemscore.Lipo>
112.0258

> <Gold.Chemscore.Internal_Hbond>
0.0000

> <Gold.Chemscore.DEClash>
0.2679

> <Gold.Chemscore.DEInternal>
1.5751

> <Gold.Chemscore.Rot>
1.9340

> <Gold.Chemscore.Internal.Correction>
   9.000000E+99

> <Gold.Chemscore.Hbonds>
donor molecule, donor type, donor heavy atom, donor atom, acceptor molecule, acceptor atom, score
      L1  H     9    33       P1  7948  0.65
      L1  H    12    34       P1  7948  0.91
      L1  H    15    37       P1 10171  0.96
      P1  H  7954  7966       L1    15  0.07

> <Gold.Chemscore.Hbond.Weighted>
-9.5618

> <Gold.Chemscore.Metal.Weighted>
-0.0000

> <Gold.Chemscore.Lipo.Weighted>
-13.1070

> <Gold.Chemscore.Internal_Hbond.Weighted>
0.0000

> <Gold.Chemscore.DEClash.Weighted>
0.2679

> <Gold.Chemscore.DEInternal.Weighted>
1.5751

> <Gold.Chemscore.Rot.Weighted>
4.9509

> <Gold.Chemscore.Internal.Correction.Weighted>
   9.000000E+99

> <Gold.Protein.RotatedTorsions>
[ 6907 6896 6895 6894 ] final   17.10 input  -60.11 | X-H torsion
[ 7974 7965 7964 7962 ] final   59.40 input  175.53 | X-H torsion
[ 8008 7997 7996 7995 ] final  171.56 input   59.86 | X-H torsion
[ 10167 10162 10161 10158 ] final   25.25 input  -65.29 | X-H torsion
[ 10718 10713 10712 10709 ] final  -14.76 input   66.30 | X-H torsion
[ 10763 10752 10751 10750 ] final  118.43 input  -60.55 | X-H torsion
[ 11005 11000 10999 10996 ] final  -18.87 input  -57.11 | X-H torsion

> <Gold.Protein.ActiveResidues>
 VAL166  LYS551  ARG553  GLY616  TRP617  ASP618  TYR619  PRO620  LYS621  CYS622 
 ASP623  PHE694  ASN695  SER759  ASP760  ASP761  ALA762  ILE779  LEU786  VAL792 
 PHE793  MET794  SER795  GLU796  ALA797  LYS798  CYS799  TRP800  GLU811  SER814 

> <Gold.Protein.RotatedAtoms>
  151.8444  135.0579  160.0451 H   0  0  0  0  0  0  0  0  0  0  0  0  # atno 6907 bound_to 6896
  152.2784  133.5443  159.5491 H   0  0  0  0  0  0  0  0  0  0  0  0  # atno 6908 bound_to 6896
  150.7179  134.0514  159.3842 H   0  0  0  0  0  0  0  0  0  0  0  0  # atno 6909 bound_to 6896
  145.9075  139.3628  143.0555 H   0  0  0  0  0  0  0  0  0  0  0  0  # atno 7974 bound_to 7965
  156.1259  140.1508  156.9136 H   0  0  0  0  0  0  0  0  0  0  0  0  # atno 8008 bound_to 7997
  154.4871  140.0862  156.7552 H   0  0  0  0  0  0  0  0  0  0  0  0  # atno 8009 bound_to 7997
  155.4344  140.3428  155.4285 H   0  0  0  0  0  0  0  0  0  0  0  0  # atno 8010 bound_to 7997
  140.5122  144.0142  150.6378 H   0  0  0  0  0  0  0  0  0  0  0  0  # atno 10167 bound_to 10162
  156.6114  130.4850  149.6200 H   0  0  0  0  0  0  0  0  0  0  0  0  # atno 10718 bound_to 10713
  153.5676  135.3508  155.2825 H   0  0  0  0  0  0  0  0  0  0  0  0  # atno 10763 bound_to 10752
  154.8686  135.4151  154.2761 H   0  0  0  0  0  0  0  0  0  0  0  0  # atno 10764 bound_to 10752
  153.3520  135.7055  153.6850 H   0  0  0  0  0  0  0  0  0  0  0  0  # atno 10765 bound_to 10752
  140.8311  133.7996  155.9759 H   0  0  0  0  0  0  0  0  0  0  0  0  # atno 11005 bound_to 11000
  145.8713  140.9418  143.0649 LP  0  0  0  0  0  0  0  0  0  0  0  0  # atno 17320 bound_to 7965
  144.6740  140.0659  143.7474 LP  0  0  0  0  0  0  0  0  0  0  0  0  # atno 17321 bound_to 7965
  140.3467  143.2987  152.0530 LP  0  0  0  0  0  0  0  0  0  0  0  0  # atno 17342 bound_to 10162
  139.4899  144.6403  151.6890 LP  0  0  0  0  0  0  0  0  0  0  0  0  # atno 17343 bound_to 10162
  156.2387  130.6838  151.1534 LP  0  0  0  0  0  0  0  0  0  0  0  0  # atno 17370 bound_to 10713
  157.7253  131.0654  150.5958 LP  0  0  0  0  0  0  0  0  0  0  0  0  # atno 17371 bound_to 10713
  140.8997  134.2393  157.5048 LP  0  0  0  0  0  0  0  0  0  0  0  0  # atno 17394 bound_to 11000
  139.8705  134.9701  156.4688 LP  0  0  0  0  0  0  0  0  0  0  0  0  # atno 17395 bound_to 11000

$$$$
