AV-unprocessed.smi:3032|AV-procd|sdf|11558|dock3
  -GOLD-   2272016523D 1   1.00000     0.00000
 Structure written by MMmdl.
 37 38  0  0  0  0  0  0  0  0  1 V2000
  153.3427  142.3773  161.1839 C   0  0  0  0  0  0  0  0  0  0  0  0
  152.2559  142.4215  160.1005 C   0  0  1  0  0  0  0  0  0  0  0  0
  152.1157  143.8331  159.4990 C   0  0  0  0  0  0  0  0  0  0  0  0
  151.0367  143.8769  158.4051 C   0  0  0  0  0  0  0  0  0  0  0  0
  151.3144  142.8396  157.3059 C   0  0  0  0  0  0  0  0  0  0  0  0
  151.4366  141.4209  157.8990 C   0  0  1  0  0  0  0  0  0  0  0  0
  151.7371  140.3850  156.8085 C   0  0  0  0  0  0  0  0  0  0  0  0
  152.7146  139.6433  156.9113 O   0  0  0  0  0  0  0  0  0  0  0  0
  150.8711  140.3267  155.7836 N   0  0  0  0  0  0  0  0  0  0  0  0
  150.9044  139.3449  154.7017 C   0  0  0  0  0  0  0  0  0  0  0  0
  149.6955  138.3897  154.7458 C   0  0  0  0  0  0  0  0  0  0  0  0
  148.4855  138.9052  154.0311 C   0  0  0  0  0  0  0  0  0  0  0  0
  148.0454  138.3649  152.8926 N   0  0  0  0  0  0  0  0  0  0  0  0
  146.9721  139.0562  152.4562 N   0  0  0  0  0  0  0  0  0  0  0  0
  146.8403  139.9886  153.3980 C   0  0  0  0  0  0  0  0  0  0  0  0
  147.7544  139.9465  154.4135 N   0  0  0  0  0  0  0  0  0  0  0  0
  152.5281  141.3884  158.9901 C   0  0  0  0  0  0  0  0  0  0  0  0
  148.4318  137.5745  152.3965 H   0  0  0  0  0  0  0  0  0  0  0  0
  154.3205  142.6337  160.7750 H   0  0  0  0  0  0  0  0  0  0  0  0
  153.4170  141.3830  161.6253 H   0  0  0  0  0  0  0  0  0  0  0  0
  153.1236  143.0792  161.9887 H   0  0  0  0  0  0  0  0  0  0  0  0
  151.3086  142.1626  160.5754 H   0  0  0  0  0  0  0  0  0  0  0  0
  151.8695  144.5506  160.2826 H   0  0  0  0  0  0  0  0  0  0  0  0
  153.0706  144.1515  159.0787 H   0  0  0  0  0  0  0  0  0  0  0  0
  150.0585  143.6865  158.8483 H   0  0  0  0  0  0  0  0  0  0  0  0
  150.9901  144.8757  157.9700 H   0  0  0  0  0  0  0  0  0  0  0  0
  150.5140  142.8705  156.5653 H   0  0  0  0  0  0  0  0  0  0  0  0
  152.2320  143.1106  156.7808 H   0  0  0  0  0  0  0  0  0  0  0  0
  150.4825  141.1643  158.3634 H   0  0  0  0  0  0  0  0  0  0  0  0
  150.1041  140.9833  155.7779 H   0  0  0  0  0  0  0  0  0  0  0  0
  150.9109  139.8822  153.7531 H   0  0  0  0  0  0  0  0  0  0  0  0
  151.8320  138.7707  154.7301 H   0  0  0  0  0  0  0  0  0  0  0  0
  149.9732  137.4274  154.3133 H   0  0  0  0  0  0  0  0  0  0  0  0
  149.4250  138.1897  155.7830 H   0  0  0  0  0  0  0  0  0  0  0  0
  146.0548  140.7284  153.3527 H   0  0  0  0  0  0  0  0  0  0  0  0
  153.5065  141.5827  158.5467 H   0  0  0  0  0  0  0  0  0  0  0  0
  152.5835  140.3898  159.4264 H   0  0  0  0  0  0  0  0  0  0  0  0
  1  2  1  0  0  0  0
  1 19  1  0  0  0  0
  1 20  1  0  0  0  0
  1 21  1  0  0  0  0
  2 17  1  0  0  0  0
  2  3  1  0  0  0  0
  2 22  1  0  0  0  0
  3  4  1  0  0  0  0
  3 23  1  0  0  0  0
  3 24  1  0  0  0  0
  4  5  1  0  0  0  0
  4 25  1  0  0  0  0
  4 26  1  0  0  0  0
  5  6  1  0  0  0  0
  5 27  1  0  0  0  0
  5 28  1  0  0  0  0
  6  7  1  0  0  0  0
  6 17  1  0  0  0  0
  6 29  1  0  0  0  0
  7  8  2  0  0  0  0
  7  9  1  0  0  0  0
  9 10  1  0  0  0  0
  9 30  1  0  0  0  0
 10 11  1  0  0  0  0
 10 31  1  0  0  0  0
 10 32  1  0  0  0  0
 11 33  1  0  0  0  0
 11 34  1  0  0  0  0
 11 12  1  0  0  0  0
 12 16  2  0  0  0  0
 12 13  1  0  0  0  0
 13 18  1  0  0  0  0
 13 14  1  0  0  0  0
 14 15  2  0  0  0  0
 15 16  1  0  0  0  0
 15 35  1  0  0  0  0
 17 36  1  0  0  0  0
 17 37  1  0  0  0  0
M  END
> <s_m_source_file>
AV-unprocessed.smi

> <i_m_source_file_index>
3032

> <i_lp_mmshare_version>
43012

> <i_f3d_flags>
0

> <s_epik_input>
W0NIM11bQ0BASF0xW0NIMl1bQ0gyXVtDSDJdW0NASF0oW0NIMl0xKUMoPU8pW05IXVtDSDJdW0NIMl1jMm5uW2NIXVtuSF0y

> <s_epik_cmdline>
J2VwaWtfcHl0aG9uJywgJy1waCcsICc3LjAnLCAnLXRuJywgJzgnLCAnLW1hJywgJzIwMCcsICctbWV0YWxfYmluZGluZycsICctaW1hZScsICc8aW5maWxlLm1hZT4nLCAnLW9tYWUnLCAnPG91dGZpbGUubWFlPic=

> <r_lp_tautomer_probability>
0.948284

> <r_epik_Ionization_Penalty>
0.000474052

> <r_epik_Ionization_Penalty_Charging>
0

> <r_epik_Ionization_Penalty_Neutral>
0.000474052

> <r_epik_State_Penalty>
0.271807

> <r_epik_Charging_Adjusted_Penalty>
0.271807

> <i_epik_Tot_Q>
0

> <i_epik_Tot_abs_Q>
0

> <r_epik_Metal_State_Penalty>
0.397201

> <b_epik_Metal_Only>
0

> <s_lp_Force_Field>
OPLS_2005

> <r_lp_Energy>
10.7407

> <b_lp_Chiralities_Consistent>
1

> <s_lp_Variant>
AV-unprocessed.smi:3032-2

> <Gold.Version>
5.8.1

> <Gold.Id.Protein>
6NUR|6NUR_protein|mol2

> <Gold.PLP.Fitness>
42.5197

> <Gold.PLP.PLP>
-34.1826

> <Gold.PLP.part.hbond>
-3.0000

> <Gold.PLP.part.metal>
0.0000

> <Gold.PLP.part.buried>
-5.0606

> <Gold.PLP.part.nonpolar>
-28.2441

> <Gold.PLP.part.repulsive>
0.8599

> <Gold.PLP.ligand.clash>
0.0000

> <Gold.PLP.ligand.torsion>
0.2822

> <Gold.PLP.Chemscore.Hbond>
2.0000

> <Gold.PLP.Chemscore.CHOScore>
0.9613

> <Gold.PLP.Chemscore.Metal>
0.0000

> <Gold.Chemscore.Hbonds>
donor molecule, donor type, donor heavy atom, donor atom, acceptor molecule, acceptor atom, score
      L1  H    13    18       P1  7948  0.96
      P1  H  7997  8008       L1     8  1.00
      L1  C    15    35       P1 10175  0.97

> <Gold.PLP.Chemscore.Internal.Correction>
0.0177

> <Gold.Rescore>
     Score         DG    S(hbond)    S(metal)    S(lipo)     H(rot)  DE(clash)    DE(int)     intcor
     16.09     -16.35       1.99        0.00      85.30       2.25       0.07       0.19       ----

> <Gold.Chemscore.Fitness>
16.0913

> <Gold.Chemscore.DG>
-16.3529

> <Gold.Chemscore.ZeroCoef>
-5.4800

> <Gold.Chemscore.Hbond>
1.9920

> <Gold.Chemscore.Metal>
0.0000

> <Gold.Chemscore.Lipo>
85.2983

> <Gold.Chemscore.Internal_Hbond>
0.0000

> <Gold.Chemscore.DEClash>
0.0742

> <Gold.Chemscore.DEInternal>
0.1874

> <Gold.Chemscore.Rot>
2.2501

> <Gold.Chemscore.Internal.Correction>
   9.000000E+99

> <Gold.Chemscore.Hbonds>
donor molecule, donor type, donor heavy atom, donor atom, acceptor molecule, acceptor atom, score
      L1  H    13    18       P1  7948  0.91
      P1  H  7997  8008       L1     8  0.96

> <Gold.Chemscore.Hbond.Weighted>
-6.6533

> <Gold.Chemscore.Metal.Weighted>
-0.0000

> <Gold.Chemscore.Lipo.Weighted>
-9.9799

> <Gold.Chemscore.Internal_Hbond.Weighted>
0.0000

> <Gold.Chemscore.DEClash.Weighted>
0.0742

> <Gold.Chemscore.DEInternal.Weighted>
0.1874

> <Gold.Chemscore.Rot.Weighted>
5.7603

> <Gold.Chemscore.Internal.Correction.Weighted>
   9.000000E+99

> <Gold.Protein.RotatedTorsions>
[ 6907 6896 6895 6894 ] final  -49.26 input  -60.11 | X-H torsion
[ 7974 7965 7964 7962 ] final   99.75 input  175.53 | X-H torsion
[ 8008 7997 7996 7995 ] final  -40.13 input   59.86 | X-H torsion
[ 10167 10162 10161 10158 ] final -120.64 input  -65.29 | X-H torsion
[ 10718 10713 10712 10709 ] final   22.61 input   66.30 | X-H torsion
[ 10763 10752 10751 10750 ] final -102.72 input  -60.55 | X-H torsion
[ 11005 11000 10999 10996 ] final  -74.94 input  -57.11 | X-H torsion

> <Gold.Protein.ActiveResidues>
 VAL166  LYS551  ARG553  GLY616  TRP617  ASP618  TYR619  PRO620  LYS621  CYS622 
 ASP623  PHE694  ASN695  SER759  ASP760  ASP761  ALA762  ILE779  LEU786  VAL792 
 PHE793  MET794  SER795  GLU796  ALA797  LYS798  CYS799  TRP800  GLU811  SER814 

> <Gold.Protein.RotatedAtoms>
  150.8822  134.8215  159.7233 H   0  0  0  0  0  0  0  0  0  0  0  0  # atno 6907 bound_to 6896
  152.4785  134.4778  159.9666 H   0  0  0  0  0  0  0  0  0  0  0  0  # atno 6908 bound_to 6896
  151.4851  133.3499  159.2880 H   0  0  0  0  0  0  0  0  0  0  0  0  # atno 6909 bound_to 6896
  145.3947  139.2357  143.3333 H   0  0  0  0  0  0  0  0  0  0  0  0  # atno 7974 bound_to 7965
  154.4015  140.1533  156.2976 H   0  0  0  0  0  0  0  0  0  0  0  0  # atno 8008 bound_to 7997
  155.8729  140.3448  155.5812 H   0  0  0  0  0  0  0  0  0  0  0  0  # atno 8009 bound_to 7997
  155.7754  140.0836  157.2077 H   0  0  0  0  0  0  0  0  0  0  0  0  # atno 8010 bound_to 7997
  140.0336  143.5223  152.2164 H   0  0  0  0  0  0  0  0  0  0  0  0  # atno 10167 bound_to 10162
  157.1547  130.6690  149.6023 H   0  0  0  0  0  0  0  0  0  0  0  0  # atno 10718 bound_to 10713
  154.7755  135.4850  153.9735 H   0  0  0  0  0  0  0  0  0  0  0  0  # atno 10763 bound_to 10752
  153.1423  135.6775  153.9015 H   0  0  0  0  0  0  0  0  0  0  0  0  # atno 10764 bound_to 10752
  153.8686  135.3146  155.3419 H   0  0  0  0  0  0  0  0  0  0  0  0  # atno 10765 bound_to 10752
  141.1640  133.6929  156.7441 H   0  0  0  0  0  0  0  0  0  0  0  0  # atno 11005 bound_to 11000
  146.2781  140.4635  142.8787 LP  0  0  0  0  0  0  0  0  0  0  0  0  # atno 17320 bound_to 7965
  144.8415  140.6865  143.6226 LP  0  0  0  0  0  0  0  0  0  0  0  0  # atno 17321 bound_to 7965
  139.6060  144.7596  151.3062 LP  0  0  0  0  0  0  0  0  0  0  0  0  # atno 17342 bound_to 10162
  140.7291  143.6917  150.7917 LP  0  0  0  0  0  0  0  0  0  0  0  0  # atno 17343 bound_to 10162
  155.9764  130.4732  150.6527 LP  0  0  0  0  0  0  0  0  0  0  0  0  # atno 17370 bound_to 10713
  157.4188  131.0834  151.1151 LP  0  0  0  0  0  0  0  0  0  0  0  0  # atno 17371 bound_to 10713
  140.2652  134.8435  157.3796 LP  0  0  0  0  0  0  0  0  0  0  0  0  # atno 17394 bound_to 11000
  140.1573  134.4773  155.7919 LP  0  0  0  0  0  0  0  0  0  0  0  0  # atno 17395 bound_to 11000

$$$$
