#       Name:                AV-unprocessed.smi:3015
#       Creating user name   scv26
#       Creation time:       Fri Mar 27 16:40:46 2020


#       File generated by GOLD software.
#

@<TRIPOS>MOLECULE
AV-unprocessed.smi:3015
    27    27     1
SMALL
NO_CHARGES


@<TRIPOS>ATOM
      1 ****         0.8072  -1.1787   1.2801 N.4            1 S1                 1.0000
      2 ****         1.2246  -0.6057  -0.0138 C.3            1 S1                 0.0000
      3 ****         2.7590  -0.6040  -0.1258 C.3            1 S1                 0.0000
      4 ****         3.2451  -1.9286  -0.1903 O.3            1 S1                 0.0000
      5 ****         0.6456   0.8116  -0.1876 C.3            1 S1                 0.0000
      6 ****        -0.8730   0.8388  -0.1910 C.ar           1 S1                 0.0000
      7 ****        -1.6010   0.4223  -1.3251 C.ar           1 S1                 0.0000
      8 ****        -3.0078   0.4613  -1.2808 C.ar           1 S1                 0.0000
      9 ****        -3.6298   0.9181  -0.1017 C.ar           1 S1                 0.0000
     10 ****        -2.9431   1.3203   0.9896 N.ar           1 S1                 0.0000
     11 ****        -1.5947   1.2836   0.9377 C.ar           1 S1                 0.0000
     12 ****         1.1630  -0.6090   2.0339 H              1 S1                 0.0000
     13 ****         1.1763  -2.1154   1.3627 H              1 S1                 0.0000
     14 ****         0.8210  -1.2410  -0.8036 H              1 S1                 0.0000
     15 ****         3.0733  -0.0866  -1.0330 H              1 S1                 0.0000
     16 ****         3.2173  -0.0845   0.7167 H              1 S1                 0.0000
     17 ****         4.1825  -1.9018  -0.3124 H              1 S1                 0.0000
     18 ****         1.0185   1.4703   0.5982 H              1 S1                 0.0000
     19 ****         0.9916   1.2399  -1.1294 H              1 S1                 0.0000
     20 ****        -1.0922   0.0765  -2.2131 H              1 S1                 0.0000
     21 ****        -3.5971   0.1495  -2.1305 H              1 S1                 0.0000
     22 ****        -4.7069   0.9608  -0.0334 H              1 S1                 0.0000
     23 ****        -1.0771   1.6110   1.8274 H              1 S1                 0.0000
     24 ****        -0.2014  -1.2076   1.3250 H              1 S1                 0.0000
     25 ****         2.8191  -2.4064  -0.9586 LP             1 S1                 0.0000
     26 ****         3.0301  -2.4078   0.6607 LP             1 S1                 0.0000
     27 ****        -3.4189   1.6355   1.8107 LP             1 S1                 0.0000
@<TRIPOS>BOND
    1    1    2 1     
    2    1   12 1     
    3    1   13 1     
    4    1   24 1     
    5    2    3 1     
    6    2    5 1     
    7    2   14 1     
    8    3    4 1     
    9    3   15 1     
   10    3   16 1     
   11    4   17 1     
   12    5    6 1     
   13    5   18 1     
   14    5   19 1     
   15    6   11 ar    
   16    6    7 ar    
   17    7    8 ar    
   18    7   20 1     
   19    8    9 ar    
   20    8   21 1     
   21    9   10 ar    
   22    9   22 1     
   23   10   11 ar    
   24   11   23 1     
   25    4   25 1     
   26    4   26 1     
   27   10   27 1     
@<TRIPOS>SUBSTRUCTURE
      1 S1             1
@<TRIPOS>SET
LONE_PAIRS      STATIC     ATOMS    <user>   **** ""
3 25 26 27
DONOR_HYDROGENS      STATIC     ATOMS    <user>   **** ""
4 12 13 24 17
ATOM$BLUE        STATIC     ATOMS    COLORGROUP SYSTEM
3 25 26 27
ATOM$RED        STATIC     ATOMS    COLORGROUP SYSTEM
4 12 13 24 17
