#       Name:                AV-unprocessed.smi:1110
#       Creating user name   scv26
#       Creation time:       Fri Mar 27 03:33:40 2020


#       File generated by GOLD software.
#

@<TRIPOS>MOLECULE
AV-unprocessed.smi:1110
    48    49     1
SMALL
NO_CHARGES


@<TRIPOS>ATOM
      1 ****         0.0389   4.1282   2.4890 C.3            1 S1                 0.0000
      2 ****        -0.4967   3.3029   1.3112 C.3            1 S1                 0.0000
      3 ****        -0.0508   1.8186   1.3415 C.3            1 S1                 0.0000
      4 ****         1.4634   1.6502   1.0659 C.3            1 S1                 0.0000
      5 ****         1.8617   0.2446   1.0770 N.am           1 S1                 0.0000
      6 ****         2.0987  -0.5055  -0.0100 C.2            1 S1                 0.0000
      7 ****         2.1161  -0.0546  -1.1552 O.2            1 S1                 0.0000
      8 ****         2.3240  -2.0023   0.2368 C.3            1 S1                 0.0000
      9 ****         1.5841  -2.8453  -0.7185 N.am           1 S1                 0.0000
     10 ****         2.3342  -3.5003  -1.7156 C.2            1 S1                 0.0000
     11 ****         1.7574  -4.2939  -2.6320 C.2            1 S1                 0.0000
     12 ****         0.3256  -4.4711  -2.5784 C.2            1 S1                 0.0000
     13 ****        -0.4029  -3.8464  -1.6321 C.2            1 S1                 0.0000
     14 ****         0.2224  -2.9751  -0.6308 C.2            1 S1                 0.0000
     15 ****        -0.4379  -2.3929   0.2315 O.2            1 S1                 0.0000
     16 ****        -0.8646   0.9364   0.4534 N.4            1 S1                 1.0000
     17 ****        -2.2107   0.5855   0.9619 C.3            1 S1                 0.0000
     18 ****        -3.0626   0.3331  -0.2798 C.3            1 S1                 0.0000
     19 ****        -2.4909   1.3228  -1.2883 C.3            1 S1                 0.0000
     20 ****        -0.9934   1.3307  -0.9722 C.3            1 S1                 0.0000
     21 ****        -0.3496   5.1462   2.4530 H              1 S1                 0.0000
     22 ****         1.1264   4.1953   2.4736 H              1 S1                 0.0000
     23 ****        -0.2591   3.6950   3.4441 H              1 S1                 0.0000
     24 ****        -1.5838   3.3714   1.3266 H              1 S1                 0.0000
     25 ****        -0.1812   3.7793   0.3833 H              1 S1                 0.0000
     26 ****        -0.2227   1.4457   2.3529 H              1 S1                 0.0000
     27 ****         1.7320   2.1256   0.1210 H              1 S1                 0.0000
     28 ****         2.0448   2.1588   1.8345 H              1 S1                 0.0000
     29 ****         1.8954  -0.2101   1.9785 H              1 S1                 0.0000
     30 ****         3.3964  -2.1956   0.1889 H              1 S1                 0.0000
     31 ****         2.0269  -2.2641   1.2544 H              1 S1                 0.0000
     32 ****         3.3980  -3.3142  -1.6919 H              1 S1                 0.0000
     33 ****         2.3485  -4.7858  -3.3906 H              1 S1                 0.0000
     34 ****        -0.1638  -5.1084  -3.3004 H              1 S1                 0.0000
     35 ****        -1.4731  -3.9919  -1.6074 H              1 S1                 0.0000
     36 ****        -2.1689  -0.2832   1.6195 H              1 S1                 0.0000
     37 ****        -2.6379   1.4105   1.5320 H              1 S1                 0.0000
     38 ****        -2.9115  -0.6876  -0.6345 H              1 S1                 0.0000
     39 ****        -4.1284   0.4757  -0.1000 H              1 S1                 0.0000
     40 ****        -2.7041   1.0476  -2.3218 H              1 S1                 0.0000
     41 ****        -2.9117   2.3136  -1.1102 H              1 S1                 0.0000
     42 ****        -0.5279   2.2835  -1.2202 H              1 S1                 0.0000
     43 ****        -0.4928   0.5692  -1.5706 H              1 S1                 0.0000
     44 ****        -0.3676   0.0569   0.4298 H              1 S1                 0.0000
     45 ****         1.9479   0.9186  -1.3120 LP             1 S1                 0.0000
     46 ****         2.2984  -0.6615  -1.9288 LP             1 S1                 0.0000
     47 ****         0.0187  -1.8025   0.8970 LP             1 S1                 0.0000
     48 ****        -1.4303  -2.5108   0.2657 LP             1 S1                 0.0000
@<TRIPOS>BOND
    1    1    2 1     
    2    1   21 1     
    3    1   22 1     
    4    1   23 1     
    5    2    3 1     
    6    2   24 1     
    7    2   25 1     
    8    3    4 1     
    9    3   16 1     
   10    3   26 1     
   11    4    5 1     
   12    4   27 1     
   13    4   28 1     
   14    5    6 am    
   15    5   29 1     
   16    6    7 2     
   17    6    8 1     
   18    8    9 1     
   19    8   30 1     
   20    8   31 1     
   21    9   14 am    
   22    9   10 1     
   23   10   11 2     
   24   10   32 1     
   25   11   12 1     
   26   11   33 1     
   27   12   13 2     
   28   12   34 1     
   29   13   14 1     
   30   13   35 1     
   31   14   15 2     
   32   16   20 1     
   33   16   17 1     
   34   16   44 1     
   35   17   18 1     
   36   17   36 1     
   37   17   37 1     
   38   18   19 1     
   39   18   38 1     
   40   18   39 1     
   41   19   20 1     
   42   19   40 1     
   43   19   41 1     
   44   20   42 1     
   45   20   43 1     
   46    7   45 1     
   47    7   46 1     
   48   15   47 1     
   49   15   48 1     
@<TRIPOS>SUBSTRUCTURE
      1 S1             1
@<TRIPOS>SET
LONE_PAIRS      STATIC     ATOMS    <user>   **** ""
4 45 46 47 48
DONOR_HYDROGENS      STATIC     ATOMS    <user>   **** ""
2 29 44
ATOM$BLUE        STATIC     ATOMS    COLORGROUP SYSTEM
4 45 46 47 48
ATOM$RED        STATIC     ATOMS    COLORGROUP SYSTEM
2 29 44
