AV-unprocessed.smi:287|AV-procd|sdf|2198|dock7
  -GOLD-   2262022 03D 1   1.00000     0.00000
 Structure written by MMmdl.
 55 58  0  0  0  0  0  0  0  0  1 V2000
  151.9771  144.5627  159.6254 C   0  0  0  0  0  0  0  0  0  0  0  0
  152.4558  143.1523  159.6654 C   0  0  0  0  0  0  0  0  0  0  0  0
  152.2441  142.0611  158.8744 C   0  0  0  0  0  0  0  0  0  0  0  0
  152.9961  140.9815  159.4270 C   0  0  0  0  0  0  0  0  0  0  0  0
  153.0662  139.5608  158.8835 C   0  0  2  0  0  0  0  0  0  0  0  0
  152.7138  138.5630  159.9986 C   0  0  0  0  0  0  0  0  0  0  0  0
  154.3666  139.2044  158.4551 O   0  0  0  0  0  0  0  0  0  0  0  0
  152.1420  139.3424  157.6631 C   0  0  0  0  0  0  0  0  0  0  0  0
  152.2792  138.0148  157.0772 N   0  0  0  0  0  0  0  0  0  0  0  0
  151.2509  137.1412  157.0864 C   0  0  0  0  0  0  0  0  0  0  0  0
  150.3735  137.2857  158.1082 N   0  0  0  0  0  0  0  0  0  0  0  0
  149.3199  136.4711  158.2104 C   0  0  0  0  0  0  0  0  0  0  0  0
  148.9627  135.4653  157.4100 N   0  0  0  0  0  0  0  0  0  0  0  0
  149.8416  135.3138  156.3773 C   0  0  0  0  0  0  0  0  0  0  0  0
  151.0035  136.1024  156.1403 C   0  0  0  0  0  0  0  0  0  0  0  0
  151.6365  135.6454  154.9891 N   0  0  0  0  0  0  0  0  0  0  0  0
  150.8935  134.6532  154.5800 C   0  0  0  0  0  0  0  0  0  0  0  0
  149.7866  134.3890  155.3573 N   0  0  0  0  0  0  0  0  0  0  0  0
  148.7259  133.3404  155.1854 C   0  0  2  0  0  0  0  0  0  0  0  0
  149.3534  132.0962  155.2131 O   0  0  0  0  0  0  0  0  0  0  0  0
  149.4969  131.5454  153.9001 C   0  0  1  0  0  0  0  0  0  0  0  0
  148.6923  130.2281  153.8968 C   0  0  0  0  0  0  0  0  0  0  0  0
  148.7070  129.6629  152.6032 O   0  0  0  0  0  0  0  0  0  0  0  0
  148.9780  132.6423  152.9445 C   0  0  1  0  0  0  0  0  0  0  0  0
  148.3098  132.1392  151.8040 O   0  0  0  0  0  0  0  0  0  0  0  0
  148.0351  133.4502  153.8187 C   0  0  2  0  0  0  0  0  0  0  0  0
  147.9033  134.7775  153.3427 O   0  0  0  0  0  0  0  0  0  0  0  0
  153.5987  141.5101  160.5428 C   0  0  0  0  0  0  0  0  0  0  0  0
  154.4969  140.9522  161.5967 C   0  0  0  0  0  0  0  0  0  0  0  0
  153.2817  142.8266  160.6911 O   0  0  0  0  0  0  0  0  0  0  0  0
  148.0589  133.4728  156.0379 H   0  0  0  0  0  0  0  0  0  0  0  0
  150.5463  131.3397  153.6841 H   0  0  0  0  0  0  0  0  0  0  0  0
  149.8155  133.2628  152.6213 H   0  0  0  0  0  0  0  0  0  0  0  0
  147.0587  132.9691  153.8924 H   0  0  0  0  0  0  0  0  0  0  0  0
  151.4321  144.7622  158.7026 H   0  0  0  0  0  0  0  0  0  0  0  0
  152.8154  145.2579  159.6789 H   0  0  0  0  0  0  0  0  0  0  0  0
  151.3107  144.7683  160.4631 H   0  0  0  0  0  0  0  0  0  0  0  0
  151.6241  142.0407  157.9903 H   0  0  0  0  0  0  0  0  0  0  0  0
  151.7056  138.7355  160.3776 H   0  0  0  0  0  0  0  0  0  0  0  0
  153.4004  138.6513  160.8418 H   0  0  0  0  0  0  0  0  0  0  0  0
  152.7578  137.5325  159.6433 H   0  0  0  0  0  0  0  0  0  0  0  0
  154.5678  138.3446  158.7913 H   0  0  0  0  0  0  0  0  0  0  0  0
  151.1010  139.5344  157.9266 H   0  0  0  0  0  0  0  0  0  0  0  0
  152.4125  140.0657  156.8926 H   0  0  0  0  0  0  0  0  0  0  0  0
  153.1521  137.8370  156.6012 H   0  0  0  0  0  0  0  0  0  0  0  0
  148.6695  136.6519  159.0534 H   0  0  0  0  0  0  0  0  0  0  0  0
  151.1390  134.0885  153.6930 H   0  0  0  0  0  0  0  0  0  0  0  0
  149.0831  129.5179  154.6262 H   0  0  0  0  0  0  0  0  0  0  0  0
  147.6450  130.4038  154.1415 H   0  0  0  0  0  0  0  0  0  0  0  0
  149.2140  130.2234  152.0362 H   0  0  0  0  0  0  0  0  0  0  0  0
  148.9602  131.8235  151.1950 H   0  0  0  0  0  0  0  0  0  0  0  0
  148.6110  134.9513  152.7406 H   0  0  0  0  0  0  0  0  0  0  0  0
  154.0735  140.0425  162.0225 H   0  0  0  0  0  0  0  0  0  0  0  0
  154.6439  141.6649  162.4086 H   0  0  0  0  0  0  0  0  0  0  0  0
  155.4749  140.7095  161.1812 H   0  0  0  0  0  0  0  0  0  0  0  0
  1  2  1  0  0  0  0
  1 35  1  0  0  0  0
  1 36  1  0  0  0  0
  1 37  1  0  0  0  0
  2 30  1  0  0  0  0
  2  3  2  0  0  0  0
  3  4  1  0  0  0  0
  3 38  1  0  0  0  0
  4  5  1  0  0  0  0
  4 28  2  0  0  0  0
  5  6  1  0  0  0  0
  5  7  1  0  0  0  0
  5  8  1  0  0  0  0
  6 39  1  0  0  0  0
  6 40  1  0  0  0  0
  6 41  1  0  0  0  0
  7 42  1  0  0  0  0
  8  9  1  0  0  0  0
  8 43  1  0  0  0  0
  8 44  1  0  0  0  0
  9 10  1  0  0  0  0
  9 45  1  0  0  0  0
 10 15  1  0  0  0  0
 10 11  2  0  0  0  0
 11 12  1  0  0  0  0
 12 13  2  0  0  0  0
 12 46  1  0  0  0  0
 13 14  1  0  0  0  0
 14 18  1  0  0  0  0
 14 15  2  0  0  0  0
 15 16  1  0  0  0  0
 16 17  2  0  0  0  0
 17 18  1  0  0  0  0
 17 47  1  0  0  0  0
 18 19  1  0  0  0  0
 19 31  1  0  0  0  0
 19 26  1  0  0  0  0
 19 20  1  0  0  0  0
 20 21  1  0  0  0  0
 21 32  1  0  0  0  0
 21 22  1  0  0  0  0
 21 24  1  0  0  0  0
 22 23  1  0  0  0  0
 22 48  1  0  0  0  0
 22 49  1  0  0  0  0
 23 50  1  0  0  0  0
 24 33  1  0  0  0  0
 24 25  1  0  0  0  0
 24 26  1  0  0  0  0
 25 51  1  0  0  0  0
 26 34  1  0  0  0  0
 26 27  1  0  0  0  0
 27 52  1  0  0  0  0
 28 29  1  0  0  0  0
 28 30  1  0  0  0  0
 29 53  1  0  0  0  0
 29 54  1  0  0  0  0
 29 55  1  0  0  0  0
M  END
> <s_m_source_file>
AV-unprocessed.smi

> <i_m_source_file_index>
287

> <i_lp_mmshare_version>
43012

> <i_f3d_flags>
0

> <s_epik_input>
W0NIM11jMVtjSF1jKGMobzEpW0NIM10pW0NAQF0oW0NIM10pKFtPSF0pW0NIMl1bTkhdYyhuW2NIXW4yKWMoYzIzKW5bY0hdbjNbQ0BASF00T1tDQEhdKFtDSDJdW09IXSlbQ0BASF0oW09IXSlbQ0BIXTRbT0hd

> <s_epik_cmdline>
J2VwaWtfcHl0aG9uJywgJy1waCcsICc3LjAnLCAnLXRuJywgJzgnLCAnLW1hJywgJzIwMCcsICctbWV0YWxfYmluZGluZycsICctaW1hZScsICc8aW5maWxlLm1hZT4nLCAnLW9tYWUnLCAnPG91dGZpbGUubWFlPic=

> <r_lp_tautomer_probability>
1

> <r_epik_Ionization_Penalty>
0.000992612

> <r_epik_Ionization_Penalty_Charging>
0

> <r_epik_Ionization_Penalty_Neutral>
0.000992612

> <r_epik_State_Penalty>
-0

> <r_epik_Charging_Adjusted_Penalty>
0

> <i_epik_Tot_Q>
0

> <i_epik_Tot_abs_Q>
0

> <r_epik_Metal_State_Penalty>
-0

> <b_epik_Metal_Only>
0

> <s_epik_Chemistry_Notes>
This compound contains an acetal/aminal-like group ( X-CH(R)-Y where X, Y are N, S, or O) that may be acid/base labile, releasing an aldehyde.

> <s_lp_Force_Field>
OPLS_2005

> <r_lp_Energy>
45.8493

> <b_lp_Chiralities_Consistent>
1

> <s_lp_Variant>
AV-unprocessed.smi:287-22

> <Gold.Version>
5.8.1

> <Gold.Id.Protein>
6NUR|6NUR_protein|mol2

> <Gold.PLP.Fitness>
58.4084

> <Gold.PLP.PLP>
-43.9106

> <Gold.PLP.part.hbond>
-5.0000

> <Gold.PLP.part.metal>
0.0000

> <Gold.PLP.part.buried>
-6.1348

> <Gold.PLP.part.nonpolar>
-33.3986

> <Gold.PLP.part.repulsive>
0.2298

> <Gold.PLP.ligand.clash>
0.0000

> <Gold.PLP.ligand.torsion>
0.3001

> <Gold.PLP.Chemscore.Hbond>
4.9440

> <Gold.PLP.Chemscore.CHOScore>
0.0358

> <Gold.PLP.Chemscore.Metal>
0.0000

> <Gold.Chemscore.Hbonds>
donor molecule, donor type, donor heavy atom, donor atom, acceptor molecule, acceptor atom, score
      L1  H    23    50       P1 10747  0.31
      L1  H    25    51       P1 10747  0.33
      L1  H    27    52       P1  7948  0.67
      P1  H  7997  8009       L1     7  1.00
      P1  H 10752 10765       L1    16  0.55
      L1  C    17    47       P1  7949  0.06

> <Gold.PLP.Chemscore.Internal.Correction>
0.1586

> <Gold.Rescore>
     Score         DG    S(hbond)    S(metal)    S(lipo)     H(rot)  DE(clash)    DE(int)     intcor
     19.66     -20.03       4.84        0.00     101.30       5.27       0.00       0.37       ----

> <Gold.Chemscore.Fitness>
19.6598

> <Gold.Chemscore.DG>
-20.0295

> <Gold.Chemscore.ZeroCoef>
-5.4800

> <Gold.Chemscore.Hbond>
4.8447

> <Gold.Chemscore.Metal>
0.0000

> <Gold.Chemscore.Lipo>
101.3008

> <Gold.Chemscore.Internal_Hbond>
0.0000

> <Gold.Chemscore.DEClash>
0.0033

> <Gold.Chemscore.DEInternal>
0.3664

> <Gold.Chemscore.Rot>
5.2672

> <Gold.Chemscore.Internal.Correction>
   9.000000E+99

> <Gold.Chemscore.Hbonds>
donor molecule, donor type, donor heavy atom, donor atom, acceptor molecule, acceptor atom, score
      L1  H    23    50       P1 10747  0.01
      L1  H    25    51       P1 10747  0.31
      L1  H    27    52       P1  7948  0.19
      P1  H  7997  8009       L1     7  0.85
      P1  H 10752 10765       L1    16  0.48

> <Gold.Chemscore.Hbond.Weighted>
-16.1812

> <Gold.Chemscore.Metal.Weighted>
-0.0000

> <Gold.Chemscore.Lipo.Weighted>
-11.8522

> <Gold.Chemscore.Internal_Hbond.Weighted>
0.0000

> <Gold.Chemscore.DEClash.Weighted>
0.0033

> <Gold.Chemscore.DEInternal.Weighted>
0.3664

> <Gold.Chemscore.Rot.Weighted>
13.4839

> <Gold.Chemscore.Internal.Correction.Weighted>
   9.000000E+99

> <Gold.Protein.RotatedTorsions>
[ 6907 6896 6895 6894 ] final  -53.41 input  -60.11 | X-H torsion
[ 7974 7965 7964 7962 ] final   50.93 input  175.53 | X-H torsion
[ 8008 7997 7996 7995 ] final  134.28 input   59.86 | X-H torsion
[ 10167 10162 10161 10158 ] final  -80.67 input  -65.29 | X-H torsion
[ 10718 10713 10712 10709 ] final  134.02 input   66.30 | X-H torsion
[ 10763 10752 10751 10750 ] final -178.55 input  -60.55 | X-H torsion
[ 11005 11000 10999 10996 ] final -154.31 input  -57.11 | X-H torsion

> <Gold.Protein.ActiveResidues>
 VAL166  LYS551  ARG553  GLY616  TRP617  ASP618  TYR619  PRO620  LYS621  CYS622 
 ASP623  PHE694  ASN695  SER759  ASP760  ASP761  ALA762  ILE779  LEU786  VAL792 
 PHE793  MET794  SER795  GLU796  ALA797  LYS798  CYS799  TRP800  GLU811  SER814 

> <Gold.Protein.RotatedAtoms>
  150.8429  134.7727  159.6946 H   0  0  0  0  0  0  0  0  0  0  0  0  # atno 6907 bound_to 6896
  152.4512  134.5385  159.9842 H   0  0  0  0  0  0  0  0  0  0  0  0  # atno 6908 bound_to 6896
  151.5522  133.3378  159.2991 H   0  0  0  0  0  0  0  0  0  0  0  0  # atno 6909 bound_to 6896
  145.9963  139.4392  143.0042 H   0  0  0  0  0  0  0  0  0  0  0  0  # atno 7974 bound_to 7965
  156.2998  140.2500  156.3391 H   0  0  0  0  0  0  0  0  0  0  0  0  # atno 8008 bound_to 7997
  154.9072  140.0404  157.1945 H   0  0  0  0  0  0  0  0  0  0  0  0  # atno 8009 bound_to 7997
  154.8441  140.2895  155.5644 H   0  0  0  0  0  0  0  0  0  0  0  0  # atno 8010 bound_to 7997
  140.4482  143.2491  151.8527 H   0  0  0  0  0  0  0  0  0  0  0  0  # atno 10167 bound_to 10162
  157.4715  131.1080  150.9797 H   0  0  0  0  0  0  0  0  0  0  0  0  # atno 10718 bound_to 10713
  154.5462  135.2809  155.1050 H   0  0  0  0  0  0  0  0  0  0  0  0  # atno 10763 bound_to 10752
  154.2513  135.6339  153.5245 H   0  0  0  0  0  0  0  0  0  0  0  0  # atno 10764 bound_to 10752
  152.9991  135.5583  154.6016 H   0  0  0  0  0  0  0  0  0  0  0  0  # atno 10765 bound_to 10752
  140.6987  134.3961  157.5212 H   0  0  0  0  0  0  0  0  0  0  0  0  # atno 11005 bound_to 11000
  145.7555  140.9956  143.1228 LP  0  0  0  0  0  0  0  0  0  0  0  0  # atno 17320 bound_to 7965
  144.6905  139.9266  143.7470 LP  0  0  0  0  0  0  0  0  0  0  0  0  # atno 17321 bound_to 7965
  139.4794  144.5150  151.8880 LP  0  0  0  0  0  0  0  0  0  0  0  0  # atno 17342 bound_to 10162
  140.4238  144.2207  150.5887 LP  0  0  0  0  0  0  0  0  0  0  0  0  # atno 17343 bound_to 10162
  157.0560  130.5806  149.5378 LP  0  0  0  0  0  0  0  0  0  0  0  0  # atno 17370 bound_to 10713
  156.0075  130.5164  150.7880 LP  0  0  0  0  0  0  0  0  0  0  0  0  # atno 17371 bound_to 10713
  139.8903  134.8809  156.2378 LP  0  0  0  0  0  0  0  0  0  0  0  0  # atno 17394 bound_to 11000
  141.0181  133.7057  156.1223 LP  0  0  0  0  0  0  0  0  0  0  0  0  # atno 17395 bound_to 11000

$$$$
