AV-unprocessed.smi:848|AV-procd|sdf|3942|dock6
  -GOLD-   22720 1413D 1   1.00000     0.00000
 Structure written by MMmdl.
 47 49  0  0  0  0  0  0  0  0  2 V2000
  151.8840  145.4558  158.8320 C   0  0  0  0  0  0  0  0  0  0  0  0
  151.7504  143.9468  158.8283 C   0  0  0  0  0  0  0  0  0  0  0  0
  152.7857  143.1405  159.3416 C   0  0  0  0  0  0  0  0  0  0  0  0
  152.6578  141.7381  159.3345 C   0  0  0  0  0  0  0  0  0  0  0  0
  153.7742  140.8756  159.8864 C   0  0  0  0  0  0  0  0  0  0  0  0
  151.4913  141.1450  158.8101 C   0  0  0  0  0  0  0  0  0  0  0  0
  150.4457  141.9369  158.2933 C   0  0  0  0  0  0  0  0  0  0  0  0
  149.3426  141.2706  157.8043 O   0  0  0  0  0  0  0  0  0  0  0  0
  148.1273  141.9928  157.6561 C   0  0  0  0  0  0  0  0  0  0  0  0
  147.3704  141.4367  156.4396 C   0  0  1  0  0  0  0  0  0  0  0  0
  146.1623  142.1576  156.2983 O   0  0  0  0  0  0  0  0  0  0  0  0
  148.1940  141.5626  155.1419 C   0  0  0  0  0  0  0  0  0  0  0  0
  148.7117  140.2696  154.6621 N   0  0  0  0  0  0  0  0  0  0  0  0
  148.1083  139.3086  153.9034 C   0  0  0  0  0  0  0  0  0  0  0  0
  146.7210  139.3369  153.3511 C   0  0  0  0  0  0  0  0  0  0  0  0
  146.4445  138.2215  152.5336 O   0  0  0  0  0  0  0  0  0  0  0  0
  149.0132  138.3047  153.7287 N   0  3  0  0  0  0  0  0  0  0  0  0
  150.2047  138.6228  154.3806 C   0  0  0  0  0  0  0  0  0  0  0  0
  151.4008  137.9194  154.4848 C   0  0  0  0  0  0  0  0  0  0  0  0
  152.4332  138.5324  155.2246 C   0  0  0  0  0  0  0  0  0  0  0  0
  152.2552  139.7956  155.8251 C   0  0  0  0  0  0  0  0  0  0  0  0
  151.0376  140.4984  155.7131 C   0  0  0  0  0  0  0  0  0  0  0  0
  150.0201  139.8850  154.9817 C   0  0  0  0  0  0  0  0  0  0  0  0
  150.5860  143.3478  158.3056 C   0  0  0  0  0  0  0  0  0  0  0  0
  152.7493  145.7765  159.4126 H   0  0  0  0  0  0  0  0  0  0  0  0
  150.9959  145.9152  159.2664 H   0  0  0  0  0  0  0  0  0  0  0  0
  151.9995  145.8256  157.8131 H   0  0  0  0  0  0  0  0  0  0  0  0
  153.6803  143.5959  159.7413 H   0  0  0  0  0  0  0  0  0  0  0  0
  153.4526  139.8408  160.0088 H   0  0  0  0  0  0  0  0  0  0  0  0
  154.0963  141.2471  160.8598 H   0  0  0  0  0  0  0  0  0  0  0  0
  154.6303  140.8905  159.2118 H   0  0  0  0  0  0  0  0  0  0  0  0
  151.3927  140.0692  158.8019 H   0  0  0  0  0  0  0  0  0  0  0  0
  147.5096  141.9378  158.5546 H   0  0  0  0  0  0  0  0  0  0  0  0
  148.3715  143.0422  157.4823 H   0  0  0  0  0  0  0  0  0  0  0  0
  147.1339  140.3859  156.6083 H   0  0  0  0  0  0  0  0  0  0  0  0
  146.0811  142.7475  157.0326 H   0  0  0  0  0  0  0  0  0  0  0  0
  147.6148  142.0374  154.3500 H   0  0  0  0  0  0  0  0  0  0  0  0
  149.0540  142.2109  155.3108 H   0  0  0  0  0  0  0  0  0  0  0  0
  146.0039  139.3587  154.1723 H   0  0  0  0  0  0  0  0  0  0  0  0
  146.5735  140.2501  152.7747 H   0  0  0  0  0  0  0  0  0  0  0  0
  147.2393  137.7209  152.4281 H   0  0  0  0  0  0  0  0  0  0  0  0
  151.5405  136.9526  154.0237 H   0  0  0  0  0  0  0  0  0  0  0  0
  153.3812  138.0250  155.3314 H   0  0  0  0  0  0  0  0  0  0  0  0
  153.0698  140.2358  156.3817 H   0  0  0  0  0  0  0  0  0  0  0  0
  150.9167  141.4691  156.1706 H   0  0  0  0  0  0  0  0  0  0  0  0
  149.8118  143.9924  157.9180 H   0  0  0  0  0  0  0  0  0  0  0  0
  148.8271  137.4648  153.1960 H   0  0  0  0  0  0  0  0  0  0  0  0
  1  2  1  0  0  0  0
  1 25  1  0  0  0  0
  1 26  1  0  0  0  0
  1 27  1  0  0  0  0
  2 24  1  0  0  0  0
  2  3  2  0  0  0  0
  3  4  1  0  0  0  0
  3 28  1  0  0  0  0
  4  5  1  0  0  0  0
  4  6  2  0  0  0  0
  5 29  1  0  0  0  0
  5 30  1  0  0  0  0
  5 31  1  0  0  0  0
  6  7  1  0  0  0  0
  6 32  1  0  0  0  0
  7  8  1  0  0  0  0
  7 24  2  0  0  0  0
  8  9  1  0  0  0  0
  9 10  1  0  0  0  0
  9 33  1  0  0  0  0
  9 34  1  0  0  0  0
 10 11  1  0  0  0  0
 10 12  1  0  0  0  0
 10 35  1  0  0  0  0
 11 36  1  0  0  0  0
 12 13  1  0  0  0  0
 12 37  1  0  0  0  0
 12 38  1  0  0  0  0
 13 23  1  0  0  0  0
 13 14  1  0  0  0  0
 14 15  1  0  0  0  0
 14 17  2  0  0  0  0
 15 16  1  0  0  0  0
 15 39  1  0  0  0  0
 15 40  1  0  0  0  0
 16 41  1  0  0  0  0
 17 18  1  0  0  0  0
 17 47  1  0  0  0  0
 18 23  2  0  0  0  0
 18 19  1  0  0  0  0
 19 20  2  0  0  0  0
 19 42  1  0  0  0  0
 20 21  1  0  0  0  0
 20 43  1  0  0  0  0
 21 22  2  0  0  0  0
 21 44  1  0  0  0  0
 22 23  1  0  0  0  0
 22 45  1  0  0  0  0
 24 46  1  0  0  0  0
M  CHG  1  17   1
M  END
> <s_m_source_file>
AV-unprocessed.smi

> <i_m_source_file_index>
848

> <i_lp_mmshare_version>
43012

> <i_f3d_flags>
0

> <s_epik_input>
W0NIM11jMVtjSF1jKFtDSDNdKVtjSF1jKFtjSF0xKU9bQ0gyXVtDQEhdKFtPSF0pW0NIMl1uKGMobjIpW0NIMl1bT0hdKWMoYzIzKVtjSF1bY0hdW2NIXVtjSF0z

> <s_epik_cmdline>
J2VwaWtfcHl0aG9uJywgJy1waCcsICc3LjAnLCAnLXRuJywgJzgnLCAnLW1hJywgJzIwMCcsICctbWV0YWxfYmluZGluZycsICctaW1hZScsICc8aW5maWxlLm1hZT4nLCAnLW9tYWUnLCAnPG91dGZpbGUubWFlPic=

> <r_lp_tautomer_probability>
1

> <r_epik_Ionization_Penalty>
1.43292

> <r_epik_Ionization_Penalty_Charging>
1.43206

> <r_epik_Ionization_Penalty_Neutral>
0.000858184

> <r_epik_State_Penalty>
1.51673

> <r_epik_Charging_Adjusted_Penalty>
2.94879

> <i_epik_Tot_Q>
1

> <i_epik_Tot_abs_Q>
1

> <r_epik_Metal_State_Penalty>
5.56186

> <b_epik_Metal_Only>
0

> <s_lp_Force_Field>
OPLS_2005

> <r_lp_Energy>
19.6511

> <b_lp_Chiralities_Consistent>
1

> <s_lp_Variant>
AV-unprocessed.smi:848-4

> <Gold.Version>
5.8.1

> <Gold.Id.Protein>
6NUR|6NUR_protein|mol2

> <Gold.PLP.Fitness>
59.2704

> <Gold.PLP.PLP>
-53.2638

> <Gold.PLP.part.hbond>
-3.0149

> <Gold.PLP.part.metal>
0.0000

> <Gold.PLP.part.buried>
0.3109

> <Gold.PLP.part.nonpolar>
-50.0713

> <Gold.PLP.part.repulsive>
0.1145

> <Gold.PLP.ligand.clash>
0.0000

> <Gold.PLP.ligand.torsion>
1.4985

> <Gold.PLP.Chemscore.Hbond>
2.9913

> <Gold.PLP.Chemscore.CHOScore>
0.0000

> <Gold.PLP.Chemscore.Metal>
0.0000

> <Gold.Chemscore.Hbonds>
donor molecule, donor type, donor heavy atom, donor atom, acceptor molecule, acceptor atom, score
      L1  H    16    41       P1  7948  0.26
      L1  H    17    47       P1  7948  2.00

> <Gold.PLP.Chemscore.Internal.Correction>
0.0299

> <Gold.Rescore>
     Score         DG    S(hbond)    S(metal)    S(lipo)     H(rot)  DE(clash)    DE(int)     intcor
     18.04     -21.06       1.93        0.00     144.65       3.05       1.66       1.35       ----

> <Gold.Chemscore.Fitness>
18.0439

> <Gold.Chemscore.DG>
-21.0589

> <Gold.Chemscore.ZeroCoef>
-5.4800

> <Gold.Chemscore.Hbond>
1.9332

> <Gold.Chemscore.Metal>
0.0000

> <Gold.Chemscore.Lipo>
144.6491

> <Gold.Chemscore.Internal_Hbond>
0.0000

> <Gold.Chemscore.DEClash>
1.6619

> <Gold.Chemscore.DEInternal>
1.3532

> <Gold.Chemscore.Rot>
3.0476

> <Gold.Chemscore.Internal.Correction>
   9.000000E+99

> <Gold.Chemscore.Hbonds>
donor molecule, donor type, donor heavy atom, donor atom, acceptor molecule, acceptor atom, score
      L1  H    16    41       P1  7948  0.27
      L1  H    17    47       P1  7948  0.99

> <Gold.Chemscore.Hbond.Weighted>
-6.4568

> <Gold.Chemscore.Metal.Weighted>
-0.0000

> <Gold.Chemscore.Lipo.Weighted>
-16.9239

> <Gold.Chemscore.Internal_Hbond.Weighted>
0.0000

> <Gold.Chemscore.DEClash.Weighted>
1.6619

> <Gold.Chemscore.DEInternal.Weighted>
1.3532

> <Gold.Chemscore.Rot.Weighted>
7.8018

> <Gold.Chemscore.Internal.Correction.Weighted>
   9.000000E+99

> <Gold.Protein.RotatedTorsions>
[ 6907 6896 6895 6894 ] final   12.50 input  -60.11 | X-H torsion
[ 7974 7965 7964 7962 ] final -153.00 input  175.53 | X-H torsion
[ 8008 7997 7996 7995 ] final -133.81 input   59.86 | X-H torsion
[ 10167 10162 10161 10158 ] final   57.71 input  -65.29 | X-H torsion
[ 10718 10713 10712 10709 ] final  107.07 input   66.30 | X-H torsion
[ 10763 10752 10751 10750 ] final  169.32 input  -60.55 | X-H torsion
[ 11005 11000 10999 10996 ] final  -61.42 input  -57.11 | X-H torsion

> <Gold.Protein.ActiveResidues>
 VAL166  LYS551  ARG553  GLY616  TRP617  ASP618  TYR619  PRO620  LYS621  CYS622 
 ASP623  PHE694  ASN695  SER759  ASP760  ASP761  ALA762  ILE779  LEU786  VAL792 
 PHE793  MET794  SER795  GLU796  ALA797  LYS798  CYS799  TRP800  GLU811  SER814 

> <Gold.Protein.RotatedAtoms>
  151.7713  135.0785  160.0360 H   0  0  0  0  0  0  0  0  0  0  0  0  # atno 6907 bound_to 6896
  152.3286  133.5929  159.5802 H   0  0  0  0  0  0  0  0  0  0  0  0  # atno 6908 bound_to 6896
  150.7410  133.9818  159.3620 H   0  0  0  0  0  0  0  0  0  0  0  0  # atno 6909 bound_to 6896
  144.7764  140.4585  143.5870 H   0  0  0  0  0  0  0  0  0  0  0  0  # atno 7974 bound_to 7965
  155.3517  140.0477  157.3046 H   0  0  0  0  0  0  0  0  0  0  0  0  # atno 8008 bound_to 7997
  154.5223  140.2229  155.8917 H   0  0  0  0  0  0  0  0  0  0  0  0  # atno 8009 bound_to 7997
  156.1703  140.3097  155.8968 H   0  0  0  0  0  0  0  0  0  0  0  0  # atno 8010 bound_to 7997
  140.1951  144.4046  150.6554 H   0  0  0  0  0  0  0  0  0  0  0  0  # atno 10167 bound_to 10162
  157.6643  131.0865  150.6101 H   0  0  0  0  0  0  0  0  0  0  0  0  # atno 10718 bound_to 10713
  154.3814  135.2753  155.2209 H   0  0  0  0  0  0  0  0  0  0  0  0  # atno 10763 bound_to 10752
  154.4314  135.5976  153.6075 H   0  0  0  0  0  0  0  0  0  0  0  0  # atno 10764 bound_to 10752
  152.9834  135.5996  154.4057 H   0  0  0  0  0  0  0  0  0  0  0  0  # atno 10765 bound_to 10752
  141.1323  133.6630  156.5372 H   0  0  0  0  0  0  0  0  0  0  0  0  # atno 11005 bound_to 11000
  145.6174  139.1520  143.3041 LP  0  0  0  0  0  0  0  0  0  0  0  0  # atno 17320 bound_to 7965
  146.1946  140.6287  142.9130 LP  0  0  0  0  0  0  0  0  0  0  0  0  # atno 17321 bound_to 7965
  140.6429  143.2207  151.6250 LP  0  0  0  0  0  0  0  0  0  0  0  0  # atno 17342 bound_to 10162
  139.5240  144.3117  152.0987 LP  0  0  0  0  0  0  0  0  0  0  0  0  # atno 17343 bound_to 10162
  156.6403  130.4456  149.5755 LP  0  0  0  0  0  0  0  0  0  0  0  0  # atno 17370 bound_to 10713
  156.2214  130.6739  151.1372 LP  0  0  0  0  0  0  0  0  0  0  0  0  # atno 17371 bound_to 10713
  140.4168  134.7223  157.4867 LP  0  0  0  0  0  0  0  0  0  0  0  0  # atno 17394 bound_to 11000
  140.0388  134.6298  155.9008 LP  0  0  0  0  0  0  0  0  0  0  0  0  # atno 17395 bound_to 11000

$$$$
