AV-unprocessed.smi:1202|AV-procd|sdf|5031|dock6
  -GOLD-   22720 4 53D 1   1.00000     0.00000
 Structure written by MMmdl.
 44 45  0  0  0  0  0  0  0  0  3 V2000
  147.7121  132.7498  152.9077 C   0  0  0  0  0  0  0  0  0  0  0  0
  147.1462  133.8535  152.1412 N   0  5  0  0  0  0  0  0  0  0  0  0
  145.8370  134.2164  152.2032 C   0  0  0  0  0  0  0  0  0  0  0  0
  144.8812  133.6913  152.7843 O   0  0  0  0  0  0  0  0  0  0  0  0
  145.5729  135.4771  151.3720 C   0  0  0  0  0  0  0  0  0  0  0  0
  146.2671  136.6409  151.9773 N   0  3  2  0  0  0  0  0  0  0  0  0
  145.9511  136.8289  153.4192 C   0  0  0  0  0  0  0  0  0  0  0  0
  146.7944  137.9599  154.0299 C   0  0  0  0  0  0  0  0  0  0  0  0
  146.6035  139.2770  153.2562 C   0  0  1  0  0  0  0  0  0  0  0  0
  147.4828  140.3188  153.7778 N   0  0  0  0  0  0  0  0  0  0  0  0
  148.7527  140.1349  154.1699 C   0  0  0  0  0  0  0  0  0  0  0  0
  149.3253  139.0459  154.1110 O   0  0  0  0  0  0  0  0  0  0  0  0
  149.4848  141.3819  154.6859 C   0  0  0  0  0  0  0  0  0  0  0  0
  150.2702  141.1322  155.9061 N   0  0  0  0  0  0  0  0  0  0  0  0
  149.8946  141.8368  157.0673 C   0  0  0  0  0  0  0  0  0  0  0  0
  150.5446  141.6838  158.2318 C   0  0  0  0  0  0  0  0  0  0  0  0
  151.6581  140.7660  158.2768 C   0  0  0  0  0  0  0  0  0  0  0  0
  152.0281  140.0896  157.1711 C   0  0  0  0  0  0  0  0  0  0  0  0
  151.3219  140.2556  155.8953 C   0  0  0  0  0  0  0  0  0  0  0  0
  151.6549  139.6448  154.8792 O   0  0  0  0  0  0  0  0  0  0  0  0
  146.8980  139.0443  151.7658 C   0  0  0  0  0  0  0  0  0  0  0  0
  146.0509  137.8902  151.2046 C   0  0  0  0  0  0  0  0  0  0  0  0
  148.7812  132.6381  152.7283 H   0  0  0  0  0  0  0  0  0  0  0  0
  147.2555  131.7923  152.6547 H   0  0  0  0  0  0  0  0  0  0  0  0
  147.5910  132.8836  153.9831 H   0  0  0  0  0  0  0  0  0  0  0  0
  145.9689  135.2841  150.3740 H   0  0  0  0  0  0  0  0  0  0  0  0
  144.5088  135.6891  151.2444 H   0  0  0  0  0  0  0  0  0  0  0  0
  144.8887  137.0491  153.5342 H   0  0  0  0  0  0  0  0  0  0  0  0
  146.1424  135.9090  153.9723 H   0  0  0  0  0  0  0  0  0  0  0  0
  146.5206  138.0939  155.0772 H   0  0  0  0  0  0  0  0  0  0  0  0
  147.8467  137.6717  154.0200 H   0  0  0  0  0  0  0  0  0  0  0  0
  145.5652  139.6011  153.3533 H   0  0  0  0  0  0  0  0  0  0  0  0
  147.0944  141.2478  153.8560 H   0  0  0  0  0  0  0  0  0  0  0  0
  150.1268  141.7534  153.8859 H   0  0  0  0  0  0  0  0  0  0  0  0
  148.7622  142.1805  154.8652 H   0  0  0  0  0  0  0  0  0  0  0  0
  149.0571  142.5088  156.9485 H   0  0  0  0  0  0  0  0  0  0  0  0
  150.2454  142.2357  159.1107 H   0  0  0  0  0  0  0  0  0  0  0  0
  152.1983  140.6224  159.2011 H   0  0  0  0  0  0  0  0  0  0  0  0
  152.8648  139.4085  157.2236 H   0  0  0  0  0  0  0  0  0  0  0  0
  146.7001  139.9550  151.1990 H   0  0  0  0  0  0  0  0  0  0  0  0
  147.9560  138.8164  151.6262 H   0  0  0  0  0  0  0  0  0  0  0  0
  146.3171  137.7282  150.1592 H   0  0  0  0  0  0  0  0  0  0  0  0
  144.9920  138.1534  151.2260 H   0  0  0  0  0  0  0  0  0  0  0  0
  147.2537  136.4328  151.9160 H   0  0  0  0  0  0  0  0  0  0  0  0
  1  2  1  0  0  0  0
  1 23  1  0  0  0  0
  1 24  1  0  0  0  0
  1 25  1  0  0  0  0
  2  3  1  0  0  0  0
  3  4  2  0  0  0  0
  3  5  1  0  0  0  0
  5  6  1  0  0  0  0
  5 26  1  0  0  0  0
  5 27  1  0  0  0  0
  6 22  1  0  0  0  0
  6  7  1  0  0  0  0
  6 44  1  0  0  0  0
  7  8  1  0  0  0  0
  7 28  1  0  0  0  0
  7 29  1  0  0  0  0
  8  9  1  0  0  0  0
  8 30  1  0  0  0  0
  8 31  1  0  0  0  0
  9 10  1  0  0  0  0
  9 21  1  0  0  0  0
  9 32  1  0  0  0  0
 10 11  1  0  0  0  0
 10 33  1  0  0  0  0
 11 12  2  0  0  0  0
 11 13  1  0  0  0  0
 13 14  1  0  0  0  0
 13 34  1  0  0  0  0
 13 35  1  0  0  0  0
 14 19  1  0  0  0  0
 14 15  1  0  0  0  0
 15 16  2  0  0  0  0
 15 36  1  0  0  0  0
 16 17  1  0  0  0  0
 16 37  1  0  0  0  0
 17 18  2  0  0  0  0
 17 38  1  0  0  0  0
 18 19  1  0  0  0  0
 18 39  1  0  0  0  0
 19 20  2  0  0  0  0
 21 22  1  0  0  0  0
 21 40  1  0  0  0  0
 21 41  1  0  0  0  0
 22 42  1  0  0  0  0
 22 43  1  0  0  0  0
M  CHG  1   2  -1
M  CHG  1   6   1
M  END
> <s_m_source_file>
AV-unprocessed.smi

> <i_m_source_file_index>
1202

> <i_lp_mmshare_version>
43012

> <i_f3d_flags>
0

> <s_epik_input>
W0NIM11bTkhdQyg9TylbQ0gyXU4xW0NIMl1bQ0gyXVtDSF0oW0NIMl1bQ0gyXTEpW05IXUMoPU8pW0NIMl1uMltjSF1bY0hdW2NIXVtjSF1jMj1P

> <s_epik_cmdline>
J2VwaWtfcHl0aG9uJywgJy1waCcsICc3LjAnLCAnLXRuJywgJzgnLCAnLW1hJywgJzIwMCcsICctbWV0YWxfYmluZGluZycsICctaW1hZScsICc8aW5maWxlLm1hZT4nLCAnLW9tYWUnLCAnPG91dGZpbGUubWFlPic=

> <r_lp_tautomer_probability>
1

> <r_epik_Ionization_Penalty>
6.12124

> <r_epik_Ionization_Penalty_Charging>
6.12124

> <r_epik_Ionization_Penalty_Neutral>
4.50226e-08

> <r_epik_State_Penalty>
7.08052

> <r_epik_Charging_Adjusted_Penalty>
13.2018

> <i_epik_Tot_Q>
0

> <i_epik_Tot_abs_Q>
2

> <r_epik_Metal_State_Penalty>
3.01282

> <b_epik_Metal_Only>
1

> <s_lp_Force_Field>
OPLS_2005

> <r_lp_Energy>
18.7723

> <b_lp_Chiralities_Consistent>
1

> <s_lp_Variant>
AV-unprocessed.smi:1202-4

> <Gold.Version>
5.8.1

> <Gold.Id.Protein>
6NUR|6NUR_protein|mol2

> <Gold.PLP.Fitness>
45.5016

> <Gold.PLP.PLP>
-34.6033

> <Gold.PLP.part.hbond>
-2.0000

> <Gold.PLP.part.metal>
0.0000

> <Gold.PLP.part.buried>
1.4478

> <Gold.PLP.part.nonpolar>
-36.1184

> <Gold.PLP.part.repulsive>
1.8814

> <Gold.PLP.ligand.clash>
0.0000

> <Gold.PLP.ligand.torsion>
0.5634

> <Gold.PLP.Chemscore.Hbond>
3.0000

> <Gold.PLP.Chemscore.CHOScore>
0.9952

> <Gold.PLP.Chemscore.Metal>
0.0000

> <Gold.Chemscore.Hbonds>
donor molecule, donor type, donor heavy atom, donor atom, acceptor molecule, acceptor atom, score
      L1  H     6    44       P1  7948  2.00
      P1  H  7989  7998       L1    20  1.00
      L1  C    15    36       P1  8028  0.92

> <Gold.PLP.Chemscore.Internal.Correction>
0.0396

> <Gold.Rescore>
     Score         DG    S(hbond)    S(metal)    S(lipo)     H(rot)  DE(clash)    DE(int)     intcor
      8.13     -13.98       1.91        0.00      65.23       2.15       1.21       4.64       ----

> <Gold.Chemscore.Fitness>
8.1327

> <Gold.Chemscore.DG>
-13.9812

> <Gold.Chemscore.ZeroCoef>
-5.4800

> <Gold.Chemscore.Hbond>
1.9090

> <Gold.Chemscore.Metal>
0.0000

> <Gold.Chemscore.Lipo>
65.2274

> <Gold.Chemscore.Internal_Hbond>
0.0000

> <Gold.Chemscore.DEClash>
1.2081

> <Gold.Chemscore.DEInternal>
4.6404

> <Gold.Chemscore.Rot>
2.1510

> <Gold.Chemscore.Internal.Correction>
   9.000000E+99

> <Gold.Chemscore.Hbonds>
donor molecule, donor type, donor heavy atom, donor atom, acceptor molecule, acceptor atom, score
      L1  H     6    44       P1  7948  1.00
      P1  H  7989  7998       L1    20  0.59

> <Gold.Chemscore.Hbond.Weighted>
-6.3761

> <Gold.Chemscore.Metal.Weighted>
-0.0000

> <Gold.Chemscore.Lipo.Weighted>
-7.6316

> <Gold.Chemscore.Internal_Hbond.Weighted>
0.0000

> <Gold.Chemscore.DEClash.Weighted>
1.2081

> <Gold.Chemscore.DEInternal.Weighted>
4.6404

> <Gold.Chemscore.Rot.Weighted>
5.5065

> <Gold.Chemscore.Internal.Correction.Weighted>
   9.000000E+99

> <Gold.Protein.RotatedTorsions>
[ 6907 6896 6895 6894 ] final  -17.22 input  -60.11 | X-H torsion
[ 7974 7965 7964 7962 ] final  140.58 input  175.53 | X-H torsion
[ 8008 7997 7996 7995 ] final  -42.28 input   59.86 | X-H torsion
[ 10167 10162 10161 10158 ] final  165.16 input  -65.29 | X-H torsion
[ 10718 10713 10712 10709 ] final -139.94 input   66.30 | X-H torsion
[ 10763 10752 10751 10750 ] final  168.53 input  -60.55 | X-H torsion
[ 11005 11000 10999 10996 ] final  -90.14 input  -57.11 | X-H torsion

> <Gold.Protein.ActiveResidues>
 VAL166  LYS551  ARG553  GLY616  TRP617  ASP618  TYR619  PRO620  LYS621  CYS622 
 ASP623  PHE694  ASN695  SER759  ASP760  ASP761  ALA762  ILE779  LEU786  VAL792 
 PHE793  MET794  SER795  GLU796  ALA797  LYS798  CYS799  TRP800  GLU811  SER814 

> <Gold.Protein.RotatedAtoms>
  151.2966  135.0757  159.9223 H   0  0  0  0  0  0  0  0  0  0  0  0  # atno 6907 bound_to 6896
  152.5306  133.9876  159.7846 H   0  0  0  0  0  0  0  0  0  0  0  0  # atno 6908 bound_to 6896
  151.0156  133.5873  159.2708 H   0  0  0  0  0  0  0  0  0  0  0  0  # atno 6909 bound_to 6896
  144.9174  139.5212  143.5679 H   0  0  0  0  0  0  0  0  0  0  0  0  # atno 7974 bound_to 7965
  154.3999  140.1477  156.3329 H   0  0  0  0  0  0  0  0  0  0  0  0  # atno 8008 bound_to 7997
  155.8427  140.3461  155.5621 H   0  0  0  0  0  0  0  0  0  0  0  0  # atno 8009 bound_to 7997
  155.8070  140.0878  157.1916 H   0  0  0  0  0  0  0  0  0  0  0  0  # atno 8010 bound_to 7997
  139.4901  144.4161  151.9242 H   0  0  0  0  0  0  0  0  0  0  0  0  # atno 10167 bound_to 10162
  156.3165  130.7511  151.1599 H   0  0  0  0  0  0  0  0  0  0  0  0  # atno 10718 bound_to 10713
  154.3699  135.2753  155.2272 H   0  0  0  0  0  0  0  0  0  0  0  0  # atno 10763 bound_to 10752
  154.4424  135.5951  153.6141 H   0  0  0  0  0  0  0  0  0  0  0  0  # atno 10764 bound_to 10752
  152.9839  135.6022  154.3929 H   0  0  0  0  0  0  0  0  0  0  0  0  # atno 10765 bound_to 10752
  141.1571  133.7673  156.9695 H   0  0  0  0  0  0  0  0  0  0  0  0  # atno 11005 bound_to 11000
  146.3188  139.8027  142.8962 LP  0  0  0  0  0  0  0  0  0  0  0  0  # atno 17320 bound_to 7965
  145.3353  141.0275  143.3423 LP  0  0  0  0  0  0  0  0  0  0  0  0  # atno 17321 bound_to 7965
  140.3603  144.2980  150.5934 LP  0  0  0  0  0  0  0  0  0  0  0  0  # atno 17342 bound_to 10162
  140.5408  143.2224  151.8088 LP  0  0  0  0  0  0  0  0  0  0  0  0  # atno 17343 bound_to 10162
  157.7403  131.0519  150.5177 LP  0  0  0  0  0  0  0  0  0  0  0  0  # atno 17370 bound_to 10713
  156.5324  130.4188  149.6195 LP  0  0  0  0  0  0  0  0  0  0  0  0  # atno 17371 bound_to 10713
  140.1139  134.9460  157.2105 LP  0  0  0  0  0  0  0  0  0  0  0  0  # atno 17394 bound_to 11000
  140.3158  134.2972  155.7256 LP  0  0  0  0  0  0  0  0  0  0  0  0  # atno 17395 bound_to 11000

$$$$
