AV-unprocessed.smi:2244|AV-procd|sdf|9073|dock6
  -GOLD-   2272012283D 1   1.00000     0.00000
 Structure written by MMmdl.
 49 51  0  0  0  0  0  0  0  0  1 V2000
  146.7025  128.4653  154.3247 C   0  0  0  0  0  0  0  0  0  0  0  0
  147.0205  129.1368  152.9697 C   0  0  0  0  0  0  0  0  0  0  0  0
  148.2557  128.4267  152.3775 C   0  0  0  0  0  0  0  0  0  0  0  0
  145.8005  128.9219  152.0497 C   0  0  0  0  0  0  0  0  0  0  0  0
  147.3060  130.6425  153.1126 C   0  0  0  0  0  0  0  0  0  0  0  0
  146.5421  131.6404  152.4669 C   0  0  0  0  0  0  0  0  0  0  0  0
  146.9026  132.9815  152.6808 C   0  0  0  0  0  0  0  0  0  0  0  0
  147.9995  133.2608  153.5209 C   0  0  0  0  0  0  0  0  0  0  0  0
  148.2923  134.6471  153.6814 N   0  0  0  0  0  0  0  0  0  0  0  0
  149.3094  135.2807  154.3042 C   0  0  0  0  0  0  0  0  0  0  0  0
  150.1997  134.6464  154.8678 O   0  0  0  0  0  0  0  0  0  0  0  0
  149.2860  136.6232  154.2687 N   0  0  0  0  0  0  0  0  0  0  0  0
  150.2770  137.5084  154.8709 C   0  0  1  0  0  0  0  0  0  0  0  0
  151.5520  137.5663  154.0136 C   0  0  0  0  0  0  0  0  0  0  0  0
  152.5226  138.6264  154.5574 C   0  0  0  0  0  0  0  0  0  0  0  0
  151.8756  139.8929  154.6218 O   0  0  0  0  0  0  0  0  0  0  0  0
  150.7620  139.9095  155.5099 C   0  0  1  0  0  0  0  0  0  0  0  0
  150.2324  141.3283  155.5747 C   0  0  0  0  0  0  0  0  0  0  0  0
  150.7465  142.2998  156.6111 C   0  0  0  0  0  0  0  0  0  0  0  0
  149.3375  141.7673  156.7102 C   0  0  0  0  0  0  0  0  0  0  0  0
  149.6923  138.9216  155.0086 C   0  0  0  0  0  0  0  0  0  0  0  0
  148.6874  132.2484  154.1082 N   0  0  0  0  0  0  0  0  0  0  0  0
  148.3503  130.9711  153.9111 N   0  0  0  0  0  0  0  0  0  0  0  0
  146.4998  127.4010  154.2000 H   0  0  0  0  0  0  0  0  0  0  0  0
  145.8215  128.9042  154.7946 H   0  0  0  0  0  0  0  0  0  0  0  0
  147.5360  128.5505  155.0230 H   0  0  0  0  0  0  0  0  0  0  0  0
  149.1334  128.5668  153.0095 H   0  0  0  0  0  0  0  0  0  0  0  0
  148.5029  128.8041  151.3848 H   0  0  0  0  0  0  0  0  0  0  0  0
  148.0890  127.3534  152.2800 H   0  0  0  0  0  0  0  0  0  0  0  0
  145.5621  127.8627  151.9462 H   0  0  0  0  0  0  0  0  0  0  0  0
  145.9759  129.3099  151.0457 H   0  0  0  0  0  0  0  0  0  0  0  0
  144.9152  129.4213  152.4446 H   0  0  0  0  0  0  0  0  0  0  0  0
  145.7040  131.4129  151.8268 H   0  0  0  0  0  0  0  0  0  0  0  0
  146.3448  133.7765  152.2074 H   0  0  0  0  0  0  0  0  0  0  0  0
  147.6159  135.2653  153.2580 H   0  0  0  0  0  0  0  0  0  0  0  0
  148.5183  137.0656  153.7828 H   0  0  0  0  0  0  0  0  0  0  0  0
  150.5314  137.1438  155.8680 H   0  0  0  0  0  0  0  0  0  0  0  0
  152.0408  136.5920  153.9892 H   0  0  0  0  0  0  0  0  0  0  0  0
  151.2946  137.8125  152.9823 H   0  0  0  0  0  0  0  0  0  0  0  0
  152.8934  138.3446  155.5439 H   0  0  0  0  0  0  0  0  0  0  0  0
  153.3911  138.7082  153.9037 H   0  0  0  0  0  0  0  0  0  0  0  0
  151.0945  139.6172  156.5078 H   0  0  0  0  0  0  0  0  0  0  0  0
  150.0023  141.7540  154.5998 H   0  0  0  0  0  0  0  0  0  0  0  0
  151.4735  141.9337  157.3331 H   0  0  0  0  0  0  0  0  0  0  0  0
  150.8732  143.3366  156.3065 H   0  0  0  0  0  0  0  0  0  0  0  0
  148.5236  142.4490  156.4728 H   0  0  0  0  0  0  0  0  0  0  0  0
  149.1274  141.0467  157.4979 H   0  0  0  0  0  0  0  0  0  0  0  0
  149.3111  139.2596  154.0434 H   0  0  0  0  0  0  0  0  0  0  0  0
  148.8427  138.9108  155.6928 H   0  0  0  0  0  0  0  0  0  0  0  0
  1  2  1  0  0  0  0
  1 24  1  0  0  0  0
  1 25  1  0  0  0  0
  1 26  1  0  0  0  0
  2  3  1  0  0  0  0
  2  4  1  0  0  0  0
  2  5  1  0  0  0  0
  3 27  1  0  0  0  0
  3 28  1  0  0  0  0
  3 29  1  0  0  0  0
  4 30  1  0  0  0  0
  4 31  1  0  0  0  0
  4 32  1  0  0  0  0
  5 23  1  0  0  0  0
  5  6  2  0  0  0  0
  6  7  1  0  0  0  0
  6 33  1  0  0  0  0
  7  8  2  0  0  0  0
  7 34  1  0  0  0  0
  8  9  1  0  0  0  0
  8 22  1  0  0  0  0
  9 10  1  0  0  0  0
  9 35  1  0  0  0  0
 10 11  2  0  0  0  0
 10 12  1  0  0  0  0
 12 13  1  0  0  0  0
 12 36  1  0  0  0  0
 13 21  1  0  0  0  0
 13 14  1  0  0  0  0
 13 37  1  0  0  0  0
 14 15  1  0  0  0  0
 14 38  1  0  0  0  0
 14 39  1  0  0  0  0
 15 16  1  0  0  0  0
 15 40  1  0  0  0  0
 15 41  1  0  0  0  0
 16 17  1  0  0  0  0
 17 18  1  0  0  0  0
 17 21  1  0  0  0  0
 17 42  1  0  0  0  0
 18 20  1  0  0  0  0
 18 19  1  0  0  0  0
 18 43  1  0  0  0  0
 19 20  1  0  0  0  0
 19 44  1  0  0  0  0
 19 45  1  0  0  0  0
 20 46  1  0  0  0  0
 20 47  1  0  0  0  0
 21 48  1  0  0  0  0
 21 49  1  0  0  0  0
 22 23  2  0  0  0  0
M  END
> <s_m_source_file>
AV-unprocessed.smi

> <i_m_source_file_index>
2244

> <i_lp_mmshare_version>
43012

> <i_f3d_flags>
0

> <s_epik_input>
W0NIM11DKFtDSDNdKShbQ0gzXSljMVtjSF1bY0hdYyhubjEpW05IXUMoPU8pW05IXVtDQEBIXTJbQ0gyXVtDSDJdT1tDQEhdKFtDSDJdMilbQ0hdM1tDSDJdW0NIMl0z

> <s_epik_cmdline>
J2VwaWtfcHl0aG9uJywgJy1waCcsICc3LjAnLCAnLXRuJywgJzgnLCAnLW1hJywgJzIwMCcsICctbWV0YWxfYmluZGluZycsICctaW1hZScsICc8aW5maWxlLm1hZT4nLCAnLW9tYWUnLCAnPG91dGZpbGUubWFlPic=

> <r_lp_tautomer_probability>
1

> <r_epik_Ionization_Penalty>
0.011369

> <r_epik_Ionization_Penalty_Charging>
0

> <r_epik_Ionization_Penalty_Neutral>
0.011369

> <r_epik_State_Penalty>
0.00456331

> <r_epik_Charging_Adjusted_Penalty>
0.00456331

> <i_epik_Tot_Q>
0

> <i_epik_Tot_abs_Q>
0

> <r_epik_Metal_State_Penalty>
-0

> <b_epik_Metal_Only>
0

> <s_lp_Force_Field>
OPLS_2005

> <r_lp_Energy>
27.405

> <b_lp_Chiralities_Consistent>
1

> <s_lp_Variant>
AV-unprocessed.smi:2244-2

> <Gold.Version>
5.8.1

> <Gold.Id.Protein>
6NUR|6NUR_protein|mol2

> <Gold.PLP.Fitness>
39.6853

> <Gold.PLP.PLP>
-37.5775

> <Gold.PLP.part.hbond>
-3.0000

> <Gold.PLP.part.metal>
0.0000

> <Gold.PLP.part.buried>
-1.6622

> <Gold.PLP.part.nonpolar>
-33.4662

> <Gold.PLP.part.repulsive>
0.3142

> <Gold.PLP.ligand.clash>
0.0000

> <Gold.PLP.ligand.torsion>
0.7913

> <Gold.PLP.Chemscore.Hbond>
0.8715

> <Gold.PLP.Chemscore.CHOScore>
0.0000

> <Gold.PLP.Chemscore.Metal>
0.0000

> <Gold.Chemscore.Hbonds>
donor molecule, donor type, donor heavy atom, donor atom, acceptor molecule, acceptor atom, score
      P1  H  7989  7998       L1    16  0.87

> <Gold.PLP.Chemscore.Internal.Correction>
1.0759

> <Gold.Rescore>
     Score         DG    S(hbond)    S(metal)    S(lipo)     H(rot)  DE(clash)    DE(int)     intcor
     12.93     -16.69       0.95        0.00      97.20       1.30       1.67       2.10       ----

> <Gold.Chemscore.Fitness>
12.9255

> <Gold.Chemscore.DG>
-16.6928

> <Gold.Chemscore.ZeroCoef>
-5.4800

> <Gold.Chemscore.Hbond>
0.9487

> <Gold.Chemscore.Metal>
0.0000

> <Gold.Chemscore.Lipo>
97.2005

> <Gold.Chemscore.Internal_Hbond>
0.0000

> <Gold.Chemscore.DEClash>
1.6664

> <Gold.Chemscore.DEInternal>
2.1009

> <Gold.Chemscore.Rot>
1.3002

> <Gold.Chemscore.Internal.Correction>
   9.000000E+99

> <Gold.Chemscore.Hbonds>
donor molecule, donor type, donor heavy atom, donor atom, acceptor molecule, acceptor atom, score
      L1  H     9    35       P1  7948  0.02
      L1  H    12    36       P1  7948  0.02
      P1  H  7989  7998       L1    16  0.63

> <Gold.Chemscore.Hbond.Weighted>
-3.1687

> <Gold.Chemscore.Metal.Weighted>
-0.0000

> <Gold.Chemscore.Lipo.Weighted>
-11.3725

> <Gold.Chemscore.Internal_Hbond.Weighted>
0.0000

> <Gold.Chemscore.DEClash.Weighted>
1.6664

> <Gold.Chemscore.DEInternal.Weighted>
2.1009

> <Gold.Chemscore.Rot.Weighted>
3.3284

> <Gold.Chemscore.Internal.Correction.Weighted>
   9.000000E+99

> <Gold.Protein.RotatedTorsions>
[ 6907 6896 6895 6894 ] final -139.52 input  -60.11 | X-H torsion
[ 7974 7965 7964 7962 ] final   26.68 input  175.53 | X-H torsion
[ 8008 7997 7996 7995 ] final  147.19 input   59.86 | X-H torsion
[ 10167 10162 10161 10158 ] final  149.28 input  -65.29 | X-H torsion
[ 10718 10713 10712 10709 ] final  143.05 input   66.30 | X-H torsion
[ 10763 10752 10751 10750 ] final  123.03 input  -60.55 | X-H torsion
[ 11005 11000 10999 10996 ] final  107.89 input  -57.11 | X-H torsion

> <Gold.Protein.ActiveResidues>
 VAL166  LYS551  ARG553  GLY616  TRP617  ASP618  TYR619  PRO620  LYS621  CYS622 
 ASP623  PHE694  ASN695  SER759  ASP760  ASP761  ALA762  ILE779  LEU786  VAL792 
 PHE793  MET794  SER795  GLU796  ALA797  LYS798  CYS799  TRP800  GLU811  SER814 

> <Gold.Protein.RotatedAtoms>
  151.0489  133.5641  159.2643 H   0  0  0  0  0  0  0  0  0  0  0  0  # atno 6907 bound_to 6896
  151.2660  135.0668  159.9126 H   0  0  0  0  0  0  0  0  0  0  0  0  # atno 6908 bound_to 6896
  152.5378  134.0227  159.8043 H   0  0  0  0  0  0  0  0  0  0  0  0  # atno 6909 bound_to 6896
  146.1825  139.7295  142.8890 H   0  0  0  0  0  0  0  0  0  0  0  0  # atno 7974 bound_to 7965
  156.2832  140.2162  156.5497 H   0  0  0  0  0  0  0  0  0  0  0  0  # atno 8008 bound_to 7997
  154.7301  140.0496  157.0741 H   0  0  0  0  0  0  0  0  0  0  0  0  # atno 8009 bound_to 7997
  155.0365  140.3141  155.4743 H   0  0  0  0  0  0  0  0  0  0  0  0  # atno 8010 bound_to 7997
  139.4863  144.5614  151.7224 H   0  0  0  0  0  0  0  0  0  0  0  0  # atno 10167 bound_to 10162
  157.3735  131.0982  151.0806 H   0  0  0  0  0  0  0  0  0  0  0  0  # atno 10718 bound_to 10713
  153.6390  135.3382  155.3065 H   0  0  0  0  0  0  0  0  0  0  0  0  # atno 10763 bound_to 10752
  154.8563  135.4314  154.2025 H   0  0  0  0  0  0  0  0  0  0  0  0  # atno 10764 bound_to 10752
  153.2939  135.7019  153.7341 H   0  0  0  0  0  0  0  0  0  0  0  0  # atno 10765 bound_to 10752
  139.8835  134.9414  156.5889 H   0  0  0  0  0  0  0  0  0  0  0  0  # atno 11005 bound_to 11000
  145.4036  141.0388  143.3057 LP  0  0  0  0  0  0  0  0  0  0  0  0  # atno 17320 bound_to 7965
  144.8339  139.5583  143.6931 LP  0  0  0  0  0  0  0  0  0  0  0  0  # atno 17321 bound_to 7965
  140.5185  144.0916  150.6015 LP  0  0  0  0  0  0  0  0  0  0  0  0  # atno 17342 bound_to 10162
  140.3866  143.2774  152.0109 LP  0  0  0  0  0  0  0  0  0  0  0  0  # atno 17343 bound_to 10162
  157.1902  130.6348  149.5702 LP  0  0  0  0  0  0  0  0  0  0  0  0  # atno 17370 bound_to 10713
  155.9760  130.4725  150.6500 LP  0  0  0  0  0  0  0  0  0  0  0  0  # atno 17371 bound_to 10713
  140.7971  133.8535  155.8694 LP  0  0  0  0  0  0  0  0  0  0  0  0  # atno 17394 bound_to 11000
  140.9626  134.1636  157.4642 LP  0  0  0  0  0  0  0  0  0  0  0  0  # atno 17395 bound_to 11000

$$$$
