AV-unprocessed.smi:2184|AV-procd|sdf|8874|dock1
  -GOLD-   2272012 73D 1   1.00000     0.00000
 Structure written by MMmdl.
 47 48  0  0  0  0  0  0  0  0  1 V2000
  149.6016  133.4995  154.7802 C   0  0  0  0  0  0  0  0  0  0  0  0
  149.7917  135.2730  155.1065 S   0  0  0  0  0  0  0  0  0  0  0  0
  148.0570  135.8186  155.0902 C   0  0  1  0  0  0  0  0  0  0  0  0
  147.3026  135.2163  156.2857 C   0  0  0  0  0  0  0  0  0  0  0  0
  147.9332  137.3472  155.0804 C   0  0  0  0  0  0  0  0  0  0  0  0
  147.4214  137.9351  156.0338 O   0  0  0  0  0  0  0  0  0  0  0  0
  148.4162  137.9815  154.0002 N   0  0  0  0  0  0  0  0  0  0  0  0
  148.4051  139.4278  153.8085 C   0  0  0  0  0  0  0  0  0  0  0  0
  149.2068  140.1844  154.8554 C   0  0  0  0  0  0  0  0  0  0  0  0
  150.5669  139.8908  155.0711 C   0  0  0  0  0  0  0  0  0  0  0  0
  151.2773  140.6166  156.0465 C   0  0  0  0  0  0  0  0  0  0  0  0
  150.6053  141.6243  156.7841 C   0  0  0  0  0  0  0  0  0  0  0  0
  151.2550  142.3912  157.7759 N   0  0  0  0  0  0  0  0  0  0  0  0
  152.2153  141.7316  158.6534 C   0  0  0  0  0  0  0  0  0  0  0  0
  152.5169  142.6124  159.8785 C   0  0  1  0  0  0  0  0  0  0  0  0
  153.6235  142.0148  160.7538 C   0  0  0  0  0  0  0  0  0  0  0  0
  152.9434  143.9037  159.4473 O   0  0  0  0  0  0  0  0  0  0  0  0
  152.0063  144.5967  158.6202 C   0  0  2  0  0  0  0  0  0  0  0  0
  150.7759  145.0775  159.4101 C   0  0  0  0  0  0  0  0  0  0  0  0
  151.6475  143.7442  157.3872 C   0  0  0  0  0  0  0  0  0  0  0  0
  149.2940  141.8951  156.5770 N   0  0  0  0  0  0  0  0  0  0  0  0
  148.6180  141.1936  155.6441 C   0  0  0  0  0  0  0  0  0  0  0  0
  150.5713  133.0045  154.8301 H   0  0  0  0  0  0  0  0  0  0  0  0
  149.1862  133.3347  153.7868 H   0  0  0  0  0  0  0  0  0  0  0  0
  148.9418  133.0422  155.5176 H   0  0  0  0  0  0  0  0  0  0  0  0
  147.6044  135.4228  154.1798 H   0  0  0  0  0  0  0  0  0  0  0  0
  146.2588  135.5326  156.2973 H   0  0  0  0  0  0  0  0  0  0  0  0
  147.7517  135.5121  157.2348 H   0  0  0  0  0  0  0  0  0  0  0  0
  147.3131  134.1271  156.2421 H   0  0  0  0  0  0  0  0  0  0  0  0
  148.8210  137.4242  153.2619 H   0  0  0  0  0  0  0  0  0  0  0  0
  148.8302  139.6456  152.8286 H   0  0  0  0  0  0  0  0  0  0  0  0
  147.3760  139.7908  153.7855 H   0  0  0  0  0  0  0  0  0  0  0  0
  151.0652  139.1253  154.4947 H   0  0  0  0  0  0  0  0  0  0  0  0
  152.3228  140.3946  156.1973 H   0  0  0  0  0  0  0  0  0  0  0  0
  151.8190  140.7745  158.9947 H   0  0  0  0  0  0  0  0  0  0  0  0
  153.1311  141.5307  158.0961 H   0  0  0  0  0  0  0  0  0  0  0  0
  151.6196  142.7063  160.4904 H   0  0  0  0  0  0  0  0  0  0  0  0
  153.3455  141.0250  161.1164 H   0  0  0  0  0  0  0  0  0  0  0  0
  153.8155  142.6450  161.6224 H   0  0  0  0  0  0  0  0  0  0  0  0
  154.5572  141.9186  160.1990 H   0  0  0  0  0  0  0  0  0  0  0  0
  152.5199  145.4905  158.2650 H   0  0  0  0  0  0  0  0  0  0  0  0
  150.1484  145.7193  158.7914 H   0  0  0  0  0  0  0  0  0  0  0  0
  151.0758  145.6549  160.2848 H   0  0  0  0  0  0  0  0  0  0  0  0
  150.1530  144.2507  159.7503 H   0  0  0  0  0  0  0  0  0  0  0  0
  152.5147  143.6681  156.7300 H   0  0  0  0  0  0  0  0  0  0  0  0
  150.8672  144.2487  156.8171 H   0  0  0  0  0  0  0  0  0  0  0  0
  147.5754  141.4486  155.5250 H   0  0  0  0  0  0  0  0  0  0  0  0
  1  2  1  0  0  0  0
  1 23  1  0  0  0  0
  1 24  1  0  0  0  0
  1 25  1  0  0  0  0
  2  3  1  0  0  0  0
  3  4  1  0  0  0  0
  3  5  1  0  0  0  0
  3 26  1  0  0  0  0
  4 27  1  0  0  0  0
  4 28  1  0  0  0  0
  4 29  1  0  0  0  0
  5  6  2  0  0  0  0
  5  7  1  0  0  0  0
  7  8  1  0  0  0  0
  7 30  1  0  0  0  0
  8  9  1  0  0  0  0
  8 31  1  0  0  0  0
  8 32  1  0  0  0  0
  9 22  1  0  0  0  0
  9 10  2  0  0  0  0
 10 11  1  0  0  0  0
 10 33  1  0  0  0  0
 11 12  2  0  0  0  0
 11 34  1  0  0  0  0
 12 13  1  0  0  0  0
 12 21  1  0  0  0  0
 13 20  1  0  0  0  0
 13 14  1  0  0  0  0
 14 15  1  0  0  0  0
 14 35  1  0  0  0  0
 14 36  1  0  0  0  0
 15 16  1  0  0  0  0
 15 17  1  0  0  0  0
 15 37  1  0  0  0  0
 16 38  1  0  0  0  0
 16 39  1  0  0  0  0
 16 40  1  0  0  0  0
 17 18  1  0  0  0  0
 18 19  1  0  0  0  0
 18 20  1  0  0  0  0
 18 41  1  0  0  0  0
 19 42  1  0  0  0  0
 19 43  1  0  0  0  0
 19 44  1  0  0  0  0
 20 45  1  0  0  0  0
 20 46  1  0  0  0  0
 21 22  2  0  0  0  0
 22 47  1  0  0  0  0
M  END
> <s_m_source_file>
AV-unprocessed.smi

> <i_m_source_file_index>
2184

> <i_lp_mmshare_version>
43012

> <i_f3d_flags>
0

> <s_epik_input>
W0NIM11TW0NASF0oW0NIM10pQyg9TylbTkhdW0NIMl1jMVtjSF1bY0hdYyhuW2NIXTEpTjJbQ0gyXVtDQEBIXShbQ0gzXSlPW0NAQEhdKFtDSDNdKVtDSDJdMg==

> <s_epik_cmdline>
J2VwaWtfcHl0aG9uJywgJy1waCcsICc3LjAnLCAnLXRuJywgJzgnLCAnLW1hJywgJzIwMCcsICctbWV0YWxfYmluZGluZycsICctaW1hZScsICc8aW5maWxlLm1hZT4nLCAnLW9tYWUnLCAnPG91dGZpbGUubWFlPic=

> <r_lp_tautomer_probability>
1

> <r_epik_Ionization_Penalty>
0.00551702

> <r_epik_Ionization_Penalty_Charging>
0

> <r_epik_Ionization_Penalty_Neutral>
0.00551702

> <r_epik_State_Penalty>
0.00403758

> <r_epik_Charging_Adjusted_Penalty>
0.00403758

> <i_epik_Tot_Q>
0

> <i_epik_Tot_abs_Q>
0

> <r_epik_Metal_State_Penalty>
-0

> <b_epik_Metal_Only>
0

> <s_lp_Force_Field>
OPLS_2005

> <r_lp_Energy>
17.8704

> <b_lp_Chiralities_Consistent>
1

> <s_lp_Variant>
AV-unprocessed.smi:2184-6

> <Gold.Version>
5.8.1

> <Gold.Id.Protein>
6NUR|6NUR_protein|mol2

> <Gold.PLP.Fitness>
43.2145

> <Gold.PLP.PLP>
-41.1002

> <Gold.PLP.part.hbond>
-1.0000

> <Gold.PLP.part.metal>
0.0000

> <Gold.PLP.part.buried>
-3.4047

> <Gold.PLP.part.nonpolar>
-37.1187

> <Gold.PLP.part.repulsive>
0.8198

> <Gold.PLP.ligand.clash>
0.0000

> <Gold.PLP.ligand.torsion>
0.6788

> <Gold.PLP.Chemscore.Hbond>
1.0000

> <Gold.PLP.Chemscore.CHOScore>
0.0000

> <Gold.PLP.Chemscore.Metal>
0.0000

> <Gold.Chemscore.Hbonds>
donor molecule, donor type, donor heavy atom, donor atom, acceptor molecule, acceptor atom, score
      L1  H     7    30       P1  7948  1.00

> <Gold.PLP.Chemscore.Internal.Correction>
0.4720

> <Gold.Rescore>
     Score         DG    S(hbond)    S(metal)    S(lipo)     H(rot)  DE(clash)    DE(int)     intcor
     17.16     -18.14       1.00        0.00     114.59       1.59       0.33       0.65       ----

> <Gold.Chemscore.Fitness>
17.1593

> <Gold.Chemscore.DG>
-18.1438

> <Gold.Chemscore.ZeroCoef>
-5.4800

> <Gold.Chemscore.Hbond>
0.9996

> <Gold.Chemscore.Metal>
0.0000

> <Gold.Chemscore.Lipo>
114.5938

> <Gold.Chemscore.Internal_Hbond>
0.0000

> <Gold.Chemscore.DEClash>
0.3322

> <Gold.Chemscore.DEInternal>
0.6522

> <Gold.Chemscore.Rot>
1.5947

> <Gold.Chemscore.Internal.Correction>
   9.000000E+99

> <Gold.Chemscore.Hbonds>
donor molecule, donor type, donor heavy atom, donor atom, acceptor molecule, acceptor atom, score
      L1  H     7    30       P1  7948  1.00

> <Gold.Chemscore.Hbond.Weighted>
-3.3388

> <Gold.Chemscore.Metal.Weighted>
-0.0000

> <Gold.Chemscore.Lipo.Weighted>
-13.4075

> <Gold.Chemscore.Internal_Hbond.Weighted>
0.0000

> <Gold.Chemscore.DEClash.Weighted>
0.3322

> <Gold.Chemscore.DEInternal.Weighted>
0.6522

> <Gold.Chemscore.Rot.Weighted>
4.0824

> <Gold.Chemscore.Internal.Correction.Weighted>
   9.000000E+99

> <Gold.Protein.RotatedTorsions>
[ 6907 6896 6895 6894 ] final   19.92 input  -60.11 | X-H torsion
[ 7974 7965 7964 7962 ] final -101.29 input  175.53 | X-H torsion
[ 8008 7997 7996 7995 ] final    0.65 input   59.86 | X-H torsion
[ 10167 10162 10161 10158 ] final -155.71 input  -65.29 | X-H torsion
[ 10718 10713 10712 10709 ] final   29.38 input   66.30 | X-H torsion
[ 10763 10752 10751 10750 ] final -124.12 input  -60.55 | X-H torsion
[ 11005 11000 10999 10996 ] final  -91.52 input  -57.11 | X-H torsion

> <Gold.Protein.ActiveResidues>
 VAL166  LYS551  ARG553  GLY616  TRP617  ASP618  TYR619  PRO620  LYS621  CYS622 
 ASP623  PHE694  ASN695  SER759  ASP760  ASP761  ALA762  ILE779  LEU786  VAL792 
 PHE793  MET794  SER795  GLU796  ALA797  LYS798  CYS799  TRP800  GLU811  SER814 

> <Gold.Protein.RotatedAtoms>
  151.8883  135.0426  160.0495 H   0  0  0  0  0  0  0  0  0  0  0  0  # atno 6907 bound_to 6896
  152.2457  133.5168  159.5304 H   0  0  0  0  0  0  0  0  0  0  0  0  # atno 6908 bound_to 6896
  150.7067  134.0945  159.3986 H   0  0  0  0  0  0  0  0  0  0  0  0  # atno 6909 bound_to 6896
  145.2835  140.9333  143.2918 H   0  0  0  0  0  0  0  0  0  0  0  0  # atno 7974 bound_to 7965
  154.6706  140.2611  155.7011 H   0  0  0  0  0  0  0  0  0  0  0  0  # atno 8008 bound_to 7997
  156.2657  140.2830  156.1135 H   0  0  0  0  0  0  0  0  0  0  0  0  # atno 8009 bound_to 7997
  155.1175  140.0376  157.2731 H   0  0  0  0  0  0  0  0  0  0  0  0  # atno 8010 bound_to 7997
  139.6909  143.9422  152.2384 H   0  0  0  0  0  0  0  0  0  0  0  0  # atno 10167 bound_to 10162
  157.2458  130.7091  149.6380 H   0  0  0  0  0  0  0  0  0  0  0  0  # atno 10718 bound_to 10713
  154.8718  135.4074  154.3055 H   0  0  0  0  0  0  0  0  0  0  0  0  # atno 10763 bound_to 10752
  153.3907  135.7015  153.6502 H   0  0  0  0  0  0  0  0  0  0  0  0  # atno 10764 bound_to 10752
  153.5286  135.3672  155.2636 H   0  0  0  0  0  0  0  0  0  0  0  0  # atno 10765 bound_to 10752
  141.1543  133.7761  156.9891 H   0  0  0  0  0  0  0  0  0  0  0  0  # atno 11005 bound_to 11000
  144.9233  139.4385  143.6530 LP  0  0  0  0  0  0  0  0  0  0  0  0  # atno 17320 bound_to 7965
  146.3208  139.8105  142.8947 LP  0  0  0  0  0  0  0  0  0  0  0  0  # atno 17321 bound_to 7965
  139.9238  144.6783  150.8434 LP  0  0  0  0  0  0  0  0  0  0  0  0  # atno 17342 bound_to 10162
  140.7682  143.3356  151.2316 LP  0  0  0  0  0  0  0  0  0  0  0  0  # atno 17343 bound_to 10162
  155.9668  130.4443  150.5458 LP  0  0  0  0  0  0  0  0  0  0  0  0  # atno 17370 bound_to 10713
  157.3331  131.0703  151.1846 LP  0  0  0  0  0  0  0  0  0  0  0  0  # atno 17371 bound_to 10713
  140.1015  134.9532  157.1930 LP  0  0  0  0  0  0  0  0  0  0  0  0  # atno 17394 bound_to 11000
  140.3312  134.2807  155.7228 LP  0  0  0  0  0  0  0  0  0  0  0  0  # atno 17395 bound_to 11000

$$$$
