AV-unprocessed.smi:1312|AV-procd|sdf|5448|dock9
  -GOLD-   22720 5 23D 1   1.00000     0.00000
 Structure written by MMmdl.
 50 51  0  0  0  0  0  0  0  0  2 V2000
  143.5317  137.8285  152.7242 C   0  0  0  0  0  0  0  0  0  0  0  0
  144.5219  137.3466  153.7961 C   0  0  0  0  0  0  0  0  0  0  0  0
  145.9962  137.2454  153.3180 C   0  0  2  0  0  0  0  0  0  0  0  0
  146.5167  138.5799  152.7250 C   0  0  0  0  0  0  0  0  0  0  0  0
  147.9663  138.6985  152.8346 N   0  0  0  0  0  0  0  0  0  0  0  0
  148.6315  138.8871  153.9833 C   0  0  0  0  0  0  0  0  0  0  0  0
  148.0687  138.9912  155.0742 O   0  0  0  0  0  0  0  0  0  0  0  0
  150.1590  138.9534  153.8682 C   0  0  0  0  0  0  0  0  0  0  0  0
  150.7931  139.4406  155.1488 C   0  0  0  0  0  0  0  0  0  0  0  0
  151.9746  138.9433  155.7732 C   0  0  0  0  0  0  0  0  0  0  0  0
  152.8599  137.8187  155.3177 C   0  0  0  0  0  0  0  0  0  0  0  0
  152.2682  139.5914  156.8884 N   0  0  0  0  0  0  0  0  0  0  0  0
  151.2934  140.5138  157.0168 N   0  0  0  0  0  0  0  0  0  0  0  0
  151.3099  141.4131  158.1543 C   0  0  0  0  0  0  0  0  0  0  0  0
  150.3821  140.4477  155.9807 C   0  0  0  0  0  0  0  0  0  0  0  0
  149.2037  141.3630  155.8973 C   0  0  0  0  0  0  0  0  0  0  0  0
  146.1806  136.1070  152.3696 N   0  3  0  0  0  0  0  0  0  0  0  0
  145.8542  134.7643  152.8980 C   0  0  0  0  0  0  0  0  0  0  0  0
  145.6419  133.8945  151.6647 C   0  0  0  0  0  0  0  0  0  0  0  0
  144.9484  134.8433  150.6951 C   0  0  0  0  0  0  0  0  0  0  0  0
  145.4675  136.2373  151.0727 C   0  0  0  0  0  0  0  0  0  0  0  0
  142.5159  137.8415  153.1199 H   0  0  0  0  0  0  0  0  0  0  0  0
  143.5348  137.1745  151.8523 H   0  0  0  0  0  0  0  0  0  0  0  0
  143.7615  138.8399  152.3892 H   0  0  0  0  0  0  0  0  0  0  0  0
  144.4583  138.0172  154.6533 H   0  0  0  0  0  0  0  0  0  0  0  0
  144.1813  136.3847  154.1785 H   0  0  0  0  0  0  0  0  0  0  0  0
  146.6070  137.0258  154.1954 H   0  0  0  0  0  0  0  0  0  0  0  0
  146.2725  138.6568  151.6653 H   0  0  0  0  0  0  0  0  0  0  0  0
  146.0306  139.4226  153.2193 H   0  0  0  0  0  0  0  0  0  0  0  0
  148.5022  138.6234  151.9819 H   0  0  0  0  0  0  0  0  0  0  0  0
  150.5210  137.9596  153.6040 H   0  0  0  0  0  0  0  0  0  0  0  0
  150.4258  139.6006  153.0319 H   0  0  0  0  0  0  0  0  0  0  0  0
  153.1861  137.9707  154.2890 H   0  0  0  0  0  0  0  0  0  0  0  0
  152.3297  136.8672  155.3606 H   0  0  0  0  0  0  0  0  0  0  0  0
  153.7535  137.7295  155.9367 H   0  0  0  0  0  0  0  0  0  0  0  0
  151.3798  142.4435  157.8052 H   0  0  0  0  0  0  0  0  0  0  0  0
  152.1619  141.2014  158.8019 H   0  0  0  0  0  0  0  0  0  0  0  0
  150.3922  141.2930  158.7301 H   0  0  0  0  0  0  0  0  0  0  0  0
  148.5515  141.0941  155.0667 H   0  0  0  0  0  0  0  0  0  0  0  0
  149.5250  142.3944  155.7518 H   0  0  0  0  0  0  0  0  0  0  0  0
  148.6116  141.3180  156.8114 H   0  0  0  0  0  0  0  0  0  0  0  0
  146.6447  134.3739  153.5398 H   0  0  0  0  0  0  0  0  0  0  0  0
  144.9312  134.8096  153.4788 H   0  0  0  0  0  0  0  0  0  0  0  0
  146.6055  133.5853  151.2576 H   0  0  0  0  0  0  0  0  0  0  0  0
  145.0586  132.9971  151.8724 H   0  0  0  0  0  0  0  0  0  0  0  0
  145.1424  134.5899  149.6526 H   0  0  0  0  0  0  0  0  0  0  0  0
  143.8698  134.8002  150.8506 H   0  0  0  0  0  0  0  0  0  0  0  0
  144.6297  136.9330  151.1364 H   0  0  0  0  0  0  0  0  0  0  0  0
  146.1604  136.6187  150.3221 H   0  0  0  0  0  0  0  0  0  0  0  0
  147.1639  136.0748  152.1407 H   0  0  0  0  0  0  0  0  0  0  0  0
  1  2  1  0  0  0  0
  1 22  1  0  0  0  0
  1 23  1  0  0  0  0
  1 24  1  0  0  0  0
  2  3  1  0  0  0  0
  2 25  1  0  0  0  0
  2 26  1  0  0  0  0
  3  4  1  0  0  0  0
  3 17  1  0  0  0  0
  3 27  1  0  0  0  0
  4  5  1  0  0  0  0
  4 28  1  0  0  0  0
  4 29  1  0  0  0  0
  5  6  1  0  0  0  0
  5 30  1  0  0  0  0
  6  7  2  0  0  0  0
  6  8  1  0  0  0  0
  8  9  1  0  0  0  0
  8 31  1  0  0  0  0
  8 32  1  0  0  0  0
  9 15  2  0  0  0  0
  9 10  1  0  0  0  0
 10 11  1  0  0  0  0
 10 12  2  0  0  0  0
 11 33  1  0  0  0  0
 11 34  1  0  0  0  0
 11 35  1  0  0  0  0
 12 13  1  0  0  0  0
 13 14  1  0  0  0  0
 13 15  1  0  0  0  0
 14 36  1  0  0  0  0
 14 37  1  0  0  0  0
 14 38  1  0  0  0  0
 15 16  1  0  0  0  0
 16 39  1  0  0  0  0
 16 40  1  0  0  0  0
 16 41  1  0  0  0  0
 17 21  1  0  0  0  0
 17 18  1  0  0  0  0
 17 50  1  0  0  0  0
 18 19  1  0  0  0  0
 18 42  1  0  0  0  0
 18 43  1  0  0  0  0
 19 20  1  0  0  0  0
 19 44  1  0  0  0  0
 19 45  1  0  0  0  0
 20 21  1  0  0  0  0
 20 46  1  0  0  0  0
 20 47  1  0  0  0  0
 21 48  1  0  0  0  0
 21 49  1  0  0  0  0
M  CHG  1  17   1
M  END
> <s_m_source_file>
AV-unprocessed.smi

> <i_m_source_file_index>
1312

> <i_lp_mmshare_version>
43012

> <i_f3d_flags>
0

> <s_epik_input>
W0NIMl0xW0NIMl1bQ0gyXVtDSDJdTjFbQ0BIXShbQ0gyXVtDSDNdKVtDSDJdW05IXUMoPU8pW0NIMl1jMmMoW0NIM10pbm4oW0NIM10pYzJbQ0gzXQ==

> <s_epik_cmdline>
J2VwaWtfcHl0aG9uJywgJy1waCcsICc3LjAnLCAnLXRuJywgJzgnLCAnLW1hJywgJzIwMCcsICctbWV0YWxfYmluZGluZycsICctaW1hZScsICc8aW5maWxlLm1hZT4nLCAnLW9tYWUnLCAnPG91dGZpbGUubWFlPic=

> <r_lp_tautomer_probability>
1

> <r_epik_Ionization_Penalty>
0.00585463

> <r_epik_Ionization_Penalty_Charging>
0.00366302

> <r_epik_Ionization_Penalty_Neutral>
0.00219161

> <r_epik_State_Penalty>
-0

> <r_epik_Charging_Adjusted_Penalty>
0.00366302

> <i_epik_Tot_Q>
1

> <i_epik_Tot_abs_Q>
1

> <r_epik_Metal_State_Penalty>
-0

> <b_epik_Metal_Only>
0

> <s_lp_Force_Field>
OPLS_2005

> <r_lp_Energy>
29.647

> <b_lp_Chiralities_Consistent>
1

> <s_lp_Variant>
AV-unprocessed.smi:1312-1

> <Gold.Version>
5.8.1

> <Gold.Id.Protein>
6NUR|6NUR_protein|mol2

> <Gold.PLP.Fitness>
45.8124

> <Gold.PLP.PLP>
-35.7261

> <Gold.PLP.part.hbond>
-4.0000

> <Gold.PLP.part.metal>
0.0000

> <Gold.PLP.part.buried>
-0.2972

> <Gold.PLP.part.nonpolar>
-31.3225

> <Gold.PLP.part.repulsive>
0.1262

> <Gold.PLP.ligand.clash>
0.0000

> <Gold.PLP.ligand.torsion>
0.7242

> <Gold.PLP.Chemscore.Hbond>
3.8000

> <Gold.PLP.Chemscore.CHOScore>
0.0000

> <Gold.PLP.Chemscore.Metal>
0.0000

> <Gold.Chemscore.Hbonds>
donor molecule, donor type, donor heavy atom, donor atom, acceptor molecule, acceptor atom, score
      L1  H     5    30       P1  7957  0.56
      L1  H    17    50       P1  7948  2.00
      P1  H  7997  8008       L1    12  0.62

> <Gold.PLP.Chemscore.Internal.Correction>
0.1349

> <Gold.Rescore>
     Score         DG    S(hbond)    S(metal)    S(lipo)     H(rot)  DE(clash)    DE(int)     intcor
     15.77     -19.68       2.62        0.00      84.23       1.72       0.69       3.22       ----

> <Gold.Chemscore.Fitness>
15.7688

> <Gold.Chemscore.DG>
-19.6754

> <Gold.Chemscore.ZeroCoef>
-5.4800

> <Gold.Chemscore.Hbond>
2.6188

> <Gold.Chemscore.Metal>
0.0000

> <Gold.Chemscore.Lipo>
84.2334

> <Gold.Chemscore.Internal_Hbond>
0.0000

> <Gold.Chemscore.DEClash>
0.6860

> <Gold.Chemscore.DEInternal>
3.2206

> <Gold.Chemscore.Rot>
1.7213

> <Gold.Chemscore.Internal.Correction>
   9.000000E+99

> <Gold.Chemscore.Hbonds>
donor molecule, donor type, donor heavy atom, donor atom, acceptor molecule, acceptor atom, score
      L1  H     5    30       P1  7957  0.41
      L1  H    17    50       P1  7948  1.00
      P1  H  7997  8008       L1    12  0.27

> <Gold.Chemscore.Hbond.Weighted>
-8.7467

> <Gold.Chemscore.Metal.Weighted>
-0.0000

> <Gold.Chemscore.Lipo.Weighted>
-9.8553

> <Gold.Chemscore.Internal_Hbond.Weighted>
0.0000

> <Gold.Chemscore.DEClash.Weighted>
0.6860

> <Gold.Chemscore.DEInternal.Weighted>
3.2206

> <Gold.Chemscore.Rot.Weighted>
4.4065

> <Gold.Chemscore.Internal.Correction.Weighted>
   9.000000E+99

> <Gold.Protein.RotatedTorsions>
[ 6907 6896 6895 6894 ] final  -50.00 input  -60.11 | X-H torsion
[ 7974 7965 7964 7962 ] final   27.27 input  175.53 | X-H torsion
[ 8008 7997 7996 7995 ] final  -63.15 input   59.86 | X-H torsion
[ 10167 10162 10161 10158 ] final   50.64 input  -65.29 | X-H torsion
[ 10718 10713 10712 10709 ] final   20.73 input   66.30 | X-H torsion
[ 10763 10752 10751 10750 ] final -111.28 input  -60.55 | X-H torsion
[ 11005 11000 10999 10996 ] final   60.36 input  -57.11 | X-H torsion

> <Gold.Protein.ActiveResidues>
 VAL166  LYS551  ARG553  GLY616  TRP617  ASP618  TYR619  PRO620  LYS621  CYS622 
 ASP623  PHE694  ASN695  SER759  ASP760  ASP761  ALA762  ILE779  LEU786  VAL792 
 PHE793  MET794  SER795  GLU796  ALA797  LYS798  CYS799  TRP800  GLU811  SER814 

> <Gold.Protein.RotatedAtoms>
  150.8749  134.8130  159.7182 H   0  0  0  0  0  0  0  0  0  0  0  0  # atno 6907 bound_to 6896
  152.4740  134.4887  159.9698 H   0  0  0  0  0  0  0  0  0  0  0  0  # atno 6908 bound_to 6896
  151.4970  133.3474  159.2898 H   0  0  0  0  0  0  0  0  0  0  0  0  # atno 6909 bound_to 6896
  146.1793  139.7214  142.8912 H   0  0  0  0  0  0  0  0  0  0  0  0  # atno 7974 bound_to 7965
  154.4538  140.0981  156.6697 H   0  0  0  0  0  0  0  0  0  0  0  0  # atno 8008 bound_to 7997
  155.5201  140.3478  155.4387 H   0  0  0  0  0  0  0  0  0  0  0  0  # atno 8009 bound_to 7997
  156.0736  140.1355  156.9787 H   0  0  0  0  0  0  0  0  0  0  0  0  # atno 8010 bound_to 7997
  140.2703  144.3273  150.6292 H   0  0  0  0  0  0  0  0  0  0  0  0  # atno 10167 bound_to 10162
  157.1286  130.6581  149.5945 H   0  0  0  0  0  0  0  0  0  0  0  0  # atno 10718 bound_to 10713
  154.8292  135.4533  154.1015 H   0  0  0  0  0  0  0  0  0  0  0  0  # atno 10763 bound_to 10752
  153.2302  135.6904  153.7904 H   0  0  0  0  0  0  0  0  0  0  0  0  # atno 10764 bound_to 10752
  153.7290  135.3330  155.3258 H   0  0  0  0  0  0  0  0  0  0  0  0  # atno 10765 bound_to 10752
  140.0237  134.6115  155.9603 H   0  0  0  0  0  0  0  0  0  0  0  0  # atno 11005 bound_to 11000
  145.4122  141.0398  143.3010 LP  0  0  0  0  0  0  0  0  0  0  0  0  # atno 17320 bound_to 7965
  144.8288  139.5664  143.6953 LP  0  0  0  0  0  0  0  0  0  0  0  0  # atno 17321 bound_to 7965
  140.5895  143.2168  151.7279 LP  0  0  0  0  0  0  0  0  0  0  0  0  # atno 17342 bound_to 10162
  139.4991  144.3960  152.0231 LP  0  0  0  0  0  0  0  0  0  0  0  0  # atno 17343 bound_to 10162
  155.9813  130.4819  150.6819 LP  0  0  0  0  0  0  0  0  0  0  0  0  # atno 17370 bound_to 10713
  157.4413  131.0861  151.0941 LP  0  0  0  0  0  0  0  0  0  0  0  0  # atno 17371 bound_to 10713
  141.1790  133.6544  156.4941 LP  0  0  0  0  0  0  0  0  0  0  0  0  # atno 17394 bound_to 11000
  140.4343  134.7073  157.4958 LP  0  0  0  0  0  0  0  0  0  0  0  0  # atno 17395 bound_to 11000

$$$$
