#       Name:                AV-unprocessed.smi:2134
#       Creating user name   scv26
#       Creation time:       Fri Mar 27 11:45:33 2020


#       File generated by GOLD software.
#

@<TRIPOS>MOLECULE
AV-unprocessed.smi:2134
    41    42     1
SMALL
NO_CHARGES


@<TRIPOS>ATOM
      1 ****        -3.2679  -1.1931   0.5352 C.3            1 S1                 0.0000
      2 ****        -2.9181   0.2126   0.7366 N.am           1 S1                 0.0000
      3 ****        -1.5589   0.4404   0.7729 N.2            1 S1                 0.0000
      4 ****        -1.0496   1.6307   0.7003 C.2            1 S1                 0.0000
      5 ****         0.4339   1.7979   0.7059 C.2            1 S1                 0.0000
      6 ****         0.8388   2.9425   0.4694 O.2            1 S1                 0.0000
      7 ****         1.2104   0.7019   0.9542 N.pl3          1 S1                -1.0000
      8 ****         2.6669   0.6491   0.8318 C.3            1 S1                 0.0000
      9 ****         3.1300  -0.8192   0.7044 C.3            1 S1                 0.0000
     10 ****         2.6261  -1.5377  -0.5443 C.ar           1 S1                 0.0000
     11 ****         3.3539  -1.4974  -1.7533 C.ar           1 S1                 0.0000
     12 ****         2.8462  -2.1777  -2.8768 C.ar           1 S1                 0.0000
     13 ****         1.6299  -2.8764  -2.7443 C.ar           1 S1                 0.0000
     14 ****         0.9266  -2.9312  -1.5933 N.ar           1 S1                 0.0000
     15 ****         1.4194  -2.2739  -0.5213 C.ar           1 S1                 0.0000
     16 ****        -1.9536   2.8417   0.5645 C.3            1 S1                 0.0000
     17 ****        -3.3493   2.5928   1.1688 C.3            1 S1                 0.0000
     18 ****        -3.8614   1.1774   0.8864 C.2            1 S1                 0.0000
     19 ****        -5.0741   0.9733   0.8308 O.2            1 S1                 0.0000
     20 ****        -4.3406  -1.3883   0.5564 H              1 S1                 0.0000
     21 ****        -2.8097  -1.8088   1.3102 H              1 S1                 0.0000
     22 ****        -2.8908  -1.5355  -0.4292 H              1 S1                 0.0000
     23 ****         3.0297   1.2081  -0.0321 H              1 S1                 0.0000
     24 ****         3.1517   1.0956   1.7004 H              1 S1                 0.0000
     25 ****         4.2201  -0.8489   0.7006 H              1 S1                 0.0000
     26 ****         2.8211  -1.3830   1.5858 H              1 S1                 0.0000
     27 ****         4.2834  -0.9512  -1.8202 H              1 S1                 0.0000
     28 ****         3.3754  -2.1627  -3.8178 H              1 S1                 0.0000
     29 ****         1.2118  -3.4083  -3.5859 H              1 S1                 0.0000
     30 ****         0.8294  -2.3326   0.3817 H              1 S1                 0.0000
     31 ****        -1.5170   3.7076   1.0633 H              1 S1                 0.0000
     32 ****        -2.0449   3.1057  -0.4896 H              1 S1                 0.0000
     33 ****        -3.3070   2.7162   2.2516 H              1 S1                 0.0000
     34 ****        -4.0602   3.3308   0.7957 H              1 S1                 0.0000
     35 ****        -0.9423  -0.3421   0.8585 LP             1 S1                 0.0000
     36 ****         0.1845   3.6776   0.2918 LP             1 S1                 0.0000
     37 ****         1.8204   3.1328   0.4559 LP             1 S1                 0.0000
     38 ****         0.7441  -0.1340   1.2438 LP             1 S1                 0.0000
     39 ****         0.0686  -3.4418  -1.5362 LP             1 S1                 0.0000
     40 ****        -5.4186   0.0491   0.6662 LP             1 S1                 0.0000
     41 ****        -5.7148   1.7318   0.9503 LP             1 S1                 0.0000
@<TRIPOS>BOND
    1    1    2 1     
    2    1   20 1     
    3    1   21 1     
    4    1   22 1     
    5    2   18 am    
    6    2    3 1     
    7    3    4 2     
    8    4    5 1     
    9    4   16 1     
   10    5    6 2     
   11    5    7 1     
   12    7    8 1     
   13    8    9 1     
   14    8   23 1     
   15    8   24 1     
   16    9   10 1     
   17    9   25 1     
   18    9   26 1     
   19   10   15 ar    
   20   10   11 ar    
   21   11   12 ar    
   22   11   27 1     
   23   12   13 ar    
   24   12   28 1     
   25   13   14 ar    
   26   13   29 1     
   27   14   15 ar    
   28   15   30 1     
   29   16   17 1     
   30   16   31 1     
   31   16   32 1     
   32   17   18 1     
   33   17   33 1     
   34   17   34 1     
   35   18   19 2     
   36    3   35 1     
   37    6   36 1     
   38    6   37 1     
   39    7   38 1     
   40   14   39 1     
   41   19   40 1     
   42   19   41 1     
@<TRIPOS>SUBSTRUCTURE
      1 S1             1
@<TRIPOS>SET
LONE_PAIRS      STATIC     ATOMS    <user>   **** ""
7 35 36 37 38 39 40 41
ATOM$BLUE        STATIC     ATOMS    COLORGROUP SYSTEM
7 35 36 37 38 39 40 41
