AV-unprocessed.smi:598|AV-procd|sdf|3022|dock4
  -GOLD-   2262023533D 1   1.00000     0.00000
 Structure written by MMmdl.
 43 44  0  0  0  0  0  0  0  0  3 V2000
  153.3028  141.3542  159.8577 C   0  0  0  0  0  0  0  0  0  0  0  0
  152.3671  142.5675  159.7260 C   0  0  1  0  0  0  0  0  0  0  0  0
  153.1171  143.8137  159.2129 C   0  0  0  0  0  0  0  0  0  0  0  0
  152.2018  145.0475  159.1769 C   0  0  0  0  0  0  0  0  0  0  0  0
  150.9296  144.7807  158.3587 C   0  0  0  0  0  0  0  0  0  0  0  0
  150.1804  143.5396  158.8812 C   0  0  1  0  0  0  0  0  0  0  0  0
  148.9585  143.3363  158.1061 N   0  0  0  0  0  0  0  0  0  0  0  0
  147.8038  142.8517  158.5877 C   0  0  0  0  0  0  0  0  0  0  0  0
  147.6382  142.5488  159.7700 O   0  0  0  0  0  0  0  0  0  0  0  0
  146.6610  142.7019  157.5741 C   0  0  0  0  0  0  0  0  0  0  0  0
  146.6758  141.4035  156.8798 N   0  0  0  0  0  0  0  0  0  0  0  0
  146.6738  140.2450  157.6820 C   0  0  0  0  0  0  0  0  0  0  0  0
  146.6917  139.0067  157.1509 C   0  0  0  0  0  0  0  0  0  0  0  0
  146.6945  137.8279  157.9896 N   0  3  0  0  0  0  0  0  0  0  0  0
  146.6725  136.7245  157.4535 O   0  0  0  0  0  0  0  0  0  0  0  0
  146.7175  137.9645  159.2093 O   0  5  0  0  0  0  0  0  0  0  0  0
  146.7134  138.8933  155.7052 C   0  0  0  0  0  0  0  0  0  0  0  0
  146.7181  139.9974  154.9327 C   0  0  0  0  0  0  0  0  0  0  0  0
  146.6998  141.3441  155.5128 C   0  0  0  0  0  0  0  0  0  0  0  0
  146.7060  142.3570  154.8126 O   0  0  0  0  0  0  0  0  0  0  0  0
  151.0919  142.2806  158.8884 C   0  0  1  0  0  0  0  0  0  0  0  0
  151.3899  141.7364  157.4714 C   0  0  0  0  0  0  0  0  0  0  0  0
  153.7808  141.1062  158.9099 H   0  0  0  0  0  0  0  0  0  0  0  0
  152.7608  140.4736  160.2032 H   0  0  0  0  0  0  0  0  0  0  0  0
  154.0968  141.5533  160.5778 H   0  0  0  0  0  0  0  0  0  0  0  0
  152.0293  142.7969  160.7380 H   0  0  0  0  0  0  0  0  0  0  0  0
  153.9741  144.0212  159.8547 H   0  0  0  0  0  0  0  0  0  0  0  0
  153.5218  143.6266  158.2180 H   0  0  0  0  0  0  0  0  0  0  0  0
  151.9268  145.3259  160.1951 H   0  0  0  0  0  0  0  0  0  0  0  0
  152.7407  145.8990  158.7604 H   0  0  0  0  0  0  0  0  0  0  0  0
  150.2797  145.6553  158.4060 H   0  0  0  0  0  0  0  0  0  0  0  0
  151.1906  144.6515  157.3077 H   0  0  0  0  0  0  0  0  0  0  0  0
  149.8877  143.7530  159.9113 H   0  0  0  0  0  0  0  0  0  0  0  0
  149.0028  143.5616  157.1229 H   0  0  0  0  0  0  0  0  0  0  0  0
  145.7185  142.8473  158.1036 H   0  0  0  0  0  0  0  0  0  0  0  0
  146.7076  143.5136  156.8453 H   0  0  0  0  0  0  0  0  0  0  0  0
  146.6649  140.4358  158.7456 H   0  0  0  0  0  0  0  0  0  0  0  0
  146.7276  137.9228  155.2312 H   0  0  0  0  0  0  0  0  0  0  0  0
  146.7360  139.8904  153.8580 H   0  0  0  0  0  0  0  0  0  0  0  0
  150.5459  141.4910  159.4066 H   0  0  0  0  0  0  0  0  0  0  0  0
  151.9598  142.4444  156.8710 H   0  0  0  0  0  0  0  0  0  0  0  0
  150.4727  141.5087  156.9283 H   0  0  0  0  0  0  0  0  0  0  0  0
  151.9569  140.8071  157.5116 H   0  0  0  0  0  0  0  0  0  0  0  0
  1  2  1  0  0  0  0
  1 23  1  0  0  0  0
  1 24  1  0  0  0  0
  1 25  1  0  0  0  0
  2 21  1  0  0  0  0
  2  3  1  0  0  0  0
  2 26  1  0  0  0  0
  3  4  1  0  0  0  0
  3 27  1  0  0  0  0
  3 28  1  0  0  0  0
  4  5  1  0  0  0  0
  4 29  1  0  0  0  0
  4 30  1  0  0  0  0
  5  6  1  0  0  0  0
  5 31  1  0  0  0  0
  5 32  1  0  0  0  0
  6  7  1  0  0  0  0
  6 21  1  0  0  0  0
  6 33  1  0  0  0  0
  7  8  1  0  0  0  0
  7 34  1  0  0  0  0
  8  9  2  0  0  0  0
  8 10  1  0  0  0  0
 10 11  1  0  0  0  0
 10 35  1  0  0  0  0
 10 36  1  0  0  0  0
 11 19  1  0  0  0  0
 11 12  1  0  0  0  0
 12 13  2  0  0  0  0
 12 37  1  0  0  0  0
 13 14  1  0  0  0  0
 13 17  1  0  0  0  0
 14 15  2  0  0  0  0
 14 16  1  0  0  0  0
 17 18  2  0  0  0  0
 17 38  1  0  0  0  0
 18 19  1  0  0  0  0
 18 39  1  0  0  0  0
 19 20  2  0  0  0  0
 21 22  1  0  0  0  0
 21 40  1  0  0  0  0
 22 41  1  0  0  0  0
 22 42  1  0  0  0  0
 22 43  1  0  0  0  0
M  CHG  1  14   1
M  CHG  1  16  -1
M  END
> <s_m_source_file>
AV-unprocessed.smi

> <i_m_source_file_index>
598

> <i_lp_mmshare_version>
43012

> <i_f3d_flags>
0

> <s_epik_input>
W0NIM11bQ0BASF0xW0NIMl1bQ0gyXVtDSDJdW0NASF0oW0NASF0xW0NIM10pW05IXUMoPU8pW0NIMl1uMltjSF1jKFtOK10oPU8pW08tXSlbY0hdW2NIXWMyPU8=

> <s_epik_cmdline>
J2VwaWtfcHl0aG9uJywgJy1waCcsICc3LjAnLCAnLXRuJywgJzgnLCAnLW1hJywgJzIwMCcsICctbWV0YWxfYmluZGluZycsICctaW1hZScsICc8aW5maWxlLm1hZT4nLCAnLW9tYWUnLCAnPG91dGZpbGUubWFlPic=

> <r_lp_tautomer_probability>
1

> <r_epik_Ionization_Penalty>
1.91291e-08

> <r_epik_Ionization_Penalty_Charging>
8.21931e-11

> <r_epik_Ionization_Penalty_Neutral>
1.90469e-08

> <r_epik_State_Penalty>
-0

> <r_epik_Charging_Adjusted_Penalty>
8.21931e-11

> <i_epik_Tot_Q>
0

> <i_epik_Tot_abs_Q>
2

> <r_epik_Metal_State_Penalty>
-0

> <b_epik_Metal_Only>
0

> <s_lp_Force_Field>
OPLS_2005

> <r_lp_Energy>
25.1906

> <b_lp_Chiralities_Consistent>
1

> <s_lp_Variant>
AV-unprocessed.smi:598-2

> <Gold.Version>
5.8.1

> <Gold.Id.Protein>
6NUR|6NUR_protein|mol2

> <Gold.PLP.Fitness>
39.7164

> <Gold.PLP.PLP>
-33.0938

> <Gold.PLP.part.hbond>
-5.0000

> <Gold.PLP.part.metal>
0.0000

> <Gold.PLP.part.buried>
-3.2789

> <Gold.PLP.part.nonpolar>
-25.8453

> <Gold.PLP.part.repulsive>
0.2841

> <Gold.PLP.ligand.clash>
0.0000

> <Gold.PLP.ligand.torsion>
0.7625

> <Gold.PLP.Chemscore.Hbond>
2.7099

> <Gold.PLP.Chemscore.CHOScore>
0.0000

> <Gold.PLP.Chemscore.Metal>
0.0000

> <Gold.Chemscore.Hbonds>
donor molecule, donor type, donor heavy atom, donor atom, acceptor molecule, acceptor atom, score
      L1  H     7    34       P1  8028  1.00
      P1  H  6933  6944       L1     9  0.58
      P1  H  6934  6946       L1     9  0.49
      P1  H  6934  6947       L1    16  0.64

> <Gold.PLP.Chemscore.Internal.Correction>
0.0178

> <Gold.Rescore>
     Score         DG    S(hbond)    S(metal)    S(lipo)     H(rot)  DE(clash)    DE(int)     intcor
     18.07     -18.82       2.16        0.00      86.07       1.54       0.01       0.74       ----

> <Gold.Chemscore.Fitness>
18.0668

> <Gold.Chemscore.DG>
-18.8244

> <Gold.Chemscore.ZeroCoef>
-5.4800

> <Gold.Chemscore.Hbond>
2.1602

> <Gold.Chemscore.Metal>
0.0000

> <Gold.Chemscore.Lipo>
86.0683

> <Gold.Chemscore.Internal_Hbond>
0.0000

> <Gold.Chemscore.DEClash>
0.0145

> <Gold.Chemscore.DEInternal>
0.7431

> <Gold.Chemscore.Rot>
1.5393

> <Gold.Chemscore.Internal.Correction>
   9.000000E+99

> <Gold.Chemscore.Hbonds>
donor molecule, donor type, donor heavy atom, donor atom, acceptor molecule, acceptor atom, score
      L1  H     7    34       P1  8028  0.48
      P1  H  6933  6944       L1     9  0.58
      P1  H  6934  6946       L1     9  0.47
      P1  H  6934  6947       L1    16  0.60

> <Gold.Chemscore.Hbond.Weighted>
-7.2151

> <Gold.Chemscore.Metal.Weighted>
-0.0000

> <Gold.Chemscore.Lipo.Weighted>
-10.0700

> <Gold.Chemscore.Internal_Hbond.Weighted>
0.0000

> <Gold.Chemscore.DEClash.Weighted>
0.0145

> <Gold.Chemscore.DEInternal.Weighted>
0.7431

> <Gold.Chemscore.Rot.Weighted>
3.9407

> <Gold.Chemscore.Internal.Correction.Weighted>
   9.000000E+99

> <Gold.Protein.RotatedTorsions>
[ 6907 6896 6895 6894 ] final   -6.26 input  -60.11 | X-H torsion
[ 7974 7965 7964 7962 ] final  -42.59 input  175.53 | X-H torsion
[ 8008 7997 7996 7995 ] final   -1.92 input   59.86 | X-H torsion
[ 10167 10162 10161 10158 ] final  -50.91 input  -65.29 | X-H torsion
[ 10718 10713 10712 10709 ] final   48.58 input   66.30 | X-H torsion
[ 10763 10752 10751 10750 ] final -111.51 input  -60.55 | X-H torsion
[ 11005 11000 10999 10996 ] final -165.47 input  -57.11 | X-H torsion

> <Gold.Protein.ActiveResidues>
 VAL166  LYS551  ARG553  GLY616  TRP617  ASP618  TYR619  PRO620  LYS621  CYS622 
 ASP623  PHE694  ASN695  SER759  ASP760  ASP761  ALA762  ILE779  LEU786  VAL792 
 PHE793  MET794  SER795  GLU796  ALA797  LYS798  CYS799  TRP800  GLU811  SER814 

> <Gold.Protein.RotatedAtoms>
  151.4684  135.1044  159.9744 H   0  0  0  0  0  0  0  0  0  0  0  0  # atno 6907 bound_to 6896
  152.4826  133.8288  159.7103 H   0  0  0  0  0  0  0  0  0  0  0  0  # atno 6908 bound_to 6896
  150.8909  133.7183  159.2932 H   0  0  0  0  0  0  0  0  0  0  0  0  # atno 6909 bound_to 6896
  146.0101  140.6974  142.9228 H   0  0  0  0  0  0  0  0  0  0  0  0  # atno 7974 bound_to 7965
  154.6414  140.2547  155.7318 H   0  0  0  0  0  0  0  0  0  0  0  0  # atno 8008 bound_to 7997
  156.2530  140.2886  156.0730 H   0  0  0  0  0  0  0  0  0  0  0  0  # atno 8009 bound_to 7997
  155.1590  140.0384  157.2828 H   0  0  0  0  0  0  0  0  0  0  0  0  # atno 8010 bound_to 7997
  140.6614  143.2639  151.4428 H   0  0  0  0  0  0  0  0  0  0  0  0  # atno 10167 bound_to 10162
  157.4701  130.8250  149.7978 H   0  0  0  0  0  0  0  0  0  0  0  0  # atno 10718 bound_to 10713
  154.8304  135.4524  154.1051 H   0  0  0  0  0  0  0  0  0  0  0  0  # atno 10763 bound_to 10752
  153.2329  135.6907  153.7876 H   0  0  0  0  0  0  0  0  0  0  0  0  # atno 10764 bound_to 10752
  153.7252  135.3335  155.3251 H   0  0  0  0  0  0  0  0  0  0  0  0  # atno 10765 bound_to 10752
  140.5754  134.5196  157.5169 H   0  0  0  0  0  0  0  0  0  0  0  0  # atno 11005 bound_to 11000
  144.6950  140.3384  143.7203 LP  0  0  0  0  0  0  0  0  0  0  0  0  # atno 17320 bound_to 7965
  145.7355  139.1748  143.2406 LP  0  0  0  0  0  0  0  0  0  0  0  0  # atno 17321 bound_to 7965
  139.5849  144.1626  152.2016 LP  0  0  0  0  0  0  0  0  0  0  0  0  # atno 17342 bound_to 10162
  140.0963  144.5578  150.7020 LP  0  0  0  0  0  0  0  0  0  0  0  0  # atno 17343 bound_to 10162
  156.0069  130.3851  150.2400 LP  0  0  0  0  0  0  0  0  0  0  0  0  # atno 17370 bound_to 10713
  157.0582  131.0082  151.3231 LP  0  0  0  0  0  0  0  0  0  0  0  0  # atno 17371 bound_to 10713
  139.9342  134.7906  156.0847 LP  0  0  0  0  0  0  0  0  0  0  0  0  # atno 17394 bound_to 11000
  141.1030  133.6670  156.2798 LP  0  0  0  0  0  0  0  0  0  0  0  0  # atno 17395 bound_to 11000

$$$$
