AV-unprocessed.smi:1389|AV-procd|sdf|5646|dock6
  -GOLD-   22720 5263D 1   1.00000     0.00000
 Structure written by MMmdl.
 51 53  0  0  0  0  0  0  0  0  1 V2000
  145.0423  142.2951  156.4997 C   0  0  0  0  0  0  0  0  0  0  0  0
  145.1138  142.5918  154.9798 C   0  0  2  0  0  0  0  0  0  0  0  0
  146.4649  142.0645  154.4182 C   0  0  0  0  0  0  0  0  0  0  0  0
  147.5948  142.3300  155.3059 N   0  0  0  0  0  0  0  0  0  0  0  0
  148.4118  141.4038  155.8276 C   0  0  0  0  0  0  0  0  0  0  0  0
  148.2915  140.1952  155.6281 O   0  0  0  0  0  0  0  0  0  0  0  0
  149.3804  141.9745  156.5630 N   0  0  0  0  0  0  0  0  0  0  0  0
  150.4696  141.3428  157.2282 C   0  0  0  0  0  0  0  0  0  0  0  0
  150.6620  139.9398  157.2063 C   0  0  0  0  0  0  0  0  0  0  0  0
  151.7554  139.3857  157.8953 C   0  0  0  0  0  0  0  0  0  0  0  0
  152.6149  140.2537  158.5908 C   0  0  0  0  0  0  0  0  0  0  0  0
  152.4352  141.5891  158.6365 N   0  0  0  0  0  0  0  0  0  0  0  0
  151.3863  142.1334  157.9722 C   0  0  0  0  0  0  0  0  0  0  0  0
  151.2055  143.5290  158.0654 N   0  0  0  0  0  0  0  0  0  0  0  0
  150.8554  143.9843  159.4077 C   0  0  0  0  0  0  0  0  0  0  0  0
  151.5255  145.3472  159.5886 C   0  0  0  0  0  0  0  0  0  0  0  0
  152.7466  145.2487  158.6831 C   0  0  0  0  0  0  0  0  0  0  0  0
  152.2234  144.4204  157.5107 C   0  0  0  0  0  0  0  0  0  0  0  0
  144.8716  144.0196  154.6650 N   0  0  0  0  0  0  0  0  0  0  0  0
  144.8562  144.2920  153.2231 C   0  0  0  0  0  0  0  0  0  0  0  0
  144.5819  145.7704  152.8974 C   0  0  0  0  0  0  0  0  0  0  0  0
  143.3503  146.1699  153.4823 O   0  0  0  0  0  0  0  0  0  0  0  0
  143.3496  145.9960  154.8923 C   0  0  0  0  0  0  0  0  0  0  0  0
  143.6137  144.5191  155.2326 C   0  0  0  0  0  0  0  0  0  0  0  0
  145.2453  141.2504  156.7306 H   0  0  0  0  0  0  0  0  0  0  0  0
  144.0533  142.4833  156.9144 H   0  0  0  0  0  0  0  0  0  0  0  0
  145.7623  142.8988  157.0534 H   0  0  0  0  0  0  0  0  0  0  0  0
  144.3242  142.0061  154.5068 H   0  0  0  0  0  0  0  0  0  0  0  0
  146.4499  140.9814  154.3117 H   0  0  0  0  0  0  0  0  0  0  0  0
  146.6357  142.4687  153.4189 H   0  0  0  0  0  0  0  0  0  0  0  0
  147.7777  143.2984  155.5246 H   0  0  0  0  0  0  0  0  0  0  0  0
  149.4062  142.9836  156.5571 H   0  0  0  0  0  0  0  0  0  0  0  0
  149.9849  139.2800  156.6859 H   0  0  0  0  0  0  0  0  0  0  0  0
  151.9280  138.3197  157.8938 H   0  0  0  0  0  0  0  0  0  0  0  0
  153.4645  139.8652  159.1326 H   0  0  0  0  0  0  0  0  0  0  0  0
  149.7744  144.0543  159.5308 H   0  0  0  0  0  0  0  0  0  0  0  0
  151.2318  143.2817  160.1535 H   0  0  0  0  0  0  0  0  0  0  0  0
  150.8639  146.1367  159.2298 H   0  0  0  0  0  0  0  0  0  0  0  0
  151.7779  145.5620  160.6273 H   0  0  0  0  0  0  0  0  0  0  0  0
  153.1341  146.2208  158.3776 H   0  0  0  0  0  0  0  0  0  0  0  0
  153.5450  144.7077  159.1930 H   0  0  0  0  0  0  0  0  0  0  0  0
  153.0305  143.9126  156.9825 H   0  0  0  0  0  0  0  0  0  0  0  0
  151.7329  145.0716  156.7864 H   0  0  0  0  0  0  0  0  0  0  0  0
  145.8154  144.0442  152.7729 H   0  0  0  0  0  0  0  0  0  0  0  0
  144.1048  143.6684  152.7365 H   0  0  0  0  0  0  0  0  0  0  0  0
  145.3911  146.4036  153.2650 H   0  0  0  0  0  0  0  0  0  0  0  0
  144.5269  145.9167  151.8185 H   0  0  0  0  0  0  0  0  0  0  0  0
  144.1051  146.6385  155.3476 H   0  0  0  0  0  0  0  0  0  0  0  0
  142.3837  146.3092  155.2885 H   0  0  0  0  0  0  0  0  0  0  0  0
  142.7802  143.9111  154.8779 H   0  0  0  0  0  0  0  0  0  0  0  0
  143.6232  144.4417  156.3182 H   0  0  0  0  0  0  0  0  0  0  0  0
  1  2  1  0  0  0  0
  1 25  1  0  0  0  0
  1 26  1  0  0  0  0
  1 27  1  0  0  0  0
  2  3  1  0  0  0  0
  2 19  1  0  0  0  0
  2 28  1  0  0  0  0
  3  4  1  0  0  0  0
  3 29  1  0  0  0  0
  3 30  1  0  0  0  0
  4  5  1  0  0  0  0
  4 31  1  0  0  0  0
  5  6  2  0  0  0  0
  5  7  1  0  0  0  0
  7  8  1  0  0  0  0
  7 32  1  0  0  0  0
  8 13  1  0  0  0  0
  8  9  2  0  0  0  0
  9 10  1  0  0  0  0
  9 33  1  0  0  0  0
 10 11  2  0  0  0  0
 10 34  1  0  0  0  0
 11 12  1  0  0  0  0
 11 35  1  0  0  0  0
 12 13  2  0  0  0  0
 13 14  1  0  0  0  0
 14 18  1  0  0  0  0
 14 15  1  0  0  0  0
 15 16  1  0  0  0  0
 15 36  1  0  0  0  0
 15 37  1  0  0  0  0
 16 17  1  0  0  0  0
 16 38  1  0  0  0  0
 16 39  1  0  0  0  0
 17 18  1  0  0  0  0
 17 40  1  0  0  0  0
 17 41  1  0  0  0  0
 18 42  1  0  0  0  0
 18 43  1  0  0  0  0
 19 24  1  0  0  0  0
 19 20  1  0  0  0  0
 20 21  1  0  0  0  0
 20 44  1  0  0  0  0
 20 45  1  0  0  0  0
 21 22  1  0  0  0  0
 21 46  1  0  0  0  0
 21 47  1  0  0  0  0
 22 23  1  0  0  0  0
 23 24  1  0  0  0  0
 23 48  1  0  0  0  0
 23 49  1  0  0  0  0
 24 50  1  0  0  0  0
 24 51  1  0  0  0  0
M  END
> <s_m_source_file>
AV-unprocessed.smi

> <i_m_source_file_index>
1389

> <i_lp_mmshare_version>
43012

> <i_f3d_flags>
0

> <s_epik_input>
W0NIMl0xW0NIMl1PW0NIMl1bQ0gyXU4xW0NASF0oW0NIM10pW0NIMl1bTkhdQyg9TylbTkhdYzJbY0hdW2NIXVtjSF1uYzJOM1tDSDJdW0NIMl1bQ0gyXVtDSDJdMw==

> <s_epik_cmdline>
J2VwaWtfcHl0aG9uJywgJy1waCcsICc3LjAnLCAnLXRuJywgJzgnLCAnLW1hJywgJzIwMCcsICctbWV0YWxfYmluZGluZycsICctaW1hZScsICc8aW5maWxlLm1hZT4nLCAnLW9tYWUnLCAnPG91dGZpbGUubWFlPic=

> <r_lp_tautomer_probability>
1

> <r_epik_Ionization_Penalty>
0.365229

> <r_epik_Ionization_Penalty_Charging>
0

> <r_epik_Ionization_Penalty_Neutral>
0.365229

> <r_epik_State_Penalty>
0.350519

> <r_epik_Charging_Adjusted_Penalty>
0.350519

> <i_epik_Tot_Q>
0

> <i_epik_Tot_abs_Q>
0

> <r_epik_Metal_State_Penalty>
0.33386

> <b_epik_Metal_Only>
0

> <s_lp_Force_Field>
OPLS_2005

> <r_lp_Energy>
57.3938

> <b_lp_Chiralities_Consistent>
1

> <s_lp_Variant>
AV-unprocessed.smi:1389-1

> <Gold.Version>
5.8.1

> <Gold.Id.Protein>
6NUR|6NUR_protein|mol2

> <Gold.PLP.Fitness>
50.1321

> <Gold.PLP.PLP>
-44.6942

> <Gold.PLP.part.hbond>
-3.6149

> <Gold.PLP.part.metal>
0.0000

> <Gold.PLP.part.buried>
-5.6792

> <Gold.PLP.part.nonpolar>
-36.9335

> <Gold.PLP.part.repulsive>
0.6954

> <Gold.PLP.ligand.clash>
0.0000

> <Gold.PLP.ligand.torsion>
0.3042

> <Gold.PLP.Chemscore.Hbond>
1.9600

> <Gold.PLP.Chemscore.CHOScore>
0.0000

> <Gold.PLP.Chemscore.Metal>
0.0000

> <Gold.Chemscore.Hbonds>
donor molecule, donor type, donor heavy atom, donor atom, acceptor molecule, acceptor atom, score
      L1  H     4    31       P1  8028  1.00
      L1  H     7    32       P1  8028  0.98

> <Gold.PLP.Chemscore.Internal.Correction>
0.1664

> <Gold.Rescore>
     Score         DG    S(hbond)    S(metal)    S(lipo)     H(rot)  DE(clash)    DE(int)     intcor
     14.62     -19.16       1.24        0.00     115.82       1.57       2.77       1.77       ----

> <Gold.Chemscore.Fitness>
14.6215

> <Gold.Chemscore.DG>
-19.1609

> <Gold.Chemscore.ZeroCoef>
-5.4800

> <Gold.Chemscore.Hbond>
1.2436

> <Gold.Chemscore.Metal>
0.0000

> <Gold.Chemscore.Lipo>
115.8229

> <Gold.Chemscore.Internal_Hbond>
0.0000

> <Gold.Chemscore.DEClash>
2.7678

> <Gold.Chemscore.DEInternal>
1.7716

> <Gold.Chemscore.Rot>
1.5718

> <Gold.Chemscore.Internal.Correction>
   9.000000E+99

> <Gold.Chemscore.Hbonds>
donor molecule, donor type, donor heavy atom, donor atom, acceptor molecule, acceptor atom, score
      L1  H     4    31       P1  8028  0.34
      L1  H     7    32       P1  8028  0.88

> <Gold.Chemscore.Hbond.Weighted>
-4.1535

> <Gold.Chemscore.Metal.Weighted>
-0.0000

> <Gold.Chemscore.Lipo.Weighted>
-13.5513

> <Gold.Chemscore.Internal_Hbond.Weighted>
0.0000

> <Gold.Chemscore.DEClash.Weighted>
2.7678

> <Gold.Chemscore.DEInternal.Weighted>
1.7716

> <Gold.Chemscore.Rot.Weighted>
4.0239

> <Gold.Chemscore.Internal.Correction.Weighted>
   9.000000E+99

> <Gold.Protein.RotatedTorsions>
[ 6907 6896 6895 6894 ] final   90.02 input  -60.11 | X-H torsion
[ 7974 7965 7964 7962 ] final  154.89 input  175.53 | X-H torsion
[ 8008 7997 7996 7995 ] final   92.54 input   59.86 | X-H torsion
[ 10167 10162 10161 10158 ] final  173.37 input  -65.29 | X-H torsion
[ 10718 10713 10712 10709 ] final -163.91 input   66.30 | X-H torsion
[ 10763 10752 10751 10750 ] final  155.28 input  -60.55 | X-H torsion
[ 11005 11000 10999 10996 ] final  128.41 input  -57.11 | X-H torsion

> <Gold.Protein.ActiveResidues>
 VAL166  LYS551  ARG553  GLY616  TRP617  ASP618  TYR619  PRO620  LYS621  CYS622 
 ASP623  PHE694  ASN695  SER759  ASP760  ASP761  ALA762  ILE779  LEU786  VAL792 
 PHE793  MET794  SER795  GLU796  ALA797  LYS798  CYS799  TRP800  GLU811  SER814 

> <Gold.Protein.RotatedAtoms>
  152.5441  134.1876  159.8660 H   0  0  0  0  0  0  0  0  0  0  0  0  # atno 6907 bound_to 6896
  151.1874  133.4681  159.2602 H   0  0  0  0  0  0  0  0  0  0  0  0  # atno 6908 bound_to 6896
  151.1117  135.0042  159.8552 H   0  0  0  0  0  0  0  0  0  0  0  0  # atno 6909 bound_to 6896
  144.8060  139.6994  143.6162 H   0  0  0  0  0  0  0  0  0  0  0  0  # atno 7974 bound_to 7965
  156.0365  140.3324  155.7197 H   0  0  0  0  0  0  0  0  0  0  0  0  # atno 8008 bound_to 7997
  155.5807  140.0636  157.2801 H   0  0  0  0  0  0  0  0  0  0  0  0  # atno 8009 bound_to 7997
  154.4375  140.1844  156.0962 H   0  0  0  0  0  0  0  0  0  0  0  0  # atno 8010 bound_to 7997
  139.5106  144.3269  152.0149 H   0  0  0  0  0  0  0  0  0  0  0  0  # atno 10167 bound_to 10162
  156.6314  130.8931  151.2978 H   0  0  0  0  0  0  0  0  0  0  0  0  # atno 10718 bound_to 10713
  154.1658  135.2807  155.3095 H   0  0  0  0  0  0  0  0  0  0  0  0  # atno 10763 bound_to 10752
  154.6112  135.5498  153.7479 H   0  0  0  0  0  0  0  0  0  0  0  0  # atno 10764 bound_to 10752
  153.0179  135.6416  154.1799 H   0  0  0  0  0  0  0  0  0  0  0  0  # atno 10765 bound_to 10752
  139.9559  134.9613  156.8997 H   0  0  0  0  0  0  0  0  0  0  0  0  # atno 11005 bound_to 11000
  146.2351  139.5889  142.9529 LP  0  0  0  0  0  0  0  0  0  0  0  0  # atno 17320 bound_to 7965
  145.5438  141.0419  143.2316 LP  0  0  0  0  0  0  0  0  0  0  0  0  # atno 17321 bound_to 7965
  140.2709  144.3965  150.6151 LP  0  0  0  0  0  0  0  0  0  0  0  0  # atno 17342 bound_to 10162
  140.6089  143.2168  151.6926 LP  0  0  0  0  0  0  0  0  0  0  0  0  # atno 17343 bound_to 10162
  157.7198  130.9544  150.1396 LP  0  0  0  0  0  0  0  0  0  0  0  0  # atno 17370 bound_to 10713
  156.2231  130.3675  149.8532 LP  0  0  0  0  0  0  0  0  0  0  0  0  # atno 17371 bound_to 10713
  140.5610  134.0534  155.7399 LP  0  0  0  0  0  0  0  0  0  0  0  0  # atno 17394 bound_to 11000
  141.1230  133.9429  157.2691 LP  0  0  0  0  0  0  0  0  0  0  0  0  # atno 17395 bound_to 11000

$$$$
