AV-unprocessed.smi:958|AV-procd|sdf|4268|dock5
  -GOLD-   22720 2173D 1   1.00000     0.00000
 Structure written by MMmdl.
 31 33  0  0  0  0  0  0  0  0  2 V2000
  153.7019  138.8201  158.7015 C   0  0  0  0  0  0  0  0  0  0  0  0
  153.2386  138.7500  157.4550 N   0  0  0  0  0  0  0  0  0  0  0  0
  152.5261  139.9186  157.2839 N   0  0  0  0  0  0  0  0  0  0  0  0
  152.6207  140.5762  158.4472 C   0  0  0  0  0  0  0  0  0  0  0  0
  151.9672  141.9061  158.7001 C   0  0  1  0  0  0  0  0  0  0  0  0
  152.9778  142.9591  159.1939 C   0  0  0  0  0  0  0  0  0  0  0  0
  152.2768  144.3042  159.4380 C   0  0  0  0  0  0  0  0  0  0  0  0
  151.5127  144.7612  158.1841 C   0  0  0  0  0  0  0  0  0  0  0  0
  150.5557  143.7219  157.7459 N   0  3  0  0  0  0  0  0  0  0  0  0
  151.2015  142.4206  157.4638 C   0  0  0  0  0  0  0  0  0  0  0  0
  153.3769  139.9395  159.3677 N   0  0  0  0  0  0  0  0  0  0  0  0
  153.6960  140.3006  160.7391 C   0  0  0  0  0  0  0  0  0  0  0  0
  155.1691  140.5176  161.0005 C   0  0  0  0  0  0  0  0  0  0  0  0
  154.4886  139.2641  161.5037 C   0  0  0  0  0  0  0  0  0  0  0  0
  154.2985  138.0333  159.1398 H   0  0  0  0  0  0  0  0  0  0  0  0
  151.2278  141.7752  159.4901 H   0  0  0  0  0  0  0  0  0  0  0  0
  153.4602  142.6197  160.1111 H   0  0  0  0  0  0  0  0  0  0  0  0
  153.7704  143.0911  158.4561 H   0  0  0  0  0  0  0  0  0  0  0  0
  151.5848  144.2095  160.2760 H   0  0  0  0  0  0  0  0  0  0  0  0
  153.0092  145.0594  159.7254 H   0  0  0  0  0  0  0  0  0  0  0  0
  150.9678  145.6832  158.3884 H   0  0  0  0  0  0  0  0  0  0  0  0
  152.2092  144.9751  157.3721 H   0  0  0  0  0  0  0  0  0  0  0  0
  149.8711  143.5881  158.4763 H   0  0  0  0  0  0  0  0  0  0  0  0
  151.8745  142.5373  156.6131 H   0  0  0  0  0  0  0  0  0  0  0  0
  150.4342  141.7047  157.1676 H   0  0  0  0  0  0  0  0  0  0  0  0
  152.9378  140.9097  161.2274 H   0  0  0  0  0  0  0  0  0  0  0  0
  155.8619  140.4108  160.1677 H   0  0  0  0  0  0  0  0  0  0  0  0
  155.4415  141.2700  161.7376 H   0  0  0  0  0  0  0  0  0  0  0  0
  154.3106  139.1877  162.5744 H   0  0  0  0  0  0  0  0  0  0  0  0
  154.7430  138.3288  161.0082 H   0  0  0  0  0  0  0  0  0  0  0  0
  150.0837  144.0412  156.9117 H   0  0  0  0  0  0  0  0  0  0  0  0
  1 11  1  0  0  0  0
  1  2  2  0  0  0  0
  1 15  1  0  0  0  0
  2  3  1  0  0  0  0
  3  4  2  0  0  0  0
  4  5  1  0  0  0  0
  4 11  1  0  0  0  0
  5 10  1  0  0  0  0
  5  6  1  0  0  0  0
  5 16  1  0  0  0  0
  6  7  1  0  0  0  0
  6 17  1  0  0  0  0
  6 18  1  0  0  0  0
  7  8  1  0  0  0  0
  7 19  1  0  0  0  0
  7 20  1  0  0  0  0
  8  9  1  0  0  0  0
  8 21  1  0  0  0  0
  8 22  1  0  0  0  0
  9 10  1  0  0  0  0
  9 23  1  0  0  0  0
  9 31  1  0  0  0  0
 10 24  1  0  0  0  0
 10 25  1  0  0  0  0
 11 12  1  0  0  0  0
 12 14  1  0  0  0  0
 12 13  1  0  0  0  0
 12 26  1  0  0  0  0
 13 14  1  0  0  0  0
 13 27  1  0  0  0  0
 13 28  1  0  0  0  0
 14 29  1  0  0  0  0
 14 30  1  0  0  0  0
M  CHG  1   9   1
M  END
> <s_m_source_file>
AV-unprocessed.smi

> <i_m_source_file_index>
958

> <i_lp_mmshare_version>
43012

> <i_f3d_flags>
0

> <s_epik_input>
W0NIMl0xW0NIMl1bQ0hdMW4yW2NIXW5uYzJbQ0BASF0zW0NIMl1bQ0gyXVtDSDJdW05IXVtDSDJdMw==

> <s_epik_cmdline>
J2VwaWtfcHl0aG9uJywgJy1waCcsICc3LjAnLCAnLXRuJywgJzgnLCAnLW1hJywgJzIwMCcsICctbWV0YWxfYmluZGluZycsICctaW1hZScsICc8aW5maWxlLm1hZT4nLCAnLW9tYWUnLCAnPG91dGZpbGUubWFlPic=

> <r_lp_tautomer_probability>
1

> <r_epik_Ionization_Penalty>
0.000442722

> <r_epik_Ionization_Penalty_Charging>
0.000426856

> <r_epik_Ionization_Penalty_Neutral>
1.58656e-05

> <r_epik_State_Penalty>
-0

> <r_epik_Charging_Adjusted_Penalty>
0.000426856

> <i_epik_Tot_Q>
1

> <i_epik_Tot_abs_Q>
1

> <r_epik_Metal_State_Penalty>
-0

> <b_epik_Metal_Only>
0

> <s_lp_Force_Field>
OPLS_2005

> <r_lp_Energy>
27.2192

> <b_lp_Chiralities_Consistent>
1

> <s_lp_Variant>
AV-unprocessed.smi:958-2

> <Gold.Version>
5.8.1

> <Gold.Id.Protein>
6NUR|6NUR_protein|mol2

> <Gold.PLP.Fitness>
35.7365

> <Gold.PLP.PLP>
-29.7961

> <Gold.PLP.part.hbond>
-3.0000

> <Gold.PLP.part.metal>
0.0000

> <Gold.PLP.part.buried>
-2.2277

> <Gold.PLP.part.nonpolar>
-23.9337

> <Gold.PLP.part.repulsive>
0.0141

> <Gold.PLP.ligand.clash>
0.0000

> <Gold.PLP.ligand.torsion>
0.0770

> <Gold.PLP.Chemscore.Hbond>
2.0000

> <Gold.PLP.Chemscore.CHOScore>
0.0000

> <Gold.PLP.Chemscore.Metal>
0.0000

> <Gold.Chemscore.Hbonds>
donor molecule, donor type, donor heavy atom, donor atom, acceptor molecule, acceptor atom, score
      L1  H     9    31       P1  8028  2.00

> <Gold.PLP.Chemscore.Internal.Correction>
0.0943

> <Gold.Rescore>
     Score         DG    S(hbond)    S(metal)    S(lipo)     H(rot)  DE(clash)    DE(int)     intcor
     14.81     -14.89       0.99        0.00      79.58       1.25       0.00       0.08       ----

> <Gold.Chemscore.Fitness>
14.8131

> <Gold.Chemscore.DG>
-14.8909

> <Gold.Chemscore.ZeroCoef>
-5.4800

> <Gold.Chemscore.Hbond>
0.9875

> <Gold.Chemscore.Metal>
0.0000

> <Gold.Chemscore.Lipo>
79.5763

> <Gold.Chemscore.Internal_Hbond>
0.0000

> <Gold.Chemscore.DEClash>
0.0000

> <Gold.Chemscore.DEInternal>
0.0778

> <Gold.Chemscore.Rot>
1.2491

> <Gold.Chemscore.Internal.Correction>
   9.000000E+99

> <Gold.Chemscore.Hbonds>
donor molecule, donor type, donor heavy atom, donor atom, acceptor molecule, acceptor atom, score
      L1  H     9    31       P1  8028  0.96

> <Gold.Chemscore.Hbond.Weighted>
-3.2981

> <Gold.Chemscore.Metal.Weighted>
-0.0000

> <Gold.Chemscore.Lipo.Weighted>
-9.3104

> <Gold.Chemscore.Internal_Hbond.Weighted>
0.0000

> <Gold.Chemscore.DEClash.Weighted>
0.0000

> <Gold.Chemscore.DEInternal.Weighted>
0.0778

> <Gold.Chemscore.Rot.Weighted>
3.1977

> <Gold.Chemscore.Internal.Correction.Weighted>
   9.000000E+99

> <Gold.Protein.RotatedTorsions>
[ 6907 6896 6895 6894 ] final   18.96 input  -60.11 | X-H torsion
[ 7974 7965 7964 7962 ] final  175.31 input  175.53 | X-H torsion
[ 8008 7997 7996 7995 ] final  145.67 input   59.86 | X-H torsion
[ 10167 10162 10161 10158 ] final   35.80 input  -65.29 | X-H torsion
[ 10718 10713 10712 10709 ] final  174.29 input   66.30 | X-H torsion
[ 10763 10752 10751 10750 ] final  174.87 input  -60.55 | X-H torsion
[ 11005 11000 10999 10996 ] final -176.18 input  -57.11 | X-H torsion

> <Gold.Protein.ActiveResidues>
 VAL166  LYS551  ARG553  GLY616  TRP617  ASP618  TYR619  PRO620  LYS621  CYS622 
 ASP623  PHE694  ASN695  SER759  ASP760  ASP761  ALA762  ILE779  LEU786  VAL792 
 PHE793  MET794  SER795  GLU796  ALA797  LYS798  CYS799  TRP800  GLU811  SER814 

> <Gold.Protein.RotatedAtoms>
  151.8735  135.0480  160.0481 H   0  0  0  0  0  0  0  0  0  0  0  0  # atno 6907 bound_to 6896
  152.2569  133.5259  159.5367 H   0  0  0  0  0  0  0  0  0  0  0  0  # atno 6908 bound_to 6896
  150.7103  134.0799  159.3936 H   0  0  0  0  0  0  0  0  0  0  0  0  # atno 6909 bound_to 6896
  144.7204  139.9927  143.6440 H   0  0  0  0  0  0  0  0  0  0  0  0  # atno 7974 bound_to 7965
  156.2877  140.2203  156.5253 H   0  0  0  0  0  0  0  0  0  0  0  0  # atno 8008 bound_to 7997
  154.7494  140.0481  157.0902 H   0  0  0  0  0  0  0  0  0  0  0  0  # atno 8009 bound_to 7997
  155.0129  140.3115  155.4826 H   0  0  0  0  0  0  0  0  0  0  0  0  # atno 8010 bound_to 7997
  140.4187  144.1490  150.6146 H   0  0  0  0  0  0  0  0  0  0  0  0  # atno 10167 bound_to 10162
  156.9518  131.0033  151.2947 H   0  0  0  0  0  0  0  0  0  0  0  0  # atno 10718 bound_to 10713
  154.4598  135.2767  155.1721 H   0  0  0  0  0  0  0  0  0  0  0  0  # atno 10763 bound_to 10752
  154.3513  135.6149  153.5648 H   0  0  0  0  0  0  0  0  0  0  0  0  # atno 10764 bound_to 10752
  152.9854  135.5812  154.4958 H   0  0  0  0  0  0  0  0  0  0  0  0  # atno 10765 bound_to 10752
  140.4550  134.6308  157.4818 H   0  0  0  0  0  0  0  0  0  0  0  0  # atno 11005 bound_to 11000
  146.0398  139.3411  143.0704 LP  0  0  0  0  0  0  0  0  0  0  0  0  # atno 17320 bound_to 7965
  145.8348  140.9611  143.0830 LP  0  0  0  0  0  0  0  0  0  0  0  0  # atno 17321 bound_to 7965
  140.4557  143.2468  151.9288 LP  0  0  0  0  0  0  0  0  0  0  0  0  # atno 17342 bound_to 10162
  139.4782  144.5518  151.8374 LP  0  0  0  0  0  0  0  0  0  0  0  0  # atno 17343 bound_to 10162
  157.5717  130.8315  149.8400 LP  0  0  0  0  0  0  0  0  0  0  0  0  # atno 17370 bound_to 10713
  156.0359  130.3751  150.1561 LP  0  0  0  0  0  0  0  0  0  0  0  0  # atno 17371 bound_to 10713
  139.9982  134.6878  155.9574 LP  0  0  0  0  0  0  0  0  0  0  0  0  # atno 17394 bound_to 11000
  141.1647  133.6537  156.4439 LP  0  0  0  0  0  0  0  0  0  0  0  0  # atno 17395 bound_to 11000

$$$$
