AV-unprocessed.smi:2685|AV-procd|sdf|10383|dock7
  -GOLD-   2272014413D 1   1.00000     0.00000
 Structure written by MMmdl.
 21 21  0  0  0  0  0  0  0  0  3 V2000
  151.2328  144.2812  158.1194 C   0  0  0  0  0  0  0  0  0  0  0  0
  151.7151  142.8563  157.9161 C   0  0  0  0  0  0  0  0  0  0  0  0
  151.3643  142.2113  156.8625 N   0  0  0  0  0  0  0  0  0  0  0  0
  151.7745  140.8840  156.6324 C   0  0  0  0  0  0  0  0  0  0  0  0
  151.4137  140.3174  155.6030 O   0  0  0  0  0  0  0  0  0  0  0  0
  152.5644  140.2688  157.5687 N   0  5  0  0  0  0  0  0  0  0  0  0
  152.9494  140.9206  158.6944 C   0  0  0  0  0  0  0  0  0  0  0  0
  153.8174  140.1346  159.6661 C   0  0  0  0  0  0  0  0  0  0  0  0
  152.5874  142.2352  158.9501 C   0  0  0  0  0  0  0  0  0  0  0  0
  152.9935  143.0264  160.1964 C   0  0  0  0  0  0  0  0  0  0  0  0
  151.8657  143.2770  161.2056 C   0  0  0  0  0  0  0  0  0  0  0  0
  151.8982  142.5979  162.2552 O   0  0  0  0  0  0  0  0  0  0  0  0
  150.9886  144.1236  160.9229 O   0  5  0  0  0  0  0  0  0  0  0  0
  150.7419  144.3868  159.0869 H   0  0  0  0  0  0  0  0  0  0  0  0
  150.5141  144.5608  157.3481 H   0  0  0  0  0  0  0  0  0  0  0  0
  152.0700  144.9772  158.0680 H   0  0  0  0  0  0  0  0  0  0  0  0
  154.8245  140.5489  159.7072 H   0  0  0  0  0  0  0  0  0  0  0  0
  153.9040  139.0861  159.3781 H   0  0  0  0  0  0  0  0  0  0  0  0
  153.3984  140.1617  160.6722 H   0  0  0  0  0  0  0  0  0  0  0  0
  153.7906  142.4942  160.7146 H   0  0  0  0  0  0  0  0  0  0  0  0
  153.4358  143.9814  159.9137 H   0  0  0  0  0  0  0  0  0  0  0  0
  1  2  1  0  0  0  0
  1 14  1  0  0  0  0
  1 15  1  0  0  0  0
  1 16  1  0  0  0  0
  2  9  1  0  0  0  0
  2  3  2  0  0  0  0
  3  4  1  0  0  0  0
  4  5  2  0  0  0  0
  4  6  1  0  0  0  0
  6  7  1  0  0  0  0
  7  8  1  0  0  0  0
  7  9  2  0  0  0  0
  8 17  1  0  0  0  0
  8 18  1  0  0  0  0
  8 19  1  0  0  0  0
  9 10  1  0  0  0  0
 10 11  1  0  0  0  0
 10 20  1  0  0  0  0
 10 21  1  0  0  0  0
 11 12  2  0  0  0  0
 11 13  1  0  0  0  0
M  CHG  1   6  -1
M  CHG  1  13  -1
M  END
> <s_m_source_file>
AV-unprocessed.smi

> <i_m_source_file_index>
2685

> <i_lp_mmshare_version>
43012

> <i_f3d_flags>
0

> <s_epik_input>
W0NIM11jMW5jKD1PKVtuSF1jKFtDSDNdKWMxW0NIMl1DKD1PKVtPSF0=

> <s_epik_cmdline>
J2VwaWtfcHl0aG9uJywgJy1waCcsICc3LjAnLCAnLXRuJywgJzgnLCAnLW1hJywgJzIwMCcsICctbWV0YWxfYmluZGluZycsICctaW1hZScsICc8aW5maWxlLm1hZT4nLCAnLW9tYWUnLCAnPG91dGZpbGUubWFlPic=

> <r_lp_tautomer_probability>
1

> <r_epik_Ionization_Penalty>
5.93788

> <r_epik_Ionization_Penalty_Charging>
0.439901

> <r_epik_Ionization_Penalty_Neutral>
5.49798

> <r_epik_State_Penalty>
5.49792

> <r_epik_Charging_Adjusted_Penalty>
5.93782

> <i_epik_Tot_Q>
-2

> <i_epik_Tot_abs_Q>
2

> <r_epik_Metal_State_Penalty>
1.50795

> <b_epik_Metal_Only>
1

> <s_lp_Force_Field>
OPLS_2005

> <r_lp_Energy>
12.6786

> <b_lp_Chiralities_Consistent>
1

> <s_lp_Variant>
AV-unprocessed.smi:2685-2

> <Gold.Version>
5.8.1

> <Gold.Id.Protein>
6NUR|6NUR_protein|mol2

> <Gold.PLP.Fitness>
32.9445

> <Gold.PLP.PLP>
-20.2274

> <Gold.PLP.part.hbond>
-3.1822

> <Gold.PLP.part.metal>
0.0000

> <Gold.PLP.part.buried>
-1.8009

> <Gold.PLP.part.nonpolar>
-16.7836

> <Gold.PLP.part.repulsive>
1.8415

> <Gold.PLP.ligand.clash>
0.0000

> <Gold.PLP.ligand.torsion>
0.2907

> <Gold.PLP.Chemscore.Hbond>
4.4324

> <Gold.PLP.Chemscore.CHOScore>
0.0000

> <Gold.PLP.Chemscore.Metal>
0.0000

> <Gold.Chemscore.Hbonds>
donor molecule, donor type, donor heavy atom, donor atom, acceptor molecule, acceptor atom, score
      P1  H  6933  6945       L1    12  2.00
      P1  H  7989  7998       L1     5  0.58
      P1  H  7997  8009       L1     6  1.85

> <Gold.PLP.Chemscore.Internal.Correction>
0.0014

> <Gold.Rescore>
     Score         DG    S(hbond)    S(metal)    S(lipo)     H(rot)  DE(clash)    DE(int)     intcor
     12.21     -14.27       1.71        0.00      59.08       1.50       0.38       1.67       ----

> <Gold.Chemscore.Fitness>
12.2150

> <Gold.Chemscore.DG>
-14.2673

> <Gold.Chemscore.ZeroCoef>
-5.4800

> <Gold.Chemscore.Hbond>
1.7088

> <Gold.Chemscore.Metal>
0.0000

> <Gold.Chemscore.Lipo>
59.0825

> <Gold.Chemscore.Internal_Hbond>
0.0000

> <Gold.Chemscore.DEClash>
0.3819

> <Gold.Chemscore.DEInternal>
1.6704

> <Gold.Chemscore.Rot>
1.4972

> <Gold.Chemscore.Internal.Correction>
   9.000000E+99

> <Gold.Chemscore.Hbonds>
donor molecule, donor type, donor heavy atom, donor atom, acceptor molecule, acceptor atom, score
      P1  H  6933  6945       L1    12  0.27
      P1  H  7989  7998       L1     5  0.55
      P1  H  7997  8009       L1     6  0.09

> <Gold.Chemscore.Hbond.Weighted>
-5.7075

> <Gold.Chemscore.Metal.Weighted>
-0.0000

> <Gold.Chemscore.Lipo.Weighted>
-6.9127

> <Gold.Chemscore.Internal_Hbond.Weighted>
0.0000

> <Gold.Chemscore.DEClash.Weighted>
0.3819

> <Gold.Chemscore.DEInternal.Weighted>
1.6704

> <Gold.Chemscore.Rot.Weighted>
3.8329

> <Gold.Chemscore.Internal.Correction.Weighted>
   9.000000E+99

> <Gold.Protein.RotatedTorsions>
[ 6907 6896 6895 6894 ] final   16.01 input  -60.11 | X-H torsion
[ 7974 7965 7964 7962 ] final  -63.89 input  175.53 | X-H torsion
[ 8008 7997 7996 7995 ] final  178.49 input   59.86 | X-H torsion
[ 10167 10162 10161 10158 ] final  170.34 input  -65.29 | X-H torsion
[ 10718 10713 10712 10709 ] final -136.77 input   66.30 | X-H torsion
[ 10763 10752 10751 10750 ] final  -74.63 input  -60.55 | X-H torsion
[ 11005 11000 10999 10996 ] final -152.41 input  -57.11 | X-H torsion

> <Gold.Protein.ActiveResidues>
 VAL166  LYS551  ARG553  GLY616  TRP617  ASP618  TYR619  PRO620  LYS621  CYS622 
 ASP623  PHE694  ASN695  SER759  ASP760  ASP761  ALA762  ILE779  LEU786  VAL792 
 PHE793  MET794  SER795  GLU796  ALA797  LYS798  CYS799  TRP800  GLU811  SER814 

> <Gold.Protein.RotatedAtoms>
  151.8272  135.0633  160.0432 H   0  0  0  0  0  0  0  0  0  0  0  0  # atno 6907 bound_to 6896
  152.2907  133.5554  159.5564 H   0  0  0  0  0  0  0  0  0  0  0  0  # atno 6908 bound_to 6896
  150.7229  134.0348  159.3788 H   0  0  0  0  0  0  0  0  0  0  0  0  # atno 6909 bound_to 6896
  145.7735  140.8800  143.0368 H   0  0  0  0  0  0  0  0  0  0  0  0  # atno 7974 bound_to 7965
  156.0540  140.1332  157.0017 H   0  0  0  0  0  0  0  0  0  0  0  0  # atno 8008 bound_to 7997
  154.4449  140.1005  156.6489 H   0  0  0  0  0  0  0  0  0  0  0  0  # atno 8009 bound_to 7997
  155.5479  140.3462  155.4464 H   0  0  0  0  0  0  0  0  0  0  0  0  # atno 8010 bound_to 7997
  139.5016  144.3607  151.9827 H   0  0  0  0  0  0  0  0  0  0  0  0  # atno 10167 bound_to 10162
  156.2807  130.7319  151.1315 H   0  0  0  0  0  0  0  0  0  0  0  0  # atno 10718 bound_to 10713
  154.4757  135.5858  153.6353 H   0  0  0  0  0  0  0  0  0  0  0  0  # atno 10763 bound_to 10752
  152.9840  135.6077  154.3310 H   0  0  0  0  0  0  0  0  0  0  0  0  # atno 10764 bound_to 10752
  154.3196  135.2844  155.2505 H   0  0  0  0  0  0  0  0  0  0  0  0  # atno 10765 bound_to 10752
  140.7191  134.3747  157.5186 H   0  0  0  0  0  0  0  0  0  0  0  0  # atno 11005 bound_to 11000
  144.6808  139.9888  143.7484 LP  0  0  0  0  0  0  0  0  0  0  0  0  # atno 17320 bound_to 7965
  146.0146  139.3199  143.0849 LP  0  0  0  0  0  0  0  0  0  0  0  0  # atno 17321 bound_to 7965
  140.3043  144.3610  150.6051 LP  0  0  0  0  0  0  0  0  0  0  0  0  # atno 17342 bound_to 10162
  140.5848  143.2170  151.7361 LP  0  0  0  0  0  0  0  0  0  0  0  0  # atno 17343 bound_to 10162
  157.7313  131.0609  150.5683 LP  0  0  0  0  0  0  0  0  0  0  0  0  # atno 17370 bound_to 10713
  156.5788  130.4299  149.5986 LP  0  0  0  0  0  0  0  0  0  0  0  0  # atno 17371 bound_to 10713
  139.8852  134.8943  156.2655 LP  0  0  0  0  0  0  0  0  0  0  0  0  # atno 17394 bound_to 11000
  141.0019  133.7147  156.0973 LP  0  0  0  0  0  0  0  0  0  0  0  0  # atno 17395 bound_to 11000

$$$$
