#       Name:                AV-unprocessed.smi:2259
#       Creating user name   scv26
#       Creation time:       Fri Mar 27 12:33:42 2020


#       File generated by GOLD software.
#

@<TRIPOS>MOLECULE
AV-unprocessed.smi:2259
    47    48     1
SMALL
NO_CHARGES


@<TRIPOS>ATOM
      1 ****        -2.6512   4.1985   0.1072 C.3            1 S1                 0.0000
      2 ****        -2.3929   2.8283  -0.4938 C.2            1 S1                 0.0000
      3 ****        -2.7986   1.7411   0.2853 N.2            1 S1                 0.0000
      4 ****        -2.6108   0.5357  -0.1421 C.2            1 S1                 0.0000
      5 ****        -2.0008   0.2774  -1.3819 N.am           1 S1                 0.0000
      6 ****        -1.8434  -1.1395  -1.7592 C.3            1 S1                 0.0000
      7 ****        -0.3865  -1.6457  -1.6394 C.3            1 S1                 0.0000
      8 ****        -0.3562  -2.9492  -2.1842 O.3            1 S1                 0.0000
      9 ****         0.1318  -1.7150  -0.1913 C.3            1 S1                 0.0000
     10 ****         1.5513  -1.7857  -0.2156 O.3            1 S1                 0.0000
     11 ****         2.2236  -1.8610   0.9856 C.ar           1 S1                 0.0000
     12 ****         3.6295  -1.9511   0.9264 C.ar           1 S1                 0.0000
     13 ****         4.3986  -2.0334   2.1032 C.ar           1 S1                 0.0000
     14 ****         3.7647  -2.0256   3.3613 C.ar           1 S1                 0.0000
     15 ****         4.5555  -2.1117   4.5778 C.1            1 S1                 0.0000
     16 ****         5.1848  -2.1803   5.5463 N.1            1 S1                 0.0000
     17 ****         2.3607  -1.9338   3.4343 C.ar           1 S1                 0.0000
     18 ****         1.5930  -1.8523   2.2558 C.ar           1 S1                 0.0000
     19 ****        -1.5951   1.2811  -2.2128 C.2            1 S1                 0.0000
     20 ****        -1.0855   1.0462  -3.3101 O.2            1 S1                 0.0000
     21 ****        -1.8067   2.6477  -1.7085 C.2            1 S1                 0.0000
     22 ****        -1.3443   3.7933  -2.6004 C.3            1 S1                 0.0000
     23 ****        -3.2972   4.7865  -0.5452 H              1 S1                 0.0000
     24 ****        -1.7133   4.7366   0.2477 H              1 S1                 0.0000
     25 ****        -3.1405   4.1204   1.0790 H              1 S1                 0.0000
     26 ****        -2.9065  -0.3447   0.4311 H              1 S1                 0.0000
     27 ****        -2.5020  -1.7869  -1.1764 H              1 S1                 0.0000
     28 ****        -2.1853  -1.2597  -2.7892 H              1 S1                 0.0000
     29 ****         0.2725  -1.0139  -2.2357 H              1 S1                 0.0000
     30 ****        -0.9187  -3.5056  -1.6677 H              1 S1                 0.0000
     31 ****        -0.1460  -0.8082   0.3459 H              1 S1                 0.0000
     32 ****        -0.3070  -2.5637   0.3367 H              1 S1                 0.0000
     33 ****         4.1249  -1.9583  -0.0336 H              1 S1                 0.0000
     34 ****         5.4748  -2.1028   2.0327 H              1 S1                 0.0000
     35 ****         1.8636  -1.9256   4.3938 H              1 S1                 0.0000
     36 ****         0.5205  -1.7827   2.3542 H              1 S1                 0.0000
     37 ****        -0.2760   3.7058  -2.8008 H              1 S1                 0.0000
     38 ****        -1.5150   4.7751  -2.1619 H              1 S1                 0.0000
     39 ****        -1.8715   3.7633  -3.5545 H              1 S1                 0.0000
     40 ****        -3.2336   1.8956   1.1724 LP             1 S1                 0.0000
     41 ****         0.5793  -3.3020  -2.1615 LP             1 S1                 0.0000
     42 ****        -0.6810  -2.9266  -3.1297 LP             1 S1                 0.0000
     43 ****         1.8802  -0.9680  -0.6880 LP             1 S1                 0.0000
     44 ****         1.7981  -2.5979  -0.7442 LP             1 S1                 0.0000
     45 ****         5.7287  -2.2396   6.3834 LP             1 S1                 0.0000
     46 ****        -0.9604   0.1008  -3.6112 LP             1 S1                 0.0000
     47 ****        -0.7971   1.8009  -3.8993 LP             1 S1                 0.0000
@<TRIPOS>BOND
    1    1    2 1     
    2    1   23 1     
    3    1   24 1     
    4    1   25 1     
    5    2   21 2     
    6    2    3 1     
    7    3    4 2     
    8    4    5 1     
    9    4   26 1     
   10    5    6 1     
   11    5   19 am    
   12    6    7 1     
   13    6   27 1     
   14    6   28 1     
   15    7    8 1     
   16    7    9 1     
   17    7   29 1     
   18    8   30 1     
   19    9   10 1     
   20    9   31 1     
   21    9   32 1     
   22   10   11 1     
   23   11   18 ar    
   24   11   12 ar    
   25   12   13 ar    
   26   12   33 1     
   27   13   14 ar    
   28   13   34 1     
   29   14   15 1     
   30   14   17 ar    
   31   15   16 3     
   32   17   18 ar    
   33   17   35 1     
   34   18   36 1     
   35   19   20 2     
   36   19   21 1     
   37   21   22 1     
   38   22   37 1     
   39   22   38 1     
   40   22   39 1     
   41    3   40 1     
   42    8   41 1     
   43    8   42 1     
   44   10   43 1     
   45   10   44 1     
   46   16   45 1     
   47   20   46 1     
   48   20   47 1     
@<TRIPOS>SUBSTRUCTURE
      1 S1             1
@<TRIPOS>SET
LONE_PAIRS      STATIC     ATOMS    <user>   **** ""
8 40 41 42 43 44 45 46 47
DONOR_HYDROGENS      STATIC     ATOMS    <user>   **** ""
1 30
ATOM$BLUE        STATIC     ATOMS    COLORGROUP SYSTEM
8 40 41 42 43 44 45 46 47
ATOM$RED        STATIC     ATOMS    COLORGROUP SYSTEM
1 30
