#       Name:                AV-unprocessed.smi:1709
#       Creating user name   scv26
#       Creation time:       Fri Mar 27 08:10:16 2020


#       File generated by GOLD software.
#

@<TRIPOS>MOLECULE
AV-unprocessed.smi:1709
    46    48     1
SMALL
NO_CHARGES


@<TRIPOS>ATOM
      1 ****        -2.0943  -4.4569   0.7733 C.3            1 S1                 0.0000
      2 ****        -0.7039  -4.7679   1.3047 C.ar           1 S1                 0.0000
      3 ****        -0.4851  -5.9851   1.9841 C.ar           1 S1                 0.0000
      4 ****         0.7988  -6.2754   2.4751 C.ar           1 S1                 0.0000
      5 ****         1.8159  -5.3300   2.2635 C.ar           1 S1                 0.0000
      6 ****         1.6151  -4.1644   1.6151 N.ar           1 S1                 0.0000
      7 ****         0.3804  -3.8643   1.1357 C.ar           1 S1                 0.0000
      8 ****         0.0776  -2.6553   0.4348 N.am           1 S1                 0.0000
      9 ****         0.8283  -1.5740   0.1334 C.2            1 S1                 0.0000
     10 ****         2.0083  -1.5078   0.4734 O.2            1 S1                 0.0000
     11 ****         0.2168  -0.5940  -0.5514 N.am           1 S1                 0.0000
     12 ****         0.8339   0.6538  -0.9883 C.3            1 S1                 0.0000
     13 ****         0.2055   1.2149  -2.2580 C.3            1 S1                 0.0000
     14 ****         0.6397   2.6808  -2.2136 C.3            1 S1                 0.0000
     15 ****         0.6883   3.0498  -0.7800 N.4            1 S1                 1.0000
     16 ****         1.7741   3.9959  -0.4245 C.3            1 S1                 0.0000
     17 ****         1.7301   4.3388   1.0762 C.3            1 S1                 0.0000
     18 ****         1.6311   3.0922   1.9800 C.3            1 S1                 0.0000
     19 ****         1.6713   1.7822   1.1780 C.3            1 S1                 0.0000
     20 ****         0.6431   1.7954   0.0241 C.3            1 S1                 0.0000
     21 ****        -2.7880  -5.2740   0.9728 H              1 S1                 0.0000
     22 ****        -2.0657  -4.2990  -0.3052 H              1 S1                 0.0000
     23 ****        -2.4908  -3.5579   1.2457 H              1 S1                 0.0000
     24 ****        -1.2901  -6.6905   2.1291 H              1 S1                 0.0000
     25 ****         0.9982  -7.1982   2.9995 H              1 S1                 0.0000
     26 ****         2.8175  -5.5123   2.6240 H              1 S1                 0.0000
     27 ****        -0.8721  -2.6050   0.0959 H              1 S1                 0.0000
     28 ****        -0.7557  -0.7315  -0.7900 H              1 S1                 0.0000
     29 ****         1.8983   0.5033  -1.1815 H              1 S1                 0.0000
     30 ****         0.5384   0.7017  -3.1608 H              1 S1                 0.0000
     31 ****        -0.8826   1.1458  -2.2089 H              1 S1                 0.0000
     32 ****         1.6328   2.7740  -2.6563 H              1 S1                 0.0000
     33 ****        -0.0344   3.3326  -2.7697 H              1 S1                 0.0000
     34 ****         2.7408   3.5592  -0.6810 H              1 S1                 0.0000
     35 ****         1.6737   4.9052  -1.0183 H              1 S1                 0.0000
     36 ****         2.6146   4.9194   1.3396 H              1 S1                 0.0000
     37 ****         0.8767   4.9890   1.2729 H              1 S1                 0.0000
     38 ****         2.4331   3.0990   2.7189 H              1 S1                 0.0000
     39 ****         0.6997   3.1341   2.5460 H              1 S1                 0.0000
     40 ****         2.6773   1.6338   0.7828 H              1 S1                 0.0000
     41 ****         1.4810   0.9376   1.8407 H              1 S1                 0.0000
     42 ****        -0.3632   1.7437   0.4434 H              1 S1                 0.0000
     43 ****        -0.1780   3.5278  -0.5775 H              1 S1                 0.0000
     44 ****         2.3723  -3.5237   1.4881 LP             1 S1                 0.0000
     45 ****         2.4255  -2.2618   0.9808 LP             1 S1                 0.0000
     46 ****         2.5506  -0.7001   0.2424 LP             1 S1                 0.0000
@<TRIPOS>BOND
    1    1    2 1     
    2    1   21 1     
    3    1   22 1     
    4    1   23 1     
    5    2    7 ar    
    6    2    3 ar    
    7    3    4 ar    
    8    3   24 1     
    9    4    5 ar    
   10    4   25 1     
   11    5    6 ar    
   12    5   26 1     
   13    6    7 ar    
   14    7    8 1     
   15    8    9 am    
   16    8   27 1     
   17    9   10 2     
   18    9   11 am    
   19   11   12 1     
   20   11   28 1     
   21   12   20 1     
   22   12   13 1     
   23   12   29 1     
   24   13   14 1     
   25   13   30 1     
   26   13   31 1     
   27   14   15 1     
   28   14   32 1     
   29   14   33 1     
   30   15   20 1     
   31   15   16 1     
   32   15   43 1     
   33   16   17 1     
   34   16   34 1     
   35   16   35 1     
   36   17   18 1     
   37   17   36 1     
   38   17   37 1     
   39   18   19 1     
   40   18   38 1     
   41   18   39 1     
   42   19   20 1     
   43   19   40 1     
   44   19   41 1     
   45   20   42 1     
   46    6   44 1     
   47   10   45 1     
   48   10   46 1     
@<TRIPOS>SUBSTRUCTURE
      1 S1             1
@<TRIPOS>SET
LONE_PAIRS      STATIC     ATOMS    <user>   **** ""
3 44 45 46
DONOR_HYDROGENS      STATIC     ATOMS    <user>   **** ""
3 27 28 43
ATOM$BLUE        STATIC     ATOMS    COLORGROUP SYSTEM
3 44 45 46
ATOM$RED        STATIC     ATOMS    COLORGROUP SYSTEM
3 27 28 43
