#       Name:                AV-unprocessed.smi:207
#       Creating user name   scv26
#       Creation time:       Thu Mar 26 19:51:32 2020


#       File generated by GOLD software.
#

@<TRIPOS>MOLECULE
AV-unprocessed.smi:207
    66    69     1
SMALL
NO_CHARGES


@<TRIPOS>ATOM
      1 ****        -3.8459  -0.1784  -2.9831 C.3            1 S1                 0.0000
      2 ****        -3.1822   0.2164  -1.6478 C.3            1 S1                 0.0000
      3 ****        -3.5700  -0.8725  -0.6114 C.3            1 S1                 0.0000
      4 ****        -1.6527   0.1263  -1.8973 C.3            1 S1                 0.0000
      5 ****        -0.8856   0.5541  -0.7264 N.3            1 S1                 0.0000
      6 ****         0.4421   0.2744  -0.6983 C.ar           1 S1                 0.0000
      7 ****         1.1076   0.0117  -1.8552 N.ar           1 S1                 0.0000
      8 ****         2.4177  -0.2495  -1.8366 C.ar           1 S1                 0.0000
      9 ****         3.2423  -0.3035  -0.7893 N.ar           1 S1                 0.0000
     10 ****         2.5806  -0.0544   0.3764 C.ar           1 S1                 0.0000
     11 ****         1.1946   0.2440   0.5099 C.ar           1 S1                 0.0000
     12 ****         0.8802   0.4363   1.8498 N.2            1 S1                 0.0000
     13 ****         2.0159   0.2724   2.4707 C.2            1 S1                 0.0000
     14 ****         3.0887  -0.0367   1.6642 N.pl3          1 S1                 0.0000
     15 ****         4.4590  -0.2726   2.0961 C.3            1 S1                 0.0000
     16 ****         4.8606  -1.7619   2.1596 C.3            1 S1                 0.0000
     17 ****         3.8346  -2.5747   2.9694 C.3            1 S1                 0.0000
     18 ****         3.7479  -2.1150   4.3032 O.3            1 S1                 0.0000
     19 ****         5.2674  -2.4066   0.8261 C.3            1 S1                 0.0000
     20 ****         6.4941  -2.9205   1.3851 O.3            1 S1                 0.0000
     21 ****         6.3272  -2.0418   2.5174 C.3            1 S1                 0.0000
     22 ****        -1.2325   1.8979  -0.2784 C.3            1 S1                 0.0000
     23 ****        -2.7474   2.0058  -0.0528 C.3            1 S1                 0.0000
     24 ****        -3.5230   1.6084  -1.2333 N.3            1 S1                 0.0000
     25 ****        -4.9534   1.8977  -1.0445 C.3            1 S1                 0.0000
     26 ****        -5.6765   2.4450  -2.2876 C.3            1 S1                 0.0000
     27 ****        -7.0039   2.7809  -1.9470 O.3            1 S1                 0.0000
     28 ****        -3.4484  -1.1217  -3.3603 H              1 S1                 0.0000
     29 ****        -3.6745   0.5745  -3.7533 H              1 S1                 0.0000
     30 ****        -4.9209  -0.3210  -2.8752 H              1 S1                 0.0000
     31 ****        -3.2525  -1.8591  -0.9506 H              1 S1                 0.0000
     32 ****        -4.6459  -0.9330  -0.4529 H              1 S1                 0.0000
     33 ****        -3.1035  -0.7176   0.3607 H              1 S1                 0.0000
     34 ****        -1.3779  -0.8968  -2.1591 H              1 S1                 0.0000
     35 ****        -1.3770   0.7546  -2.7461 H              1 S1                 0.0000
     36 ****         2.8694  -0.4432  -2.7984 H              1 S1                 0.0000
     37 ****         2.1001   0.3659   3.5436 H              1 S1                 0.0000
     38 ****         5.1184   0.2731   1.4201 H              1 S1                 0.0000
     39 ****         4.5928   0.1974   3.0713 H              1 S1                 0.0000
     40 ****         2.8445  -2.5466   2.5138 H              1 S1                 0.0000
     41 ****         4.1197  -3.6270   3.0002 H              1 S1                 0.0000
     42 ****         3.4620  -1.2146   4.2936 H              1 S1                 0.0000
     43 ****         4.5936  -3.1948   0.4879 H              1 S1                 0.0000
     44 ****         5.4663  -1.6940   0.0244 H              1 S1                 0.0000
     45 ****         6.9750  -1.1661   2.4491 H              1 S1                 0.0000
     46 ****         6.4652  -2.5540   3.4705 H              1 S1                 0.0000
     47 ****        -0.7113   2.1597   0.6417 H              1 S1                 0.0000
     48 ****        -0.9159   2.6158  -1.0365 H              1 S1                 0.0000
     49 ****        -3.0429   1.4177   0.8160 H              1 S1                 0.0000
     50 ****        -2.9722   3.0427   0.1998 H              1 S1                 0.0000
     51 ****        -5.4813   1.0295  -0.6538 H              1 S1                 0.0000
     52 ****        -5.0651   2.6603  -0.2723 H              1 S1                 0.0000
     53 ****        -5.1721   3.3390  -2.6556 H              1 S1                 0.0000
     54 ****        -5.7073   1.7331  -3.1086 H              1 S1                 0.0000
     55 ****        -7.4278   3.1419  -2.7107 H              1 S1                 0.0000
     56 ****        -1.2086  -0.0775  -0.0216 LP             1 S1                 0.0000
     57 ****         0.6135   0.0141  -2.7245 LP             1 S1                 0.0000
     58 ****         4.2206  -0.5013  -0.8513 LP             1 S1                 0.0000
     59 ****        -0.0120   0.6511   2.2471 LP             1 S1                 0.0000
     60 ****         4.6449  -2.1790   4.7406 LP             1 S1                 0.0000
     61 ****         3.0897  -2.6721   4.8095 LP             1 S1                 0.0000
     62 ****         7.3072  -2.7309   0.8347 LP             1 S1                 0.0000
     63 ****         6.4654  -3.8937   1.6130 LP             1 S1                 0.0000
     64 ****        -3.2645   2.1681  -2.0206 LP             1 S1                 0.0000
     65 ****        -7.0021   3.4577  -1.2107 LP             1 S1                 0.0000
     66 ****        -7.4922   1.9619  -1.6457 LP             1 S1                 0.0000
@<TRIPOS>BOND
    1    1    2 1     
    2    1   28 1     
    3    1   29 1     
    4    1   30 1     
    5    2   24 1     
    6    2    3 1     
    7    2    4 1     
    8    3   31 1     
    9    3   32 1     
   10    3   33 1     
   11    4    5 1     
   12    4   34 1     
   13    4   35 1     
   14    5    6 1     
   15    5   22 1     
   16    6   11 ar    
   17    6    7 ar    
   18    7    8 ar    
   19    8    9 ar    
   20    8   36 1     
   21    9   10 ar    
   22   10   14 1     
   23   10   11 ar    
   24   11   12 1     
   25   12   13 2     
   26   13   14 1     
   27   13   37 1     
   28   14   15 1     
   29   15   16 1     
   30   15   38 1     
   31   15   39 1     
   32   16   21 1     
   33   16   17 1     
   34   16   19 1     
   35   17   18 1     
   36   17   40 1     
   37   17   41 1     
   38   18   42 1     
   39   19   20 1     
   40   19   43 1     
   41   19   44 1     
   42   20   21 1     
   43   21   45 1     
   44   21   46 1     
   45   22   23 1     
   46   22   47 1     
   47   22   48 1     
   48   23   24 1     
   49   23   49 1     
   50   23   50 1     
   51   24   25 1     
   52   25   26 1     
   53   25   51 1     
   54   25   52 1     
   55   26   27 1     
   56   26   53 1     
   57   26   54 1     
   58   27   55 1     
   59    5   56 1     
   60    7   57 1     
   61    9   58 1     
   62   12   59 1     
   63   18   60 1     
   64   18   61 1     
   65   20   62 1     
   66   20   63 1     
   67   24   64 1     
   68   27   65 1     
   69   27   66 1     
@<TRIPOS>SUBSTRUCTURE
      1 S1             1
@<TRIPOS>SET
LONE_PAIRS      STATIC     ATOMS    <user>   **** ""
11 56 57 58 59 60 61 62 63 64 65 66
DONOR_HYDROGENS      STATIC     ATOMS    <user>   **** ""
2 42 55
ATOM$BLUE        STATIC     ATOMS    COLORGROUP SYSTEM
11 56 57 58 59 60 61 62 63 64 65 66
ATOM$RED        STATIC     ATOMS    COLORGROUP SYSTEM
2 42 55
