#       Name:                AV-unprocessed.smi:1030
#       Creating user name   scv26
#       Creation time:       Fri Mar 27 02:45:52 2020


#       File generated by GOLD software.
#

@<TRIPOS>MOLECULE
AV-unprocessed.smi:1030
    33    34     1
SMALL
NO_CHARGES


@<TRIPOS>ATOM
      1 ****        -2.1594   0.6280   1.7863 N.pl3          1 S1                -1.0000
      2 ****        -1.9427  -0.9404   1.4719 S.o2           1 S1                 0.0000
      3 ****        -2.4063  -1.7992   2.5730 O.2            1 S1                 0.0000
      4 ****        -2.3374  -1.3126   0.1041 O.2            1 S1                 0.0000
      5 ****        -0.1389  -0.9535   1.5233 C.ar           1 S1                 0.0000
      6 ****         0.5054  -1.5608   2.6221 C.ar           1 S1                 0.0000
      7 ****         1.9122  -1.5753   2.6643 C.ar           1 S1                 0.0000
      8 ****         2.6183  -0.9819   1.6016 C.ar           1 S1                 0.0000
      9 ****         2.0152  -0.3968   0.5458 N.ar           1 S1                 0.0000
     10 ****         0.6595  -0.3761   0.5000 C.ar           1 S1                 0.0000
     11 ****         0.0713   0.2551  -0.6067 N.3            1 S1                 0.0000
     12 ****         0.2976   1.6926  -0.6653 C.3            1 S1                 0.0000
     13 ****        -0.5436   2.3041  -1.7987 C.3            1 S1                 0.0000
     14 ****        -0.2358   1.6513  -3.0283 O.3            1 S1                 0.0000
     15 ****        -0.5265   0.2563  -2.9816 C.3            1 S1                 0.0000
     16 ****         0.3135  -0.4109  -1.8788 C.3            1 S1                 0.0000
     17 ****        -3.1683   0.8159   1.7578 H              1 S1                 0.0000
     18 ****        -0.0590  -2.0088   3.4259 H              1 S1                 0.0000
     19 ****         2.4360  -2.0307   3.4915 H              1 S1                 0.0000
     20 ****         3.6981  -0.9746   1.5999 H              1 S1                 0.0000
     21 ****         0.0314   2.1490   0.2889 H              1 S1                 0.0000
     22 ****         1.3561   1.8927  -0.8372 H              1 S1                 0.0000
     23 ****        -1.6097   2.2135  -1.5831 H              1 S1                 0.0000
     24 ****        -0.3270   3.3679  -1.8958 H              1 S1                 0.0000
     25 ****        -1.5922   0.1022  -2.8039 H              1 S1                 0.0000
     26 ****        -0.2974  -0.1882  -3.9500 H              1 S1                 0.0000
     27 ****         1.3733  -0.3519  -2.1305 H              1 S1                 0.0000
     28 ****         0.0562  -1.4678  -1.7978 H              1 S1                 0.0000
     29 ****        -1.4401   1.2966   1.9750 LP             1 S1                 0.0000
     30 ****         2.5567   0.0133  -0.1881 LP             1 S1                 0.0000
     31 ****        -0.9092   0.1494  -0.4410 LP             1 S1                 0.0000
     32 ****         0.7378   1.7716  -3.2224 LP             1 S1                 0.0000
     33 ****        -0.7756   2.0690  -3.7591 LP             1 S1                 0.0000
@<TRIPOS>BOND
    1    1    2 1     
    2    1   17 1     
    3    2    3 2     
    4    2    4 2     
    5    2    5 1     
    6    5   10 ar    
    7    5    6 ar    
    8    6    7 ar    
    9    6   18 1     
   10    7    8 ar    
   11    7   19 1     
   12    8    9 ar    
   13    8   20 1     
   14    9   10 ar    
   15   10   11 1     
   16   11   16 1     
   17   11   12 1     
   18   12   13 1     
   19   12   21 1     
   20   12   22 1     
   21   13   14 1     
   22   13   23 1     
   23   13   24 1     
   24   14   15 1     
   25   15   16 1     
   26   15   25 1     
   27   15   26 1     
   28   16   27 1     
   29   16   28 1     
   30    1   29 1     
   31    9   30 1     
   32   11   31 1     
   33   14   32 1     
   34   14   33 1     
@<TRIPOS>SUBSTRUCTURE
      1 S1             1
@<TRIPOS>SET
LONE_PAIRS      STATIC     ATOMS    <user>   **** ""
7 29 3 4 30 31 32 33
DONOR_HYDROGENS      STATIC     ATOMS    <user>   **** ""
1 17
ATOM$BLUE        STATIC     ATOMS    COLORGROUP SYSTEM
7 29 3 4 30 31 32 33
ATOM$RED        STATIC     ATOMS    COLORGROUP SYSTEM
1 17
