#       Name:                AV-unprocessed.smi:2993
#       Creating user name   scv26
#       Creation time:       Fri Mar 27 16:32:36 2020


#       File generated by GOLD software.
#

@<TRIPOS>MOLECULE
AV-unprocessed.smi:2993
    39    40     1
SMALL
NO_CHARGES


@<TRIPOS>ATOM
      1 ****        -2.1495   1.8496   3.2234 C.3            1 S1                 0.0000
      2 ****        -2.2088   2.1617   1.7554 C.2            1 S1                 0.0000
      3 ****        -2.4115   3.4094   1.3669 N.2            1 S1                 0.0000
      4 ****        -2.4147   3.3802  -0.0309 O.3            1 S1                 0.0000
      5 ****        -2.2130   2.1002  -0.4344 C.2            1 S1                 0.0000
      6 ****        -2.1813   1.8655  -1.9069 C.3            1 S1                 0.0000
      7 ****        -2.0769   1.2743   0.6482 C.2            1 S1                 0.0000
      8 ****        -1.8411  -0.2141   0.6745 C.3            1 S1                 0.0000
      9 ****        -0.3387  -0.4951   0.6866 C.2            1 S1                 0.0000
     10 ****         0.2461  -0.6702   1.7552 O.2            1 S1                 0.0000
     11 ****         0.2706  -0.5274  -0.5088 N.am           1 S1                 0.0000
     12 ****         1.6941  -0.7540  -0.7316 C.3            1 S1                 0.0000
     13 ****         2.0874  -0.1074  -2.0670 C.3            1 S1                 0.0000
     14 ****         2.0847  -2.2222  -0.7050 C.3            1 S1                 0.0000
     15 ****         2.5073  -2.9021   0.5765 C.3            1 S1                 0.0000
     16 ****         3.5231  -2.6401  -0.5112 C.3            1 S1                 0.0000
     17 ****        -1.6229   0.9138   3.4098 H              1 S1                 0.0000
     18 ****        -3.1512   1.7556   3.6428 H              1 S1                 0.0000
     19 ****        -1.6290   2.6329   3.7754 H              1 S1                 0.0000
     20 ****        -1.7454   0.8945  -2.1413 H              1 S1                 0.0000
     21 ****        -1.5868   2.6294  -2.4082 H              1 S1                 0.0000
     22 ****        -3.1884   1.8922  -2.3224 H              1 S1                 0.0000
     23 ****        -2.2947  -0.6730   1.5536 H              1 S1                 0.0000
     24 ****        -2.2943  -0.7058  -0.1872 H              1 S1                 0.0000
     25 ****        -0.2965  -0.3725  -1.3296 H              1 S1                 0.0000
     26 ****         2.2523  -0.2409   0.0541 H              1 S1                 0.0000
     27 ****         3.1586  -0.2000  -2.2484 H              1 S1                 0.0000
     28 ****         1.8450   0.9559  -2.0771 H              1 S1                 0.0000
     29 ****         1.5674  -0.5758  -2.9034 H              1 S1                 0.0000
     30 ****         1.5131  -2.8344  -1.4006 H              1 S1                 0.0000
     31 ****         2.5731  -2.2958   1.4777 H              1 S1                 0.0000
     32 ****         2.1852  -3.9300   0.7292 H              1 S1                 0.0000
     33 ****         3.8788  -3.4936  -1.0844 H              1 S1                 0.0000
     34 ****         4.2595  -1.8592  -0.3314 H              1 S1                 0.0000
     35 ****        -2.5369   4.2099   1.9530 LP             1 S1                 0.0000
     36 ****        -1.6830   3.9641  -0.3823 LP             1 S1                 0.0000
     37 ****        -3.2956   3.7071  -0.3733 LP             1 S1                 0.0000
     38 ****        -0.2617  -0.6287   2.6157 LP             1 S1                 0.0000
     39 ****         1.2290  -0.8541   1.7630 LP             1 S1                 0.0000
@<TRIPOS>BOND
    1    1    2 1     
    2    1   17 1     
    3    1   18 1     
    4    1   19 1     
    5    2    7 1     
    6    2    3 2     
    7    3    4 1     
    8    4    5 1     
    9    5    6 1     
   10    5    7 2     
   11    6   20 1     
   12    6   21 1     
   13    6   22 1     
   14    7    8 1     
   15    8    9 1     
   16    8   23 1     
   17    8   24 1     
   18    9   10 2     
   19    9   11 am    
   20   11   12 1     
   21   11   25 1     
   22   12   13 1     
   23   12   14 1     
   24   12   26 1     
   25   13   27 1     
   26   13   28 1     
   27   13   29 1     
   28   14   16 1     
   29   14   15 1     
   30   14   30 1     
   31   15   16 1     
   32   15   31 1     
   33   15   32 1     
   34   16   33 1     
   35   16   34 1     
   36    3   35 1     
   37    4   36 1     
   38    4   37 1     
   39   10   38 1     
   40   10   39 1     
@<TRIPOS>SUBSTRUCTURE
      1 S1             1
@<TRIPOS>SET
LONE_PAIRS      STATIC     ATOMS    <user>   **** ""
5 35 36 37 38 39
DONOR_HYDROGENS      STATIC     ATOMS    <user>   **** ""
1 25
ATOM$BLUE        STATIC     ATOMS    COLORGROUP SYSTEM
5 35 36 37 38 39
ATOM$RED        STATIC     ATOMS    COLORGROUP SYSTEM
1 25
