AV-unprocessed.smi:1254|AV-procd|sdf|5272|dock7
  -GOLD-   22720 4383D 1   1.00000     0.00000
 Structure written by MMmdl.
 46 47  0  0  0  0  0  0  0  0  2 V2000
  153.3190  142.4446  160.4725 C   0  0  0  0  0  0  0  0  0  0  0  0
  152.5174  142.1265  159.2571 C   0  0  0  0  0  0  0  0  0  0  0  0
  151.5095  142.7844  158.6102 C   0  0  0  0  0  0  0  0  0  0  0  0
  151.2030  141.9160  157.5293 C   0  0  0  0  0  0  0  0  0  0  0  0
  150.1870  142.2454  156.5963 N   0  0  0  0  0  0  0  0  0  0  0  0
  149.8597  141.5806  155.4756 C   0  0  0  0  0  0  0  0  0  0  0  0
  150.3938  140.5427  155.0833 O   0  0  0  0  0  0  0  0  0  0  0  0
  148.8662  142.1927  154.8153 N   0  0  0  0  0  0  0  0  0  0  0  0
  148.2893  141.7270  153.5586 C   0  0  0  0  0  0  0  0  0  0  0  0
  146.9184  141.0583  153.7672 C   0  0  1  0  0  0  0  0  0  0  0  0
  146.9455  139.5618  153.4016 C   0  0  0  0  0  0  0  0  0  0  0  0
  145.6238  138.9405  153.6653 N   0  3  1  0  0  0  0  0  0  0  0  0
  145.5498  137.5057  153.2871 C   0  0  0  0  0  0  0  0  0  0  0  0
  144.2877  137.1537  152.4699 C   0  0  0  0  0  0  0  0  0  0  0  0
  143.0099  137.2351  153.3220 C   0  0  0  0  0  0  0  0  0  0  0  0
  144.4245  135.7584  151.8429 C   0  0  0  0  0  0  0  0  0  0  0  0
  145.2153  139.1753  155.0706 C   0  0  0  0  0  0  0  0  0  0  0  0
  145.2558  140.6765  155.4000 C   0  0  0  0  0  0  0  0  0  0  0  0
  146.5573  141.1856  155.1388 O   0  0  0  0  0  0  0  0  0  0  0  0
  151.9565  140.8270  157.5161 N   0  0  0  0  0  0  0  0  0  0  0  0
  152.8018  140.9559  158.6245 O   0  0  0  0  0  0  0  0  0  0  0  0
  153.2968  143.5138  160.6841 H   0  0  0  0  0  0  0  0  0  0  0  0
  154.3599  142.1484  160.3415 H   0  0  0  0  0  0  0  0  0  0  0  0
  152.9240  141.9193  161.3422 H   0  0  0  0  0  0  0  0  0  0  0  0
  151.0658  143.7333  158.8716 H   0  0  0  0  0  0  0  0  0  0  0  0
  149.6596  143.0811  156.8008 H   0  0  0  0  0  0  0  0  0  0  0  0
  148.4833  143.0413  155.2058 H   0  0  0  0  0  0  0  0  0  0  0  0
  148.2001  142.5673  152.8682 H   0  0  0  0  0  0  0  0  0  0  0  0
  148.9847  141.0231  153.1006 H   0  0  0  0  0  0  0  0  0  0  0  0
  146.1727  141.5606  153.1480 H   0  0  0  0  0  0  0  0  0  0  0  0
  147.2101  139.4569  152.3502 H   0  0  0  0  0  0  0  0  0  0  0  0
  147.7151  139.0460  153.9780 H   0  0  0  0  0  0  0  0  0  0  0  0
  146.4519  137.2341  152.7364 H   0  0  0  0  0  0  0  0  0  0  0  0
  145.5513  136.8952  154.1915 H   0  0  0  0  0  0  0  0  0  0  0  0
  144.1865  137.8575  151.6443 H   0  0  0  0  0  0  0  0  0  0  0  0
  143.0547  136.5521  154.1709 H   0  0  0  0  0  0  0  0  0  0  0  0
  142.1293  136.9747  152.7336 H   0  0  0  0  0  0  0  0  0  0  0  0
  142.8519  138.2408  153.7116 H   0  0  0  0  0  0  0  0  0  0  0  0
  144.5201  134.9869  152.6077 H   0  0  0  0  0  0  0  0  0  0  0  0
  145.3028  135.6999  151.1994 H   0  0  0  0  0  0  0  0  0  0  0  0
  143.5551  135.5140  151.2316 H   0  0  0  0  0  0  0  0  0  0  0  0
  144.2069  138.7933  155.2337 H   0  0  0  0  0  0  0  0  0  0  0  0
  145.8795  138.6272  155.7409 H   0  0  0  0  0  0  0  0  0  0  0  0
  144.5125  141.2248  154.8190 H   0  0  0  0  0  0  0  0  0  0  0  0
  145.0180  140.8369  156.4516 H   0  0  0  0  0  0  0  0  0  0  0  0
  144.9491  139.4251  153.0903 H   0  0  0  0  0  0  0  0  0  0  0  0
  1  2  1  0  0  0  0
  1 22  1  0  0  0  0
  1 23  1  0  0  0  0
  1 24  1  0  0  0  0
  2 21  1  0  0  0  0
  2  3  2  0  0  0  0
  3  4  1  0  0  0  0
  3 25  1  0  0  0  0
  4  5  1  0  0  0  0
  4 20  2  0  0  0  0
  5  6  1  0  0  0  0
  5 26  1  0  0  0  0
  6  7  2  0  0  0  0
  6  8  1  0  0  0  0
  8  9  1  0  0  0  0
  8 27  1  0  0  0  0
  9 10  1  0  0  0  0
  9 28  1  0  0  0  0
  9 29  1  0  0  0  0
 10 19  1  0  0  0  0
 10 11  1  0  0  0  0
 10 30  1  0  0  0  0
 11 12  1  0  0  0  0
 11 31  1  0  0  0  0
 11 32  1  0  0  0  0
 12 13  1  0  0  0  0
 12 17  1  0  0  0  0
 12 46  1  0  0  0  0
 13 14  1  0  0  0  0
 13 33  1  0  0  0  0
 13 34  1  0  0  0  0
 14 15  1  0  0  0  0
 14 16  1  0  0  0  0
 14 35  1  0  0  0  0
 15 36  1  0  0  0  0
 15 37  1  0  0  0  0
 15 38  1  0  0  0  0
 16 39  1  0  0  0  0
 16 40  1  0  0  0  0
 16 41  1  0  0  0  0
 17 18  1  0  0  0  0
 17 42  1  0  0  0  0
 17 43  1  0  0  0  0
 18 19  1  0  0  0  0
 18 44  1  0  0  0  0
 18 45  1  0  0  0  0
 20 21  1  0  0  0  0
M  CHG  1  12   1
M  END
> <s_m_source_file>
AV-unprocessed.smi

> <i_m_source_file_index>
1254

> <i_lp_mmshare_version>
43012

> <i_f3d_flags>
0

> <s_epik_input>
W0NIM11jMVtjSF1jKG5vMSlbTkhdQyg9TylbTkhdW0NIMl1bQ0BASF0yW0NIMl1OKFtDSDJdW0NIMl1PMilbQ0gyXVtDSF0oW0NIM10pW0NIM10=

> <s_epik_cmdline>
J2VwaWtfcHl0aG9uJywgJy1waCcsICc3LjAnLCAnLXRuJywgJzgnLCAnLW1hJywgJzIwMCcsICctbWV0YWxfYmluZGluZycsICctaW1hZScsICc8aW5maWxlLm1hZT4nLCAnLW9tYWUnLCAnPG91dGZpbGUubWFlPic=

> <r_epik_Ionization_Penalty>
0.0986825

> <r_epik_Ionization_Penalty_Charging>
0.0986478

> <r_epik_Ionization_Penalty_Neutral>
3.46838e-05

> <r_epik_State_Penalty>
0.0887259

> <r_epik_Charging_Adjusted_Penalty>
0.187374

> <i_epik_Tot_Q>
1

> <i_epik_Tot_abs_Q>
1

> <r_epik_Metal_State_Penalty>
0.103424

> <b_epik_Metal_Only>
0

> <s_lp_Force_Field>
OPLS_2005

> <r_lp_Energy>
13.7393

> <b_lp_Chiralities_Consistent>
1

> <s_lp_Variant>
AV-unprocessed.smi:1254-4

> <Gold.Version>
5.8.1

> <Gold.Id.Protein>
6NUR|6NUR_protein|mol2

> <Gold.PLP.Fitness>
41.5066

> <Gold.PLP.PLP>
-30.3018

> <Gold.PLP.part.hbond>
-4.0445

> <Gold.PLP.part.metal>
0.0000

> <Gold.PLP.part.buried>
-0.2278

> <Gold.PLP.part.nonpolar>
-24.6730

> <Gold.PLP.part.repulsive>
0.7133

> <Gold.PLP.ligand.clash>
0.0000

> <Gold.PLP.ligand.torsion>
1.5398

> <Gold.PLP.Chemscore.Hbond>
4.7523

> <Gold.PLP.Chemscore.CHOScore>
0.0000

> <Gold.PLP.Chemscore.Metal>
0.0000

> <Gold.Chemscore.Hbonds>
donor molecule, donor type, donor heavy atom, donor atom, acceptor molecule, acceptor atom, score
      L1  H     5    26       P1  8028  0.53
      L1  H     8    27       P1  8028  0.88
      L1  H    12    46       P1 10175  2.00
      P1  H  7989  7998       L1     7  0.97

> <Gold.PLP.Chemscore.Internal.Correction>
0.0275

> <Gold.Rescore>
     Score         DG    S(hbond)    S(metal)    S(lipo)     H(rot)  DE(clash)    DE(int)     intcor
     16.61     -20.73       3.38        0.00      71.64       1.73       1.40       2.72       ----

> <Gold.Chemscore.Fitness>
16.6055

> <Gold.Chemscore.DG>
-20.7284

> <Gold.Chemscore.ZeroCoef>
-5.4800

> <Gold.Chemscore.Hbond>
3.3811

> <Gold.Chemscore.Metal>
0.0000

> <Gold.Chemscore.Lipo>
71.6415

> <Gold.Chemscore.Internal_Hbond>
0.0000

> <Gold.Chemscore.DEClash>
1.4001

> <Gold.Chemscore.DEInternal>
2.7228

> <Gold.Chemscore.Rot>
1.7291

> <Gold.Chemscore.Internal.Correction>
   9.000000E+99

> <Gold.Chemscore.Hbonds>
donor molecule, donor type, donor heavy atom, donor atom, acceptor molecule, acceptor atom, score
      L1  H     5    26       P1  8028  0.52
      L1  H     8    27       P1  8028  0.86
      L1  H    12    46       P1 10175  1.00
      P1  H  7989  7998       L1     7  0.67

> <Gold.Chemscore.Hbond.Weighted>
-11.2928

> <Gold.Chemscore.Metal.Weighted>
-0.0000

> <Gold.Chemscore.Lipo.Weighted>
-8.3821

> <Gold.Chemscore.Internal_Hbond.Weighted>
0.0000

> <Gold.Chemscore.DEClash.Weighted>
1.4001

> <Gold.Chemscore.DEInternal.Weighted>
2.7228

> <Gold.Chemscore.Rot.Weighted>
4.4265

> <Gold.Chemscore.Internal.Correction.Weighted>
   9.000000E+99

> <Gold.Protein.RotatedTorsions>
[ 6907 6896 6895 6894 ] final  -81.55 input  -60.11 | X-H torsion
[ 7974 7965 7964 7962 ] final  102.30 input  175.53 | X-H torsion
[ 8008 7997 7996 7995 ] final  -40.81 input   59.86 | X-H torsion
[ 10167 10162 10161 10158 ] final -131.76 input  -65.29 | X-H torsion
[ 10718 10713 10712 10709 ] final   32.92 input   66.30 | X-H torsion
[ 10763 10752 10751 10750 ] final  -87.99 input  -60.55 | X-H torsion
[ 11005 11000 10999 10996 ] final -140.68 input  -57.11 | X-H torsion

> <Gold.Protein.ActiveResidues>
 VAL166  LYS551  ARG553  GLY616  TRP617  ASP618  TYR619  PRO620  LYS621  CYS622 
 ASP623  PHE694  ASN695  SER759  ASP760  ASP761  ALA762  ILE779  LEU786  VAL792 
 PHE793  MET794  SER795  GLU796  ALA797  LYS798  CYS799  TRP800  GLU811  SER814 

> <Gold.Protein.RotatedAtoms>
  150.6910  134.3800  159.5029 H   0  0  0  0  0  0  0  0  0  0  0  0  # atno 6907 bound_to 6896
  152.1604  134.8914  160.0551 H   0  0  0  0  0  0  0  0  0  0  0  0  # atno 6908 bound_to 6896
  151.9978  133.3779  159.4206 H   0  0  0  0  0  0  0  0  0  0  0  0  # atno 6909 bound_to 6896
  145.3609  139.2418  143.3507 H   0  0  0  0  0  0  0  0  0  0  0  0  # atno 7974 bound_to 7965
  154.4009  140.1515  156.3088 H   0  0  0  0  0  0  0  0  0  0  0  0  # atno 8008 bound_to 7997
  155.8634  140.3452  155.5750 H   0  0  0  0  0  0  0  0  0  0  0  0  # atno 8009 bound_to 7997
  155.7855  140.0849  157.2027 H   0  0  0  0  0  0  0  0  0  0  0  0  # atno 8010 bound_to 7997
  139.9156  143.6442  152.2565 H   0  0  0  0  0  0  0  0  0  0  0  0  # atno 10167 bound_to 10162
  157.2913  130.7304  149.6612 H   0  0  0  0  0  0  0  0  0  0  0  0  # atno 10718 bound_to 10713
  154.6397  135.5393  153.7775 H   0  0  0  0  0  0  0  0  0  0  0  0  # atno 10763 bound_to 10752
  153.0327  135.6456  154.1178 H   0  0  0  0  0  0  0  0  0  0  0  0  # atno 10764 bound_to 10752
  154.1103  135.2927  155.3212 H   0  0  0  0  0  0  0  0  0  0  0  0  # atno 10765 bound_to 10752
  140.8399  134.2414  157.4815 H   0  0  0  0  0  0  0  0  0  0  0  0  # atno 11005 bound_to 11000
  146.2927  140.4243  142.8733 LP  0  0  0  0  0  0  0  0  0  0  0  0  # atno 17320 bound_to 7965
  144.8647  140.7189  143.6085 LP  0  0  0  0  0  0  0  0  0  0  0  0  # atno 17321 bound_to 7965
  139.6905  144.7647  151.1447 LP  0  0  0  0  0  0  0  0  0  0  0  0  # atno 17342 bound_to 10162
  140.7675  143.5596  150.9114 LP  0  0  0  0  0  0  0  0  0  0  0  0  # atno 17343 bound_to 10162
  155.9667  130.4308  150.4892 LP  0  0  0  0  0  0  0  0  0  0  0  0  # atno 17370 bound_to 10713
  157.2855  131.0615  151.2169 LP  0  0  0  0  0  0  0  0  0  0  0  0  # atno 17371 bound_to 10713
  139.8703  134.9630  156.4447 LP  0  0  0  0  0  0  0  0  0  0  0  0  # atno 17394 bound_to 11000
  140.8906  133.7850  155.9568 LP  0  0  0  0  0  0  0  0  0  0  0  0  # atno 17395 bound_to 11000

$$$$
