#       Name:                AV-unprocessed.smi:557
#       Creating user name   scv26
#       Creation time:       Thu Mar 26 23:41:07 2020


#       File generated by GOLD software.
#

@<TRIPOS>MOLECULE
AV-unprocessed.smi:557
    50    52     1
SMALL
NO_CHARGES


@<TRIPOS>ATOM
      1 ****        -7.9027  -4.1275  -2.8493 C.3            1 S1                 0.0000
      2 ****        -7.0064  -3.6342  -1.8258 N.pl3          1 S1                 0.0000
      3 ****        -5.9777  -2.7251  -1.9476 C.2            1 S1                 0.0000
      4 ****        -5.4150  -2.5746  -0.7115 C.2            1 S1                 0.0000
      5 ****        -4.2596  -1.7045  -0.3035 C.3            1 S1                 0.0000
      6 ****        -2.9254  -2.4520  -0.4250 C.3            1 S1                 0.0000
      7 ****        -1.8154  -1.5927  -0.0224 N.am           1 S1                 0.0000
      8 ****        -0.5128  -1.9186   0.0268 C.2            1 S1                 0.0000
      9 ****        -0.1096  -3.0377  -0.2833 O.2            1 S1                 0.0000
     10 ****         0.2953  -0.9261   0.4363 N.am           1 S1                 0.0000
     11 ****         1.7467  -1.0161   0.5634 C.3            1 S1                 0.0000
     12 ****         2.3125  -0.0876   1.6317 C.3            1 S1                 0.0000
     13 ****         3.7841   0.0094   1.2272 C.3            1 S1                 0.0000
     14 ****         3.8019  -0.0529  -0.2519 N.4            1 S1                 1.0000
     15 ****         4.9912  -0.7258  -0.8290 C.3            1 S1                 0.0000
     16 ****         4.9155  -0.7338  -2.3665 C.3            1 S1                 0.0000
     17 ****         3.5772  -1.2850  -2.9016 C.3            1 S1                 0.0000
     18 ****         2.6117  -1.6857  -1.7746 C.3            1 S1                 0.0000
     19 ****         2.4816  -0.5697  -0.7129 C.3            1 S1                 0.0000
     20 ****        -6.1848  -3.4467   0.1103 C.2            1 S1                 0.0000
     21 ****        -7.1348  -4.0791  -0.5591 N.2            1 S1                 0.0000
     22 ****        -7.6423  -3.6948  -3.8156 H              1 S1                 0.0000
     23 ****        -8.9293  -3.8543  -2.6035 H              1 S1                 0.0000
     24 ****        -7.8268  -5.2132  -2.9157 H              1 S1                 0.0000
     25 ****        -5.7315  -2.2657  -2.8939 H              1 S1                 0.0000
     26 ****        -4.2260  -0.8031  -0.9170 H              1 S1                 0.0000
     27 ****        -4.3876  -1.3594   0.7232 H              1 S1                 0.0000
     28 ****        -2.9426  -3.3436   0.2042 H              1 S1                 0.0000
     29 ****        -2.7759  -2.7806  -1.4547 H              1 S1                 0.0000
     30 ****        -2.0609  -0.6533   0.2563 H              1 S1                 0.0000
     31 ****        -0.1303  -0.0420   0.6750 H              1 S1                 0.0000
     32 ****         2.0398  -2.0362   0.8218 H              1 S1                 0.0000
     33 ****         1.8436   0.8961   1.5725 H              1 S1                 0.0000
     34 ****         2.1764  -0.4690   2.6442 H              1 S1                 0.0000
     35 ****         4.2602   0.9191   1.5933 H              1 S1                 0.0000
     36 ****         4.3273  -0.8415   1.6419 H              1 S1                 0.0000
     37 ****         5.8943  -0.2090  -0.5023 H              1 S1                 0.0000
     38 ****         5.0594  -1.7471  -0.4509 H              1 S1                 0.0000
     39 ****         5.0542   0.2828  -2.7367 H              1 S1                 0.0000
     40 ****         5.7452  -1.3150  -2.7701 H              1 S1                 0.0000
     41 ****         3.1033  -0.5265  -3.5261 H              1 S1                 0.0000
     42 ****         3.7577  -2.1412  -3.5530 H              1 S1                 0.0000
     43 ****         1.6336  -1.9225  -2.1940 H              1 S1                 0.0000
     44 ****         2.9679  -2.6050  -1.3074 H              1 S1                 0.0000
     45 ****         1.9616   0.2827  -1.1534 H              1 S1                 0.0000
     46 ****        -6.0797  -3.6388   1.1679 H              1 S1                 0.0000
     47 ****         3.8379   0.9034  -0.5751 H              1 S1                 0.0000
     48 ****        -0.7580  -3.7374  -0.5831 LP             1 S1                 0.0000
     49 ****         0.8668  -3.2483  -0.2356 LP             1 S1                 0.0000
     50 ****        -7.7985  -4.7383  -0.2055 LP             1 S1                 0.0000
@<TRIPOS>BOND
    1    1    2 1     
    2    1   22 1     
    3    1   23 1     
    4    1   24 1     
    5    2   21 1     
    6    2    3 1     
    7    3    4 2     
    8    3   25 1     
    9    4    5 1     
   10    4   20 1     
   11    5    6 1     
   12    5   26 1     
   13    5   27 1     
   14    6    7 1     
   15    6   28 1     
   16    6   29 1     
   17    7    8 am    
   18    7   30 1     
   19    8    9 2     
   20    8   10 am    
   21   10   11 1     
   22   10   31 1     
   23   11   19 1     
   24   11   12 1     
   25   11   32 1     
   26   12   13 1     
   27   12   33 1     
   28   12   34 1     
   29   13   14 1     
   30   13   35 1     
   31   13   36 1     
   32   14   19 1     
   33   14   15 1     
   34   14   47 1     
   35   15   16 1     
   36   15   37 1     
   37   15   38 1     
   38   16   17 1     
   39   16   39 1     
   40   16   40 1     
   41   17   18 1     
   42   17   41 1     
   43   17   42 1     
   44   18   19 1     
   45   18   43 1     
   46   18   44 1     
   47   19   45 1     
   48   20   21 2     
   49   20   46 1     
   50    9   48 1     
   51    9   49 1     
   52   21   50 1     
@<TRIPOS>SUBSTRUCTURE
      1 S1             1
@<TRIPOS>SET
LONE_PAIRS      STATIC     ATOMS    <user>   **** ""
3 48 49 50
DONOR_HYDROGENS      STATIC     ATOMS    <user>   **** ""
3 30 31 47
ATOM$BLUE        STATIC     ATOMS    COLORGROUP SYSTEM
3 48 49 50
ATOM$RED        STATIC     ATOMS    COLORGROUP SYSTEM
3 30 31 47
