AV-unprocessed.smi:817|AV-procd|sdf|3830|dock9
  -GOLD-   22720 1273D 1   1.00000     0.00000
 Structure written by MMmdl.
 48 49  0  0  0  0  0  0  0  0  2 V2000
  143.8156  132.1902  148.8949 C   0  0  0  0  0  0  0  0  0  0  0  0
  144.5721  133.0911  149.8820 C   0  0  2  0  0  0  0  0  0  0  0  0
  145.9591  132.5119  150.2112 C   0  0  0  0  0  0  0  0  0  0  0  0
  146.7156  133.3874  151.2188 C   0  0  0  0  0  0  0  0  0  0  0  0
  145.8805  133.6049  152.4928 C   0  0  0  0  0  0  0  0  0  0  0  0
  144.4639  134.2136  152.2328 C   0  0  2  0  0  0  0  0  0  0  0  0
  144.6275  135.6639  151.6809 C   0  0  0  0  0  0  0  0  0  0  0  0
  145.8829  136.2876  152.1054 N   0  0  0  0  0  0  0  0  0  0  0  0
  146.0488  137.5136  152.6305 C   0  0  0  0  0  0  0  0  0  0  0  0
  145.0875  138.2543  152.8209 O   0  0  0  0  0  0  0  0  0  0  0  0
  147.3288  137.8148  152.9260 N   0  0  0  0  0  0  0  0  0  0  0  0
  147.8672  139.0073  153.4810 C   0  0  0  0  0  0  0  0  0  0  0  0
  149.1005  139.0893  154.1724 C   0  0  0  0  0  0  0  0  0  0  0  0
  149.5093  140.3348  154.6874 C   0  0  0  0  0  0  0  0  0  0  0  0
  148.6700  141.4499  154.4992 C   0  0  0  0  0  0  0  0  0  0  0  0
  147.4874  141.3843  153.8524 N   0  0  0  0  0  0  0  0  0  0  0  0
  147.1025  140.1873  153.3613 C   0  0  0  0  0  0  0  0  0  0  0  0
  143.6645  134.2779  153.5153 N   0  3  0  0  0  0  0  0  0  0  0  0
  142.2811  134.8112  153.4083 C   0  0  0  0  0  0  0  0  0  0  0  0
  144.3651  134.8936  154.6735 C   0  0  0  0  0  0  0  0  0  0  0  0
  143.7501  133.3232  151.1707 C   0  0  0  0  0  0  0  0  0  0  0  0
  143.6363  131.2003  149.3156 H   0  0  0  0  0  0  0  0  0  0  0  0
  144.3790  132.0611  147.9704 H   0  0  0  0  0  0  0  0  0  0  0  0
  142.8488  132.6202  148.6321 H   0  0  0  0  0  0  0  0  0  0  0  0
  144.7161  134.0492  149.3828 H   0  0  0  0  0  0  0  0  0  0  0  0
  145.8496  131.5057  150.6184 H   0  0  0  0  0  0  0  0  0  0  0  0
  146.5495  132.4112  149.2998 H   0  0  0  0  0  0  0  0  0  0  0  0
  147.6566  132.9031  151.4817 H   0  0  0  0  0  0  0  0  0  0  0  0
  146.9931  134.3368  150.7625 H   0  0  0  0  0  0  0  0  0  0  0  0
  145.7966  132.6184  152.9471 H   0  0  0  0  0  0  0  0  0  0  0  0
  146.4409  134.2165  153.2008 H   0  0  0  0  0  0  0  0  0  0  0  0
  144.5920  135.6885  150.5935 H   0  0  0  0  0  0  0  0  0  0  0  0
  143.7918  136.2877  151.9981 H   0  0  0  0  0  0  0  0  0  0  0  0
  146.7205  135.7389  151.9750 H   0  0  0  0  0  0  0  0  0  0  0  0
  147.9990  137.0753  152.7732 H   0  0  0  0  0  0  0  0  0  0  0  0
  149.7338  138.2311  154.3309 H   0  0  0  0  0  0  0  0  0  0  0  0
  150.4446  140.4320  155.2185 H   0  0  0  0  0  0  0  0  0  0  0  0
  148.9536  142.4188  154.8826 H   0  0  0  0  0  0  0  0  0  0  0  0
  146.1497  140.1725  152.8523 H   0  0  0  0  0  0  0  0  0  0  0  0
  142.2629  135.8038  152.9586 H   0  0  0  0  0  0  0  0  0  0  0  0
  141.8177  134.8869  154.3925 H   0  0  0  0  0  0  0  0  0  0  0  0
  141.6379  134.1485  152.8302 H   0  0  0  0  0  0  0  0  0  0  0  0
  144.4870  135.9691  154.5432 H   0  0  0  0  0  0  0  0  0  0  0  0
  145.3438  134.4543  154.8564 H   0  0  0  0  0  0  0  0  0  0  0  0
  143.7873  134.7402  155.5856 H   0  0  0  0  0  0  0  0  0  0  0  0
  142.7941  133.7648  150.8883 H   0  0  0  0  0  0  0  0  0  0  0  0
  143.5141  132.3511  151.6044 H   0  0  0  0  0  0  0  0  0  0  0  0
  143.5373  133.3118  153.7803 H   0  0  0  0  0  0  0  0  0  0  0  0
  1  2  1  0  0  0  0
  1 22  1  0  0  0  0
  1 23  1  0  0  0  0
  1 24  1  0  0  0  0
  2 21  1  0  0  0  0
  2  3  1  0  0  0  0
  2 25  1  0  0  0  0
  3  4  1  0  0  0  0
  3 26  1  0  0  0  0
  3 27  1  0  0  0  0
  4  5  1  0  0  0  0
  4 28  1  0  0  0  0
  4 29  1  0  0  0  0
  5  6  1  0  0  0  0
  5 30  1  0  0  0  0
  5 31  1  0  0  0  0
  6  7  1  0  0  0  0
  6 18  1  0  0  0  0
  6 21  1  0  0  0  0
  7  8  1  0  0  0  0
  7 32  1  0  0  0  0
  7 33  1  0  0  0  0
  8  9  1  0  0  0  0
  8 34  1  0  0  0  0
  9 10  2  0  0  0  0
  9 11  1  0  0  0  0
 11 12  1  0  0  0  0
 11 35  1  0  0  0  0
 12 17  1  0  0  0  0
 12 13  2  0  0  0  0
 13 14  1  0  0  0  0
 13 36  1  0  0  0  0
 14 15  2  0  0  0  0
 14 37  1  0  0  0  0
 15 16  1  0  0  0  0
 15 38  1  0  0  0  0
 16 17  2  0  0  0  0
 17 39  1  0  0  0  0
 18 19  1  0  0  0  0
 18 20  1  0  0  0  0
 18 48  1  0  0  0  0
 19 40  1  0  0  0  0
 19 41  1  0  0  0  0
 19 42  1  0  0  0  0
 20 43  1  0  0  0  0
 20 44  1  0  0  0  0
 20 45  1  0  0  0  0
 21 46  1  0  0  0  0
 21 47  1  0  0  0  0
M  CHG  1  18   1
M  END
> <s_m_source_file>
AV-unprocessed.smi

> <i_m_source_file_index>
817

> <i_lp_mmshare_version>
43012

> <i_f3d_flags>
0

> <s_epik_input>
W0NIM11bQ0BASF0oW0NIMl0xKVtDSDJdW0NIMl1bQ0gyXVtDQF0xKE4oW0NIM10pW0NIM10pW0NIMl1bTkhdQyg9TylbTkhdYzJbY0hdW2NIXVtjSF1uW2NIXTI=

> <s_epik_cmdline>
J2VwaWtfcHl0aG9uJywgJy1waCcsICc3LjAnLCAnLXRuJywgJzgnLCAnLW1hJywgJzIwMCcsICctbWV0YWxfYmluZGluZycsICctaW1hZScsICc8aW5maWxlLm1hZT4nLCAnLW9tYWUnLCAnPG91dGZpbGUubWFlPic=

> <r_lp_tautomer_probability>
1

> <r_epik_Ionization_Penalty>
0.00584939

> <r_epik_Ionization_Penalty_Charging>
0.00160539

> <r_epik_Ionization_Penalty_Neutral>
0.004244

> <r_epik_State_Penalty>
-0

> <r_epik_Charging_Adjusted_Penalty>
0.00160539

> <i_epik_Tot_Q>
1

> <i_epik_Tot_abs_Q>
1

> <r_epik_Metal_State_Penalty>
-0

> <b_epik_Metal_Only>
0

> <s_lp_Force_Field>
OPLS_2005

> <r_lp_Energy>
49.7529

> <b_lp_Chiralities_Consistent>
1

> <s_lp_Variant>
AV-unprocessed.smi:817-3

> <Gold.Version>
5.8.1

> <Gold.Id.Protein>
6NUR|6NUR_protein|mol2

> <Gold.PLP.Fitness>
47.6474

> <Gold.PLP.PLP>
-35.0577

> <Gold.PLP.part.hbond>
-2.7975

> <Gold.PLP.part.metal>
0.0000

> <Gold.PLP.part.buried>
-3.7201

> <Gold.PLP.part.nonpolar>
-33.5228

> <Gold.PLP.part.repulsive>
3.5370

> <Gold.PLP.ligand.clash>
1.4219

> <Gold.PLP.ligand.torsion>
0.9510

> <Gold.PLP.Chemscore.Hbond>
3.2685

> <Gold.PLP.Chemscore.CHOScore>
2.0000

> <Gold.PLP.Chemscore.Metal>
0.0000

> <Gold.Chemscore.Hbonds>
donor molecule, donor type, donor heavy atom, donor atom, acceptor molecule, acceptor atom, score
      L1  H     8    34       P1  7948  0.30
      L1  H    11    35       P1  7948  1.00
      L1  H    18    48       P1 10957  1.95
      L1  C    15    38       P1  8028  1.00
      L1  C    17    39       P1 10175  1.00

> <Gold.PLP.Chemscore.Internal.Correction>
0.1080

> <Gold.Rescore>
     Score         DG    S(hbond)    S(metal)    S(lipo)     H(rot)  DE(clash)    DE(int)     intcor
     16.68     -20.46       2.11        0.00      99.33       1.44       1.53       2.25       ----

> <Gold.Chemscore.Fitness>
16.6828

> <Gold.Chemscore.DG>
-20.4626

> <Gold.Chemscore.ZeroCoef>
-5.4800

> <Gold.Chemscore.Hbond>
2.1104

> <Gold.Chemscore.Metal>
0.0000

> <Gold.Chemscore.Lipo>
99.3300

> <Gold.Chemscore.Internal_Hbond>
0.0000

> <Gold.Chemscore.DEClash>
1.5311

> <Gold.Chemscore.DEInternal>
2.2486

> <Gold.Chemscore.Rot>
1.4405

> <Gold.Chemscore.Internal.Correction>
   9.000000E+99

> <Gold.Chemscore.Hbonds>
donor molecule, donor type, donor heavy atom, donor atom, acceptor molecule, acceptor atom, score
      L1  H     8    34       P1  7948  0.29
      L1  H    11    35       P1  7948  0.92
      L1  H    18    48       P1 10957  0.91

> <Gold.Chemscore.Hbond.Weighted>
-7.0487

> <Gold.Chemscore.Metal.Weighted>
-0.0000

> <Gold.Chemscore.Lipo.Weighted>
-11.6216

> <Gold.Chemscore.Internal_Hbond.Weighted>
0.0000

> <Gold.Chemscore.DEClash.Weighted>
1.5311

> <Gold.Chemscore.DEInternal.Weighted>
2.2486

> <Gold.Chemscore.Rot.Weighted>
3.6878

> <Gold.Chemscore.Internal.Correction.Weighted>
   9.000000E+99

> <Gold.Protein.RotatedTorsions>
[ 6907 6896 6895 6894 ] final  -85.75 input  -60.11 | X-H torsion
[ 7974 7965 7964 7962 ] final -116.81 input  175.53 | X-H torsion
[ 8008 7997 7996 7995 ] final  138.68 input   59.86 | X-H torsion
[ 10167 10162 10161 10158 ] final -172.40 input  -65.29 | X-H torsion
[ 10718 10713 10712 10709 ] final -151.65 input   66.30 | X-H torsion
[ 10763 10752 10751 10750 ] final  -14.79 input  -60.55 | X-H torsion
[ 11005 11000 10999 10996 ] final  -76.93 input  -57.11 | X-H torsion

> <Gold.Protein.ActiveResidues>
 VAL166  LYS551  ARG553  GLY616  TRP617  ASP618  TYR619  PRO620  LYS621  CYS622 
 ASP623  PHE694  ASN695  SER759  ASP760  ASP761  ALA762  ILE779  LEU786  VAL792 
 PHE793  MET794  SER795  GLU796  ALA797  LYS798  CYS799  TRP800  GLU811  SER814 

> <Gold.Protein.RotatedAtoms>
  150.6869  134.3157  159.4764 H   0  0  0  0  0  0  0  0  0  0  0  0  # atno 6907 bound_to 6896
  152.1038  134.9320  160.0578 H   0  0  0  0  0  0  0  0  0  0  0  0  # atno 6908 bound_to 6896
  152.0589  133.4018  159.4446 H   0  0  0  0  0  0  0  0  0  0  0  0  # atno 6909 bound_to 6896
  145.0924  140.8499  143.3974 H   0  0  0  0  0  0  0  0  0  0  0  0  # atno 7974 bound_to 7965
  156.2995  140.2387  156.4113 H   0  0  0  0  0  0  0  0  0  0  0  0  # atno 8008 bound_to 7997
  154.8438  140.0427  157.1579 H   0  0  0  0  0  0  0  0  0  0  0  0  # atno 8009 bound_to 7997
  154.9073  140.2985  155.5289 H   0  0  0  0  0  0  0  0  0  0  0  0  # atno 8010 bound_to 7997
  139.5747  144.1561  152.1433 H   0  0  0  0  0  0  0  0  0  0  0  0  # atno 10167 bound_to 10162
  156.4621  130.8218  151.2449 H   0  0  0  0  0  0  0  0  0  0  0  0  # atno 10718 bound_to 10713
  153.5336  135.7014  153.5671 H   0  0  0  0  0  0  0  0  0  0  0  0  # atno 10763 bound_to 10752
  153.3668  135.3955  155.1759 H   0  0  0  0  0  0  0  0  0  0  0  0  # atno 10764 bound_to 10752
  154.8682  135.3802  154.4834 H   0  0  0  0  0  0  0  0  0  0  0  0  # atno 10765 bound_to 10752
  141.1657  133.7002  156.7743 H   0  0  0  0  0  0  0  0  0  0  0  0  # atno 11005 bound_to 11000
  145.1050  139.2796  143.5667 LP  0  0  0  0  0  0  0  0  0  0  0  0  # atno 17320 bound_to 7965
  146.3531  140.0628  142.8628 LP  0  0  0  0  0  0  0  0  0  0  0  0  # atno 17321 bound_to 7965
  140.1101  144.5464  150.6931 LP  0  0  0  0  0  0  0  0  0  0  0  0  # atno 17342 bound_to 10162
  140.7030  143.2448  151.4810 LP  0  0  0  0  0  0  0  0  0  0  0  0  # atno 17343 bound_to 10162
  157.7497  131.0104  150.3304 LP  0  0  0  0  0  0  0  0  0  0  0  0  # atno 17370 bound_to 10713
  156.3706  130.3863  149.7179 LP  0  0  0  0  0  0  0  0  0  0  0  0  # atno 17371 bound_to 10713
  140.2441  134.8591  157.3602 LP  0  0  0  0  0  0  0  0  0  0  0  0  # atno 17394 bound_to 11000
  140.1767  134.4541  155.7797 LP  0  0  0  0  0  0  0  0  0  0  0  0  # atno 17395 bound_to 11000

$$$$
