AV-unprocessed.smi:160|AV-procd|sdf|1350|dock10
  -GOLD-   2262019 53D 1   1.00000     0.00000
 Structure written by MMmdl.
 29 30  0  0  0  0  0  0  0  0  1 V2000
  154.4226  138.1761  159.3973 N   0  0  0  0  0  0  0  0  0  0  0  0
  153.1562  137.7503  159.4493 C   0  0  0  0  0  0  0  0  0  0  0  0
  152.7921  136.8589  160.2146 O   0  0  0  0  0  0  0  0  0  0  0  0
  152.1904  138.4220  158.5128 C   0  0  0  0  0  0  0  0  0  0  0  0
  150.8655  138.0903  158.5059 N   0  0  0  0  0  0  0  0  0  0  0  0
  150.4484  138.9198  157.5580 C   0  0  0  0  0  0  0  0  0  0  0  0
  151.4139  139.6776  157.0275 N   0  0  0  0  0  0  0  0  0  0  0  0
  151.3264  140.7328  155.9631 C   0  0  1  0  0  0  0  0  0  0  0  0
  150.8411  140.1208  154.8088 O   0  0  0  0  0  0  0  0  0  0  0  0
  149.4910  140.5047  154.5422 C   0  0  1  0  0  0  0  0  0  0  0  0
  148.6294  139.2559  154.2938 C   0  0  0  0  0  0  0  0  0  0  0  0
  149.1764  138.4898  153.2419 O   0  0  0  0  0  0  0  0  0  0  0  0
  149.0353  141.3300  155.7568 C   0  0  2  0  0  0  0  0  0  0  0  0
  148.2002  142.3942  155.3453 O   0  0  0  0  0  0  0  0  0  0  0  0
  150.3444  141.8605  156.3219 C   0  0  1  0  0  0  0  0  0  0  0  0
  150.2488  142.1206  157.7108 O   0  0  0  0  0  0  0  0  0  0  0  0
  152.5757  139.3702  157.6575 N   0  0  0  0  0  0  0  0  0  0  0  0
  152.3549  141.0724  155.8347 H   0  0  0  0  0  0  0  0  0  0  0  0
  149.5048  141.1437  153.6570 H   0  0  0  0  0  0  0  0  0  0  0  0
  148.5172  140.7035  156.4843 H   0  0  0  0  0  0  0  0  0  0  0  0
  150.6608  142.7586  155.7893 H   0  0  0  0  0  0  0  0  0  0  0  0
  155.1182  137.7622  160.0005 H   0  0  0  0  0  0  0  0  0  0  0  0
  154.6748  138.9099  158.7511 H   0  0  0  0  0  0  0  0  0  0  0  0
  149.4166  138.9756  157.2432 H   0  0  0  0  0  0  0  0  0  0  0  0
  148.5341  138.6499  155.1950 H   0  0  0  0  0  0  0  0  0  0  0  0
  147.6230  139.5485  153.9929 H   0  0  0  0  0  0  0  0  0  0  0  0
  149.2915  139.0502  152.4898 H   0  0  0  0  0  0  0  0  0  0  0  0
  148.7149  143.1860  155.3150 H   0  0  0  0  0  0  0  0  0  0  0  0
  150.3758  143.0459  157.8540 H   0  0  0  0  0  0  0  0  0  0  0  0
  1  2  1  0  0  0  0
  1 22  1  0  0  0  0
  1 23  1  0  0  0  0
  2  3  2  0  0  0  0
  2  4  1  0  0  0  0
  4 17  2  0  0  0  0
  4  5  1  0  0  0  0
  5  6  2  0  0  0  0
  6  7  1  0  0  0  0
  6 24  1  0  0  0  0
  7  8  1  0  0  0  0
  7 17  1  0  0  0  0
  8 18  1  0  0  0  0
  8 15  1  0  0  0  0
  8  9  1  0  0  0  0
  9 10  1  0  0  0  0
 10 19  1  0  0  0  0
 10 11  1  0  0  0  0
 10 13  1  0  0  0  0
 11 12  1  0  0  0  0
 11 25  1  0  0  0  0
 11 26  1  0  0  0  0
 12 27  1  0  0  0  0
 13 20  1  0  0  0  0
 13 14  1  0  0  0  0
 13 15  1  0  0  0  0
 14 28  1  0  0  0  0
 15 21  1  0  0  0  0
 15 16  1  0  0  0  0
 16 29  1  0  0  0  0
M  END
> <s_m_source_file>
AV-unprocessed.smi

> <i_m_source_file_index>
160

> <i_lp_mmshare_version>
43012

> <i_f3d_flags>
0

> <s_epik_input>
W05IMl1DKD1PKWMxbltjSF1uKG4xKVtDQEBIXTJPW0NASF0oW0NIMl1bT0hdKVtDQEBIXShbT0hdKVtDQEhdMltPSF0=

> <s_epik_cmdline>
J2VwaWtfcHl0aG9uJywgJy1waCcsICc3LjAnLCAnLXRuJywgJzgnLCAnLW1hJywgJzIwMCcsICctbWV0YWxfYmluZGluZycsICctaW1hZScsICc8aW5maWxlLm1hZT4nLCAnLW9tYWUnLCAnPG91dGZpbGUubWFlPic=

> <r_lp_tautomer_probability>
1

> <r_epik_Ionization_Penalty>
1.06932e-05

> <r_epik_Ionization_Penalty_Charging>
0

> <r_epik_Ionization_Penalty_Neutral>
1.06932e-05

> <r_epik_State_Penalty>
-0

> <r_epik_Charging_Adjusted_Penalty>
0

> <i_epik_Tot_Q>
0

> <i_epik_Tot_abs_Q>
0

> <r_epik_Metal_State_Penalty>
0.0142097

> <b_epik_Metal_Only>
0

> <s_epik_Chemistry_Notes>
This compound contains an acetal/aminal-like group ( X-CH(R)-Y where X, Y are N, S, or O) that may be acid/base labile, releasing an aldehyde.

> <s_lp_Force_Field>
OPLS_2005

> <r_lp_Energy>
40.695

> <b_lp_Chiralities_Consistent>
1

> <s_lp_Variant>
AV-unprocessed.smi:160-8

> <Gold.Version>
5.8.1

> <Gold.Id.Protein>
6NUR|6NUR_protein|mol2

> <Gold.PLP.Fitness>
39.1305

> <Gold.PLP.PLP>
-24.1776

> <Gold.PLP.part.hbond>
-5.8735

> <Gold.PLP.part.metal>
0.0000

> <Gold.PLP.part.buried>
-4.5865

> <Gold.PLP.part.nonpolar>
-14.1082

> <Gold.PLP.part.repulsive>
0.1420

> <Gold.PLP.ligand.clash>
0.0000

> <Gold.PLP.ligand.torsion>
0.0171

> <Gold.PLP.Chemscore.Hbond>
4.9920

> <Gold.PLP.Chemscore.CHOScore>
0.0000

> <Gold.PLP.Chemscore.Metal>
0.0000

> <Gold.Chemscore.Hbonds>
donor molecule, donor type, donor heavy atom, donor atom, acceptor molecule, acceptor atom, score
      L1  H    12    27       P1  7957  1.00
      L1  H    14    28       P1  8028  0.99
      P1  H  6896  6908       L1     3  1.00
      P1  H  7989  7998       L1     9  1.00
      P1  H  7997  8010       L1    17  0.67

> <Gold.PLP.Chemscore.Internal.Correction>
0.0110

> <Gold.Rescore>
     Score         DG    S(hbond)    S(metal)    S(lipo)     H(rot)  DE(clash)    DE(int)     intcor
     13.15     -13.22       4.60        0.00      23.66       4.06       0.01       0.06       ----

> <Gold.Chemscore.Fitness>
13.1503

> <Gold.Chemscore.DG>
-13.2174

> <Gold.Chemscore.ZeroCoef>
-5.4800

> <Gold.Chemscore.Hbond>
4.5998

> <Gold.Chemscore.Metal>
0.0000

> <Gold.Chemscore.Lipo>
23.6551

> <Gold.Chemscore.Internal_Hbond>
0.0000

> <Gold.Chemscore.DEClash>
0.0073

> <Gold.Chemscore.DEInternal>
0.0598

> <Gold.Chemscore.Rot>
4.0600

> <Gold.Chemscore.Internal.Correction>
   9.000000E+99

> <Gold.Chemscore.Hbonds>
donor molecule, donor type, donor heavy atom, donor atom, acceptor molecule, acceptor atom, score
      L1  H    12    27       P1  7957  0.98
      L1  H    14    28       P1  8028  0.90
      P1  H  6896  6908       L1     3  0.97
      P1  H  7989  7998       L1     9  0.14
      P1  H  7997  8010       L1    17  0.65

> <Gold.Chemscore.Hbond.Weighted>
-15.3634

> <Gold.Chemscore.Metal.Weighted>
-0.0000

> <Gold.Chemscore.Lipo.Weighted>
-2.7676

> <Gold.Chemscore.Internal_Hbond.Weighted>
0.0000

> <Gold.Chemscore.DEClash.Weighted>
0.0073

> <Gold.Chemscore.DEInternal.Weighted>
0.0598

> <Gold.Chemscore.Rot.Weighted>
10.3936

> <Gold.Chemscore.Internal.Correction.Weighted>
   9.000000E+99

> <Gold.Protein.RotatedTorsions>
[ 6907 6896 6895 6894 ] final  -85.79 input  -60.11 | X-H torsion
[ 7974 7965 7964 7962 ] final   83.84 input  175.53 | X-H torsion
[ 8008 7997 7996 7995 ] final   46.43 input   59.86 | X-H torsion
[ 10167 10162 10161 10158 ] final  -52.11 input  -65.29 | X-H torsion
[ 10718 10713 10712 10709 ] final  121.88 input   66.30 | X-H torsion
[ 10763 10752 10751 10750 ] final  103.95 input  -60.55 | X-H torsion
[ 11005 11000 10999 10996 ] final   70.42 input  -57.11 | X-H torsion

> <Gold.Protein.ActiveResidues>
 VAL166  LYS551  ARG553  GLY616  TRP617  ASP618  TYR619  PRO620  LYS621  CYS622 
 ASP623  PHE694  ASN695  SER759  ASP760  ASP761  ALA762  ILE779  LEU786  VAL792 
 PHE793  MET794  SER795  GLU796  ALA797  LYS798  CYS799  TRP800  GLU811  SER814 

> <Gold.Protein.RotatedAtoms>
  150.6869  134.3151  159.4762 H   0  0  0  0  0  0  0  0  0  0  0  0  # atno 6907 bound_to 6896
  152.1033  134.9324  160.0578 H   0  0  0  0  0  0  0  0  0  0  0  0  # atno 6908 bound_to 6896
  152.0595  133.4021  159.4448 H   0  0  0  0  0  0  0  0  0  0  0  0  # atno 6909 bound_to 6896
  145.6066  139.2361  143.2215 H   0  0  0  0  0  0  0  0  0  0  0  0  # atno 7974 bound_to 7965
  155.3523  140.3414  155.4239 H   0  0  0  0  0  0  0  0  0  0  0  0  # atno 8008 bound_to 7997
  156.1757  140.1647  156.8401 H   0  0  0  0  0  0  0  0  0  0  0  0  # atno 8009 bound_to 7997
  154.5280  140.0752  156.8276 H   0  0  0  0  0  0  0  0  0  0  0  0  # atno 8010 bound_to 7997
  140.6554  143.2595  151.4601 H   0  0  0  0  0  0  0  0  0  0  0  0  # atno 10167 bound_to 10162
  157.5784  131.1077  150.8234 H   0  0  0  0  0  0  0  0  0  0  0  0  # atno 10718 bound_to 10713
  153.3595  135.3959  155.1707 H   0  0  0  0  0  0  0  0  0  0  0  0  # atno 10763 bound_to 10752
  154.8676  135.3676  154.5118 H   0  0  0  0  0  0  0  0  0  0  0  0  # atno 10764 bound_to 10752
  153.5576  135.7081  153.5622 H   0  0  0  0  0  0  0  0  0  0  0  0  # atno 10765 bound_to 10752
  139.9598  134.7080  156.0671 H   0  0  0  0  0  0  0  0  0  0  0  0  # atno 11005 bound_to 11000
  146.1536  140.6890  142.9310 LP  0  0  0  0  0  0  0  0  0  0  0  0  # atno 17320 bound_to 7965
  144.7287  140.4605  143.6954 LP  0  0  0  0  0  0  0  0  0  0  0  0  # atno 17321 bound_to 7965
  139.5776  144.1784  152.1924 LP  0  0  0  0  0  0  0  0  0  0  0  0  # atno 17342 bound_to 10162
  140.1099  144.5466  150.6932 LP  0  0  0  0  0  0  0  0  0  0  0  0  # atno 17343 bound_to 10162
  156.8687  130.5138  149.5298 LP  0  0  0  0  0  0  0  0  0  0  0  0  # atno 17370 bound_to 10713
  156.0829  130.5835  150.9596 LP  0  0  0  0  0  0  0  0  0  0  0  0  # atno 17371 bound_to 10713
  141.1274  133.6595  156.3374 LP  0  0  0  0  0  0  0  0  0  0  0  0  # atno 17394 bound_to 11000
  140.5525  134.6013  157.5412 LP  0  0  0  0  0  0  0  0  0  0  0  0  # atno 17395 bound_to 11000

$$$$
