AV-unprocessed.smi:443|AV-procd|sdf|2586|dock3
  -GOLD-   2262022573D 1   1.00000     0.00000
 Structure written by MMmdl.
 48 49  0  0  0  0  0  0  0  0  1 V2000
  147.1674  137.3476  163.6534 C   0  0  0  0  0  0  0  0  0  0  0  0
  147.2926  136.6870  162.3073 C   0  0  0  0  0  0  0  0  0  0  0  0
  147.7274  137.4245  161.3389 N   0  0  0  0  0  0  0  0  0  0  0  0
  147.8788  136.9186  160.0632 N   0  0  0  0  0  0  0  0  0  0  0  0
  148.4373  137.8753  159.1017 C   0  0  0  0  0  0  0  0  0  0  0  0
  149.9726  137.9969  159.2548 C   0  0  1  0  0  0  0  0  0  0  0  0
  150.5645  136.7374  159.0076 O   0  0  0  0  0  0  0  0  0  0  0  0
  150.5924  139.0007  158.2715 C   0  0  0  0  0  0  0  0  0  0  0  0
  151.7798  139.5284  158.8479 O   0  0  0  0  0  0  0  0  0  0  0  0
  151.9493  140.8975  158.8873 C   0  0  0  0  0  0  0  0  0  0  0  0
  151.2434  141.7872  158.0361 C   0  0  0  0  0  0  0  0  0  0  0  0
  151.4597  143.1754  158.1061 C   0  0  0  0  0  0  0  0  0  0  0  0
  152.3841  143.6969  159.0260 C   0  0  0  0  0  0  0  0  0  0  0  0
  153.0876  142.8277  159.8776 C   0  0  0  0  0  0  0  0  0  0  0  0
  152.8769  141.4310  159.8203 C   0  0  0  0  0  0  0  0  0  0  0  0
  153.6515  140.5230  160.7773 C   0  0  0  0  0  0  0  0  0  0  0  0
  154.2544  141.3211  161.9452 C   0  0  0  0  0  0  0  0  0  0  0  0
  154.7225  139.7039  160.0401 C   0  0  0  0  0  0  0  0  0  0  0  0
  147.5932  135.6375  159.6949 C   0  0  0  0  0  0  0  0  0  0  0  0
  147.7496  135.2270  158.5441 O   0  0  0  0  0  0  0  0  0  0  0  0
  147.1002  134.8076  160.7965 C   0  0  0  0  0  0  0  0  0  0  0  0
  146.7878  133.4571  160.4555 C   0  0  0  0  0  0  0  0  0  0  0  0
  146.5547  132.3559  160.1852 N   0  0  0  0  0  0  0  0  0  0  0  0
  146.9568  135.2885  162.0566 C   0  0  0  0  0  0  0  0  0  0  0  0
  146.4554  134.4627  163.2335 C   0  0  0  0  0  0  0  0  0  0  0  0
  146.2082  137.1171  164.1167 H   0  0  0  0  0  0  0  0  0  0  0  0
  147.2362  138.4326  163.5771 H   0  0  0  0  0  0  0  0  0  0  0  0
  147.9586  137.0102  164.3231 H   0  0  0  0  0  0  0  0  0  0  0  0
  148.1572  137.6072  158.0807 H   0  0  0  0  0  0  0  0  0  0  0  0
  147.9662  138.8476  159.2590 H   0  0  0  0  0  0  0  0  0  0  0  0
  150.2392  138.2938  160.2704 H   0  0  0  0  0  0  0  0  0  0  0  0
  150.6137  136.6064  158.0731 H   0  0  0  0  0  0  0  0  0  0  0  0
  150.8334  138.4894  157.3379 H   0  0  0  0  0  0  0  0  0  0  0  0
  149.8843  139.8014  158.0502 H   0  0  0  0  0  0  0  0  0  0  0  0
  150.5267  141.4301  157.3125 H   0  0  0  0  0  0  0  0  0  0  0  0
  150.9164  143.8403  157.4511 H   0  0  0  0  0  0  0  0  0  0  0  0
  152.5527  144.7624  159.0803 H   0  0  0  0  0  0  0  0  0  0  0  0
  153.7932  143.2430  160.5818 H   0  0  0  0  0  0  0  0  0  0  0  0
  152.9674  139.8015  161.2213 H   0  0  0  0  0  0  0  0  0  0  0  0
  153.4762  141.8430  162.5030 H   0  0  0  0  0  0  0  0  0  0  0  0
  154.9734  142.0647  161.6012 H   0  0  0  0  0  0  0  0  0  0  0  0
  154.7755  140.6659  162.6432 H   0  0  0  0  0  0  0  0  0  0  0  0
  154.2770  139.1020  159.2477 H   0  0  0  0  0  0  0  0  0  0  0  0
  155.2317  139.0231  160.7227 H   0  0  0  0  0  0  0  0  0  0  0  0
  155.4805  140.3432  159.5869 H   0  0  0  0  0  0  0  0  0  0  0  0
  146.4188  133.3989  163.0010 H   0  0  0  0  0  0  0  0  0  0  0  0
  145.4499  134.7771  163.5147 H   0  0  0  0  0  0  0  0  0  0  0  0
  147.1081  134.5793  164.0992 H   0  0  0  0  0  0  0  0  0  0  0  0
  1  2  1  0  0  0  0
  1 26  1  0  0  0  0
  1 27  1  0  0  0  0
  1 28  1  0  0  0  0
  2 24  1  0  0  0  0
  2  3  2  0  0  0  0
  3  4  1  0  0  0  0
  4  5  1  0  0  0  0
  4 19  1  0  0  0  0
  5  6  1  0  0  0  0
  5 29  1  0  0  0  0
  5 30  1  0  0  0  0
  6  7  1  0  0  0  0
  6  8  1  0  0  0  0
  6 31  1  0  0  0  0
  7 32  1  0  0  0  0
  8  9  1  0  0  0  0
  8 33  1  0  0  0  0
  8 34  1  0  0  0  0
  9 10  1  0  0  0  0
 10 15  1  0  0  0  0
 10 11  2  0  0  0  0
 11 12  1  0  0  0  0
 11 35  1  0  0  0  0
 12 13  2  0  0  0  0
 12 36  1  0  0  0  0
 13 14  1  0  0  0  0
 13 37  1  0  0  0  0
 14 15  2  0  0  0  0
 14 38  1  0  0  0  0
 15 16  1  0  0  0  0
 16 17  1  0  0  0  0
 16 18  1  0  0  0  0
 16 39  1  0  0  0  0
 17 40  1  0  0  0  0
 17 41  1  0  0  0  0
 17 42  1  0  0  0  0
 18 43  1  0  0  0  0
 18 44  1  0  0  0  0
 18 45  1  0  0  0  0
 19 20  2  0  0  0  0
 19 21  1  0  0  0  0
 21 22  1  0  0  0  0
 21 24  2  0  0  0  0
 22 23  3  0  0  0  0
 24 25  1  0  0  0  0
 25 46  1  0  0  0  0
 25 47  1  0  0  0  0
 25 48  1  0  0  0  0
M  END
> <s_m_source_file>
AV-unprocessed.smi

> <i_m_source_file_index>
443

> <i_lp_mmshare_version>
43012

> <i_f3d_flags>
0

> <s_epik_input>
TiNDYyhjMVtDSDNdKWMoPU8pbihuYzFbQ0gzXSlbQ0gyXVtDQEhdKFtPSF0pW0NIMl1PYzJbY0hdW2NIXVtjSF1bY0hdYzJbQ0hdKFtDSDNdKVtDSDNd

> <s_epik_cmdline>
J2VwaWtfcHl0aG9uJywgJy1waCcsICc3LjAnLCAnLXRuJywgJzgnLCAnLW1hJywgJzIwMCcsICctbWV0YWxfYmluZGluZycsICctaW1hZScsICc8aW5maWxlLm1hZT4nLCAnLW9tYWUnLCAnPG91dGZpbGUubWFlPic=

> <r_lp_tautomer_probability>
1

> <r_epik_Ionization_Penalty>
1.17331e-07

> <r_epik_Ionization_Penalty_Charging>
1.57223e-10

> <r_epik_Ionization_Penalty_Neutral>
1.17174e-07

> <r_epik_State_Penalty>
-0

> <r_epik_Charging_Adjusted_Penalty>
1.57223e-10

> <i_epik_Tot_Q>
0

> <i_epik_Tot_abs_Q>
0

> <r_epik_Metal_State_Penalty>
-0

> <b_epik_Metal_Only>
0

> <s_lp_Force_Field>
OPLS_2005

> <r_lp_Energy>
30.2937

> <b_lp_Chiralities_Consistent>
1

> <s_lp_Variant>
AV-unprocessed.smi:443-2

> <Gold.Version>
5.8.1

> <Gold.Id.Protein>
6NUR|6NUR_protein|mol2

> <Gold.PLP.Fitness>
57.6655

> <Gold.PLP.PLP>
-53.3828

> <Gold.PLP.part.hbond>
-3.2117

> <Gold.PLP.part.metal>
0.0000

> <Gold.PLP.part.buried>
-5.3353

> <Gold.PLP.part.nonpolar>
-46.0202

> <Gold.PLP.part.repulsive>
0.0000

> <Gold.PLP.ligand.clash>
0.0000

> <Gold.PLP.ligand.torsion>
1.5901

> <Gold.PLP.Chemscore.Hbond>
2.4320

> <Gold.PLP.Chemscore.CHOScore>
0.0000

> <Gold.PLP.Chemscore.Metal>
0.0000

> <Gold.Chemscore.Hbonds>
donor molecule, donor type, donor heavy atom, donor atom, acceptor molecule, acceptor atom, score
      P1  H  6896  6907       L1     7  1.00
      P1  H  6931  6943       L1     3  0.86
      P1  H  6934  6947       L1     3  0.71

> <Gold.PLP.Chemscore.Internal.Correction>
0.1669

> <Gold.Rescore>
     Score         DG    S(hbond)    S(metal)    S(lipo)     H(rot)  DE(clash)    DE(int)     intcor
     20.22     -21.42       2.05        0.00     130.35       2.41       0.05       1.15       ----

> <Gold.Chemscore.Fitness>
20.2170

> <Gold.Chemscore.DG>
-21.4231

> <Gold.Chemscore.ZeroCoef>
-5.4800

> <Gold.Chemscore.Hbond>
2.0531

> <Gold.Chemscore.Metal>
0.0000

> <Gold.Chemscore.Lipo>
130.3536

> <Gold.Chemscore.Internal_Hbond>
0.0000

> <Gold.Chemscore.DEClash>
0.0516

> <Gold.Chemscore.DEInternal>
1.1546

> <Gold.Chemscore.Rot>
2.4084

> <Gold.Chemscore.Internal.Correction>
   9.000000E+99

> <Gold.Chemscore.Hbonds>
donor molecule, donor type, donor heavy atom, donor atom, acceptor molecule, acceptor atom, score
      P1  H  6896  6907       L1     7  0.63
      P1  H  6931  6943       L1     3  0.46
      P1  H  6934  6947       L1     3  0.16

> <Gold.Chemscore.Hbond.Weighted>
-6.8572

> <Gold.Chemscore.Metal.Weighted>
-0.0000

> <Gold.Chemscore.Lipo.Weighted>
-15.2514

> <Gold.Chemscore.Internal_Hbond.Weighted>
0.0000

> <Gold.Chemscore.DEClash.Weighted>
0.0516

> <Gold.Chemscore.DEInternal.Weighted>
1.1546

> <Gold.Chemscore.Rot.Weighted>
6.1655

> <Gold.Chemscore.Internal.Correction.Weighted>
   9.000000E+99

> <Gold.Protein.RotatedTorsions>
[ 6907 6896 6895 6894 ] final  -18.50 input  -60.11 | X-H torsion
[ 7974 7965 7964 7962 ] final -134.25 input  175.53 | X-H torsion
[ 8008 7997 7996 7995 ] final  112.58 input   59.86 | X-H torsion
[ 10167 10162 10161 10158 ] final   -1.55 input  -65.29 | X-H torsion
[ 10718 10713 10712 10709 ] final  125.18 input   66.30 | X-H torsion
[ 10763 10752 10751 10750 ] final   45.36 input  -60.55 | X-H torsion
[ 11005 11000 10999 10996 ] final  -95.27 input  -57.11 | X-H torsion

> <Gold.Protein.ActiveResidues>
 VAL166  LYS551  ARG553  GLY616  TRP617  ASP618  TYR619  PRO620  LYS621  CYS622 
 ASP623  PHE694  ASN695  SER759  ASP760  ASP761  ALA762  ILE779  LEU786  VAL792 
 PHE793  MET794  SER795  GLU796  ALA797  LYS798  CYS799  TRP800  GLU811  SER814 

> <Gold.Protein.RotatedAtoms>
  151.2772  135.0703  159.9155 H   0  0  0  0  0  0  0  0  0  0  0  0  # atno 6907 bound_to 6896
  152.5340  134.0068  159.7930 H   0  0  0  0  0  0  0  0  0  0  0  0  # atno 6908 bound_to 6896
  151.0316  133.5734  159.2691 H   0  0  0  0  0  0  0  0  0  0  0  0  # atno 6909 bound_to 6896
  144.9119  140.6906  143.5019 H   0  0  0  0  0  0  0  0  0  0  0  0  # atno 7974 bound_to 7965
  156.2202  140.2996  155.9933 H   0  0  0  0  0  0  0  0  0  0  0  0  # atno 8008 bound_to 7997
  155.2502  140.0425  157.3003 H   0  0  0  0  0  0  0  0  0  0  0  0  # atno 8009 bound_to 7997
  154.5828  140.2380  155.8037 H   0  0  0  0  0  0  0  0  0  0  0  0  # atno 8010 bound_to 7997
  140.6815  143.6762  150.8144 H   0  0  0  0  0  0  0  0  0  0  0  0  # atno 10167 bound_to 10162
  157.5524  131.1093  150.8679 H   0  0  0  0  0  0  0  0  0  0  0  0  # atno 10718 bound_to 10713
  152.9826  135.6042  154.3424 H   0  0  0  0  0  0  0  0  0  0  0  0  # atno 10763 bound_to 10752
  154.3120  135.2771  155.2563 H   0  0  0  0  0  0  0  0  0  0  0  0  # atno 10764 bound_to 10752
  154.4768  135.5927  153.6417 H   0  0  0  0  0  0  0  0  0  0  0  0  # atno 10765 bound_to 10752
  141.1447  133.8014  157.0412 H   0  0  0  0  0  0  0  0  0  0  0  0  # atno 11005 bound_to 11000
  145.3439  139.1724  143.4471 LP  0  0  0  0  0  0  0  0  0  0  0  0  # atno 17320 bound_to 7965
  146.3163  140.3484  142.8654 LP  0  0  0  0  0  0  0  0  0  0  0  0  # atno 17321 bound_to 7965
  140.0463  143.5295  152.2695 LP  0  0  0  0  0  0  0  0  0  0  0  0  # atno 17342 bound_to 10162
  139.6141  144.7615  151.2886 LP  0  0  0  0  0  0  0  0  0  0  0  0  # atno 17343 bound_to 10162
  156.9200  130.5311  149.5279 LP  0  0  0  0  0  0  0  0  0  0  0  0  # atno 17370 bound_to 10713
  156.0588  130.5645  150.9150 LP  0  0  0  0  0  0  0  0  0  0  0  0  # atno 17371 bound_to 10713
  140.0692  134.9712  157.1437 LP  0  0  0  0  0  0  0  0  0  0  0  0  # atno 17394 bound_to 11000
  140.3736  134.2363  155.7176 LP  0  0  0  0  0  0  0  0  0  0  0  0  # atno 17395 bound_to 11000

$$$$
