AV-unprocessed.smi:102|AV-procd|sdf|945|dock10
  -GOLD-   2262017463D 1   1.00000     0.00000
 Structure written by MMmdl.
 44 45  0  0  0  0  0  0  0  0  1 V2000
  147.1639  135.2048  160.1200 C   0  0  0  0  0  0  0  0  0  0  0  0
  148.1497  136.2895  160.5343 C   0  0  0  0  0  0  0  0  0  0  0  0
  147.8936  137.0756  161.4465 O   0  0  0  0  0  0  0  0  0  0  0  0
  149.2740  136.2695  159.8034 O   0  0  0  0  0  0  0  0  0  0  0  0
  150.3975  137.0278  160.2242 C   0  0  0  0  0  0  0  0  0  0  0  0
  150.8166  138.0140  159.1267 C   0  0  2  0  0  0  0  0  0  0  0  0
  149.6885  138.7227  158.6322 O   0  0  0  0  0  0  0  0  0  0  0  0
  149.9826  139.1881  157.3564 C   0  0  1  0  0  0  0  0  0  0  0  0
  150.5374  140.6060  157.4859 N   0  0  0  0  0  0  0  0  0  0  0  0
  151.5902  140.9310  158.3373 C   0  0  0  0  0  0  0  0  0  0  0  0
  152.0342  142.1953  158.5271 C   0  0  0  0  0  0  0  0  0  0  0  0
  153.0616  142.4187  159.3642 F   0  0  0  0  0  0  0  0  0  0  0  0
  151.3930  143.3179  157.8531 C   0  0  0  0  0  0  0  0  0  0  0  0
  151.7310  144.4960  157.9487 O   0  0  0  0  0  0  0  0  0  0  0  0
  150.3005  142.9609  157.0600 N   0  0  0  0  0  0  0  0  0  0  0  0
  149.8266  141.6623  156.8661 C   0  0  0  0  0  0  0  0  0  0  0  0
  148.8258  141.4828  156.1734 O   0  0  0  0  0  0  0  0  0  0  0  0
  150.9119  138.1413  156.7010 C   0  0  1  0  0  0  0  0  0  0  0  0
  151.8856  138.7029  155.8236 O   0  0  0  0  0  0  0  0  0  0  0  0
  152.3067  138.0165  154.7487 C   0  0  0  0  0  0  0  0  0  0  0  0
  153.6334  138.5372  154.2132 C   0  0  0  0  0  0  0  0  0  0  0  0
  151.7195  137.0766  154.2133 O   0  0  0  0  0  0  0  0  0  0  0  0
  151.4891  137.3732  157.8990 C   0  0  1  0  0  0  0  0  0  0  0  0
  152.9039  137.4883  158.0163 O   0  0  0  0  0  0  0  0  0  0  0  0
  153.5097  137.2768  159.1979 C   0  0  0  0  0  0  0  0  0  0  0  0
  154.7916  138.0852  159.3437 C   0  0  0  0  0  0  0  0  0  0  0  0
  153.1209  136.5200  160.0873 O   0  0  0  0  0  0  0  0  0  0  0  0
  149.8027  143.7079  156.5978 H   0  0  0  0  0  0  0  0  0  0  0  0
  147.6868  134.3529  159.6842 H   0  0  0  0  0  0  0  0  0  0  0  0
  146.4625  135.5957  159.3826 H   0  0  0  0  0  0  0  0  0  0  0  0
  146.5985  134.8561  160.9844 H   0  0  0  0  0  0  0  0  0  0  0  0
  150.1561  137.5685  161.1402 H   0  0  0  0  0  0  0  0  0  0  0  0
  151.2274  136.3566  160.4498 H   0  0  0  0  0  0  0  0  0  0  0  0
  151.4856  138.7529  159.5693 H   0  0  0  0  0  0  0  0  0  0  0  0
  149.0683  139.2754  156.7684 H   0  0  0  0  0  0  0  0  0  0  0  0
  152.0938  140.1585  158.8935 H   0  0  0  0  0  0  0  0  0  0  0  0
  150.2790  137.4432  156.1505 H   0  0  0  0  0  0  0  0  0  0  0  0
  154.3605  138.6289  155.0206 H   0  0  0  0  0  0  0  0  0  0  0  0
  153.4961  139.5172  153.7556 H   0  0  0  0  0  0  0  0  0  0  0  0
  154.0358  137.8574  153.4618 H   0  0  0  0  0  0  0  0  0  0  0  0
  151.1944  136.3259  157.8208 H   0  0  0  0  0  0  0  0  0  0  0  0
  154.5985  139.1408  159.1503 H   0  0  0  0  0  0  0  0  0  0  0  0
  155.5421  137.7339  158.6352 H   0  0  0  0  0  0  0  0  0  0  0  0
  155.1943  137.9869  160.3522 H   0  0  0  0  0  0  0  0  0  0  0  0
  1  2  1  0  0  0  0
  1 29  1  0  0  0  0
  1 30  1  0  0  0  0
  1 31  1  0  0  0  0
  2  3  2  0  0  0  0
  2  4  1  0  0  0  0
  4  5  1  0  0  0  0
  5  6  1  0  0  0  0
  5 32  1  0  0  0  0
  5 33  1  0  0  0  0
  6 23  1  0  0  0  0
  6  7  1  0  0  0  0
  6 34  1  0  0  0  0
  7  8  1  0  0  0  0
  8  9  1  0  0  0  0
  8 18  1  0  0  0  0
  8 35  1  0  0  0  0
  9 16  1  0  0  0  0
  9 10  1  0  0  0  0
 10 11  2  0  0  0  0
 10 36  1  0  0  0  0
 11 12  1  0  0  0  0
 11 13  1  0  0  0  0
 13 14  2  0  0  0  0
 13 15  1  0  0  0  0
 15 28  1  0  0  0  0
 15 16  1  0  0  0  0
 16 17  2  0  0  0  0
 18 19  1  0  0  0  0
 18 23  1  0  0  0  0
 18 37  1  0  0  0  0
 19 20  1  0  0  0  0
 20 21  1  0  0  0  0
 20 22  2  0  0  0  0
 21 38  1  0  0  0  0
 21 39  1  0  0  0  0
 21 40  1  0  0  0  0
 23 24  1  0  0  0  0
 23 41  1  0  0  0  0
 24 25  1  0  0  0  0
 25 26  1  0  0  0  0
 25 27  2  0  0  0  0
 26 42  1  0  0  0  0
 26 43  1  0  0  0  0
 26 44  1  0  0  0  0
M  END
> <s_m_source_file>
AV-unprocessed.smi

> <i_m_source_file_index>
102

> <i_lp_mmshare_version>
43012

> <i_f3d_flags>
0

> <s_epik_input>
W0NIM11DKD1PKU9bQ0gyXVtDQEBIXTFPW0NASF0oW0NAQEhdKE9DKD1PKVtDSDNdKVtDQEhdMU9DKD1PKVtDSDNdKW4yW2NIXWMoRiljKD1PKVtuSF1jMj1P

> <s_epik_cmdline>
J2VwaWtfcHl0aG9uJywgJy1waCcsICc3LjAnLCAnLXRuJywgJzgnLCAnLW1hJywgJzIwMCcsICctbWV0YWxfYmluZGluZycsICctaW1hZScsICc8aW5maWxlLm1hZT4nLCAnLW9tYWUnLCAnPG91dGZpbGUubWFlPic=

> <r_lp_tautomer_probability>
0.999537

> <r_epik_Ionization_Penalty>
0.058267

> <r_epik_Ionization_Penalty_Charging>
0.058267

> <r_epik_Ionization_Penalty_Neutral>
6.57791e-16

> <r_epik_State_Penalty>
0.0503774

> <r_epik_Charging_Adjusted_Penalty>
0.108644

> <i_epik_Tot_Q>
0

> <i_epik_Tot_abs_Q>
0

> <r_epik_Metal_State_Penalty>
2.6644

> <b_epik_Metal_Only>
0

> <s_epik_Chemistry_Notes>
This compound has an ester and may undergo hydrolysis at high or low pH. This compound contains an acetal/aminal-like group ( X-CH(R)-Y where X, Y are N, S, or O) that may be acid/base labile, releasing an aldehyde.

> <s_lp_Force_Field>
OPLS_2005

> <r_lp_Energy>
14.9607

> <b_lp_Chiralities_Consistent>
1

> <s_lp_Variant>
AV-unprocessed.smi:102-1

> <Gold.Version>
5.8.1

> <Gold.Id.Protein>
6NUR|6NUR_protein|mol2

> <Gold.PLP.Fitness>
41.5502

> <Gold.PLP.PLP>
-30.5180

> <Gold.PLP.part.hbond>
-5.4717

> <Gold.PLP.part.metal>
0.0000

> <Gold.PLP.part.buried>
-3.9628

> <Gold.PLP.part.nonpolar>
-24.1815

> <Gold.PLP.part.repulsive>
0.9382

> <Gold.PLP.ligand.clash>
0.0000

> <Gold.PLP.ligand.torsion>
1.9132

> <Gold.PLP.Chemscore.Hbond>
4.8880

> <Gold.PLP.Chemscore.CHOScore>
0.0000

> <Gold.PLP.Chemscore.Metal>
0.0000

> <Gold.Chemscore.Hbonds>
donor molecule, donor type, donor heavy atom, donor atom, acceptor molecule, acceptor atom, score
      L1  H    15    28       P1  8028  1.00
      P1  H  6896  6908       L1    27  0.99
      P1  H  6931  6943       L1     3  1.00
      P1  H  6934  6947       L1     3  0.54
      P1  H 10752 10765       L1    22  1.00

> <Gold.PLP.Chemscore.Internal.Correction>
0.1947

> <Gold.Rescore>
     Score         DG    S(hbond)    S(metal)    S(lipo)     H(rot)  DE(clash)    DE(int)     intcor
     12.14     -16.11       4.54        0.00      49.95       4.05       1.25       2.72       ----

> <Gold.Chemscore.Fitness>
12.1427

> <Gold.Chemscore.DG>
-16.1101

> <Gold.Chemscore.ZeroCoef>
-5.4800

> <Gold.Chemscore.Hbond>
4.5386

> <Gold.Chemscore.Metal>
0.0000

> <Gold.Chemscore.Lipo>
49.9505

> <Gold.Chemscore.Internal_Hbond>
0.0000

> <Gold.Chemscore.DEClash>
1.2498

> <Gold.Chemscore.DEInternal>
2.7175

> <Gold.Chemscore.Rot>
4.0520

> <Gold.Chemscore.Internal.Correction>
   9.000000E+99

> <Gold.Chemscore.Hbonds>
donor molecule, donor type, donor heavy atom, donor atom, acceptor molecule, acceptor atom, score
      L1  H    15    28       P1  8028  1.00
      P1  H  6896  6908       L1    27  0.94
      P1  H  6931  6943       L1     3  0.96
      P1  H  6934  6947       L1     3  0.52
      P1  H 10752 10765       L1    22  0.44

> <Gold.Chemscore.Hbond.Weighted>
-15.1590

> <Gold.Chemscore.Metal.Weighted>
-0.0000

> <Gold.Chemscore.Lipo.Weighted>
-5.8442

> <Gold.Chemscore.Internal_Hbond.Weighted>
0.0000

> <Gold.Chemscore.DEClash.Weighted>
1.2498

> <Gold.Chemscore.DEInternal.Weighted>
2.7175

> <Gold.Chemscore.Rot.Weighted>
10.3732

> <Gold.Chemscore.Internal.Correction.Weighted>
   9.000000E+99

> <Gold.Protein.RotatedTorsions>
[ 6907 6896 6895 6894 ] final -107.88 input  -60.11 | X-H torsion
[ 7974 7965 7964 7962 ] final -132.80 input  175.53 | X-H torsion
[ 8008 7997 7996 7995 ] final   19.30 input   59.86 | X-H torsion
[ 10167 10162 10161 10158 ] final   73.00 input  -65.29 | X-H torsion
[ 10718 10713 10712 10709 ] final  139.17 input   66.30 | X-H torsion
[ 10763 10752 10751 10750 ] final  159.64 input  -60.55 | X-H torsion
[ 11005 11000 10999 10996 ] final  168.77 input  -57.11 | X-H torsion

> <Gold.Protein.ActiveResidues>
 VAL166  LYS551  ARG553  GLY616  TRP617  ASP618  TYR619  PRO620  LYS621  CYS622 
 ASP623  PHE694  ASN695  SER759  ASP760  ASP761  ALA762  ILE779  LEU786  VAL792 
 PHE793  MET794  SER795  GLU796  ALA797  LYS798  CYS799  TRP800  GLU811  SER814 

> <Gold.Protein.RotatedAtoms>
  150.7469  133.9760  159.3560 H   0  0  0  0  0  0  0  0  0  0  0  0  # atno 6907 bound_to 6896
  151.7698  135.0787  160.0367 H   0  0  0  0  0  0  0  0  0  0  0  0  # atno 6908 bound_to 6896
  152.3347  133.5961  159.5870 H   0  0  0  0  0  0  0  0  0  0  0  0  # atno 6909 bound_to 6896
  144.9252  140.7062  143.4940 H   0  0  0  0  0  0  0  0  0  0  0  0  # atno 7974 bound_to 7965
  154.9187  140.3024  155.5227 H   0  0  0  0  0  0  0  0  0  0  0  0  # atno 8008 bound_to 7997
  156.3011  140.2375  156.4171 H   0  0  0  0  0  0  0  0  0  0  0  0  # atno 8009 bound_to 7997
  154.8352  140.0416  157.1493 H   0  0  0  0  0  0  0  0  0  0  0  0  # atno 8010 bound_to 7997
  140.0292  144.5479  150.7520 H   0  0  0  0  0  0  0  0  0  0  0  0  # atno 10167 bound_to 10162
  157.4173  131.1035  151.0391 H   0  0  0  0  0  0  0  0  0  0  0  0  # atno 10718 bound_to 10713
  154.2350  135.2777  155.2875 H   0  0  0  0  0  0  0  0  0  0  0  0  # atno 10763 bound_to 10752
  154.5592  135.5652  153.6995 H   0  0  0  0  0  0  0  0  0  0  0  0  # atno 10764 bound_to 10752
  153.0012  135.6293  154.2493 H   0  0  0  0  0  0  0  0  0  0  0  0  # atno 10765 bound_to 10752
  140.2907  134.7676  157.3836 H   0  0  0  0  0  0  0  0  0  0  0  0  # atno 11005 bound_to 11000
  145.3231  139.1782  143.4577 LP  0  0  0  0  0  0  0  0  0  0  0  0  # atno 17320 bound_to 7965
  146.3223  140.3251  142.8636 LP  0  0  0  0  0  0  0  0  0  0  0  0  # atno 17321 bound_to 7965
  140.7309  143.2688  151.3954 LP  0  0  0  0  0  0  0  0  0  0  0  0  # atno 17342 bound_to 10162
  139.6087  144.1143  152.2276 LP  0  0  0  0  0  0  0  0  0  0  0  0  # atno 17343 bound_to 10162
  157.1334  130.6112  149.5535 LP  0  0  0  0  0  0  0  0  0  0  0  0  # atno 17370 bound_to 10713
  155.9869  130.4906  150.7101 LP  0  0  0  0  0  0  0  0  0  0  0  0  # atno 17371 bound_to 10713
  140.1198  134.5234  155.8193 LP  0  0  0  0  0  0  0  0  0  0  0  0  # atno 17394 bound_to 11000
  141.2147  133.6752  156.6845 LP  0  0  0  0  0  0  0  0  0  0  0  0  # atno 17395 bound_to 11000

$$$$
