AV-unprocessed.smi:1033|AV-procd|sdf|4494|dock2
  -GOLD-   22720 2483D 1   1.00000     0.00000
 Structure written by MMmdl.
 56 58  0  0  0  0  0  0  0  0  2 V2000
  152.0376  144.4208  160.6001 C   0  0  0  0  0  0  0  0  0  0  0  0
  152.2707  143.0367  160.0203 C   0  0  0  0  0  0  0  0  0  0  0  0
  153.2877  142.2244  160.5695 C   0  0  0  0  0  0  0  0  0  0  0  0
  153.5247  140.9249  160.0712 C   0  0  0  0  0  0  0  0  0  0  0  0
  154.4317  139.9612  160.4748 N   0  0  0  0  0  0  0  0  0  0  0  0
  154.1344  138.9546  159.6586 C   0  0  0  0  0  0  0  0  0  0  0  0
  153.1338  139.1488  158.7784 N   0  0  0  0  0  0  0  0  0  0  0  0
  152.6141  138.1800  157.8296 C   0  0  0  0  0  0  0  0  0  0  0  0
  151.2030  137.6838  158.2108 C   0  0  2  0  0  0  0  0  0  0  0  0
  151.2849  137.1394  159.5113 O   0  0  0  0  0  0  0  0  0  0  0  0
  150.6495  136.5930  157.2609 C   0  0  0  0  0  0  0  0  0  0  0  0
  150.7073  136.9076  155.8277 N   0  0  0  0  0  0  0  0  0  0  0  0
  150.8553  135.7420  154.9530 C   0  0  0  0  0  0  0  0  0  0  0  0
  149.5999  134.8479  154.8922 C   0  0  0  0  0  0  0  0  0  0  0  0
  148.3894  135.6233  154.5111 N   0  3  0  0  0  0  0  0  0  0  0  0
  147.1442  134.8104  154.5189 C   0  0  0  0  0  0  0  0  0  0  0  0
  146.9685  133.9189  153.2726 C   0  0  2  0  0  0  0  0  0  0  0  0
  148.1599  132.9813  153.0279 C   0  0  0  0  0  0  0  0  0  0  0  0
  146.8345  134.7608  152.1471 O   0  0  0  0  0  0  0  0  0  0  0  0
  148.2442  136.8377  155.3567 C   0  0  0  0  0  0  0  0  0  0  0  0
  149.5448  137.6668  155.3708 C   0  0  0  0  0  0  0  0  0  0  0  0
  152.7108  140.4559  158.9982 C   0  0  0  0  0  0  0  0  0  0  0  0
  151.7100  141.2639  158.4292 C   0  0  0  0  0  0  0  0  0  0  0  0
  151.4820  142.5571  158.9440 C   0  0  0  0  0  0  0  0  0  0  0  0
  150.3848  143.4131  158.3372 C   0  0  0  0  0  0  0  0  0  0  0  0
  152.7130  144.6235  161.4320 H   0  0  0  0  0  0  0  0  0  0  0  0
  151.0160  144.5142  160.9695 H   0  0  0  0  0  0  0  0  0  0  0  0
  152.2034  145.1854  159.8407 H   0  0  0  0  0  0  0  0  0  0  0  0
  153.8904  142.5897  161.3881 H   0  0  0  0  0  0  0  0  0  0  0  0
  154.6617  138.0135  159.7160 H   0  0  0  0  0  0  0  0  0  0  0  0
  152.6105  138.6258  156.8340 H   0  0  0  0  0  0  0  0  0  0  0  0
  153.3119  137.3419  157.7925 H   0  0  0  0  0  0  0  0  0  0  0  0
  150.5310  138.5399  158.2671 H   0  0  0  0  0  0  0  0  0  0  0  0
  150.5575  137.4651  160.0197 H   0  0  0  0  0  0  0  0  0  0  0  0
  151.1679  135.6552  157.4443 H   0  0  0  0  0  0  0  0  0  0  0  0
  149.6156  136.3829  157.5396 H   0  0  0  0  0  0  0  0  0  0  0  0
  151.0850  136.0878  153.9442 H   0  0  0  0  0  0  0  0  0  0  0  0
  151.7131  135.1423  155.2551 H   0  0  0  0  0  0  0  0  0  0  0  0
  149.7815  134.0515  154.1719 H   0  0  0  0  0  0  0  0  0  0  0  0
  149.4221  134.3680  155.8483 H   0  0  0  0  0  0  0  0  0  0  0  0
  147.1301  134.1954  155.4209 H   0  0  0  0  0  0  0  0  0  0  0  0
  146.2866  135.4815  154.5925 H   0  0  0  0  0  0  0  0  0  0  0  0
  146.0495  133.3373  153.3367 H   0  0  0  0  0  0  0  0  0  0  0  0
  148.2842  132.2765  153.8504 H   0  0  0  0  0  0  0  0  0  0  0  0
  149.0912  133.5389  152.9229 H   0  0  0  0  0  0  0  0  0  0  0  0
  148.0183  132.3976  152.1179 H   0  0  0  0  0  0  0  0  0  0  0  0
  147.4989  135.4322  152.1876 H   0  0  0  0  0  0  0  0  0  0  0  0
  147.4312  137.4516  154.9677 H   0  0  0  0  0  0  0  0  0  0  0  0
  147.9588  136.5522  156.3702 H   0  0  0  0  0  0  0  0  0  0  0  0
  149.4120  138.5510  155.9955 H   0  0  0  0  0  0  0  0  0  0  0  0
  149.7372  138.0423  154.3647 H   0  0  0  0  0  0  0  0  0  0  0  0
  151.1082  140.8828  157.6174 H   0  0  0  0  0  0  0  0  0  0  0  0
  149.8887  142.8990  157.5134 H   0  0  0  0  0  0  0  0  0  0  0  0
  150.7979  144.3443  157.9487 H   0  0  0  0  0  0  0  0  0  0  0  0
  149.6290  143.6537  159.0855 H   0  0  0  0  0  0  0  0  0  0  0  0
  148.5316  135.9463  153.5647 H   0  0  0  0  0  0  0  0  0  0  0  0
  1  2  1  0  0  0  0
  1 26  1  0  0  0  0
  1 27  1  0  0  0  0
  1 28  1  0  0  0  0
  2 24  1  0  0  0  0
  2  3  2  0  0  0  0
  3  4  1  0  0  0  0
  3 29  1  0  0  0  0
  4 22  2  0  0  0  0
  4  5  1  0  0  0  0
  5  6  2  0  0  0  0
  6  7  1  0  0  0  0
  6 30  1  0  0  0  0
  7  8  1  0  0  0  0
  7 22  1  0  0  0  0
  8  9  1  0  0  0  0
  8 31  1  0  0  0  0
  8 32  1  0  0  0  0
  9 10  1  0  0  0  0
  9 11  1  0  0  0  0
  9 33  1  0  0  0  0
 10 34  1  0  0  0  0
 11 12  1  0  0  0  0
 11 35  1  0  0  0  0
 11 36  1  0  0  0  0
 12 21  1  0  0  0  0
 12 13  1  0  0  0  0
 13 14  1  0  0  0  0
 13 37  1  0  0  0  0
 13 38  1  0  0  0  0
 14 15  1  0  0  0  0
 14 39  1  0  0  0  0
 14 40  1  0  0  0  0
 15 16  1  0  0  0  0
 15 20  1  0  0  0  0
 15 56  1  0  0  0  0
 16 17  1  0  0  0  0
 16 41  1  0  0  0  0
 16 42  1  0  0  0  0
 17 18  1  0  0  0  0
 17 19  1  0  0  0  0
 17 43  1  0  0  0  0
 18 44  1  0  0  0  0
 18 45  1  0  0  0  0
 18 46  1  0  0  0  0
 19 47  1  0  0  0  0
 20 21  1  0  0  0  0
 20 48  1  0  0  0  0
 20 49  1  0  0  0  0
 21 50  1  0  0  0  0
 21 51  1  0  0  0  0
 22 23  1  0  0  0  0
 23 24  2  0  0  0  0
 23 52  1  0  0  0  0
 24 25  1  0  0  0  0
 25 53  1  0  0  0  0
 25 54  1  0  0  0  0
 25 55  1  0  0  0  0
M  CHG  1  15   1
M  END
> <s_m_source_file>
AV-unprocessed.smi

> <i_m_source_file_index>
1033

> <i_lp_mmshare_version>
43012

> <i_f3d_flags>
0

> <s_epik_input>
W0NIM11jKFtjSF0xKWMoW0NIM10pW2NIXWMoYzEyKW4oW2NIXW4yKVtDSDJdW0NASF0oW09IXSlbQ0gyXU4zW0NIMl1bQ0gyXU4oW0NIMl1bQ0gyXTMpW0NIMl1bQ0BIXShbQ0gzXSlbT0hd

> <s_epik_cmdline>
J2VwaWtfcHl0aG9uJywgJy1waCcsICc3LjAnLCAnLXRuJywgJzgnLCAnLW1hJywgJzIwMCcsICctbWV0YWxfYmluZGluZycsICctaW1hZScsICc8aW5maWxlLm1hZT4nLCAnLW9tYWUnLCAnPG91dGZpbGUubWFlPic=

> <r_epik_Ionization_Penalty>
0.129152

> <r_epik_Ionization_Penalty_Charging>
0.00083231

> <r_epik_Ionization_Penalty_Neutral>
0.128319

> <r_epik_State_Penalty>
0.556973

> <r_epik_Charging_Adjusted_Penalty>
0.557805

> <i_epik_Tot_Q>
1

> <i_epik_Tot_abs_Q>
1

> <r_epik_Metal_State_Penalty>
0.490047

> <b_epik_Metal_Only>
0

> <s_lp_Force_Field>
OPLS_2005

> <r_lp_Energy>
33.6507

> <b_lp_Chiralities_Consistent>
1

> <s_lp_Variant>
AV-unprocessed.smi:1033-5

> <Gold.Version>
5.8.1

> <Gold.Id.Protein>
6NUR|6NUR_protein|mol2

> <Gold.PLP.Fitness>
50.9655

> <Gold.PLP.PLP>
-40.2840

> <Gold.PLP.part.hbond>
-3.0000

> <Gold.PLP.part.metal>
0.0000

> <Gold.PLP.part.buried>
-5.7707

> <Gold.PLP.part.nonpolar>
-31.5548

> <Gold.PLP.part.repulsive>
0.0534

> <Gold.PLP.ligand.clash>
0.0000

> <Gold.PLP.ligand.torsion>
0.7170

> <Gold.PLP.Chemscore.Hbond>
4.0000

> <Gold.PLP.Chemscore.CHOScore>
0.0000

> <Gold.PLP.Chemscore.Metal>
0.0000

> <Gold.Chemscore.Hbonds>
donor molecule, donor type, donor heavy atom, donor atom, acceptor molecule, acceptor atom, score
      L1  H    15    56       P1  7948  2.00
      L1  H    19    47       P1  7948  1.00
      P1  H  6896  6908       L1    10  1.00

> <Gold.PLP.Chemscore.Internal.Correction>
0.1155

> <Gold.Rescore>
     Score         DG    S(hbond)    S(metal)    S(lipo)     H(rot)  DE(clash)    DE(int)     intcor
     19.85     -20.57       2.89        0.00     113.49       3.07       0.00       0.72       ----

> <Gold.Chemscore.Fitness>
19.8488

> <Gold.Chemscore.DG>
-20.5746

> <Gold.Chemscore.ZeroCoef>
-5.4800

> <Gold.Chemscore.Hbond>
2.8930

> <Gold.Chemscore.Metal>
0.0000

> <Gold.Chemscore.Lipo>
113.4914

> <Gold.Chemscore.Internal_Hbond>
0.0000

> <Gold.Chemscore.DEClash>
0.0009

> <Gold.Chemscore.DEInternal>
0.7249

> <Gold.Chemscore.Rot>
3.0650

> <Gold.Chemscore.Internal.Correction>
   9.000000E+99

> <Gold.Chemscore.Hbonds>
donor molecule, donor type, donor heavy atom, donor atom, acceptor molecule, acceptor atom, score
      L1  H    15    56       P1  7948  1.00
      L1  H    19    47       P1  7948  0.99
      P1  H  6896  6908       L1    10  0.51

> <Gold.Chemscore.Hbond.Weighted>
-9.6626

> <Gold.Chemscore.Metal.Weighted>
-0.0000

> <Gold.Chemscore.Lipo.Weighted>
-13.2785

> <Gold.Chemscore.Internal_Hbond.Weighted>
0.0000

> <Gold.Chemscore.DEClash.Weighted>
0.0009

> <Gold.Chemscore.DEInternal.Weighted>
0.7249

> <Gold.Chemscore.Rot.Weighted>
7.8465

> <Gold.Chemscore.Internal.Correction.Weighted>
   9.000000E+99

> <Gold.Protein.RotatedTorsions>
[ 6907 6896 6895 6894 ] final -128.49 input  -60.11 | X-H torsion
[ 7974 7965 7964 7962 ] final   -4.08 input  175.53 | X-H torsion
[ 8008 7997 7996 7995 ] final  175.32 input   59.86 | X-H torsion
[ 10167 10162 10161 10158 ] final   54.47 input  -65.29 | X-H torsion
[ 10718 10713 10712 10709 ] final  -62.42 input   66.30 | X-H torsion
[ 10763 10752 10751 10750 ] final   20.36 input  -60.55 | X-H torsion
[ 11005 11000 10999 10996 ] final  -30.17 input  -57.11 | X-H torsion

> <Gold.Protein.ActiveResidues>
 VAL166  LYS551  ARG553  GLY616  TRP617  ASP618  TYR619  PRO620  LYS621  CYS622 
 ASP623  PHE694  ASN695  SER759  ASP760  ASP761  ALA762  ILE779  LEU786  VAL792 
 PHE793  MET794  SER795  GLU796  ALA797  LYS798  CYS799  TRP800  GLU811  SER814 

> <Gold.Protein.RotatedAtoms>
  150.9185  133.6910  159.2837 H   0  0  0  0  0  0  0  0  0  0  0  0  # atno 6907 bound_to 6896
  151.4373  135.1015  159.9669 H   0  0  0  0  0  0  0  0  0  0  0  0  # atno 6908 bound_to 6896
  152.4967  133.8601  159.7301 H   0  0  0  0  0  0  0  0  0  0  0  0  # atno 6909 bound_to 6896
  146.2379  140.1817  142.8332 H   0  0  0  0  0  0  0  0  0  0  0  0  # atno 7974 bound_to 7965
  156.0883  140.1412  156.9625 H   0  0  0  0  0  0  0  0  0  0  0  0  # atno 8008 bound_to 7997
  154.4626  140.0938  156.6982 H   0  0  0  0  0  0  0  0  0  0  0  0  # atno 8009 bound_to 7997
  155.4963  140.3449  155.4365 H   0  0  0  0  0  0  0  0  0  0  0  0  # atno 8010 bound_to 7997
  140.2298  144.3699  150.6419 H   0  0  0  0  0  0  0  0  0  0  0  0  # atno 10167 bound_to 10162
  156.0857  130.4209  150.1132 H   0  0  0  0  0  0  0  0  0  0  0  0  # atno 10718 bound_to 10713
  153.1084  135.6690  153.9545 H   0  0  0  0  0  0  0  0  0  0  0  0  # atno 10763 bound_to 10752
  153.9096  135.3026  155.3450 H   0  0  0  0  0  0  0  0  0  0  0  0  # atno 10764 bound_to 10752
  154.7504  135.5037  153.9356 H   0  0  0  0  0  0  0  0  0  0  0  0  # atno 10765 bound_to 10752
  140.9360  133.7308  156.1005 H   0  0  0  0  0  0  0  0  0  0  0  0  # atno 11005 bound_to 11000
  144.9929  140.8563  143.5328 LP  0  0  0  0  0  0  0  0  0  0  0  0  # atno 17320 bound_to 7965
  145.1825  139.2344  143.5285 LP  0  0  0  0  0  0  0  0  0  0  0  0  # atno 17321 bound_to 7965
  140.6193  143.2175  151.6726 LP  0  0  0  0  0  0  0  0  0  0  0  0  # atno 17342 bound_to 10162
  139.5114  144.3510  152.0652 LP  0  0  0  0  0  0  0  0  0  0  0  0  # atno 17343 bound_to 10162
  156.9153  130.9665  151.3557 LP  0  0  0  0  0  0  0  0  0  0  0  0  # atno 17370 bound_to 10713
  157.5990  130.8498  149.8773 LP  0  0  0  0  0  0  0  0  0  0  0  0  # atno 17371 bound_to 10713
  140.7799  134.3738  157.5489 LP  0  0  0  0  0  0  0  0  0  0  0  0  # atno 17394 bound_to 11000
  139.8808  134.9075  156.2946 LP  0  0  0  0  0  0  0  0  0  0  0  0  # atno 17395 bound_to 11000

$$$$
