AV-unprocessed.smi:1011|AV-procd|sdf|4420|dock4
  -GOLD-   22720 2373D 1   1.00000     0.00000
 Structure written by MMmdl.
 43 45  0  0  0  0  0  0  0  0  1 V2000
  143.9516  145.4269  153.9364 C   0  0  0  0  0  0  0  0  0  0  0  0
  144.9468  144.3104  154.0674 C   0  0  0  0  0  0  0  0  0  0  0  0
  145.1668  143.4644  155.1914 C   0  0  0  0  0  0  0  0  0  0  0  0
  146.1215  142.5723  154.9849 N   0  0  0  0  0  0  0  0  0  0  0  0
  146.5434  142.8155  153.7262 N   0  0  0  0  0  0  0  0  0  0  0  0
  147.6026  142.0077  153.1543 C   0  0  0  0  0  0  0  0  0  0  0  0
  147.9947  140.8548  154.0882 C   0  0  0  0  0  0  0  0  0  0  0  0
  149.3022  140.3424  153.7134 N   0  0  0  0  0  0  0  0  0  0  0  0
  149.8950  139.6363  154.8400 C   0  0  0  0  0  0  0  0  0  0  0  0
  150.5198  140.5342  155.8706 C   0  0  0  0  0  0  0  0  0  0  0  0
  150.3767  141.8623  155.8758 N   0  0  0  0  0  0  0  0  0  0  0  0
  151.1056  142.2450  156.9847 C   0  0  0  0  0  0  0  0  0  0  0  0
  151.3429  143.5267  157.5304 C   0  0  0  0  0  0  0  0  0  0  0  0
  152.1341  143.6743  158.6888 C   0  0  0  0  0  0  0  0  0  0  0  0
  152.4133  145.2464  159.3427 Cl  0  0  0  0  0  0  0  0  0  0  0  0
  152.6987  142.5439  159.3153 C   0  0  0  0  0  0  0  0  0  0  0  0
  152.4750  141.2576  158.7875 C   0  0  0  0  0  0  0  0  0  0  0  0
  151.6827  141.1167  157.6326 C   0  0  0  0  0  0  0  0  0  0  0  0
  151.2741  140.0238  156.8756 N   0  0  0  0  0  0  0  0  0  0  0  0
  151.6066  138.6308  157.1278 C   0  0  0  0  0  0  0  0  0  0  0  0
  152.1533  137.9470  155.8673 C   0  0  0  0  0  0  0  0  0  0  0  0
  153.1487  138.7563  155.2810 O   0  0  0  0  0  0  0  0  0  0  0  0
  145.8520  143.8593  153.1488 C   0  0  0  0  0  0  0  0  0  0  0  0
  143.6985  145.8575  154.9054 H   0  0  0  0  0  0  0  0  0  0  0  0
  143.0211  145.0832  153.4844 H   0  0  0  0  0  0  0  0  0  0  0  0
  144.3321  146.2380  153.3151 H   0  0  0  0  0  0  0  0  0  0  0  0
  144.6625  143.4722  156.1465 H   0  0  0  0  0  0  0  0  0  0  0  0
  147.2631  141.6215  152.1920 H   0  0  0  0  0  0  0  0  0  0  0  0
  148.4611  142.6509  152.9545 H   0  0  0  0  0  0  0  0  0  0  0  0
  148.0214  141.2008  155.1226 H   0  0  0  0  0  0  0  0  0  0  0  0
  147.2532  140.0569  154.0275 H   0  0  0  0  0  0  0  0  0  0  0  0
  149.2009  139.7055  152.9363 H   0  0  0  0  0  0  0  0  0  0  0  0
  149.1272  139.0390  155.3332 H   0  0  0  0  0  0  0  0  0  0  0  0
  150.6537  138.9483  154.4656 H   0  0  0  0  0  0  0  0  0  0  0  0
  150.9144  144.3970  157.0559 H   0  0  0  0  0  0  0  0  0  0  0  0
  153.3041  142.6633  160.2018 H   0  0  0  0  0  0  0  0  0  0  0  0
  152.9063  140.3905  159.2653 H   0  0  0  0  0  0  0  0  0  0  0  0
  152.3452  138.5909  157.9294 H   0  0  0  0  0  0  0  0  0  0  0  0
  150.7237  138.1092  157.4990 H   0  0  0  0  0  0  0  0  0  0  0  0
  152.5830  136.9742  156.1079 H   0  0  0  0  0  0  0  0  0  0  0  0
  151.3562  137.7819  155.1415 H   0  0  0  0  0  0  0  0  0  0  0  0
  153.1806  138.5699  154.3550 H   0  0  0  0  0  0  0  0  0  0  0  0
  146.0580  144.1902  152.1416 H   0  0  0  0  0  0  0  0  0  0  0  0
  1  2  1  0  0  0  0
  1 24  1  0  0  0  0
  1 25  1  0  0  0  0
  1 26  1  0  0  0  0
  2 23  2  0  0  0  0
  2  3  1  0  0  0  0
  3  4  2  0  0  0  0
  3 27  1  0  0  0  0
  4  5  1  0  0  0  0
  5  6  1  0  0  0  0
  5 23  1  0  0  0  0
  6  7  1  0  0  0  0
  6 28  1  0  0  0  0
  6 29  1  0  0  0  0
  7  8  1  0  0  0  0
  7 30  1  0  0  0  0
  7 31  1  0  0  0  0
  8  9  1  0  0  0  0
  8 32  1  0  0  0  0
  9 10  1  0  0  0  0
  9 33  1  0  0  0  0
  9 34  1  0  0  0  0
 10 19  1  0  0  0  0
 10 11  2  0  0  0  0
 11 12  1  0  0  0  0
 12 18  2  0  0  0  0
 12 13  1  0  0  0  0
 13 14  2  0  0  0  0
 13 35  1  0  0  0  0
 14 15  1  0  0  0  0
 14 16  1  0  0  0  0
 16 17  2  0  0  0  0
 16 36  1  0  0  0  0
 17 18  1  0  0  0  0
 17 37  1  0  0  0  0
 18 19  1  0  0  0  0
 19 20  1  0  0  0  0
 20 21  1  0  0  0  0
 20 38  1  0  0  0  0
 20 39  1  0  0  0  0
 21 22  1  0  0  0  0
 21 40  1  0  0  0  0
 21 41  1  0  0  0  0
 22 42  1  0  0  0  0
 23 43  1  0  0  0  0
M  END
> <s_m_source_file>
AV-unprocessed.smi

> <i_m_source_file_index>
1011

> <i_lp_mmshare_version>
43012

> <i_f3d_flags>
0

> <s_epik_input>
W0NIM11jMVtjSF1ubihbY0hdMSlbQ0gyXVtDSDJdW05IXVtDSDJdYyhuMiluKFtDSDJdW0NIMl1bT0hdKWMoYzIzKVtjSF1bY0hdYyhDbClbY0hdMw==

> <s_epik_cmdline>
J2VwaWtfcHl0aG9uJywgJy1waCcsICc3LjAnLCAnLXRuJywgJzgnLCAnLW1hJywgJzIwMCcsICctbWV0YWxfYmluZGluZycsICctaW1hZScsICc8aW5maWxlLm1hZT4nLCAnLW9tYWUnLCAnPG91dGZpbGUubWFlPic=

> <r_lp_tautomer_probability>
1

> <r_epik_Ionization_Penalty>
0.714951

> <r_epik_Ionization_Penalty_Charging>
0

> <r_epik_Ionization_Penalty_Neutral>
0.714951

> <r_epik_State_Penalty>
0.695393

> <r_epik_Charging_Adjusted_Penalty>
0.695393

> <i_epik_Tot_Q>
0

> <i_epik_Tot_abs_Q>
0

> <r_epik_Metal_State_Penalty>
0.662708

> <b_epik_Metal_Only>
0

> <s_lp_Force_Field>
OPLS_2005

> <r_lp_Energy>
11.4797

> <b_lp_Chiralities_Consistent>
1

> <s_lp_Variant>
AV-unprocessed.smi:1011-2

> <Gold.Version>
5.8.1

> <Gold.Id.Protein>
6NUR|6NUR_protein|mol2

> <Gold.PLP.Fitness>
57.8676

> <Gold.PLP.PLP>
-52.1932

> <Gold.PLP.part.hbond>
-4.3846

> <Gold.PLP.part.metal>
0.0000

> <Gold.PLP.part.buried>
-6.7425

> <Gold.PLP.part.nonpolar>
-40.5683

> <Gold.PLP.part.repulsive>
0.6280

> <Gold.PLP.ligand.clash>
0.0000

> <Gold.PLP.ligand.torsion>
0.5194

> <Gold.PLP.Chemscore.Hbond>
2.1661

> <Gold.PLP.Chemscore.CHOScore>
0.0000

> <Gold.PLP.Chemscore.Metal>
0.0000

> <Gold.Chemscore.Hbonds>
donor molecule, donor type, donor heavy atom, donor atom, acceptor molecule, acceptor atom, score
      L1  H     8    32       P1  7957  0.54
      P1  H  7997  8010       L1    22  1.00

> <Gold.PLP.Chemscore.Internal.Correction>
0.2148

> <Gold.Rescore>
     Score         DG    S(hbond)    S(metal)    S(lipo)     H(rot)  DE(clash)    DE(int)     intcor
     17.43     -18.47       1.90        0.00     119.10       2.84       0.50       0.54       ----

> <Gold.Chemscore.Fitness>
17.4307

> <Gold.Chemscore.DG>
-18.4650

> <Gold.Chemscore.ZeroCoef>
-5.4800

> <Gold.Chemscore.Hbond>
1.8958

> <Gold.Chemscore.Metal>
0.0000

> <Gold.Chemscore.Lipo>
119.0980

> <Gold.Chemscore.Internal_Hbond>
0.0000

> <Gold.Chemscore.DEClash>
0.4981

> <Gold.Chemscore.DEInternal>
0.5362

> <Gold.Chemscore.Rot>
2.8442

> <Gold.Chemscore.Internal.Correction>
   9.000000E+99

> <Gold.Chemscore.Hbonds>
donor molecule, donor type, donor heavy atom, donor atom, acceptor molecule, acceptor atom, score
      L1  H     8    32       P1  7957  0.54
      P1  H  7997  8010       L1    22  0.90

> <Gold.Chemscore.Hbond.Weighted>
-6.3318

> <Gold.Chemscore.Metal.Weighted>
-0.0000

> <Gold.Chemscore.Lipo.Weighted>
-13.9345

> <Gold.Chemscore.Internal_Hbond.Weighted>
0.0000

> <Gold.Chemscore.DEClash.Weighted>
0.4981

> <Gold.Chemscore.DEInternal.Weighted>
0.5362

> <Gold.Chemscore.Rot.Weighted>
7.2812

> <Gold.Chemscore.Internal.Correction.Weighted>
   9.000000E+99

> <Gold.Protein.RotatedTorsions>
[ 6907 6896 6895 6894 ] final    2.32 input  -60.11 | X-H torsion
[ 7974 7965 7964 7962 ] final -104.34 input  175.53 | X-H torsion
[ 8008 7997 7996 7995 ] final   93.86 input   59.86 | X-H torsion
[ 10167 10162 10161 10158 ] final   64.34 input  -65.29 | X-H torsion
[ 10718 10713 10712 10709 ] final  176.92 input   66.30 | X-H torsion
[ 10763 10752 10751 10750 ] final -175.84 input  -60.55 | X-H torsion
[ 11005 11000 10999 10996 ] final -137.59 input  -57.11 | X-H torsion

> <Gold.Protein.ActiveResidues>
 VAL166  LYS551  ARG553  GLY616  TRP617  ASP618  TYR619  PRO620  LYS621  CYS622 
 ASP623  PHE694  ASN695  SER759  ASP760  ASP761  ALA762  ILE779  LEU786  VAL792 
 PHE793  MET794  SER795  GLU796  ALA797  LYS798  CYS799  TRP800  GLU811  SER814 

> <Gold.Protein.RotatedAtoms>
  151.6070  135.1043  160.0072 H   0  0  0  0  0  0  0  0  0  0  0  0  # atno 6907 bound_to 6896
  152.4228  133.7141  159.6506 H   0  0  0  0  0  0  0  0  0  0  0  0  # atno 6908 bound_to 6896
  150.8116  133.8339  159.3201 H   0  0  0  0  0  0  0  0  0  0  0  0  # atno 6909 bound_to 6896
  145.2444  140.9216  143.3131 H   0  0  0  0  0  0  0  0  0  0  0  0  # atno 7974 bound_to 7965
  156.0515  140.3307  155.7356 H   0  0  0  0  0  0  0  0  0  0  0  0  # atno 8008 bound_to 7997
  155.5593  140.0617  157.2850 H   0  0  0  0  0  0  0  0  0  0  0  0  # atno 8009 bound_to 7997
  154.4438  140.1880  156.0755 H   0  0  0  0  0  0  0  0  0  0  0  0  # atno 8010 bound_to 7997
  140.1232  144.4712  150.6908 H   0  0  0  0  0  0  0  0  0  0  0  0  # atno 10167 bound_to 10162
  156.9129  130.9916  151.3017 H   0  0  0  0  0  0  0  0  0  0  0  0  # atno 10718 bound_to 10713
  154.5796  135.2835  155.0746 H   0  0  0  0  0  0  0  0  0  0  0  0  # atno 10763 bound_to 10752
  154.2087  135.6411  153.5112 H   0  0  0  0  0  0  0  0  0  0  0  0  # atno 10764 bound_to 10752
  153.0084  135.5486  154.6445 H   0  0  0  0  0  0  0  0  0  0  0  0  # atno 10765 bound_to 10752
  140.8696  134.2067  157.4659 H   0  0  0  0  0  0  0  0  0  0  0  0  # atno 11005 bound_to 11000
  144.9560  139.4031  143.6379 LP  0  0  0  0  0  0  0  0  0  0  0  0  # atno 17320 bound_to 7965
  146.3320  139.8590  142.8859 LP  0  0  0  0  0  0  0  0  0  0  0  0  # atno 17321 bound_to 7965
  140.6860  143.2350  151.5259 LP  0  0  0  0  0  0  0  0  0  0  0  0  # atno 17342 bound_to 10162
  139.5558  144.2280  152.1609 LP  0  0  0  0  0  0  0  0  0  0  0  0  # atno 17343 bound_to 10162
  157.5956  130.8475  149.8724 LP  0  0  0  0  0  0  0  0  0  0  0  0  # atno 17370 bound_to 10713
  156.0527  130.3714  150.1163 LP  0  0  0  0  0  0  0  0  0  0  0  0  # atno 17371 bound_to 10713
  139.8711  134.9768  156.4935 LP  0  0  0  0  0  0  0  0  0  0  0  0  # atno 17394 bound_to 11000
  140.8588  133.8075  155.9244 LP  0  0  0  0  0  0  0  0  0  0  0  0  # atno 17395 bound_to 11000

$$$$
