AV-unprocessed.smi:334|AV-procd|sdf|2368|dock3
  -GOLD-   2262022283D 1   1.00000     0.00000
 Structure written by MMmdl.
 44 46  0  0  0  0  0  0  0  0  3 V2000
  147.1684  131.3596  154.6653 C   0  0  0  0  0  0  0  0  0  0  0  0
  147.6539  131.9107  153.3117 C   0  0  2  0  0  0  0  0  0  0  0  0
  148.9007  132.6457  153.5196 N   0  0  0  0  0  0  0  0  0  0  0  0
  149.0586  133.7020  154.3320 C   0  0  0  0  0  0  0  0  0  0  0  0
  148.1462  134.1744  155.0115 O   0  0  0  0  0  0  0  0  0  0  0  0
  150.4727  134.2970  154.3899 C   0  0  0  0  0  0  0  0  0  0  0  0
  150.6042  135.3909  155.3670 N   0  0  0  0  0  0  0  0  0  0  0  0
  151.0037  136.6479  154.8715 C   0  0  0  0  0  0  0  0  0  0  0  0
  151.1631  137.7169  155.6763 C   0  0  0  0  0  0  0  0  0  0  0  0
  151.5787  138.9988  155.1509 N   0  3  0  0  0  0  0  0  0  0  0  0
  152.7445  139.3485  155.3060 O   0  0  0  0  0  0  0  0  0  0  0  0
  150.7562  139.6985  154.5674 O   0  5  0  0  0  0  0  0  0  0  0  0
  150.9074  137.5388  157.0927 C   0  0  0  0  0  0  0  0  0  0  0  0
  150.5279  136.3383  157.5730 C   0  0  0  0  0  0  0  0  0  0  0  0
  150.3583  135.1755  156.6956 C   0  0  0  0  0  0  0  0  0  0  0  0
  150.0157  134.0752  157.1289 O   0  0  0  0  0  0  0  0  0  0  0  0
  146.6147  132.8377  152.6333 C   0  0  1  0  0  0  0  0  0  0  0  0
  147.0830  133.4057  151.2692 C   0  0  0  0  0  0  0  0  0  0  0  0
  145.9354  133.0332  150.3146 C   0  0  2  0  0  0  0  0  0  0  0  0
  144.6857  133.8631  150.6596 C   0  0  0  0  0  0  0  0  0  0  0  0
  144.2161  133.2310  151.9829 C   0  0  0  0  0  0  0  0  0  0  0  0
  145.2826  132.1487  152.2409 C   0  0  1  0  0  0  0  0  0  0  0  0
  145.5535  131.6508  150.8247 C   0  0  0  0  0  0  0  0  0  0  0  0
  146.2853  130.7319  154.5556 H   0  0  0  0  0  0  0  0  0  0  0  0
  146.9201  132.1663  155.3557 H   0  0  0  0  0  0  0  0  0  0  0  0
  147.9356  130.7453  155.1379 H   0  0  0  0  0  0  0  0  0  0  0  0
  147.8481  131.0673  152.6470 H   0  0  0  0  0  0  0  0  0  0  0  0
  149.7066  132.3231  153.0038 H   0  0  0  0  0  0  0  0  0  0  0  0
  151.1706  133.4909  154.6202 H   0  0  0  0  0  0  0  0  0  0  0  0
  150.7599  134.6452  153.3958 H   0  0  0  0  0  0  0  0  0  0  0  0
  151.1764  136.6747  153.8053 H   0  0  0  0  0  0  0  0  0  0  0  0
  151.0194  138.3659  157.7783 H   0  0  0  0  0  0  0  0  0  0  0  0
  150.3443  136.2282  158.6318 H   0  0  0  0  0  0  0  0  0  0  0  0
  146.4083  133.6633  153.3166 H   0  0  0  0  0  0  0  0  0  0  0  0
  147.2605  134.4813  151.3058 H   0  0  0  0  0  0  0  0  0  0  0  0
  148.0063  132.9316  150.9326 H   0  0  0  0  0  0  0  0  0  0  0  0
  146.2126  133.0758  149.2609 H   0  0  0  0  0  0  0  0  0  0  0  0
  144.9114  134.9252  150.7616 H   0  0  0  0  0  0  0  0  0  0  0  0
  143.9203  133.7547  149.8900 H   0  0  0  0  0  0  0  0  0  0  0  0
  144.1508  133.9576  152.7936 H   0  0  0  0  0  0  0  0  0  0  0  0
  143.2302  132.7801  151.8615 H   0  0  0  0  0  0  0  0  0  0  0  0
  144.9414  131.3811  152.9339 H   0  0  0  0  0  0  0  0  0  0  0  0
  144.6701  131.2379  150.3343 H   0  0  0  0  0  0  0  0  0  0  0  0
  146.3665  130.9257  150.7632 H   0  0  0  0  0  0  0  0  0  0  0  0
  1  2  1  0  0  0  0
  1 24  1  0  0  0  0
  1 25  1  0  0  0  0
  1 26  1  0  0  0  0
  2  3  1  0  0  0  0
  2 17  1  0  0  0  0
  2 27  1  0  0  0  0
  3  4  1  0  0  0  0
  3 28  1  0  0  0  0
  4  5  2  0  0  0  0
  4  6  1  0  0  0  0
  6  7  1  0  0  0  0
  6 29  1  0  0  0  0
  6 30  1  0  0  0  0
  7 15  1  0  0  0  0
  7  8  1  0  0  0  0
  8  9  2  0  0  0  0
  8 31  1  0  0  0  0
  9 10  1  0  0  0  0
  9 13  1  0  0  0  0
 10 11  2  0  0  0  0
 10 12  1  0  0  0  0
 13 14  2  0  0  0  0
 13 32  1  0  0  0  0
 14 15  1  0  0  0  0
 14 33  1  0  0  0  0
 15 16  2  0  0  0  0
 17 22  1  0  0  0  0
 17 18  1  0  0  0  0
 17 34  1  0  0  0  0
 18 19  1  0  0  0  0
 18 35  1  0  0  0  0
 18 36  1  0  0  0  0
 19 23  1  0  0  0  0
 19 20  1  0  0  0  0
 19 37  1  0  0  0  0
 20 21  1  0  0  0  0
 20 38  1  0  0  0  0
 20 39  1  0  0  0  0
 21 22  1  0  0  0  0
 21 40  1  0  0  0  0
 21 41  1  0  0  0  0
 22 23  1  0  0  0  0
 22 42  1  0  0  0  0
 23 43  1  0  0  0  0
 23 44  1  0  0  0  0
M  CHG  1  10   1
M  CHG  1  12  -1
M  END
> <s_m_source_file>
AV-unprocessed.smi

> <i_m_source_file_index>
334

> <i_lp_mmshare_version>
43012

> <i_f3d_flags>
0

> <s_epik_input>
W0NIMl0xW0NIMl1bQ0BIXShbQ0gyXTIpW0NAQEhdKFtDSDJdW0NAQEhdMTIpW0NASF0oW0NIM10pW05IXUMoPU8pW0NIMl1uM1tjSF1jKFtOK10oPU8pW08tXSlbY0hdW2NIXWMzPU8=

> <s_epik_cmdline>
J2VwaWtfcHl0aG9uJywgJy1waCcsICc3LjAnLCAnLXRuJywgJzgnLCAnLW1hJywgJzIwMCcsICctbWV0YWxfYmluZGluZycsICctaW1hZScsICc8aW5maWxlLm1hZT4nLCAnLW9tYWUnLCAnPG91dGZpbGUubWFlPic=

> <r_lp_tautomer_probability>
1

> <r_epik_Ionization_Penalty>
2.17081e-08

> <r_epik_Ionization_Penalty_Charging>
8.1195e-11

> <r_epik_Ionization_Penalty_Neutral>
2.16269e-08

> <r_epik_State_Penalty>
-0

> <r_epik_Charging_Adjusted_Penalty>
8.1195e-11

> <i_epik_Tot_Q>
0

> <i_epik_Tot_abs_Q>
2

> <r_epik_Metal_State_Penalty>
-0

> <b_epik_Metal_Only>
0

> <s_lp_Force_Field>
OPLS_2005

> <r_lp_Energy>
62.5387

> <b_lp_Chiralities_Consistent>
1

> <s_lp_Variant>
AV-unprocessed.smi:334-7

> <Gold.Version>
5.8.1

> <Gold.Id.Protein>
6NUR|6NUR_protein|mol2

> <Gold.PLP.Fitness>
40.9342

> <Gold.PLP.PLP>
-33.7714

> <Gold.PLP.part.hbond>
-2.6147

> <Gold.PLP.part.metal>
0.0000

> <Gold.PLP.part.buried>
-7.0763

> <Gold.PLP.part.nonpolar>
-24.3788

> <Gold.PLP.part.repulsive>
0.1861

> <Gold.PLP.ligand.clash>
0.0000

> <Gold.PLP.ligand.torsion>
1.4653

> <Gold.PLP.Chemscore.Hbond>
2.3432

> <Gold.PLP.Chemscore.CHOScore>
1.0012

> <Gold.PLP.Chemscore.Metal>
0.0000

> <Gold.Chemscore.Hbonds>
donor molecule, donor type, donor heavy atom, donor atom, acceptor molecule, acceptor atom, score
      P1  H  6896  6907       L1    16  0.35
      P1  H  7989  7998       L1    12  1.00
      P1  H  7997  8009       L1    11  1.00
      L1  C     8    31       P1  7949  1.00

> <Gold.PLP.Chemscore.Internal.Correction>
0.0603

> <Gold.Rescore>
     Score         DG    S(hbond)    S(metal)    S(lipo)     H(rot)  DE(clash)    DE(int)     intcor
     12.87     -18.87       2.77        0.00      73.68       1.75       0.12       5.88       ----

> <Gold.Chemscore.Fitness>
12.8673

> <Gold.Chemscore.DG>
-18.8715

> <Gold.Chemscore.ZeroCoef>
-5.4800

> <Gold.Chemscore.Hbond>
2.7678

> <Gold.Chemscore.Metal>
0.0000

> <Gold.Chemscore.Lipo>
73.6796

> <Gold.Chemscore.Internal_Hbond>
0.0000

> <Gold.Chemscore.DEClash>
0.1248

> <Gold.Chemscore.DEInternal>
5.8794

> <Gold.Chemscore.Rot>
1.7474

> <Gold.Chemscore.Internal.Correction>
   9.000000E+99

> <Gold.Chemscore.Hbonds>
donor molecule, donor type, donor heavy atom, donor atom, acceptor molecule, acceptor atom, score
      P1  H  6896  6907       L1    16  0.21
      P1  H  7989  7998       L1    12  0.70
      P1  H  7997  8009       L1    11  0.98

> <Gold.Chemscore.Hbond.Weighted>
-9.2443

> <Gold.Chemscore.Metal.Weighted>
-0.0000

> <Gold.Chemscore.Lipo.Weighted>
-8.6205

> <Gold.Chemscore.Internal_Hbond.Weighted>
0.0000

> <Gold.Chemscore.DEClash.Weighted>
0.1248

> <Gold.Chemscore.DEInternal.Weighted>
5.8794

> <Gold.Chemscore.Rot.Weighted>
4.4733

> <Gold.Chemscore.Internal.Correction.Weighted>
   9.000000E+99

> <Gold.Protein.RotatedTorsions>
[ 6907 6896 6895 6894 ] final -111.15 input  -60.11 | X-H torsion
[ 7974 7965 7964 7962 ] final   40.98 input  175.53 | X-H torsion
[ 8008 7997 7996 7995 ] final -143.77 input   59.86 | X-H torsion
[ 10167 10162 10161 10158 ] final -121.33 input  -65.29 | X-H torsion
[ 10718 10713 10712 10709 ] final -128.44 input   66.30 | X-H torsion
[ 10763 10752 10751 10750 ] final  156.23 input  -60.55 | X-H torsion
[ 11005 11000 10999 10996 ] final  -96.72 input  -57.11 | X-H torsion

> <Gold.Protein.ActiveResidues>
 VAL166  LYS551  ARG553  GLY616  TRP617  ASP618  TYR619  PRO620  LYS621  CYS622 
 ASP623  PHE694  ASN695  SER759  ASP760  ASP761  ALA762  ILE779  LEU786  VAL792 
 PHE793  MET794  SER795  GLU796  ALA797  LYS798  CYS799  TRP800  GLU811  SER814 

> <Gold.Protein.RotatedAtoms>
  150.7671  133.9277  159.3417 H   0  0  0  0  0  0  0  0  0  0  0  0  # atno 6907 bound_to 6896
  151.7173  135.0899  160.0287 H   0  0  0  0  0  0  0  0  0  0  0  0  # atno 6908 bound_to 6896
  152.3672  133.6334  159.6095 H   0  0  0  0  0  0  0  0  0  0  0  0  # atno 6909 bound_to 6896
  146.0861  139.5469  142.9506 H   0  0  0  0  0  0  0  0  0  0  0  0  # atno 7974 bound_to 7965
  155.5160  140.0587  157.2915 H   0  0  0  0  0  0  0  0  0  0  0  0  # atno 8008 bound_to 7997
  154.4534  140.1961  156.0397 H   0  0  0  0  0  0  0  0  0  0  0  0  # atno 8009 bound_to 7997
  156.0751  140.3254  155.7628 H   0  0  0  0  0  0  0  0  0  0  0  0  # atno 8010 bound_to 7997
  140.0262  143.5294  152.2198 H   0  0  0  0  0  0  0  0  0  0  0  0  # atno 10167 bound_to 10162
  156.1951  130.6821  151.0472 H   0  0  0  0  0  0  0  0  0  0  0  0  # atno 10718 bound_to 10713
  154.1810  135.2799  155.3052 H   0  0  0  0  0  0  0  0  0  0  0  0  # atno 10763 bound_to 10752
  154.6003  135.5532  153.7370 H   0  0  0  0  0  0  0  0  0  0  0  0  # atno 10764 bound_to 10752
  153.0138  135.6390  154.1949 H   0  0  0  0  0  0  0  0  0  0  0  0  # atno 10765 bound_to 10752
  141.1402  133.8118  157.0609 H   0  0  0  0  0  0  0  0  0  0  0  0  # atno 11005 bound_to 11000
  145.6128  141.0336  143.1957 LP  0  0  0  0  0  0  0  0  0  0  0  0  # atno 17320 bound_to 7965
  144.7326  139.7679  143.7341 LP  0  0  0  0  0  0  0  0  0  0  0  0  # atno 17321 bound_to 7965
  139.6106  144.7608  151.2960 LP  0  0  0  0  0  0  0  0  0  0  0  0  # atno 17342 bound_to 10162
  140.7321  143.6831  150.7984 LP  0  0  0  0  0  0  0  0  0  0  0  0  # atno 17343 bound_to 10162
  157.6953  131.0796  150.6988 LP  0  0  0  0  0  0  0  0  0  0  0  0  # atno 17370 bound_to 10713
  156.7044  130.4633  149.5564 LP  0  0  0  0  0  0  0  0  0  0  0  0  # atno 17371 bound_to 10713
  140.0572  134.9774  157.1241 LP  0  0  0  0  0  0  0  0  0  0  0  0  # atno 17394 bound_to 11000
  140.3902  134.2193  155.7166 LP  0  0  0  0  0  0  0  0  0  0  0  0  # atno 17395 bound_to 11000

$$$$
