AV-unprocessed.smi:232|AV-procd|sdf|1780|dock7
  -GOLD-   2262020323D 1   1.00000     0.00000
 Structure written by MMmdl.
 52 55  0  0  0  0  0  0  0  0  1 V2000
  152.2724  144.7393  158.7877 C   0  0  0  0  0  0  0  0  0  0  0  0
  151.7298  143.3067  158.7147 C   0  0  0  0  0  0  0  0  0  0  0  0
  152.8164  142.2338  158.9388 C   0  0  1  0  0  0  0  0  0  0  0  0
  153.4479  142.2709  160.3397 C   0  0  0  0  0  0  0  0  0  0  0  0
  153.7446  140.8056  160.6807 C   0  0  0  0  0  0  0  0  0  0  0  0
  153.3233  140.0278  159.4304 C   0  0  1  0  0  0  0  0  0  0  0  0
  152.8179  138.6076  159.7320 C   0  0  0  0  0  0  0  0  0  0  0  0
  152.3163  140.8708  158.7963 N   0  0  0  0  0  0  0  0  0  0  0  0
  151.9551  140.5249  157.5379 C   0  0  0  0  0  0  0  0  0  0  0  0
  152.7219  139.6715  156.8079 N   0  0  0  0  0  0  0  0  0  0  0  0
  152.3586  139.3458  155.5634 C   0  0  0  0  0  0  0  0  0  0  0  0
  151.2925  139.7533  154.8705 N   0  0  0  0  0  0  0  0  0  0  0  0
  150.5256  140.6117  155.6025 C   0  0  0  0  0  0  0  0  0  0  0  0
  150.7822  141.0457  156.9324 C   0  0  0  0  0  0  0  0  0  0  0  0
  149.7853  141.9176  157.3517 N   0  0  0  0  0  0  0  0  0  0  0  0
  148.9823  141.9955  156.3251 C   0  0  0  0  0  0  0  0  0  0  0  0
  149.3507  141.2409  155.2336 N   0  0  0  0  0  0  0  0  0  0  0  0
  148.6482  141.1369  153.9672 C   0  0  0  0  0  0  0  0  0  0  0  0
  147.1919  140.6649  154.1429 C   0  0  1  0  0  0  0  0  0  0  0  0
  146.5578  140.5257  152.8847 O   0  0  0  0  0  0  0  0  0  0  0  0
  147.0787  139.3595  154.9559 C   0  0  1  0  0  0  0  0  0  0  0  0
  145.6536  138.8322  155.1962 C   0  0  0  0  0  0  0  0  0  0  0  0
  145.7264  137.3756  154.7670 C   0  0  0  0  0  0  0  0  0  0  0  0
  147.2214  137.0794  154.7819 C   0  0  0  0  0  0  0  0  0  0  0  0
  147.7920  138.2969  154.3331 O   0  0  0  0  0  0  0  0  0  0  0  0
  151.4815  145.4626  158.5887 H   0  0  0  0  0  0  0  0  0  0  0  0
  153.0610  144.8985  158.0519 H   0  0  0  0  0  0  0  0  0  0  0  0
  152.6823  144.9620  159.7731 H   0  0  0  0  0  0  0  0  0  0  0  0
  150.9290  143.1809  159.4444 H   0  0  0  0  0  0  0  0  0  0  0  0
  151.2714  143.1696  157.7350 H   0  0  0  0  0  0  0  0  0  0  0  0
  153.6094  142.3793  158.2025 H   0  0  0  0  0  0  0  0  0  0  0  0
  154.3478  142.8869  160.3523 H   0  0  0  0  0  0  0  0  0  0  0  0
  152.7552  142.6829  161.0748 H   0  0  0  0  0  0  0  0  0  0  0  0
  154.7936  140.6382  160.9270 H   0  0  0  0  0  0  0  0  0  0  0  0
  153.1492  140.5053  161.5441 H   0  0  0  0  0  0  0  0  0  0  0  0
  154.1912  139.9585  158.7724 H   0  0  0  0  0  0  0  0  0  0  0  0
  153.5834  138.0240  160.2436 H   0  0  0  0  0  0  0  0  0  0  0  0
  152.5571  138.0749  158.8170 H   0  0  0  0  0  0  0  0  0  0  0  0
  151.9328  138.6290  160.3685 H   0  0  0  0  0  0  0  0  0  0  0  0
  153.0171  138.6614  155.0490 H   0  0  0  0  0  0  0  0  0  0  0  0
  148.0914  142.6067  156.3372 H   0  0  0  0  0  0  0  0  0  0  0  0
  148.6807  142.1077  153.4704 H   0  0  0  0  0  0  0  0  0  0  0  0
  149.1962  140.4418  153.3301 H   0  0  0  0  0  0  0  0  0  0  0  0
  146.6411  141.4372  154.6814 H   0  0  0  0  0  0  0  0  0  0  0  0
  145.6436  140.7423  152.9856 H   0  0  0  0  0  0  0  0  0  0  0  0
  147.5484  139.5172  155.9285 H   0  0  0  0  0  0  0  0  0  0  0  0
  145.3971  138.9138  156.2533 H   0  0  0  0  0  0  0  0  0  0  0  0
  144.8900  139.3696  154.6334 H   0  0  0  0  0  0  0  0  0  0  0  0
  145.1554  136.7097  155.4145 H   0  0  0  0  0  0  0  0  0  0  0  0
  145.3430  137.2725  153.7512 H   0  0  0  0  0  0  0  0  0  0  0  0
  147.5676  136.8627  155.7937 H   0  0  0  0  0  0  0  0  0  0  0  0
  147.4933  136.2441  154.1364 H   0  0  0  0  0  0  0  0  0  0  0  0
  1  2  1  0  0  0  0
  1 26  1  0  0  0  0
  1 27  1  0  0  0  0
  1 28  1  0  0  0  0
  2  3  1  0  0  0  0
  2 29  1  0  0  0  0
  2 30  1  0  0  0  0
  3  8  1  0  0  0  0
  3  4  1  0  0  0  0
  3 31  1  0  0  0  0
  4  5  1  0  0  0  0
  4 32  1  0  0  0  0
  4 33  1  0  0  0  0
  5  6  1  0  0  0  0
  5 34  1  0  0  0  0
  5 35  1  0  0  0  0
  6  7  1  0  0  0  0
  6  8  1  0  0  0  0
  6 36  1  0  0  0  0
  7 37  1  0  0  0  0
  7 38  1  0  0  0  0
  7 39  1  0  0  0  0
  8  9  1  0  0  0  0
  9 14  1  0  0  0  0
  9 10  2  0  0  0  0
 10 11  1  0  0  0  0
 11 12  2  0  0  0  0
 11 40  1  0  0  0  0
 12 13  1  0  0  0  0
 13 17  1  0  0  0  0
 13 14  2  0  0  0  0
 14 15  1  0  0  0  0
 15 16  2  0  0  0  0
 16 17  1  0  0  0  0
 16 41  1  0  0  0  0
 17 18  1  0  0  0  0
 18 19  1  0  0  0  0
 18 42  1  0  0  0  0
 18 43  1  0  0  0  0
 19 20  1  0  0  0  0
 19 21  1  0  0  0  0
 19 44  1  0  0  0  0
 20 45  1  0  0  0  0
 21 25  1  0  0  0  0
 21 22  1  0  0  0  0
 21 46  1  0  0  0  0
 22 23  1  0  0  0  0
 22 47  1  0  0  0  0
 22 48  1  0  0  0  0
 23 24  1  0  0  0  0
 23 49  1  0  0  0  0
 23 50  1  0  0  0  0
 24 25  1  0  0  0  0
 24 51  1  0  0  0  0
 24 52  1  0  0  0  0
M  END
> <s_m_source_file>
AV-unprocessed.smi

> <i_m_source_file_index>
232

> <i_lp_mmshare_version>
43012

> <i_f3d_flags>
0

> <s_epik_input>
W0NIM11bQ0gyXVtDQEBIXTFbQ0gyXVtDSDJdW0NAQEhdKFtDSDNdKU4xYyhuW2NIXW4yKWMoYzIzKW5bY0hdbjNbQ0gyXVtDQEhdKFtPSF0pW0NAQEhdNFtDSDJdW0NIMl1bQ0gyXU80

> <s_epik_cmdline>
J2VwaWtfcHl0aG9uJywgJy1waCcsICc3LjAnLCAnLXRuJywgJzgnLCAnLW1hJywgJzIwMCcsICctbWV0YWxfYmluZGluZycsICctaW1hZScsICc8aW5maWxlLm1hZT4nLCAnLW9tYWUnLCAnPG91dGZpbGUubWFlPic=

> <r_lp_tautomer_probability>
1

> <r_epik_Ionization_Penalty>
0.00258048

> <r_epik_Ionization_Penalty_Charging>
0

> <r_epik_Ionization_Penalty_Neutral>
0.00258048

> <r_epik_State_Penalty>
0.00168551

> <r_epik_Charging_Adjusted_Penalty>
0.00168551

> <i_epik_Tot_Q>
0

> <i_epik_Tot_abs_Q>
0

> <r_epik_Metal_State_Penalty>
-0

> <b_epik_Metal_Only>
0

> <s_lp_Force_Field>
OPLS_2005

> <r_lp_Energy>
53.8555

> <b_lp_Chiralities_Consistent>
1

> <s_lp_Variant>
AV-unprocessed.smi:232-14

> <Gold.Version>
5.8.1

> <Gold.Id.Protein>
6NUR|6NUR_protein|mol2

> <Gold.PLP.Fitness>
52.0342

> <Gold.PLP.PLP>
-42.3160

> <Gold.PLP.part.hbond>
-3.0000

> <Gold.PLP.part.metal>
0.0000

> <Gold.PLP.part.buried>
-2.2465

> <Gold.PLP.part.nonpolar>
-37.2036

> <Gold.PLP.part.repulsive>
0.3104

> <Gold.PLP.ligand.clash>
0.0000

> <Gold.PLP.ligand.torsion>
0.3748

> <Gold.PLP.Chemscore.Hbond>
3.0000

> <Gold.PLP.Chemscore.CHOScore>
0.4503

> <Gold.PLP.Chemscore.Metal>
0.0000

> <Gold.Chemscore.Hbonds>
donor molecule, donor type, donor heavy atom, donor atom, acceptor molecule, acceptor atom, score
      L1  H    20    45       P1 10175  0.99
      P1  H  7989  7998       L1    12  0.90
      P1  H  7997  8010       L1    10  1.00
      L1  C    16    41       P1  8028  0.48

> <Gold.PLP.Chemscore.Internal.Correction>
0.1169

> <Gold.Rescore>
     Score         DG    S(hbond)    S(metal)    S(lipo)     H(rot)  DE(clash)    DE(int)     intcor
     14.42     -17.05       2.07        0.00      92.93       2.43       1.80       0.82       ----

> <Gold.Chemscore.Fitness>
14.4245

> <Gold.Chemscore.DG>
-17.0503

> <Gold.Chemscore.ZeroCoef>
-5.4800

> <Gold.Chemscore.Hbond>
2.0683

> <Gold.Chemscore.Metal>
0.0000

> <Gold.Chemscore.Lipo>
92.9318

> <Gold.Chemscore.Internal_Hbond>
0.0000

> <Gold.Chemscore.DEClash>
1.8027

> <Gold.Chemscore.DEInternal>
0.8231

> <Gold.Chemscore.Rot>
2.4260

> <Gold.Chemscore.Internal.Correction>
   9.000000E+99

> <Gold.Chemscore.Hbonds>
donor molecule, donor type, donor heavy atom, donor atom, acceptor molecule, acceptor atom, score
      L1  H    20    45       P1 10175  0.53
      P1  H  7989  7998       L1    12  0.16
      P1  H  7997  8010       L1    10  0.33

> <Gold.Chemscore.Hbond.Weighted>
-6.9080

> <Gold.Chemscore.Metal.Weighted>
-0.0000

> <Gold.Chemscore.Lipo.Weighted>
-10.8730

> <Gold.Chemscore.Internal_Hbond.Weighted>
0.0000

> <Gold.Chemscore.DEClash.Weighted>
1.8027

> <Gold.Chemscore.DEInternal.Weighted>
0.8231

> <Gold.Chemscore.Rot.Weighted>
6.2107

> <Gold.Chemscore.Internal.Correction.Weighted>
   9.000000E+99

> <Gold.Protein.RotatedTorsions>
[ 6907 6896 6895 6894 ] final -125.47 input  -60.11 | X-H torsion
[ 7974 7965 7964 7962 ] final -133.85 input  175.53 | X-H torsion
[ 8008 7997 7996 7995 ] final   62.79 input   59.86 | X-H torsion
[ 10167 10162 10161 10158 ] final  -38.38 input  -65.29 | X-H torsion
[ 10718 10713 10712 10709 ] final  111.04 input   66.30 | X-H torsion
[ 10763 10752 10751 10750 ] final -166.41 input  -60.55 | X-H torsion
[ 11005 11000 10999 10996 ] final -145.27 input  -57.11 | X-H torsion

> <Gold.Protein.ActiveResidues>
 VAL166  LYS551  ARG553  GLY616  TRP617  ASP618  TYR619  PRO620  LYS621  CYS622 
 ASP623  PHE694  ASN695  SER759  ASP760  ASP761  ALA762  ILE779  LEU786  VAL792 
 PHE793  MET794  SER795  GLU796  ALA797  LYS798  CYS799  TRP800  GLU811  SER814 

> <Gold.Protein.RotatedAtoms>
  150.8871  133.7293  159.2915 H   0  0  0  0  0  0  0  0  0  0  0  0  # atno 6907 bound_to 6896
  151.4855  135.1053  159.9799 H   0  0  0  0  0  0  0  0  0  0  0  0  # atno 6908 bound_to 6896
  152.4797  133.8177  159.7092 H   0  0  0  0  0  0  0  0  0  0  0  0  # atno 6909 bound_to 6896
  144.9156  140.6950  143.4997 H   0  0  0  0  0  0  0  0  0  0  0  0  # atno 7974 bound_to 7965
  155.6199  140.3495  155.4649 H   0  0  0  0  0  0  0  0  0  0  0  0  # atno 8008 bound_to 7997
  156.0087  140.1228  157.0499 H   0  0  0  0  0  0  0  0  0  0  0  0  # atno 8009 bound_to 7997
  154.4273  140.1086  156.5785 H   0  0  0  0  0  0  0  0  0  0  0  0  # atno 8010 bound_to 7997
  140.7093  143.3281  151.2633 H   0  0  0  0  0  0  0  0  0  0  0  0  # atno 10167 bound_to 10162
  157.6464  131.0943  150.6691 H   0  0  0  0  0  0  0  0  0  0  0  0  # atno 10718 bound_to 10713
  154.6835  135.2958  154.9579 H   0  0  0  0  0  0  0  0  0  0  0  0  # atno 10763 bound_to 10752
  154.0566  135.6637  153.4810 H   0  0  0  0  0  0  0  0  0  0  0  0  # atno 10764 bound_to 10752
  153.0563  135.5142  154.7891 H   0  0  0  0  0  0  0  0  0  0  0  0  # atno 10765 bound_to 10752
  140.7939  134.2936  157.5003 H   0  0  0  0  0  0  0  0  0  0  0  0  # atno 11005 bound_to 11000
  145.3381  139.1740  143.4500 LP  0  0  0  0  0  0  0  0  0  0  0  0  # atno 17320 bound_to 7965
  146.3180  140.3419  142.8648 LP  0  0  0  0  0  0  0  0  0  0  0  0  # atno 17321 bound_to 7965
  139.6755  143.9945  152.2778 LP  0  0  0  0  0  0  0  0  0  0  0  0  # atno 17342 bound_to 10162
  139.9558  144.6590  150.8127 LP  0  0  0  0  0  0  0  0  0  0  0  0  # atno 17343 bound_to 10162
  156.7007  130.4622  149.5574 LP  0  0  0  0  0  0  0  0  0  0  0  0  # atno 17370 bound_to 10713
  156.1797  130.6491  151.0937 LP  0  0  0  0  0  0  0  0  0  0  0  0  # atno 17371 bound_to 10713
  139.8728  134.9391  156.3732 LP  0  0  0  0  0  0  0  0  0  0  0  0  # atno 17394 bound_to 11000
  140.9362  133.7546  156.0087 LP  0  0  0  0  0  0  0  0  0  0  0  0  # atno 17395 bound_to 11000

$$$$
