AV-unprocessed.smi:281|AV-procd|sdf|2108|dock3
  -GOLD-   2262021403D 1   1.00000     0.00000
 Structure written by MMmdl.
 55 59  0  0  0  0  0  0  0  0  1 V2000
  148.0779  137.5082  158.8850 C   0  0  0  0  0  0  0  0  0  0  0  0
  148.5236  137.4968  157.4192 C   0  0  1  0  0  0  0  0  0  0  0  0
  147.3297  137.4001  156.4536 C   0  0  0  0  0  0  0  0  0  0  0  0
  147.7987  137.4967  155.0785 N   0  0  0  0  0  0  0  0  0  0  0  0
  146.8618  137.2482  154.1405 C   0  0  0  0  0  0  0  0  0  0  0  0
  146.6094  138.2356  153.2474 N   0  0  0  0  0  0  0  0  0  0  0  0
  145.6870  138.0555  152.2970 C   0  0  0  0  0  0  0  0  0  0  0  0
  144.9197  136.9870  152.0693 N   0  0  0  0  0  0  0  0  0  0  0  0
  145.1698  135.9937  152.9704 C   0  0  0  0  0  0  0  0  0  0  0  0
  146.1130  136.0420  154.0351 C   0  0  0  0  0  0  0  0  0  0  0  0
  146.0749  134.8543  154.7555 N   0  0  0  0  0  0  0  0  0  0  0  0
  145.1669  134.1419  154.1469 C   0  0  0  0  0  0  0  0  0  0  0  0
  144.5815  134.7435  153.0553 N   0  0  0  0  0  0  0  0  0  0  0  0
  143.5535  134.1794  152.1931 C   0  0  0  0  0  0  0  0  0  0  0  0
  144.1008  133.6192  150.8574 C   0  0  2  0  0  0  0  0  0  0  0  0
  143.7951  134.5306  149.8177 O   0  0  0  0  0  0  0  0  0  0  0  0
  143.5105  132.2501  150.5102 C   0  0  0  0  0  0  0  0  0  0  0  0
  144.6836  131.2937  150.6909 C   0  0  0  0  0  0  0  0  0  0  0  0
  145.7910  132.0792  150.2885 O   0  0  0  0  0  0  0  0  0  0  0  0
  145.6213  133.3634  150.8701 C   0  0  0  0  0  0  0  0  0  0  0  0
  148.5532  138.7162  154.8275 C   0  0  0  0  0  0  0  0  0  0  0  0
  149.7319  138.8401  155.8262 C   0  0  1  0  0  0  0  0  0  0  0  0
  150.8550  137.8465  155.5436 C   0  0  0  0  0  0  0  0  0  0  0  0
  151.6820  138.5550  154.4775 C   0  0  0  0  0  0  0  0  0  0  0  0
  151.5537  139.9435  154.7567 O   0  0  0  0  0  0  0  0  0  0  0  0
  150.5190  140.1614  155.7124 C   0  0  1  0  0  0  0  0  0  0  0  0
  149.7135  141.4221  155.3664 C   0  0  0  0  0  0  0  0  0  0  0  0
  149.2421  138.7050  157.1646 O   0  0  0  0  0  0  0  0  0  0  0  0
  147.5343  136.5973  159.1373 H   0  0  0  0  0  0  0  0  0  0  0  0
  147.4250  138.3565  159.0926 H   0  0  0  0  0  0  0  0  0  0  0  0
  148.9369  137.5777  159.5527 H   0  0  0  0  0  0  0  0  0  0  0  0
  149.1833  136.6411  157.2706 H   0  0  0  0  0  0  0  0  0  0  0  0
  146.8015  136.4567  156.5992 H   0  0  0  0  0  0  0  0  0  0  0  0
  146.6229  138.2033  156.6638 H   0  0  0  0  0  0  0  0  0  0  0  0
  145.5431  138.8862  151.6220 H   0  0  0  0  0  0  0  0  0  0  0  0
  144.9009  133.1492  154.4795 H   0  0  0  0  0  0  0  0  0  0  0  0
  143.0409  133.3915  152.7470 H   0  0  0  0  0  0  0  0  0  0  0  0
  142.8066  134.9510  152.0011 H   0  0  0  0  0  0  0  0  0  0  0  0
  142.8940  134.4030  149.5630 H   0  0  0  0  0  0  0  0  0  0  0  0
  142.6554  131.9750  151.1288 H   0  0  0  0  0  0  0  0  0  0  0  0
  143.1829  132.2169  149.4696 H   0  0  0  0  0  0  0  0  0  0  0  0
  144.7968  131.0043  151.7371 H   0  0  0  0  0  0  0  0  0  0  0  0
  144.5891  130.3898  150.0889 H   0  0  0  0  0  0  0  0  0  0  0  0
  146.1988  134.1232  150.3419 H   0  0  0  0  0  0  0  0  0  0  0  0
  146.0023  133.3108  151.8905 H   0  0  0  0  0  0  0  0  0  0  0  0
  148.9136  138.7315  153.7980 H   0  0  0  0  0  0  0  0  0  0  0  0
  147.8738  139.5618  154.9398 H   0  0  0  0  0  0  0  0  0  0  0  0
  151.4632  137.7106  156.4391 H   0  0  0  0  0  0  0  0  0  0  0  0
  150.5100  136.8627  155.2243 H   0  0  0  0  0  0  0  0  0  0  0  0
  152.7261  138.2418  154.4845 H   0  0  0  0  0  0  0  0  0  0  0  0
  151.2770  138.3588  153.4841 H   0  0  0  0  0  0  0  0  0  0  0  0
  151.0270  140.3328  156.6630 H   0  0  0  0  0  0  0  0  0  0  0  0
  148.9063  141.5797  156.0821 H   0  0  0  0  0  0  0  0  0  0  0  0
  149.2773  141.3609  154.3691 H   0  0  0  0  0  0  0  0  0  0  0  0
  150.3525  142.3049  155.3881 H   0  0  0  0  0  0  0  0  0  0  0  0
  1  2  1  0  0  0  0
  1 29  1  0  0  0  0
  1 30  1  0  0  0  0
  1 31  1  0  0  0  0
  2 28  1  0  0  0  0
  2  3  1  0  0  0  0
  2 32  1  0  0  0  0
  3  4  1  0  0  0  0
  3 33  1  0  0  0  0
  3 34  1  0  0  0  0
  4  5  1  0  0  0  0
  4 21  1  0  0  0  0
  5 10  1  0  0  0  0
  5  6  2  0  0  0  0
  6  7  1  0  0  0  0
  7  8  2  0  0  0  0
  7 35  1  0  0  0  0
  8  9  1  0  0  0  0
  9 13  1  0  0  0  0
  9 10  2  0  0  0  0
 10 11  1  0  0  0  0
 11 12  2  0  0  0  0
 12 13  1  0  0  0  0
 12 36  1  0  0  0  0
 13 14  1  0  0  0  0
 14 15  1  0  0  0  0
 14 37  1  0  0  0  0
 14 38  1  0  0  0  0
 15 20  1  0  0  0  0
 15 16  1  0  0  0  0
 15 17  1  0  0  0  0
 16 39  1  0  0  0  0
 17 18  1  0  0  0  0
 17 40  1  0  0  0  0
 17 41  1  0  0  0  0
 18 19  1  0  0  0  0
 18 42  1  0  0  0  0
 18 43  1  0  0  0  0
 19 20  1  0  0  0  0
 20 44  1  0  0  0  0
 20 45  1  0  0  0  0
 21 22  1  0  0  0  0
 21 46  1  0  0  0  0
 21 47  1  0  0  0  0
 22 26  1  0  0  0  0
 22 23  1  0  0  0  0
 22 28  1  0  0  0  0
 23 24  1  0  0  0  0
 23 48  1  0  0  0  0
 23 49  1  0  0  0  0
 24 25  1  0  0  0  0
 24 50  1  0  0  0  0
 24 51  1  0  0  0  0
 25 26  1  0  0  0  0
 26 27  1  0  0  0  0
 26 52  1  0  0  0  0
 27 53  1  0  0  0  0
 27 54  1  0  0  0  0
 27 55  1  0  0  0  0
M  END
> <s_m_source_file>
AV-unprocessed.smi

> <i_m_source_file_index>
281

> <i_lp_mmshare_version>
43012

> <i_f3d_flags>
0

> <s_epik_input>
W0NIM11bQ0BASF0xT1tDSDJdW0NIMl1bQ0BAXTEyW0NIMl1OKFtDSDJdW0NASF0oTzIpW0NIM10pYyhuW2NIXW4zKWMoYzM0KW5bY0hdbjRbQ0gyXVtDQEBdNShbT0hdKVtDSDJdW0NIMl1PW0NIMl01

> <s_epik_cmdline>
J2VwaWtfcHl0aG9uJywgJy1waCcsICc3LjAnLCAnLXRuJywgJzgnLCAnLW1hJywgJzIwMCcsICctbWV0YWxfYmluZGluZycsICctaW1hZScsICc8aW5maWxlLm1hZT4nLCAnLW9tYWUnLCAnPG91dGZpbGUubWFlPic=

> <r_lp_tautomer_probability>
1

> <r_epik_Ionization_Penalty>
0.00571331

> <r_epik_Ionization_Penalty_Charging>
0

> <r_epik_Ionization_Penalty_Neutral>
0.00571331

> <r_epik_State_Penalty>
0.00399586

> <r_epik_Charging_Adjusted_Penalty>
0.00399586

> <i_epik_Tot_Q>
0

> <i_epik_Tot_abs_Q>
0

> <r_epik_Metal_State_Penalty>
-0

> <b_epik_Metal_Only>
0

> <s_lp_Force_Field>
OPLS_2005

> <r_lp_Energy>
55.9706

> <b_lp_Chiralities_Consistent>
1

> <s_lp_Variant>
AV-unprocessed.smi:281-8

> <Gold.Version>
5.8.1

> <Gold.Id.Protein>
6NUR|6NUR_protein|mol2

> <Gold.PLP.Fitness>
41.2966

> <Gold.PLP.PLP>
-31.9143

> <Gold.PLP.part.hbond>
-2.1404

> <Gold.PLP.part.metal>
0.0000

> <Gold.PLP.part.buried>
-6.9465

> <Gold.PLP.part.nonpolar>
-25.1333

> <Gold.PLP.part.repulsive>
1.1572

> <Gold.PLP.ligand.clash>
0.0000

> <Gold.PLP.ligand.torsion>
1.2983

> <Gold.PLP.Chemscore.Hbond>
2.0000

> <Gold.PLP.Chemscore.CHOScore>
1.9475

> <Gold.PLP.Chemscore.Metal>
0.0000

> <Gold.Chemscore.Hbonds>
donor molecule, donor type, donor heavy atom, donor atom, acceptor molecule, acceptor atom, score
      L1  H    16    39       P1 10186  1.00
      P1  H  7989  7998       L1    25  1.00
      L1  C     7    35       P1 10171  0.76
      L1  C     7    35       P1 10175  0.58
      L1  C    12    36       P1 10957  0.73

> <Gold.PLP.Chemscore.Internal.Correction>
0.1365

> <Gold.Rescore>
     Score         DG    S(hbond)    S(metal)    S(lipo)     H(rot)  DE(clash)    DE(int)     intcor
     13.79     -15.28       1.85        0.00      76.87       2.09       0.24       1.26       ----

> <Gold.Chemscore.Fitness>
13.7861

> <Gold.Chemscore.DG>
-15.2806

> <Gold.Chemscore.ZeroCoef>
-5.4800

> <Gold.Chemscore.Hbond>
1.8454

> <Gold.Chemscore.Metal>
0.0000

> <Gold.Chemscore.Lipo>
76.8736

> <Gold.Chemscore.Internal_Hbond>
0.0000

> <Gold.Chemscore.DEClash>
0.2367

> <Gold.Chemscore.DEInternal>
1.2578

> <Gold.Chemscore.Rot>
2.0927

> <Gold.Chemscore.Internal.Correction>
   9.000000E+99

> <Gold.Chemscore.Hbonds>
donor molecule, donor type, donor heavy atom, donor atom, acceptor molecule, acceptor atom, score
      L1  H    16    39       P1 10186  0.99
      P1  H  7989  7998       L1    25  0.82

> <Gold.Chemscore.Hbond.Weighted>
-6.1638

> <Gold.Chemscore.Metal.Weighted>
-0.0000

> <Gold.Chemscore.Lipo.Weighted>
-8.9942

> <Gold.Chemscore.Internal_Hbond.Weighted>
0.0000

> <Gold.Chemscore.DEClash.Weighted>
0.2367

> <Gold.Chemscore.DEInternal.Weighted>
1.2578

> <Gold.Chemscore.Rot.Weighted>
5.3573

> <Gold.Chemscore.Internal.Correction.Weighted>
   9.000000E+99

> <Gold.Protein.RotatedTorsions>
[ 6907 6896 6895 6894 ] final   19.18 input  -60.11 | X-H torsion
[ 7974 7965 7964 7962 ] final  -78.85 input  175.53 | X-H torsion
[ 8008 7997 7996 7995 ] final  -59.43 input   59.86 | X-H torsion
[ 10167 10162 10161 10158 ] final   91.11 input  -65.29 | X-H torsion
[ 10718 10713 10712 10709 ] final  150.09 input   66.30 | X-H torsion
[ 10763 10752 10751 10750 ] final  -44.85 input  -60.55 | X-H torsion
[ 11005 11000 10999 10996 ] final   81.05 input  -57.11 | X-H torsion

> <Gold.Protein.ActiveResidues>
 VAL166  LYS551  ARG553  GLY616  TRP617  ASP618  TYR619  PRO620  LYS621  CYS622 
 ASP623  PHE694  ASN695  SER759  ASP760  ASP761  ALA762  ILE779  LEU786  VAL792 
 PHE793  MET794  SER795  GLU796  ALA797  LYS798  CYS799  TRP800  GLU811  SER814 

> <Gold.Protein.RotatedAtoms>
  151.8768  135.0468  160.0484 H   0  0  0  0  0  0  0  0  0  0  0  0  # atno 6907 bound_to 6896
  152.2544  133.5238  159.5353 H   0  0  0  0  0  0  0  0  0  0  0  0  # atno 6908 bound_to 6896
  150.7095  134.0832  159.3948 H   0  0  0  0  0  0  0  0  0  0  0  0  # atno 6909 bound_to 6896
  145.5810  140.9448  143.1344 H   0  0  0  0  0  0  0  0  0  0  0  0  # atno 7974 bound_to 7965
  154.4352  140.1062  156.6114 H   0  0  0  0  0  0  0  0  0  0  0  0  # atno 8008 bound_to 7997
  155.5805  140.3490  155.4520 H   0  0  0  0  0  0  0  0  0  0  0  0  # atno 8009 bound_to 7997
  156.0322  140.1263  157.0235 H   0  0  0  0  0  0  0  0  0  0  0  0  # atno 8010 bound_to 7997
  139.8407  144.6643  150.9287 H   0  0  0  0  0  0  0  0  0  0  0  0  # atno 10167 bound_to 10162
  157.2879  131.0848  151.1483 H   0  0  0  0  0  0  0  0  0  0  0  0  # atno 10718 bound_to 10713
  154.0189  135.6672  153.4771 H   0  0  0  0  0  0  0  0  0  0  0  0  # atno 10763 bound_to 10752
  153.0589  135.5040  154.8042 H   0  0  0  0  0  0  0  0  0  0  0  0  # atno 10764 bound_to 10752
  154.6950  135.3068  154.9389 H   0  0  0  0  0  0  0  0  0  0  0  0  # atno 10765 bound_to 10752
  139.9112  134.7967  156.1991 H   0  0  0  0  0  0  0  0  0  0  0  0  # atno 11005 bound_to 11000
  144.7394  139.7493  143.7317 LP  0  0  0  0  0  0  0  0  0  0  0  0  # atno 17320 bound_to 7965
  146.1716  139.4869  142.9924 LP  0  0  0  0  0  0  0  0  0  0  0  0  # atno 17321 bound_to 7965
  140.7798  143.3916  151.1301 LP  0  0  0  0  0  0  0  0  0  0  0  0  # atno 17342 bound_to 10162
  139.7562  143.8704  152.3089 LP  0  0  0  0  0  0  0  0  0  0  0  0  # atno 17343 bound_to 10162
  157.2891  130.6787  149.6105 LP  0  0  0  0  0  0  0  0  0  0  0  0  # atno 17370 bound_to 10713
  155.9666  130.4426  150.5388 LP  0  0  0  0  0  0  0  0  0  0  0  0  # atno 17371 bound_to 10713
  141.0536  133.6876  156.1818 LP  0  0  0  0  0  0  0  0  0  0  0  0  # atno 17394 bound_to 11000
  140.6771  134.4806  157.5588 LP  0  0  0  0  0  0  0  0  0  0  0  0  # atno 17395 bound_to 11000

$$$$
