AV-unprocessed.smi:1940|AV-procd|sdf|7839|dock8
  -GOLD-   22720 9583D 1   1.00000     0.00000
 Structure written by MMmdl.
 49 51  0  0  0  0  0  0  0  0  1 V2000
  147.3867  132.9795  152.6491 C   0  0  0  0  0  0  0  0  0  0  0  0
  148.2337  133.2693  153.8969 C   0  0  2  0  0  0  0  0  0  0  0  0
  148.7213  134.6464  153.8315 N   0  0  0  0  0  0  0  0  0  0  0  0
  149.1126  135.3949  154.8731 C   0  0  0  0  0  0  0  0  0  0  0  0
  149.0961  135.0008  156.0382 O   0  0  0  0  0  0  0  0  0  0  0  0
  149.5130  136.6110  154.4637 N   0  0  0  0  0  0  0  0  0  0  0  0
  149.9993  137.7091  155.2261 C   0  0  0  0  0  0  0  0  0  0  0  0
  150.1829  137.7086  156.6292 C   0  0  0  0  0  0  0  0  0  0  0  0
  150.6806  138.8693  157.2523 C   0  0  0  0  0  0  0  0  0  0  0  0
  150.9868  140.0029  156.4643 C   0  0  0  0  0  0  0  0  0  0  0  0
  151.4825  141.1756  157.0740 N   0  0  0  0  0  0  0  0  0  0  0  0
  150.8002  142.4370  156.7741 C   0  0  0  0  0  0  0  0  0  0  0  0
  151.6555  143.6449  157.1927 C   0  0  0  0  0  0  0  0  0  0  0  0
  152.0751  143.5389  158.6659 C   0  0  0  0  0  0  0  0  0  0  0  0
  152.7881  142.2013  158.9143 C   0  0  0  0  0  0  0  0  0  0  0  0
  151.9167  141.0163  158.4634 C   0  0  0  0  0  0  0  0  0  0  0  0
  150.8198  139.9968  155.1194 N   0  0  0  0  0  0  0  0  0  0  0  0
  150.3414  138.8835  154.5266 C   0  0  0  0  0  0  0  0  0  0  0  0
  149.4203  132.2944  154.0285 C   0  0  1  0  0  0  0  0  0  0  0  0
  150.1461  132.3449  155.3742 C   0  0  0  0  0  0  0  0  0  0  0  0
  150.8015  130.9840  155.4160 C   0  0  0  0  0  0  0  0  0  0  0  0
  149.7296  130.0993  154.7857 C   0  0  0  0  0  0  0  0  0  0  0  0
  148.9766  130.9442  153.9182 O   0  0  0  0  0  0  0  0  0  0  0  0
  146.9782  131.9689  152.6773 H   0  0  0  0  0  0  0  0  0  0  0  0
  147.9758  133.0743  151.7363 H   0  0  0  0  0  0  0  0  0  0  0  0
  146.5455  133.6696  152.5769 H   0  0  0  0  0  0  0  0  0  0  0  0
  147.5910  133.1384  154.7693 H   0  0  0  0  0  0  0  0  0  0  0  0
  148.7721  135.0593  152.9117 H   0  0  0  0  0  0  0  0  0  0  0  0
  149.4383  136.7830  153.4719 H   0  0  0  0  0  0  0  0  0  0  0  0
  149.9655  136.8508  157.2445 H   0  0  0  0  0  0  0  0  0  0  0  0
  150.8359  138.8731  158.3210 H   0  0  0  0  0  0  0  0  0  0  0  0
  150.5872  142.5046  155.7065 H   0  0  0  0  0  0  0  0  0  0  0  0
  149.8429  142.4590  157.2968 H   0  0  0  0  0  0  0  0  0  0  0  0
  152.5446  143.6974  156.5627 H   0  0  0  0  0  0  0  0  0  0  0  0
  151.1026  144.5695  157.0256 H   0  0  0  0  0  0  0  0  0  0  0  0
  152.7274  144.3707  158.9331 H   0  0  0  0  0  0  0  0  0  0  0  0
  151.1949  143.6117  159.3059 H   0  0  0  0  0  0  0  0  0  0  0  0
  153.7339  142.1852  158.3710 H   0  0  0  0  0  0  0  0  0  0  0  0
  153.0362  142.1000  159.9711 H   0  0  0  0  0  0  0  0  0  0  0  0
  151.0310  140.9460  159.0962 H   0  0  0  0  0  0  0  0  0  0  0  0
  152.4756  140.0925  158.6069 H   0  0  0  0  0  0  0  0  0  0  0  0
  150.2269  138.9351  153.4536 H   0  0  0  0  0  0  0  0  0  0  0  0
  150.1436  132.4717  153.2301 H   0  0  0  0  0  0  0  0  0  0  0  0
  150.8612  133.1652  155.4440 H   0  0  0  0  0  0  0  0  0  0  0  0
  149.4323  132.4421  156.1935 H   0  0  0  0  0  0  0  0  0  0  0  0
  151.7002  130.9840  154.7980 H   0  0  0  0  0  0  0  0  0  0  0  0
  151.0779  130.6694  156.4226 H   0  0  0  0  0  0  0  0  0  0  0  0
  150.1576  129.2554  154.2441 H   0  0  0  0  0  0  0  0  0  0  0  0
  149.0594  129.7057  155.5506 H   0  0  0  0  0  0  0  0  0  0  0  0
  1  2  1  0  0  0  0
  1 24  1  0  0  0  0
  1 25  1  0  0  0  0
  1 26  1  0  0  0  0
  2  3  1  0  0  0  0
  2 19  1  0  0  0  0
  2 27  1  0  0  0  0
  3  4  1  0  0  0  0
  3 28  1  0  0  0  0
  4  5  2  0  0  0  0
  4  6  1  0  0  0  0
  6  7  1  0  0  0  0
  6 29  1  0  0  0  0
  7 18  1  0  0  0  0
  7  8  2  0  0  0  0
  8  9  1  0  0  0  0
  8 30  1  0  0  0  0
  9 10  2  0  0  0  0
  9 31  1  0  0  0  0
 10 11  1  0  0  0  0
 10 17  1  0  0  0  0
 11 16  1  0  0  0  0
 11 12  1  0  0  0  0
 12 13  1  0  0  0  0
 12 32  1  0  0  0  0
 12 33  1  0  0  0  0
 13 14  1  0  0  0  0
 13 34  1  0  0  0  0
 13 35  1  0  0  0  0
 14 15  1  0  0  0  0
 14 36  1  0  0  0  0
 14 37  1  0  0  0  0
 15 16  1  0  0  0  0
 15 38  1  0  0  0  0
 15 39  1  0  0  0  0
 16 40  1  0  0  0  0
 16 41  1  0  0  0  0
 17 18  2  0  0  0  0
 18 42  1  0  0  0  0
 19 23  1  0  0  0  0
 19 20  1  0  0  0  0
 19 43  1  0  0  0  0
 20 21  1  0  0  0  0
 20 44  1  0  0  0  0
 20 45  1  0  0  0  0
 21 22  1  0  0  0  0
 21 46  1  0  0  0  0
 21 47  1  0  0  0  0
 22 23  1  0  0  0  0
 22 48  1  0  0  0  0
 22 49  1  0  0  0  0
M  END
> <s_m_source_file>
AV-unprocessed.smi

> <i_m_source_file_index>
1940

> <i_lp_mmshare_version>
43012

> <i_f3d_flags>
0

> <s_epik_input>
TzFbQ0gyXVtDSDJdW0NIMl1bQ0BIXTFbQ0BIXShbQ0gzXSlbTkhdQyg9TylbTkhdYzJbY0hdW2NIXWMobltjSF0yKU4zW0NIMl1bQ0gyXVtDSDJdW0NIMl1bQ0gyXTM=

> <s_epik_cmdline>
J2VwaWtfcHl0aG9uJywgJy1waCcsICc3LjAnLCAnLXRuJywgJzgnLCAnLW1hJywgJzIwMCcsICctbWV0YWxfYmluZGluZycsICctaW1hZScsICc8aW5maWxlLm1hZT4nLCAnLW9tYWUnLCAnPG91dGZpbGUubWFlPic=

> <r_lp_tautomer_probability>
1

> <r_epik_Ionization_Penalty>
0.105688

> <r_epik_Ionization_Penalty_Charging>
0

> <r_epik_Ionization_Penalty_Neutral>
0.105688

> <r_epik_State_Penalty>
0.0895745

> <r_epik_Charging_Adjusted_Penalty>
0.0895745

> <i_epik_Tot_Q>
0

> <i_epik_Tot_abs_Q>
0

> <r_epik_Metal_State_Penalty>
0.0765749

> <b_epik_Metal_Only>
0

> <s_lp_Force_Field>
OPLS_2005

> <r_lp_Energy>
32.8596

> <b_lp_Chiralities_Consistent>
1

> <s_lp_Variant>
AV-unprocessed.smi:1940-3

> <Gold.Version>
5.8.1

> <Gold.Id.Protein>
6NUR|6NUR_protein|mol2

> <Gold.PLP.Fitness>
47.1658

> <Gold.PLP.PLP>
-36.6249

> <Gold.PLP.part.hbond>
-2.9166

> <Gold.PLP.part.metal>
0.0000

> <Gold.PLP.part.buried>
-2.7464

> <Gold.PLP.part.nonpolar>
-30.7999

> <Gold.PLP.part.repulsive>
0.1973

> <Gold.PLP.ligand.clash>
0.0000

> <Gold.PLP.ligand.torsion>
0.5918

> <Gold.PLP.Chemscore.Hbond>
2.9500

> <Gold.PLP.Chemscore.CHOScore>
0.8191

> <Gold.PLP.Chemscore.Metal>
0.0000

> <Gold.Chemscore.Hbonds>
donor molecule, donor type, donor heavy atom, donor atom, acceptor molecule, acceptor atom, score
      L1  H     3    28       P1  7948  1.00
      L1  H     6    29       P1  7948  1.00
      P1  H  7989  7998       L1    17  0.95
      L1  C    18    42       P1  7957  0.81

> <Gold.PLP.Chemscore.Internal.Correction>
0.4173

> <Gold.Rescore>
     Score         DG    S(hbond)    S(metal)    S(lipo)     H(rot)  DE(clash)    DE(int)     intcor
     18.18     -20.04       2.00        0.00      96.52       1.34       0.06       1.80       ----

> <Gold.Chemscore.Fitness>
18.1754

> <Gold.Chemscore.DG>
-20.0377

> <Gold.Chemscore.ZeroCoef>
-5.4800

> <Gold.Chemscore.Hbond>
2.0013

> <Gold.Chemscore.Metal>
0.0000

> <Gold.Chemscore.Lipo>
96.5225

> <Gold.Chemscore.Internal_Hbond>
0.0000

> <Gold.Chemscore.DEClash>
0.0599

> <Gold.Chemscore.DEInternal>
1.8024

> <Gold.Chemscore.Rot>
1.3359

> <Gold.Chemscore.Internal.Correction>
   9.000000E+99

> <Gold.Chemscore.Hbonds>
donor molecule, donor type, donor heavy atom, donor atom, acceptor molecule, acceptor atom, score
      L1  H     3    28       P1  7948  0.32
      L1  H     6    29       P1  7948  0.83
      P1  H  7989  7998       L1    17  0.21

> <Gold.Chemscore.Hbond.Weighted>
-6.6844

> <Gold.Chemscore.Metal.Weighted>
-0.0000

> <Gold.Chemscore.Lipo.Weighted>
-11.2931

> <Gold.Chemscore.Internal_Hbond.Weighted>
0.0000

> <Gold.Chemscore.DEClash.Weighted>
0.0599

> <Gold.Chemscore.DEInternal.Weighted>
1.8024

> <Gold.Chemscore.Rot.Weighted>
3.4199

> <Gold.Chemscore.Internal.Correction.Weighted>
   9.000000E+99

> <Gold.Protein.RotatedTorsions>
[ 6907 6896 6895 6894 ] final -167.65 input  -60.11 | X-H torsion
[ 7974 7965 7964 7962 ] final  146.61 input  175.53 | X-H torsion
[ 8008 7997 7996 7995 ] final  -91.53 input   59.86 | X-H torsion
[ 10167 10162 10161 10158 ] final -130.74 input  -65.29 | X-H torsion
[ 10718 10713 10712 10709 ] final   29.46 input   66.30 | X-H torsion
[ 10763 10752 10751 10750 ] final  -56.23 input  -60.55 | X-H torsion
[ 11005 11000 10999 10996 ] final  -62.42 input  -57.11 | X-H torsion

> <Gold.Protein.ActiveResidues>
 VAL166  LYS551  ARG553  GLY616  TRP617  ASP618  TYR619  PRO620  LYS621  CYS622 
 ASP623  PHE694  ASN695  SER759  ASP760  ASP761  ALA762  ILE779  LEU786  VAL792 
 PHE793  MET794  SER795  GLU796  ALA797  LYS798  CYS799  TRP800  GLU811  SER814 

> <Gold.Protein.RotatedAtoms>
  151.4629  133.3588  159.2811 H   0  0  0  0  0  0  0  0  0  0  0  0  # atno 6907 bound_to 6896
  150.9013  134.8427  159.7373 H   0  0  0  0  0  0  0  0  0  0  0  0  # atno 6908 bound_to 6896
  152.4881  134.4550  159.9638 H   0  0  0  0  0  0  0  0  0  0  0  0  # atno 6909 bound_to 6896
  144.8657  139.5927  143.5910 H   0  0  0  0  0  0  0  0  0  0  0  0  # atno 7974 bound_to 7965
  154.7119  140.0518  157.0558 H   0  0  0  0  0  0  0  0  0  0  0  0  # atno 8008 bound_to 7997
  155.0543  140.3182  155.4662 H   0  0  0  0  0  0  0  0  0  0  0  0  # atno 8009 bound_to 7997
  156.2792  140.2110  156.5669 H   0  0  0  0  0  0  0  0  0  0  0  0  # atno 8010 bound_to 7997
  139.9262  143.6325  152.2541 H   0  0  0  0  0  0  0  0  0  0  0  0  # atno 10167 bound_to 10162
  157.2469  130.7096  149.6386 H   0  0  0  0  0  0  0  0  0  0  0  0  # atno 10718 bound_to 10713
  154.2033  135.6407  153.5093 H   0  0  0  0  0  0  0  0  0  0  0  0  # atno 10763 bound_to 10752
  153.0007  135.5456  154.6292 H   0  0  0  0  0  0  0  0  0  0  0  0  # atno 10764 bound_to 10752
  154.5711  135.2917  155.0800 H   0  0  0  0  0  0  0  0  0  0  0  0  # atno 10765 bound_to 10752
  141.1359  133.6640  156.5525 H   0  0  0  0  0  0  0  0  0  0  0  0  # atno 11005 bound_to 11000
  146.2894  139.7095  142.9172 LP  0  0  0  0  0  0  0  0  0  0  0  0  # atno 17320 bound_to 7965
  145.4226  141.0408  143.2955 LP  0  0  0  0  0  0  0  0  0  0  0  0  # atno 17321 bound_to 7965
  139.6820  144.7654  151.1591 LP  0  0  0  0  0  0  0  0  0  0  0  0  # atno 17342 bound_to 10162
  140.7649  143.5711  150.8995 LP  0  0  0  0  0  0  0  0  0  0  0  0  # atno 17343 bound_to 10162
  155.9667  130.4440  150.5444 LP  0  0  0  0  0  0  0  0  0  0  0  0  # atno 17370 bound_to 10713
  157.3320  131.0701  151.1854 LP  0  0  0  0  0  0  0  0  0  0  0  0  # atno 17371 bound_to 10713
  140.4052  134.7321  157.4804 LP  0  0  0  0  0  0  0  0  0  0  0  0  # atno 17394 bound_to 11000
  140.0467  134.6189  155.8912 LP  0  0  0  0  0  0  0  0  0  0  0  0  # atno 17395 bound_to 11000

$$$$
