AV-unprocessed.smi:1900|AV-procd|sdf|7714|dock4
  -GOLD-   22720 9453D 1   1.00000     0.00000
 Structure written by MMmdl.
 43 44  0  0  0  0  0  0  0  0  1 V2000
  151.3456  137.1658  154.7486 C   0  0  0  0  0  0  0  0  0  0  0  0
  151.3205  138.6980  154.7420 C   0  0  1  0  0  0  0  0  0  0  0  0
  149.9744  139.2558  154.2426 C   0  0  0  0  0  0  0  0  0  0  0  0
  149.9254  140.7122  154.3062 N   0  0  0  0  0  0  0  0  0  0  0  0
  148.6384  141.2102  153.8226 C   0  0  0  0  0  0  0  0  0  0  0  0
  147.4337  140.2975  154.1096 C   0  0  0  0  0  0  0  0  0  0  0  0
  147.0235  139.4815  152.8735 C   0  0  0  0  0  0  0  0  0  0  0  0
  145.6431  139.0198  152.9677 N   0  0  0  0  0  0  0  0  0  0  0  0
  145.2681  137.7920  153.3542 C   0  0  0  0  0  0  0  0  0  0  0  0
  146.0622  136.9046  153.6661 O   0  0  0  0  0  0  0  0  0  0  0  0
  143.9310  137.6671  153.3545 N   0  0  0  0  0  0  0  0  0  0  0  0
  143.1763  136.5283  153.7321 C   0  0  0  0  0  0  0  0  0  0  0  0
  141.7730  136.4087  153.9551 C   0  0  0  0  0  0  0  0  0  0  0  0
  141.4453  135.1698  154.2939 N   0  0  0  0  0  0  0  0  0  0  0  0
  142.6198  134.5002  154.2885 N   0  0  0  0  0  0  0  0  0  0  0  0
  143.6981  135.2888  153.9526 C   0  0  0  0  0  0  0  0  0  0  0  0
  150.2124  141.1347  155.6753 C   0  0  0  0  0  0  0  0  0  0  0  0
  151.5558  140.5763  156.1841 C   0  0  1  0  0  0  0  0  0  0  0  0
  151.8173  140.9411  157.6492 C   0  0  0  0  0  0  0  0  0  0  0  0
  151.5458  139.1557  156.0723 O   0  0  0  0  0  0  0  0  0  0  0  0
  142.6682  133.5166  154.5135 H   0  0  0  0  0  0  0  0  0  0  0  0
  151.1887  136.7671  153.7460 H   0  0  0  0  0  0  0  0  0  0  0  0
  150.5672  136.7613  155.3965 H   0  0  0  0  0  0  0  0  0  0  0  0
  152.3051  136.7935  155.1079 H   0  0  0  0  0  0  0  0  0  0  0  0
  152.1270  139.0593  154.1014 H   0  0  0  0  0  0  0  0  0  0  0  0
  149.8086  138.9267  153.2158 H   0  0  0  0  0  0  0  0  0  0  0  0
  149.1636  138.8339  154.8387 H   0  0  0  0  0  0  0  0  0  0  0  0
  148.4387  142.1733  154.2948 H   0  0  0  0  0  0  0  0  0  0  0  0
  148.6993  141.4100  152.7517 H   0  0  0  0  0  0  0  0  0  0  0  0
  147.6630  139.6105  154.9239 H   0  0  0  0  0  0  0  0  0  0  0  0
  146.5925  140.9071  154.4427 H   0  0  0  0  0  0  0  0  0  0  0  0
  147.1628  140.0678  151.9636 H   0  0  0  0  0  0  0  0  0  0  0  0
  147.6663  138.6060  152.7781 H   0  0  0  0  0  0  0  0  0  0  0  0
  144.9230  139.6852  152.7279 H   0  0  0  0  0  0  0  0  0  0  0  0
  143.3975  138.4744  153.0675 H   0  0  0  0  0  0  0  0  0  0  0  0
  140.9934  137.1527  153.8860 H   0  0  0  0  0  0  0  0  0  0  0  0
  144.7079  134.9089  153.9013 H   0  0  0  0  0  0  0  0  0  0  0  0
  150.2442  142.2220  155.7355 H   0  0  0  0  0  0  0  0  0  0  0  0
  149.4090  140.8074  156.3374 H   0  0  0  0  0  0  0  0  0  0  0  0
  152.3696  140.9725  155.5741 H   0  0  0  0  0  0  0  0  0  0  0  0
  151.8442  142.0224  157.7857 H   0  0  0  0  0  0  0  0  0  0  0  0
  152.7736  140.5401  157.9855 H   0  0  0  0  0  0  0  0  0  0  0  0
  151.0404  140.5399  158.3008 H   0  0  0  0  0  0  0  0  0  0  0  0
  1  2  1  0  0  0  0
  1 22  1  0  0  0  0
  1 23  1  0  0  0  0
  1 24  1  0  0  0  0
  2 20  1  0  0  0  0
  2  3  1  0  0  0  0
  2 25  1  0  0  0  0
  3  4  1  0  0  0  0
  3 26  1  0  0  0  0
  3 27  1  0  0  0  0
  4  5  1  0  0  0  0
  4 17  1  0  0  0  0
  5  6  1  0  0  0  0
  5 28  1  0  0  0  0
  5 29  1  0  0  0  0
  6  7  1  0  0  0  0
  6 30  1  0  0  0  0
  6 31  1  0  0  0  0
  7  8  1  0  0  0  0
  7 32  1  0  0  0  0
  7 33  1  0  0  0  0
  8  9  1  0  0  0  0
  8 34  1  0  0  0  0
  9 10  2  0  0  0  0
  9 11  1  0  0  0  0
 11 12  1  0  0  0  0
 11 35  1  0  0  0  0
 12 16  2  0  0  0  0
 12 13  1  0  0  0  0
 13 14  2  0  0  0  0
 13 36  1  0  0  0  0
 14 15  1  0  0  0  0
 15 21  1  0  0  0  0
 15 16  1  0  0  0  0
 16 37  1  0  0  0  0
 17 18  1  0  0  0  0
 17 38  1  0  0  0  0
 17 39  1  0  0  0  0
 18 19  1  0  0  0  0
 18 20  1  0  0  0  0
 18 40  1  0  0  0  0
 19 41  1  0  0  0  0
 19 42  1  0  0  0  0
 19 43  1  0  0  0  0
M  END
> <s_m_source_file>
AV-unprocessed.smi

> <i_m_source_file_index>
1900

> <i_lp_mmshare_version>
43012

> <i_f3d_flags>
0

> <s_epik_input>
W0NIM11bQ0BASF0xW0NIMl1OKFtDSDJdW0NASF0oTzEpW0NIM10pW0NIMl1bQ0gyXVtDSDJdW05IXUMoPU8pW05IXWMyW2NIXW5bbkhdW2NIXTI=

> <s_epik_cmdline>
J2VwaWtfcHl0aG9uJywgJy1waCcsICc3LjAnLCAnLXRuJywgJzgnLCAnLW1hJywgJzIwMCcsICctbWV0YWxfYmluZGluZycsICctaW1hZScsICc8aW5maWxlLm1hZT4nLCAnLW9tYWUnLCAnPG91dGZpbGUubWFlPic=

> <r_lp_tautomer_probability>
0.5

> <r_epik_Ionization_Penalty>
0.594715

> <r_epik_Ionization_Penalty_Charging>
0

> <r_epik_Ionization_Penalty_Neutral>
0.594715

> <r_epik_State_Penalty>
0.608529

> <r_epik_Charging_Adjusted_Penalty>
0.608529

> <i_epik_Tot_Q>
0

> <i_epik_Tot_abs_Q>
0

> <r_epik_Metal_State_Penalty>
0.608528

> <b_epik_Metal_Only>
0

> <s_lp_Force_Field>
OPLS_2005

> <r_lp_Energy>
22.5064

> <b_lp_Chiralities_Consistent>
1

> <s_lp_Variant>
AV-unprocessed.smi:1900-6

> <Gold.Version>
5.8.1

> <Gold.Id.Protein>
6NUR|6NUR_protein|mol2

> <Gold.PLP.Fitness>
43.2743

> <Gold.PLP.PLP>
-32.7237

> <Gold.PLP.part.hbond>
-5.0975

> <Gold.PLP.part.metal>
0.0000

> <Gold.PLP.part.buried>
-2.7395

> <Gold.PLP.part.nonpolar>
-24.6118

> <Gold.PLP.part.repulsive>
0.4062

> <Gold.PLP.ligand.clash>
0.0281

> <Gold.PLP.ligand.torsion>
0.9097

> <Gold.PLP.Chemscore.Hbond>
4.1189

> <Gold.PLP.Chemscore.CHOScore>
0.0000

> <Gold.PLP.Chemscore.Metal>
0.0000

> <Gold.Chemscore.Hbonds>
donor molecule, donor type, donor heavy atom, donor atom, acceptor molecule, acceptor atom, score
      L1  H     8    34       P1 10175  0.89
      L1  H    11    35       P1 10175  0.76
      L1  H    15    21       P1 10957  1.00
      P1  H  7989  7998       L1     4  0.46
      P1  H 11000 11005       L1    14  0.85

> <Gold.PLP.Chemscore.Internal.Correction>
0.0413

> <Gold.Rescore>
     Score         DG    S(hbond)    S(metal)    S(lipo)     H(rot)  DE(clash)    DE(int)     intcor
     17.27     -19.85       3.20        0.00      72.75       1.88       0.34       2.25       ----

> <Gold.Chemscore.Fitness>
17.2690

> <Gold.Chemscore.DG>
-19.8544

> <Gold.Chemscore.ZeroCoef>
-5.4800

> <Gold.Chemscore.Hbond>
3.1963

> <Gold.Chemscore.Metal>
0.0000

> <Gold.Chemscore.Lipo>
72.7474

> <Gold.Chemscore.Internal_Hbond>
0.0000

> <Gold.Chemscore.DEClash>
0.3369

> <Gold.Chemscore.DEInternal>
2.2485

> <Gold.Chemscore.Rot>
1.8799

> <Gold.Chemscore.Internal.Correction>
   9.000000E+99

> <Gold.Chemscore.Hbonds>
donor molecule, donor type, donor heavy atom, donor atom, acceptor molecule, acceptor atom, score
      L1  H     8    34       P1 10175  0.87
      L1  H    11    35       P1 10175  0.74
      L1  H    15    21       P1 10957  1.00
      P1  H  7989  7998       L1     4  0.01
      P1  H 11000 11005       L1    14  0.24

> <Gold.Chemscore.Hbond.Weighted>
-10.6755

> <Gold.Chemscore.Metal.Weighted>
-0.0000

> <Gold.Chemscore.Lipo.Weighted>
-8.5114

> <Gold.Chemscore.Internal_Hbond.Weighted>
0.0000

> <Gold.Chemscore.DEClash.Weighted>
0.3369

> <Gold.Chemscore.DEInternal.Weighted>
2.2485

> <Gold.Chemscore.Rot.Weighted>
4.8126

> <Gold.Chemscore.Internal.Correction.Weighted>
   9.000000E+99

> <Gold.Protein.RotatedTorsions>
[ 6907 6896 6895 6894 ] final  141.33 input  -60.11 | X-H torsion
[ 7974 7965 7964 7962 ] final   32.52 input  175.53 | X-H torsion
[ 8008 7997 7996 7995 ] final  -41.45 input   59.86 | X-H torsion
[ 10167 10162 10161 10158 ] final  -62.28 input  -65.29 | X-H torsion
[ 10718 10713 10712 10709 ] final  103.88 input   66.30 | X-H torsion
[ 10763 10752 10751 10750 ] final -179.34 input  -60.55 | X-H torsion
[ 11005 11000 10999 10996 ] final   18.83 input  -57.11 | X-H torsion

> <Gold.Protein.ActiveResidues>
 VAL166  LYS551  ARG553  GLY616  TRP617  ASP618  TYR619  PRO620  LYS621  CYS622 
 ASP623  PHE694  ASN695  SER759  ASP760  ASP761  ALA762  ILE779  LEU786  VAL792 
 PHE793  MET794  SER795  GLU796  ALA797  LYS798  CYS799  TRP800  GLU811  SER814 

> <Gold.Protein.RotatedAtoms>
  152.2323  133.5068  159.5222 H   0  0  0  0  0  0  0  0  0  0  0  0  # atno 6907 bound_to 6896
  150.7041  134.1199  159.4040 H   0  0  0  0  0  0  0  0  0  0  0  0  # atno 6908 bound_to 6896
  151.9121  135.0334  160.0566 H   0  0  0  0  0  0  0  0  0  0  0  0  # atno 6909 bound_to 6896
  146.1481  139.6515  142.9118 H   0  0  0  0  0  0  0  0  0  0  0  0  # atno 7974 bound_to 7965
  154.4004  140.1499  156.3193 H   0  0  0  0  0  0  0  0  0  0  0  0  # atno 8008 bound_to 7997
  155.8544  140.3456  155.5693 H   0  0  0  0  0  0  0  0  0  0  0  0  # atno 8009 bound_to 7997
  155.7949  140.0862  157.1979 H   0  0  0  0  0  0  0  0  0  0  0  0  # atno 8010 bound_to 7997
  140.5949  143.2349  151.6057 H   0  0  0  0  0  0  0  0  0  0  0  0  # atno 10167 bound_to 10162
  157.6758  131.0790  150.5623 H   0  0  0  0  0  0  0  0  0  0  0  0  # atno 10718 bound_to 10713
  154.5363  135.2803  155.1135 H   0  0  0  0  0  0  0  0  0  0  0  0  # atno 10763 bound_to 10752
  154.2635  135.6317  153.5287 H   0  0  0  0  0  0  0  0  0  0  0  0  # atno 10764 bound_to 10752
  152.9968  135.5611  154.5890 H   0  0  0  0  0  0  0  0  0  0  0  0  # atno 10765 bound_to 10752
  140.4204  134.1524  155.7672 H   0  0  0  0  0  0  0  0  0  0  0  0  # atno 11005 bound_to 11000
  145.4890  141.0438  143.2604 LP  0  0  0  0  0  0  0  0  0  0  0  0  # atno 17320 bound_to 7965
  144.7870  139.6406  143.7130 LP  0  0  0  0  0  0  0  0  0  0  0  0  # atno 17321 bound_to 7965
  139.5252  144.3082  152.1016 LP  0  0  0  0  0  0  0  0  0  0  0  0  # atno 17342 bound_to 10162
  140.2253  144.4425  150.6324 LP  0  0  0  0  0  0  0  0  0  0  0  0  # atno 17343 bound_to 10162
  156.5925  130.4333  149.5930 LP  0  0  0  0  0  0  0  0  0  0  0  0  # atno 17370 bound_to 10713
  156.2571  130.6941  151.1698 LP  0  0  0  0  0  0  0  0  0  0  0  0  # atno 17371 bound_to 10713
  141.1786  133.8462  157.1336 LP  0  0  0  0  0  0  0  0  0  0  0  0  # atno 17394 bound_to 11000
  140.0204  134.9948  157.0580 LP  0  0  0  0  0  0  0  0  0  0  0  0  # atno 17395 bound_to 11000

$$$$
