AV-unprocessed.smi:2513|AV-procd|sdf|9891|dock9
  -GOLD-   2272013523D 1   1.00000     0.00000
 Structure written by MMmdl.
 35 36  0  0  0  0  0  0  0  0  1 V2000
  148.6249  132.9593  150.4591 C   0  0  0  0  0  0  0  0  0  0  0  0
  149.7422  133.7454  150.8470 O   0  0  0  0  0  0  0  0  0  0  0  0
  150.9567  133.5023  150.2353 C   0  0  0  0  0  0  0  0  0  0  0  0
  151.1718  132.4483  149.3108 C   0  0  0  0  0  0  0  0  0  0  0  0
  152.4455  132.2791  148.7410 C   0  0  0  0  0  0  0  0  0  0  0  0
  153.4633  133.1716  149.1143 C   0  0  0  0  0  0  0  0  0  0  0  0
  153.2727  134.1776  149.9902 N   0  0  0  0  0  0  0  0  0  0  0  0
  152.0490  134.3526  150.5489 C   0  0  0  0  0  0  0  0  0  0  0  0
  151.7673  135.3890  151.4819 N   0  0  0  0  0  0  0  0  0  0  0  0
  152.6273  136.2270  152.0867 C   0  0  0  0  0  0  0  0  0  0  0  0
  153.8481  136.2351  151.9261 O   0  0  0  0  0  0  0  0  0  0  0  0
  151.9838  137.0740  152.9031 N   0  0  0  0  0  0  0  0  0  0  0  0
  152.6197  138.1111  153.7100 C   0  0  2  0  0  0  0  0  0  0  0  0
  153.5711  137.4666  154.7291 C   0  0  0  0  0  0  0  0  0  0  0  0
  154.1356  138.5374  155.6695 C   0  0  0  0  0  0  0  0  0  0  0  0
  152.9961  139.3577  156.2943 C   0  0  0  0  0  0  0  0  0  0  0  0
  152.1964  139.9347  155.2676 O   0  0  0  0  0  0  0  0  0  0  0  0
  151.5615  138.9635  154.4418 C   0  0  0  0  0  0  0  0  0  0  0  0
  147.7498  133.2736  151.0281 H   0  0  0  0  0  0  0  0  0  0  0  0
  148.7902  131.9011  150.6664 H   0  0  0  0  0  0  0  0  0  0  0  0
  148.3938  133.0895  149.4011 H   0  0  0  0  0  0  0  0  0  0  0  0
  150.3861  131.7650  149.0270 H   0  0  0  0  0  0  0  0  0  0  0  0
  152.6371  131.4841  148.0355 H   0  0  0  0  0  0  0  0  0  0  0  0
  154.4563  133.0761  148.7003 H   0  0  0  0  0  0  0  0  0  0  0  0
  150.7917  135.5027  151.7139 H   0  0  0  0  0  0  0  0  0  0  0  0
  150.9799  136.9965  152.9735 H   0  0  0  0  0  0  0  0  0  0  0  0
  153.2069  138.7619  153.0592 H   0  0  0  0  0  0  0  0  0  0  0  0
  153.0370  136.7170  155.3152 H   0  0  0  0  0  0  0  0  0  0  0  0
  154.3833  136.9468  154.2194 H   0  0  0  0  0  0  0  0  0  0  0  0
  154.7392  138.0735  156.4499 H   0  0  0  0  0  0  0  0  0  0  0  0
  154.7985  139.2010  155.1131 H   0  0  0  0  0  0  0  0  0  0  0  0
  152.3792  138.7353  156.9444 H   0  0  0  0  0  0  0  0  0  0  0  0
  153.4051  140.1564  156.9132 H   0  0  0  0  0  0  0  0  0  0  0  0
  150.9292  139.4854  153.7229 H   0  0  0  0  0  0  0  0  0  0  0  0
  150.9032  138.3374  155.0463 H   0  0  0  0  0  0  0  0  0  0  0  0
  1  2  1  0  0  0  0
  1 19  1  0  0  0  0
  1 20  1  0  0  0  0
  1 21  1  0  0  0  0
  2  3  1  0  0  0  0
  3  8  1  0  0  0  0
  3  4  2  0  0  0  0
  4  5  1  0  0  0  0
  4 22  1  0  0  0  0
  5  6  2  0  0  0  0
  5 23  1  0  0  0  0
  6  7  1  0  0  0  0
  6 24  1  0  0  0  0
  7  8  2  0  0  0  0
  8  9  1  0  0  0  0
  9 10  1  0  0  0  0
  9 25  1  0  0  0  0
 10 11  2  0  0  0  0
 10 12  1  0  0  0  0
 12 13  1  0  0  0  0
 12 26  1  0  0  0  0
 13 18  1  0  0  0  0
 13 14  1  0  0  0  0
 13 27  1  0  0  0  0
 14 15  1  0  0  0  0
 14 28  1  0  0  0  0
 14 29  1  0  0  0  0
 15 16  1  0  0  0  0
 15 30  1  0  0  0  0
 15 31  1  0  0  0  0
 16 17  1  0  0  0  0
 16 32  1  0  0  0  0
 16 33  1  0  0  0  0
 17 18  1  0  0  0  0
 18 34  1  0  0  0  0
 18 35  1  0  0  0  0
M  END
> <s_m_source_file>
AV-unprocessed.smi

> <i_m_source_file_index>
2513

> <i_lp_mmshare_version>
43012

> <i_f3d_flags>
0

> <s_epik_input>
W0NIM11PYzFbY0hdW2NIXVtjSF1uYzFbTkhdQyg9TylbTkhdW0NAQEhdMltDSDJdW0NIMl1bQ0gyXU9bQ0gyXTI=

> <s_epik_cmdline>
J2VwaWtfcHl0aG9uJywgJy1waCcsICc3LjAnLCAnLXRuJywgJzgnLCAnLW1hJywgJzIwMCcsICctbWV0YWxfYmluZGluZycsICctaW1hZScsICc8aW5maWxlLm1hZT4nLCAnLW9tYWUnLCAnPG91dGZpbGUubWFlPic=

> <r_lp_tautomer_probability>
1

> <r_epik_Ionization_Penalty>
3.98976e-05

> <r_epik_Ionization_Penalty_Charging>
0

> <r_epik_Ionization_Penalty_Neutral>
3.98976e-05

> <r_epik_State_Penalty>
-0

> <r_epik_Charging_Adjusted_Penalty>
0

> <i_epik_Tot_Q>
0

> <i_epik_Tot_abs_Q>
0

> <r_epik_Metal_State_Penalty>
-0

> <b_epik_Metal_Only>
0

> <s_lp_Force_Field>
OPLS_2005

> <r_lp_Energy>
12.9865

> <b_lp_Chiralities_Consistent>
1

> <s_lp_Variant>
AV-unprocessed.smi:2513-1

> <Gold.Version>
5.8.1

> <Gold.Id.Protein>
6NUR|6NUR_protein|mol2

> <Gold.PLP.Fitness>
39.4684

> <Gold.PLP.PLP>
-29.4939

> <Gold.PLP.part.hbond>
-4.8842

> <Gold.PLP.part.metal>
0.0000

> <Gold.PLP.part.buried>
-3.5566

> <Gold.PLP.part.nonpolar>
-22.0121

> <Gold.PLP.part.repulsive>
0.4029

> <Gold.PLP.ligand.clash>
0.0000

> <Gold.PLP.ligand.torsion>
0.0533

> <Gold.PLP.Chemscore.Hbond>
3.3594

> <Gold.PLP.Chemscore.CHOScore>
0.0000

> <Gold.PLP.Chemscore.Metal>
0.0000

> <Gold.Chemscore.Hbonds>
donor molecule, donor type, donor heavy atom, donor atom, acceptor molecule, acceptor atom, score
      P1  H 10752 10763       L1    11  0.15

> <Gold.PLP.Chemscore.Internal.Correction>
0.0030

> <Gold.Rescore>
     Score         DG    S(hbond)    S(metal)    S(lipo)     H(rot)  DE(clash)    DE(int)     intcor
     14.52     -16.03       2.34        0.00      50.78       1.25       0.12       1.38       ----

> <Gold.Chemscore.Fitness>
14.5195

> <Gold.Chemscore.DG>
-16.0284

> <Gold.Chemscore.ZeroCoef>
-5.4800

> <Gold.Chemscore.Hbond>
2.3406

> <Gold.Chemscore.Metal>
0.0000

> <Gold.Chemscore.Lipo>
50.7805

> <Gold.Chemscore.Internal_Hbond>
0.0000

> <Gold.Chemscore.DEClash>
0.1242

> <Gold.Chemscore.DEInternal>
1.3847

> <Gold.Chemscore.Rot>
1.2542

> <Gold.Chemscore.Internal.Correction>
   9.000000E+99

> <Gold.Chemscore.Hbond.Weighted>
-7.8177

> <Gold.Chemscore.Metal.Weighted>
-0.0000

> <Gold.Chemscore.Lipo.Weighted>
-5.9413

> <Gold.Chemscore.Internal_Hbond.Weighted>
0.0000

> <Gold.Chemscore.DEClash.Weighted>
0.1242

> <Gold.Chemscore.DEInternal.Weighted>
1.3847

> <Gold.Chemscore.Rot.Weighted>
3.2107

> <Gold.Chemscore.Internal.Correction.Weighted>
   9.000000E+99

> <Gold.Protein.RotatedTorsions>
[ 6907 6896 6895 6894 ] final   89.95 input  -60.11 | X-H torsion
[ 7974 7965 7964 7962 ] final  169.51 input  175.53 | X-H torsion
[ 8008 7997 7996 7995 ] final    1.15 input   59.86 | X-H torsion
[ 10167 10162 10161 10158 ] final  -91.11 input  -65.29 | X-H torsion
[ 10718 10713 10712 10709 ] final   24.42 input   66.30 | X-H torsion
[ 10763 10752 10751 10750 ] final  -35.57 input  -60.55 | X-H torsion
[ 11005 11000 10999 10996 ] final  -10.33 input  -57.11 | X-H torsion

> <Gold.Protein.ActiveResidues>
 VAL166  LYS551  ARG553  GLY616  TRP617  ASP618  TYR619  PRO620  LYS621  CYS622 
 ASP623  PHE694  ASN695  SER759  ASP760  ASP761  ALA762  ILE779  LEU786  VAL792 
 PHE793  MET794  SER795  GLU796  ALA797  LYS798  CYS799  TRP800  GLU811  SER814 

> <Gold.Protein.RotatedAtoms>
  152.5441  134.1887  159.8664 H   0  0  0  0  0  0  0  0  0  0  0  0  # atno 6907 bound_to 6896
  151.1884  133.4675  159.2602 H   0  0  0  0  0  0  0  0  0  0  0  0  # atno 6908 bound_to 6896
  151.1108  135.0037  159.8548 H   0  0  0  0  0  0  0  0  0  0  0  0  # atno 6909 bound_to 6896
  144.7353  139.9065  143.6412 H   0  0  0  0  0  0  0  0  0  0  0  0  # atno 7974 bound_to 7965
  154.6763  140.2623  155.6954 H   0  0  0  0  0  0  0  0  0  0  0  0  # atno 8008 bound_to 7997
  156.2679  140.2819  156.1213 H   0  0  0  0  0  0  0  0  0  0  0  0  # atno 8009 bound_to 7997
  155.1095  140.0375  157.2710 H   0  0  0  0  0  0  0  0  0  0  0  0  # atno 8010 bound_to 7997
  140.3481  143.2905  151.9757 H   0  0  0  0  0  0  0  0  0  0  0  0  # atno 10167 bound_to 10162
  157.1795  130.6796  149.6108 H   0  0  0  0  0  0  0  0  0  0  0  0  # atno 10718 bound_to 10713
  153.8654  135.6836  153.4779 H   0  0  0  0  0  0  0  0  0  0  0  0  # atno 10763 bound_to 10752
  153.1318  135.4695  154.9358 H   0  0  0  0  0  0  0  0  0  0  0  0  # atno 10764 bound_to 10752
  154.7739  135.3247  154.8082 H   0  0  0  0  0  0  0  0  0  0  0  0  # atno 10765 bound_to 10752
  140.7436  133.8649  155.8988 H   0  0  0  0  0  0  0  0  0  0  0  0  # atno 11005 bound_to 11000
  146.1033  139.4030  143.0333 LP  0  0  0  0  0  0  0  0  0  0  0  0  # atno 17320 bound_to 7965
  145.7547  140.9958  143.1231 LP  0  0  0  0  0  0  0  0  0  0  0  0  # atno 17321 bound_to 7965
  139.4830  144.6099  151.7453 LP  0  0  0  0  0  0  0  0  0  0  0  0  # atno 17342 bound_to 10162
  140.5245  144.0828  150.6033 LP  0  0  0  0  0  0  0  0  0  0  0  0  # atno 17343 bound_to 10162
  155.9726  130.4651  150.6243 LP  0  0  0  0  0  0  0  0  0  0  0  0  # atno 17370 bound_to 10713
  157.3966  131.0803  151.1346 LP  0  0  0  0  0  0  0  0  0  0  0  0  # atno 17371 bound_to 10713
  140.9814  134.1400  157.4491 LP  0  0  0  0  0  0  0  0  0  0  0  0  # atno 17394 bound_to 11000
  139.8801  135.0011  156.6051 LP  0  0  0  0  0  0  0  0  0  0  0  0  # atno 17395 bound_to 11000

$$$$
