#       Name:                AV-unprocessed.smi:234
#       Creating user name   scv26
#       Creation time:       Thu Mar 26 20:35:08 2020


#       File generated by GOLD software.
#

@<TRIPOS>MOLECULE
AV-unprocessed.smi:234
    69    72     1
SMALL
NO_CHARGES


@<TRIPOS>ATOM
      1 ****        -6.2740  -0.8286   3.2608 C.3            1 S1                 0.0000
      2 ****        -5.9669  -1.3702   1.8584 C.3            1 S1                 0.0000
      3 ****        -4.6218  -1.8092   1.7321 O.3            1 S1                 0.0000
      4 ****        -3.6514  -0.7705   1.7490 C.3            1 S1                 0.0000
      5 ****        -2.4991  -1.0554   0.7860 C.3            1 S1                 0.0000
      6 ****        -1.5960  -0.4301   1.8559 C.3            1 S1                 0.0000
      7 ****        -0.2810  -1.0628   1.9849 N.3            1 S1                 0.0000
      8 ****         0.5593  -0.6177   3.0894 C.3            1 S1                 0.0000
      9 ****         0.4421  -1.1940   0.8484 C.ar           1 S1                 0.0000
     10 ****         1.1090  -2.3625   0.6751 N.ar           1 S1                 0.0000
     11 ****         1.8459  -2.5575  -0.4223 C.ar           1 S1                 0.0000
     12 ****         2.0539  -1.7280  -1.4468 N.ar           1 S1                 0.0000
     13 ****         1.3971  -0.5458  -1.2690 C.ar           1 S1                 0.0000
     14 ****         0.5746  -0.1965  -0.1607 C.ar           1 S1                 0.0000
     15 ****         0.0820   1.0929  -0.3280 N.2            1 S1                 0.0000
     16 ****         0.5761   1.4786  -1.4722 C.2            1 S1                 0.0000
     17 ****         1.3854   0.5601  -2.1010 N.pl3          1 S1                 0.0000
     18 ****         2.0727   0.7296  -3.3716 C.3            1 S1                 0.0000
     19 ****         3.4671   1.3858  -3.2335 C.3            1 S1                 0.0000
     20 ****         4.2856   0.5479  -2.4333 O.3            1 S1                 0.0000
     21 ****         3.4417   2.7721  -2.6065 C.3            1 S1                 0.0000
     22 ****         4.7283   3.3963  -3.1320 C.3            1 S1                 0.0000
     23 ****         4.8602   2.8936  -4.4550 O.3            1 S1                 0.0000
     24 ****         4.1393   1.6700  -4.5953 C.3            1 S1                 0.0000
     25 ****         5.0439   0.5631  -5.1604 C.3            1 S1                 0.0000
     26 ****        -2.6395  -0.8634   2.9223 C.3            1 S1                 0.0000
     27 ****        -2.8621   0.1208   4.0713 C.3            1 S1                 0.0000
     28 ****        -2.4790  -2.2614   3.5462 C.3            1 S1                 0.0000
     29 ****        -7.3372  -0.6125   3.3656 H              1 S1                 0.0000
     30 ****        -5.7341   0.0962   3.4603 H              1 S1                 0.0000
     31 ****        -6.0031  -1.5531   4.0290 H              1 S1                 0.0000
     32 ****        -6.6101  -2.2279   1.6613 H              1 S1                 0.0000
     33 ****        -6.1986  -0.6275   1.0937 H              1 S1                 0.0000
     34 ****        -4.0528   0.2348   1.5975 H              1 S1                 0.0000
     35 ****        -2.3243  -2.1202   0.6211 H              1 S1                 0.0000
     36 ****        -2.5444  -0.5036  -0.1530 H              1 S1                 0.0000
     37 ****        -1.5521   0.6567   1.7634 H              1 S1                 0.0000
     38 ****         1.4706  -1.2128   3.1602 H              1 S1                 0.0000
     39 ****         0.0360  -0.7084   4.0396 H              1 S1                 0.0000
     40 ****         0.8423   0.4270   2.9569 H              1 S1                 0.0000
     41 ****         2.3411  -3.5150  -0.4885 H              1 S1                 0.0000
     42 ****         0.3689   2.4539  -1.8877 H              1 S1                 0.0000
     43 ****         2.1602  -0.2459  -3.8519 H              1 S1                 0.0000
     44 ****         1.4340   1.3314  -4.0195 H              1 S1                 0.0000
     45 ****         5.1449   0.9366  -2.3753 H              1 S1                 0.0000
     46 ****         2.5892   3.3395  -2.9820 H              1 S1                 0.0000
     47 ****         3.3841   2.7623  -1.5172 H              1 S1                 0.0000
     48 ****         4.7038   4.4859  -3.1184 H              1 S1                 0.0000
     49 ****         5.5841   3.0676  -2.5411 H              1 S1                 0.0000
     50 ****         3.3604   1.8780  -5.3303 H              1 S1                 0.0000
     51 ****         4.5000  -0.3768  -5.2552 H              1 S1                 0.0000
     52 ****         5.9129   0.3888  -4.5256 H              1 S1                 0.0000
     53 ****         5.4124   0.8341  -6.1498 H              1 S1                 0.0000
     54 ****        -1.9881   0.1876   4.7185 H              1 S1                 0.0000
     55 ****        -3.7051  -0.1731   4.6964 H              1 S1                 0.0000
     56 ****        -3.0665   1.1262   3.7025 H              1 S1                 0.0000
     57 ****        -1.6730  -2.2887   4.2791 H              1 S1                 0.0000
     58 ****        -2.2581  -3.0234   2.7986 H              1 S1                 0.0000
     59 ****        -3.3895  -2.5731   4.0587 H              1 S1                 0.0000
     60 ****        -4.5353  -2.3016   0.8661 LP             1 S1                 0.0000
     61 ****        -4.4251  -2.4311   2.4902 LP             1 S1                 0.0000
     62 ****        -0.5874  -1.9829   2.2291 LP             1 S1                 0.0000
     63 ****         1.0490  -3.0792   1.3699 LP             1 S1                 0.0000
     64 ****         2.6188  -1.9453  -2.2428 LP             1 S1                 0.0000
     65 ****        -0.5147   1.6071   0.2880 LP             1 S1                 0.0000
     66 ****         4.3524  -0.3579  -2.8517 LP             1 S1                 0.0000
     67 ****         3.8905   0.4641  -1.5185 LP             1 S1                 0.0000
     68 ****         5.8272   2.7308  -4.6509 LP             1 S1                 0.0000
     69 ****         4.4977   3.5657  -5.1007 LP             1 S1                 0.0000
@<TRIPOS>BOND
    1    1    2 1     
    2    1   29 1     
    3    1   30 1     
    4    1   31 1     
    5    2    3 1     
    6    2   32 1     
    7    2   33 1     
    8    3    4 1     
    9    4   26 1     
   10    4    5 1     
   11    4   34 1     
   12    5    6 1     
   13    5   35 1     
   14    5   36 1     
   15    6    7 1     
   16    6   26 1     
   17    6   37 1     
   18    7    8 1     
   19    7    9 1     
   20    8   38 1     
   21    8   39 1     
   22    8   40 1     
   23    9   14 ar    
   24    9   10 ar    
   25   10   11 ar    
   26   11   12 ar    
   27   11   41 1     
   28   12   13 ar    
   29   13   17 1     
   30   13   14 ar    
   31   14   15 1     
   32   15   16 2     
   33   16   17 1     
   34   16   42 1     
   35   17   18 1     
   36   18   19 1     
   37   18   43 1     
   38   18   44 1     
   39   19   24 1     
   40   19   20 1     
   41   19   21 1     
   42   20   45 1     
   43   21   22 1     
   44   21   46 1     
   45   21   47 1     
   46   22   23 1     
   47   22   48 1     
   48   22   49 1     
   49   23   24 1     
   50   24   25 1     
   51   24   50 1     
   52   25   51 1     
   53   25   52 1     
   54   25   53 1     
   55   26   27 1     
   56   26   28 1     
   57   27   54 1     
   58   27   55 1     
   59   27   56 1     
   60   28   57 1     
   61   28   58 1     
   62   28   59 1     
   63    3   60 1     
   64    3   61 1     
   65    7   62 1     
   66   10   63 1     
   67   12   64 1     
   68   15   65 1     
   69   20   66 1     
   70   20   67 1     
   71   23   68 1     
   72   23   69 1     
@<TRIPOS>SUBSTRUCTURE
      1 S1             1
@<TRIPOS>SET
LONE_PAIRS      STATIC     ATOMS    <user>   **** ""
10 60 61 62 63 64 65 66 67 68 69
DONOR_HYDROGENS      STATIC     ATOMS    <user>   **** ""
1 45
ATOM$BLUE        STATIC     ATOMS    COLORGROUP SYSTEM
10 60 61 62 63 64 65 66 67 68 69
ATOM$RED        STATIC     ATOMS    COLORGROUP SYSTEM
1 45
