AV-unprocessed.smi:258|AV-procd|sdf|1966|dock8
  -GOLD-   2262021123D 1   1.00000     0.00000
 Structure written by MMmdl.
 57 60  0  0  0  0  0  0  0  0  1 V2000
  146.5736  137.7676  150.5977 O   0  0  0  0  0  0  0  0  0  0  0  0
  145.9413  137.0204  151.6151 C   0  0  0  0  0  0  0  0  0  0  0  0
  145.4063  137.9556  152.7064 C   0  0  0  0  0  0  0  0  0  0  0  0
  146.3683  138.0517  153.7473 O   0  0  0  0  0  0  0  0  0  0  0  0
  147.2872  139.1263  153.6012 C   0  0  1  0  0  0  0  0  0  0  0  0
  146.5821  140.4853  153.7849 C   0  0  0  0  0  0  0  0  0  0  0  0
  147.6130  141.6239  153.7729 C   0  0  0  0  0  0  0  0  0  0  0  0
  148.7084  141.3882  154.8251 C   0  0  0  0  0  0  0  0  0  0  0  0
  149.3202  140.0693  154.6529 N   0  0  0  0  0  0  0  0  0  0  0  0
  150.5011  139.8326  155.2794 C   0  0  0  0  0  0  0  0  0  0  0  0
  151.4752  139.1230  154.6480 N   0  0  0  0  0  0  0  0  0  0  0  0
  152.6455  138.8954  155.2515 C   0  0  0  0  0  0  0  0  0  0  0  0
  153.0471  139.2771  156.4654 N   0  0  0  0  0  0  0  0  0  0  0  0
  152.0720  139.9806  157.1080 C   0  0  0  0  0  0  0  0  0  0  0  0
  150.7825  140.2990  156.5952 C   0  0  0  0  0  0  0  0  0  0  0  0
  150.0607  141.0134  157.5451 N   0  0  0  0  0  0  0  0  0  0  0  0
  150.8810  141.1233  158.5542 C   0  0  0  0  0  0  0  0  0  0  0  0
  152.1103  140.5300  158.3766 N   0  0  0  0  0  0  0  0  0  0  0  0
  153.2080  140.4995  159.3271 C   0  0  0  0  0  0  0  0  0  0  0  0
  153.7831  139.0799  159.5604 C   0  0  2  0  0  0  0  0  0  0  0  0
  152.6877  138.0327  159.8760 C   0  0  0  0  0  0  0  0  0  0  0  0
  153.2327  136.7341  159.9923 O   0  0  0  0  0  0  0  0  0  0  0  0
  154.9077  139.0919  160.6265 C   0  0  2  0  0  0  0  0  0  0  0  0
  154.4758  139.5644  162.0036 C   0  0  0  0  0  0  0  0  0  0  0  0
  155.8096  139.9027  162.6610 C   0  0  0  0  0  0  0  0  0  0  0  0
  156.6579  140.3446  161.6067 O   0  0  0  0  0  0  0  0  0  0  0  0
  156.0510  140.0729  160.3473 C   0  0  0  0  0  0  0  0  0  0  0  0
  148.3819  138.9469  154.6676 C   0  0  0  0  0  0  0  0  0  0  0  0
  145.9074  138.1879  150.0757 H   0  0  0  0  0  0  0  0  0  0  0  0
  145.1470  136.4011  151.1974 H   0  0  0  0  0  0  0  0  0  0  0  0
  146.6864  136.3471  152.0394 H   0  0  0  0  0  0  0  0  0  0  0  0
  145.2596  138.9488  152.2796 H   0  0  0  0  0  0  0  0  0  0  0  0
  144.4364  137.6140  153.0692 H   0  0  0  0  0  0  0  0  0  0  0  0
  147.7601  139.0835  152.6180 H   0  0  0  0  0  0  0  0  0  0  0  0
  145.8460  140.6533  152.9995 H   0  0  0  0  0  0  0  0  0  0  0  0
  146.0384  140.4937  154.7305 H   0  0  0  0  0  0  0  0  0  0  0  0
  148.0678  141.6915  152.7838 H   0  0  0  0  0  0  0  0  0  0  0  0
  147.1203  142.5794  153.9540 H   0  0  0  0  0  0  0  0  0  0  0  0
  149.4659  142.1685  154.7386 H   0  0  0  0  0  0  0  0  0  0  0  0
  148.2832  141.4592  155.8272 H   0  0  0  0  0  0  0  0  0  0  0  0
  153.3630  138.3269  154.6785 H   0  0  0  0  0  0  0  0  0  0  0  0
  150.6077  141.6365  159.4649 H   0  0  0  0  0  0  0  0  0  0  0  0
  153.9827  141.1714  158.9573 H   0  0  0  0  0  0  0  0  0  0  0  0
  152.8578  140.9233  160.2691 H   0  0  0  0  0  0  0  0  0  0  0  0
  154.2380  138.7676  158.6191 H   0  0  0  0  0  0  0  0  0  0  0  0
  152.1675  138.2773  160.8022 H   0  0  0  0  0  0  0  0  0  0  0  0
  151.9226  138.0232  159.1002 H   0  0  0  0  0  0  0  0  0  0  0  0
  154.1461  136.7692  159.7528 H   0  0  0  0  0  0  0  0  0  0  0  0
  155.3276  138.0896  160.7264 H   0  0  0  0  0  0  0  0  0  0  0  0
  153.8602  140.4616  161.9237 H   0  0  0  0  0  0  0  0  0  0  0  0
  153.9156  138.8141  162.5620 H   0  0  0  0  0  0  0  0  0  0  0  0
  155.7113  140.6597  163.4393 H   0  0  0  0  0  0  0  0  0  0  0  0
  156.2491  139.0107  163.1088 H   0  0  0  0  0  0  0  0  0  0  0  0
  156.7801  139.6756  159.6409 H   0  0  0  0  0  0  0  0  0  0  0  0
  155.6668  141.0110  159.9443 H   0  0  0  0  0  0  0  0  0  0  0  0
  147.9291  138.8873  155.6585 H   0  0  0  0  0  0  0  0  0  0  0  0
  148.8903  137.9978  154.5025 H   0  0  0  0  0  0  0  0  0  0  0  0
  1  2  1  0  0  0  0
  1 29  1  0  0  0  0
  2  3  1  0  0  0  0
  2 30  1  0  0  0  0
  2 31  1  0  0  0  0
  3  4  1  0  0  0  0
  3 32  1  0  0  0  0
  3 33  1  0  0  0  0
  4  5  1  0  0  0  0
  5 28  1  0  0  0  0
  5  6  1  0  0  0  0
  5 34  1  0  0  0  0
  6  7  1  0  0  0  0
  6 35  1  0  0  0  0
  6 36  1  0  0  0  0
  7  8  1  0  0  0  0
  7 37  1  0  0  0  0
  7 38  1  0  0  0  0
  8  9  1  0  0  0  0
  8 39  1  0  0  0  0
  8 40  1  0  0  0  0
  9 10  1  0  0  0  0
  9 28  1  0  0  0  0
 10 15  1  0  0  0  0
 10 11  2  0  0  0  0
 11 12  1  0  0  0  0
 12 13  2  0  0  0  0
 12 41  1  0  0  0  0
 13 14  1  0  0  0  0
 14 18  1  0  0  0  0
 14 15  2  0  0  0  0
 15 16  1  0  0  0  0
 16 17  2  0  0  0  0
 17 18  1  0  0  0  0
 17 42  1  0  0  0  0
 18 19  1  0  0  0  0
 19 20  1  0  0  0  0
 19 43  1  0  0  0  0
 19 44  1  0  0  0  0
 20 21  1  0  0  0  0
 20 23  1  0  0  0  0
 20 45  1  0  0  0  0
 21 22  1  0  0  0  0
 21 46  1  0  0  0  0
 21 47  1  0  0  0  0
 22 48  1  0  0  0  0
 23 27  1  0  0  0  0
 23 24  1  0  0  0  0
 23 49  1  0  0  0  0
 24 25  1  0  0  0  0
 24 50  1  0  0  0  0
 24 51  1  0  0  0  0
 25 26  1  0  0  0  0
 25 52  1  0  0  0  0
 25 53  1  0  0  0  0
 26 27  1  0  0  0  0
 27 54  1  0  0  0  0
 27 55  1  0  0  0  0
 28 56  1  0  0  0  0
 28 57  1  0  0  0  0
M  END
> <s_m_source_file>
AV-unprocessed.smi

> <i_m_source_file_index>
258

> <i_lp_mmshare_version>
43012

> <i_f3d_flags>
0

> <s_epik_input>
W09IXVtDSDJdW0NIMl1PW0NAQEhdMVtDSDJdW0NIMl1bQ0gyXU4oW0NIMl0xKWMobltjSF1uMiljKGMyMyluW2NIXW4zW0NIMl1bQ0BIXShbQ0gyXVtPSF0pW0NAQEhdNFtDSDJdW0NIMl1PW0NIMl00

> <s_epik_cmdline>
J2VwaWtfcHl0aG9uJywgJy1waCcsICc3LjAnLCAnLXRuJywgJzgnLCAnLW1hJywgJzIwMCcsICctbWV0YWxfYmluZGluZycsICctaW1hZScsICc8aW5maWxlLm1hZT4nLCAnLW9tYWUnLCAnPG91dGZpbGUubWFlPic=

> <r_lp_tautomer_probability>
1

> <r_epik_Ionization_Penalty>
0.00349036

> <r_epik_Ionization_Penalty_Charging>
0

> <r_epik_Ionization_Penalty_Neutral>
0.00349036

> <r_epik_State_Penalty>
0.00229798

> <r_epik_Charging_Adjusted_Penalty>
0.00229798

> <i_epik_Tot_Q>
0

> <i_epik_Tot_abs_Q>
0

> <r_epik_Metal_State_Penalty>
-0

> <b_epik_Metal_Only>
0

> <s_lp_Force_Field>
OPLS_2005

> <r_lp_Energy>
45.891

> <b_lp_Chiralities_Consistent>
1

> <s_lp_Variant>
AV-unprocessed.smi:258-2

> <Gold.Version>
5.8.1

> <Gold.Id.Protein>
6NUR|6NUR_protein|mol2

> <Gold.PLP.Fitness>
52.0751

> <Gold.PLP.PLP>
-41.5065

> <Gold.PLP.part.hbond>
-6.6041

> <Gold.PLP.part.metal>
0.0000

> <Gold.PLP.part.buried>
-3.3950

> <Gold.PLP.part.nonpolar>
-33.8489

> <Gold.PLP.part.repulsive>
0.3979

> <Gold.PLP.ligand.clash>
0.0000

> <Gold.PLP.ligand.torsion>
1.1743

> <Gold.PLP.Chemscore.Hbond>
4.1215

> <Gold.PLP.Chemscore.CHOScore>
0.0000

> <Gold.PLP.Chemscore.Metal>
0.0000

> <Gold.Chemscore.Hbonds>
donor molecule, donor type, donor heavy atom, donor atom, acceptor molecule, acceptor atom, score
      L1  H     1    29       P1 10171  0.89
      P1  H  6896  6907       L1    22  0.93
      P1  H  7954  7966       L1     1  1.00
      P1  H  7989  7998       L1    11  0.17
      P1  H  7997  8008       L1    13  1.00

> <Gold.PLP.Chemscore.Internal.Correction>
0.5527

> <Gold.Rescore>
     Score         DG    S(hbond)    S(metal)    S(lipo)     H(rot)  DE(clash)    DE(int)     intcor
     13.05     -16.90       3.44        0.00      91.73       4.22       1.95       1.90       ----

> <Gold.Chemscore.Fitness>
13.0535

> <Gold.Chemscore.DG>
-16.9018

> <Gold.Chemscore.ZeroCoef>
-5.4800

> <Gold.Chemscore.Hbond>
3.4445

> <Gold.Chemscore.Metal>
0.0000

> <Gold.Chemscore.Lipo>
91.7263

> <Gold.Chemscore.Internal_Hbond>
0.0000

> <Gold.Chemscore.DEClash>
1.9515

> <Gold.Chemscore.DEInternal>
1.8969

> <Gold.Chemscore.Rot>
4.2246

> <Gold.Chemscore.Internal.Correction>
   9.000000E+99

> <Gold.Chemscore.Hbonds>
donor molecule, donor type, donor heavy atom, donor atom, acceptor molecule, acceptor atom, score
      L1  H     1    29       P1 10171  0.81
      P1  H  6896  6907       L1    22  0.87
      P1  H  7954  7966       L1     1  0.81
      P1  H  7997  8008       L1    13  0.43

> <Gold.Chemscore.Hbond.Weighted>
-11.5047

> <Gold.Chemscore.Metal.Weighted>
-0.0000

> <Gold.Chemscore.Lipo.Weighted>
-10.7320

> <Gold.Chemscore.Internal_Hbond.Weighted>
0.0000

> <Gold.Chemscore.DEClash.Weighted>
1.9515

> <Gold.Chemscore.DEInternal.Weighted>
1.8969

> <Gold.Chemscore.Rot.Weighted>
10.8149

> <Gold.Chemscore.Internal.Correction.Weighted>
   9.000000E+99

> <Gold.Protein.RotatedTorsions>
[ 6907 6896 6895 6894 ] final   27.93 input  -60.11 | X-H torsion
[ 7974 7965 7964 7962 ] final -179.64 input  175.53 | X-H torsion
[ 8008 7997 7996 7995 ] final  -36.22 input   59.86 | X-H torsion
[ 10167 10162 10161 10158 ] final -111.62 input  -65.29 | X-H torsion
[ 10718 10713 10712 10709 ] final -134.85 input   66.30 | X-H torsion
[ 10763 10752 10751 10750 ] final -108.93 input  -60.55 | X-H torsion
[ 11005 11000 10999 10996 ] final    3.67 input  -57.11 | X-H torsion

> <Gold.Protein.ActiveResidues>
 VAL166  LYS551  ARG553  GLY616  TRP617  ASP618  TYR619  PRO620  LYS621  CYS622 
 ASP623  PHE694  ASN695  SER759  ASP760  ASP761  ALA762  ILE779  LEU786  VAL792 
 PHE793  MET794  SER795  GLU796  ALA797  LYS798  CYS799  TRP800  GLU811  SER814 

> <Gold.Protein.RotatedAtoms>
  152.0095  134.9884  160.0567 H   0  0  0  0  0  0  0  0  0  0  0  0  # atno 6907 bound_to 6896
  152.1443  133.4478  159.4790 H   0  0  0  0  0  0  0  0  0  0  0  0  # atno 6908 bound_to 6896
  150.6868  134.2186  159.4430 H   0  0  0  0  0  0  0  0  0  0  0  0  # atno 6909 bound_to 6896
  144.7138  140.0686  143.6430 H   0  0  0  0  0  0  0  0  0  0  0  0  # atno 7974 bound_to 7965
  154.4078  140.1636  156.2338 H   0  0  0  0  0  0  0  0  0  0  0  0  # atno 8008 bound_to 7997
  155.9259  140.3418  155.6187 H   0  0  0  0  0  0  0  0  0  0  0  0  # atno 8009 bound_to 7997
  155.7165  140.0763  157.2339 H   0  0  0  0  0  0  0  0  0  0  0  0  # atno 8010 bound_to 7997
  140.1316  143.4356  152.1624 H   0  0  0  0  0  0  0  0  0  0  0  0  # atno 10167 bound_to 10162
  156.2599  130.7203  151.1134 H   0  0  0  0  0  0  0  0  0  0  0  0  # atno 10718 bound_to 10713
  154.8164  135.4620  154.0655 H   0  0  0  0  0  0  0  0  0  0  0  0  # atno 10763 bound_to 10752
  153.2045  135.6873  153.8197 H   0  0  0  0  0  0  0  0  0  0  0  0  # atno 10764 bound_to 10752
  153.7670  135.3276  155.3323 H   0  0  0  0  0  0  0  0  0  0  0  0  # atno 10765 bound_to 10752
  140.5905  133.9929  155.8086 H   0  0  0  0  0  0  0  0  0  0  0  0  # atno 11005 bound_to 11000
  145.9802  139.2935  143.1046 LP  0  0  0  0  0  0  0  0  0  0  0  0  # atno 17320 bound_to 7965
  145.9019  140.9237  143.0499 LP  0  0  0  0  0  0  0  0  0  0  0  0  # atno 17321 bound_to 7965
  139.5517  144.7342  151.4415 LP  0  0  0  0  0  0  0  0  0  0  0  0  # atno 17342 bound_to 10162
  140.6814  143.8074  150.7126 LP  0  0  0  0  0  0  0  0  0  0  0  0  # atno 17343 bound_to 10162
  157.7246  131.0658  150.5986 LP  0  0  0  0  0  0  0  0  0  0  0  0  # atno 17370 bound_to 10713
  156.6073  130.4370  149.5873 LP  0  0  0  0  0  0  0  0  0  0  0  0  # atno 17371 bound_to 10713
  141.0938  133.9875  157.3193 LP  0  0  0  0  0  0  0  0  0  0  0  0  # atno 17394 bound_to 11000
  139.9276  135.0201  156.8290 LP  0  0  0  0  0  0  0  0  0  0  0  0  # atno 17395 bound_to 11000

$$$$
