#       Name:                AV-unprocessed.smi:196
#       Creating user name   scv26
#       Creation time:       Thu Mar 26 19:40:09 2020


#       File generated by GOLD software.
#

@<TRIPOS>MOLECULE
AV-unprocessed.smi:196
    57    60     1
SMALL
NO_CHARGES


@<TRIPOS>ATOM
      1 ****        -2.9646  -0.7923  -5.3457 C.3            1 S1                 0.0000
      2 ****        -2.6811  -1.5682  -4.0492 C.3            1 S1                 0.0000
      3 ****        -3.8514  -2.2521  -3.6019 O.3            1 S1                 0.0000
      4 ****        -4.1504  -1.8878  -2.2615 C.3            1 S1                 0.0000
      5 ****        -2.8122  -1.4554  -1.6766 C.3            1 S1                 0.0000
      6 ****        -2.1540  -0.7459  -2.8509 C.3            1 S1                 0.0000
      7 ****        -2.6386   0.5873  -2.8977 O.3            1 S1                 0.0000
      8 ****        -0.6095  -0.7040  -2.7785 C.3            1 S1                 0.0000
      9 ****        -0.1035  -0.0178  -1.6002 N.pl3          1 S1                 0.0000
     10 ****         0.1446   1.3314  -1.4759 C.2            1 S1                 0.0000
     11 ****         0.6000   1.7102  -0.3129 N.2            1 S1                 0.0000
     12 ****         0.6818   0.5303   0.4144 C.ar           1 S1                 0.0000
     13 ****         1.1028   0.2121   1.7309 C.ar           1 S1                 0.0000
     14 ****         1.5433   1.1616   2.5858 N.3            1 S1                 0.0000
     15 ****         0.5918   1.5658   3.6158 C.3            1 S1                 0.0000
     16 ****         1.3960   1.7032   4.9115 C.3            1 S1                 0.0000
     17 ****         1.2906   0.5772   5.6190 F              1 S1                 0.0000
     18 ****         2.8327   1.8638   4.4238 C.3            1 S1                 0.0000
     19 ****         2.8725   0.9791   3.1715 C.3            1 S1                 0.0000
     20 ****         3.9932   1.3942   2.2067 C.2            1 S1                 0.0000
     21 ****         5.1485   0.7331   2.3067 N.am           1 S1                 0.0000
     22 ****         3.8284   2.3017   1.3929 O.2            1 S1                 0.0000
     23 ****         1.0438  -1.0872   2.1239 N.ar           1 S1                 0.0000
     24 ****         0.6081  -2.0207   1.2723 C.ar           1 S1                 0.0000
     25 ****         0.1918  -1.8728   0.0122 N.ar           1 S1                 0.0000
     26 ****         0.2446  -0.5665  -0.3782 C.ar           1 S1                 0.0000
     27 ****         1.0575   2.5227   5.5460 H              1 S1                 0.0000
     28 ****         3.0153  -0.0601   3.4747 H              1 S1                 0.0000
     29 ****        -2.0785  -0.2543  -5.6831 H              1 S1                 0.0000
     30 ****        -3.7705  -0.0696  -5.2139 H              1 S1                 0.0000
     31 ****        -3.2635  -1.4722  -6.1438 H              1 S1                 0.0000
     32 ****        -1.9592  -2.3538  -4.2770 H              1 S1                 0.0000
     33 ****        -4.8551  -1.0553  -2.2681 H              1 S1                 0.0000
     34 ****        -4.6028  -2.7139  -1.7126 H              1 S1                 0.0000
     35 ****        -2.9118  -0.8356  -0.7845 H              1 S1                 0.0000
     36 ****        -2.2407  -2.3437  -1.4050 H              1 S1                 0.0000
     37 ****        -2.3797   1.0272  -2.1024 H              1 S1                 0.0000
     38 ****        -0.2025  -1.7161  -2.7824 H              1 S1                 0.0000
     39 ****        -0.2044  -0.2104  -3.6629 H              1 S1                 0.0000
     40 ****        -0.0279   2.0320  -2.2802 H              1 S1                 0.0000
     41 ****         0.1800   2.5328   3.3253 H              1 S1                 0.0000
     42 ****        -0.2460   0.8754   3.7313 H              1 S1                 0.0000
     43 ****         3.0151   2.9092   4.1682 H              1 S1                 0.0000
     44 ****         3.5674   1.5695   5.1741 H              1 S1                 0.0000
     45 ****         5.9189   0.9679   1.6977 H              1 S1                 0.0000
     46 ****         5.2476   0.0005   2.9946 H              1 S1                 0.0000
     47 ****         0.5909  -3.0305   1.6548 H              1 S1                 0.0000
     48 ****        -3.6958  -3.2388  -3.6492 LP             1 S1                 0.0000
     49 ****        -4.6221  -2.0077  -4.1904 LP             1 S1                 0.0000
     50 ****        -3.6359   0.5816  -2.9712 LP             1 S1                 0.0000
     51 ****        -2.2489   1.0607  -3.6877 LP             1 S1                 0.0000
     52 ****         0.8353   2.6353  -0.0149 LP             1 S1                 0.0000
     53 ****         1.6393   1.9162   1.9367 LP             1 S1                 0.0000
     54 ****         2.9530   2.7832   1.3514 LP             1 S1                 0.0000
     55 ****         4.5699   2.5579   0.7727 LP             1 S1                 0.0000
     56 ****         1.3257  -1.3445   3.0482 LP             1 S1                 0.0000
     57 ****        -0.1189  -2.6235  -0.5709 LP             1 S1                 0.0000
@<TRIPOS>BOND
    1    1    2 1     
    2    1   29 1     
    3    1   30 1     
    4    1   31 1     
    5    2    6 1     
    6    2    3 1     
    7    2   32 1     
    8    3    4 1     
    9    4    5 1     
   10    4   33 1     
   11    4   34 1     
   12    5    6 1     
   13    5   35 1     
   14    5   36 1     
   15    6    7 1     
   16    6    8 1     
   17    7   37 1     
   18    8    9 1     
   19    8   38 1     
   20    8   39 1     
   21    9   26 1     
   22    9   10 1     
   23   10   11 2     
   24   10   40 1     
   25   11   12 1     
   26   12   26 ar    
   27   12   13 ar    
   28   13   14 1     
   29   13   23 ar    
   30   14   19 1     
   31   14   15 1     
   32   15   16 1     
   33   15   41 1     
   34   15   42 1     
   35   16   27 1     
   36   16   17 1     
   37   16   18 1     
   38   18   19 1     
   39   18   43 1     
   40   18   44 1     
   41   19   28 1     
   42   19   20 1     
   43   20   21 am    
   44   20   22 2     
   45   21   45 1     
   46   21   46 1     
   47   23   24 ar    
   48   24   25 ar    
   49   24   47 1     
   50   25   26 ar    
   51    3   48 1     
   52    3   49 1     
   53    7   50 1     
   54    7   51 1     
   55   11   52 1     
   56   14   53 1     
   57   22   54 1     
   58   22   55 1     
   59   23   56 1     
   60   25   57 1     
@<TRIPOS>SUBSTRUCTURE
      1 S1             1
@<TRIPOS>SET
LONE_PAIRS      STATIC     ATOMS    <user>   **** ""
10 48 49 50 51 52 53 54 55 56 57
DONOR_HYDROGENS      STATIC     ATOMS    <user>   **** ""
3 37 45 46
ATOM$BLUE        STATIC     ATOMS    COLORGROUP SYSTEM
10 48 49 50 51 52 53 54 55 56 57
ATOM$RED        STATIC     ATOMS    COLORGROUP SYSTEM
3 37 45 46
