#       Name:                AV-unprocessed.smi:1983
#       Creating user name   scv26
#       Creation time:       Fri Mar 27 10:22:35 2020


#       File generated by GOLD software.
#

@<TRIPOS>MOLECULE
AV-unprocessed.smi:1983
    57    58     1
SMALL
NO_CHARGES


@<TRIPOS>ATOM
      1 ****        -5.6863   0.1199  -3.9794 C.3            1 S1                 0.0000
      2 ****        -4.4957   0.7658  -3.2549 C.3            1 S1                 0.0000
      3 ****        -4.7634   0.9584  -1.7484 C.3            1 S1                 0.0000
      4 ****        -5.7375   1.9595  -1.5430 O.3            1 S1                 0.0000
      5 ****        -3.3081  -0.0591  -3.4604 N.am           1 S1                 0.0000
      6 ****        -2.0416   0.3725  -3.3752 C.2            1 S1                 0.0000
      7 ****        -1.7236   1.5319  -3.1091 O.2            1 S1                 0.0000
      8 ****        -1.1621  -0.6130  -3.6031 N.am           1 S1                 0.0000
      9 ****         0.2866  -0.4606  -3.5369 C.3            1 S1                 0.0000
     10 ****         0.8116  -0.4550  -2.1121 C.ar           1 S1                 0.0000
     11 ****         0.6499  -1.5765  -1.2751 C.ar           1 S1                 0.0000
     12 ****         1.1423  -1.5200   0.0426 C.ar           1 S1                 0.0000
     13 ****         1.7813  -0.3393   0.4893 C.ar           1 S1                 0.0000
     14 ****         2.2763  -0.2635   1.8078 N.3            1 S1                 0.0000
     15 ****         2.6338   1.0512   2.3320 C.3            1 S1                 0.0000
     16 ****         2.8226   0.9836   3.8576 C.3            1 S1                 0.0000
     17 ****         3.3207   2.3136   4.4322 C.3            1 S1                 0.0000
     18 ****         3.7824  -0.0237   4.1754 O.3            1 S1                 0.0000
     19 ****         3.4569  -1.3328   3.7014 C.3            1 S1                 0.0000
     20 ****         2.2925  -1.9632   4.4859 C.3            1 S1                 0.0000
     21 ****         3.2270  -1.3077   2.1771 C.3            1 S1                 0.0000
     22 ****         1.9308   0.7394  -0.3189 N.ar           1 S1                 0.0000
     23 ****         1.4609   0.6784  -1.5827 C.ar           1 S1                 0.0000
     24 ****        -6.5837   0.7322  -3.8883 H              1 S1                 0.0000
     25 ****        -5.9133  -0.8651  -3.5705 H              1 S1                 0.0000
     26 ****        -5.4803   0.0001  -5.0435 H              1 S1                 0.0000
     27 ****        -4.3132   1.7418  -3.7091 H              1 S1                 0.0000
     28 ****        -5.0910   0.0274  -1.2848 H              1 S1                 0.0000
     29 ****        -3.8567   1.2729  -1.2304 H              1 S1                 0.0000
     30 ****        -5.8551   2.0770  -0.6127 H              1 S1                 0.0000
     31 ****        -3.4649  -1.0314  -3.6816 H              1 S1                 0.0000
     32 ****        -1.5174  -1.5329  -3.8186 H              1 S1                 0.0000
     33 ****         0.7435  -1.2935  -4.0718 H              1 S1                 0.0000
     34 ****         0.5941   0.4466  -4.0600 H              1 S1                 0.0000
     35 ****         0.1526  -2.4655  -1.6340 H              1 S1                 0.0000
     36 ****         1.0124  -2.3689   0.6974 H              1 S1                 0.0000
     37 ****         3.5526   1.3911   1.8522 H              1 S1                 0.0000
     38 ****         1.8540   1.7761   2.0944 H              1 S1                 0.0000
     39 ****         1.8705   0.7475   4.3336 H              1 S1                 0.0000
     40 ****         2.6129   3.1176   4.2294 H              1 S1                 0.0000
     41 ****         4.2815   2.5957   4.0009 H              1 S1                 0.0000
     42 ****         3.4476   2.2475   5.5131 H              1 S1                 0.0000
     43 ****         4.3346  -1.9506   3.8927 H              1 S1                 0.0000
     44 ****         2.1513  -3.0045   4.1955 H              1 S1                 0.0000
     45 ****         1.3479  -1.4489   4.3106 H              1 S1                 0.0000
     46 ****         2.4911  -1.9440   5.5576 H              1 S1                 0.0000
     47 ****         2.9020  -2.2917   1.8408 H              1 S1                 0.0000
     48 ****         4.1703  -1.1013   1.6696 H              1 S1                 0.0000
     49 ****         1.6018   1.5644  -2.1842 H              1 S1                 0.0000
     50 ****        -6.6024   1.6792  -1.9596 LP             1 S1                 0.0000
     51 ****        -5.4316   2.8176  -1.9554 LP             1 S1                 0.0000
     52 ****        -2.4311   2.2183  -2.9408 LP             1 S1                 0.0000
     53 ****        -0.7579   1.7871  -3.0614 LP             1 S1                 0.0000
     54 ****         1.4337  -0.4667   2.3065 LP             1 S1                 0.0000
     55 ****         3.8708  -0.0662   5.1706 LP             1 S1                 0.0000
     56 ****         4.6584   0.2436   3.7740 LP             1 S1                 0.0000
     57 ****         2.3818   1.5666   0.0161 LP             1 S1                 0.0000
@<TRIPOS>BOND
    1    1    2 1     
    2    1   24 1     
    3    1   25 1     
    4    1   26 1     
    5    2    3 1     
    6    2    5 1     
    7    2   27 1     
    8    3    4 1     
    9    3   28 1     
   10    3   29 1     
   11    4   30 1     
   12    5    6 am    
   13    5   31 1     
   14    6    7 2     
   15    6    8 am    
   16    8    9 1     
   17    8   32 1     
   18    9   10 1     
   19    9   33 1     
   20    9   34 1     
   21   10   23 ar    
   22   10   11 ar    
   23   11   12 ar    
   24   11   35 1     
   25   12   13 ar    
   26   12   36 1     
   27   13   14 1     
   28   13   22 ar    
   29   14   21 1     
   30   14   15 1     
   31   15   16 1     
   32   15   37 1     
   33   15   38 1     
   34   16   17 1     
   35   16   18 1     
   36   16   39 1     
   37   17   40 1     
   38   17   41 1     
   39   17   42 1     
   40   18   19 1     
   41   19   20 1     
   42   19   21 1     
   43   19   43 1     
   44   20   44 1     
   45   20   45 1     
   46   20   46 1     
   47   21   47 1     
   48   21   48 1     
   49   22   23 ar    
   50   23   49 1     
   51    4   50 1     
   52    4   51 1     
   53    7   52 1     
   54    7   53 1     
   55   14   54 1     
   56   18   55 1     
   57   18   56 1     
   58   22   57 1     
@<TRIPOS>SUBSTRUCTURE
      1 S1             1
@<TRIPOS>SET
LONE_PAIRS      STATIC     ATOMS    <user>   **** ""
8 50 51 52 53 54 55 56 57
DONOR_HYDROGENS      STATIC     ATOMS    <user>   **** ""
3 30 31 32
ATOM$BLUE        STATIC     ATOMS    COLORGROUP SYSTEM
8 50 51 52 53 54 55 56 57
ATOM$RED        STATIC     ATOMS    COLORGROUP SYSTEM
3 30 31 32
