AV-unprocessed.smi:129|AV-procd|sdf|1158|dock4
  -GOLD-   2262018293D 1   1.00000     0.00000
 Structure written by MMmdl.
 58 61  0  0  0  0  0  0  0  0  1 V2000
  153.3597  143.4941  163.3681 C   0  0  0  0  0  0  0  0  0  0  0  0
  153.1391  142.6608  162.2395 O   0  0  0  0  0  0  0  0  0  0  0  0
  152.6674  143.2398  161.0776 C   0  0  0  0  0  0  0  0  0  0  0  0
  152.2694  144.5985  160.9880 C   0  0  0  0  0  0  0  0  0  0  0  0
  151.8016  145.1297  159.7722 C   0  0  0  0  0  0  0  0  0  0  0  0
  151.7316  144.3154  158.6296 C   0  0  0  0  0  0  0  0  0  0  0  0
  152.1229  142.9668  158.7033 C   0  0  0  0  0  0  0  0  0  0  0  0
  152.5789  142.4184  159.9273 C   0  0  0  0  0  0  0  0  0  0  0  0
  153.0054  141.0666  160.0587 N   0  0  0  0  0  0  0  0  0  0  0  0
  153.0594  140.0950  159.1274 C   0  0  0  0  0  0  0  0  0  0  0  0
  152.7825  140.2389  157.9367 O   0  0  0  0  0  0  0  0  0  0  0  0
  153.5513  138.7679  159.6314 C   0  0  0  0  0  0  0  0  0  0  0  0
  153.8040  137.7191  158.7211 C   0  0  0  0  0  0  0  0  0  0  0  0
  154.2421  136.4633  159.1823 C   0  0  0  0  0  0  0  0  0  0  0  0
  154.4357  136.2322  160.5589 C   0  0  0  0  0  0  0  0  0  0  0  0
  154.8592  134.9309  160.9426 N   0  0  0  0  0  0  0  0  0  0  0  0
  155.2113  133.8909  160.1651 C   0  0  0  0  0  0  0  0  0  0  0  0
  155.1741  133.8938  158.9340 O   0  0  0  0  0  0  0  0  0  0  0  0
  155.6368  132.6264  160.9277 C   0  0  0  0  0  0  0  0  0  0  0  0
  154.7330  132.2799  162.0462 N   0  0  0  0  0  0  0  0  0  0  0  0
  154.8407  133.0132  163.2540 C   0  0  0  0  0  0  0  0  0  0  0  0
  155.6603  133.9249  163.3765 O   0  0  0  0  0  0  0  0  0  0  0  0
  153.9300  132.6096  164.3191 C   0  0  0  0  0  0  0  0  0  0  0  0
  153.9552  133.2566  165.4968 F   0  0  0  0  0  0  0  0  0  0  0  0
  153.0590  131.5949  164.1418 C   0  0  0  0  0  0  0  0  0  0  0  0
  152.9734  130.8792  162.9609 N   0  0  0  0  0  0  0  0  0  0  0  0
  151.9990  129.7345  162.7837 C   0  0  1  0  0  0  0  0  0  0  0  0
  151.3243  129.3868  164.1231 C   0  0  0  0  0  0  0  0  0  0  0  0
  149.8539  129.3607  163.7569 C   0  0  0  0  0  0  0  0  0  0  0  0
  149.7945  130.3761  162.6254 C   0  0  0  0  0  0  0  0  0  0  0  0
  150.9844  130.1071  161.8945 O   0  0  0  0  0  0  0  0  0  0  0  0
  153.8184  131.2128  161.8803 C   0  0  0  0  0  0  0  0  0  0  0  0
  153.7629  130.5813  160.8227 O   0  0  0  0  0  0  0  0  0  0  0  0
  154.1582  137.2732  161.4770 C   0  0  0  0  0  0  0  0  0  0  0  0
  153.7216  138.5302  161.0149 C   0  0  0  0  0  0  0  0  0  0  0  0
  153.7332  142.8882  164.1934 H   0  0  0  0  0  0  0  0  0  0  0  0
  152.4358  143.9692  163.7007 H   0  0  0  0  0  0  0  0  0  0  0  0
  154.1069  144.2607  163.1581 H   0  0  0  0  0  0  0  0  0  0  0  0
  152.3143  145.2590  161.8404 H   0  0  0  0  0  0  0  0  0  0  0  0
  151.5022  146.1658  159.7154 H   0  0  0  0  0  0  0  0  0  0  0  0
  151.3833  144.7264  157.6935 H   0  0  0  0  0  0  0  0  0  0  0  0
  152.0772  142.3782  157.8006 H   0  0  0  0  0  0  0  0  0  0  0  0
  153.2196  140.7768  161.0021 H   0  0  0  0  0  0  0  0  0  0  0  0
  153.6662  137.8707  157.6601 H   0  0  0  0  0  0  0  0  0  0  0  0
  154.4321  135.6749  158.4686 H   0  0  0  0  0  0  0  0  0  0  0  0
  154.8479  134.7509  161.9361 H   0  0  0  0  0  0  0  0  0  0  0  0
  155.7094  131.7955  160.2235 H   0  0  0  0  0  0  0  0  0  0  0  0
  156.6615  132.7667  161.2745 H   0  0  0  0  0  0  0  0  0  0  0  0
  152.4119  131.3475  164.9691 H   0  0  0  0  0  0  0  0  0  0  0  0
  152.5746  128.9162  162.3470 H   0  0  0  0  0  0  0  0  0  0  0  0
  151.6898  128.4357  164.5114 H   0  0  0  0  0  0  0  0  0  0  0  0
  151.5202  130.1695  164.8583 H   0  0  0  0  0  0  0  0  0  0  0  0
  149.5761  128.3729  163.3872 H   0  0  0  0  0  0  0  0  0  0  0  0
  149.1996  129.6122  164.5919 H   0  0  0  0  0  0  0  0  0  0  0  0
  148.9073  130.2631  162.0022 H   0  0  0  0  0  0  0  0  0  0  0  0
  149.8134  131.3940  163.0170 H   0  0  0  0  0  0  0  0  0  0  0  0
  154.2546  137.1274  162.5417 H   0  0  0  0  0  0  0  0  0  0  0  0
  153.5079  139.3049  161.7374 H   0  0  0  0  0  0  0  0  0  0  0  0
  1  2  1  0  0  0  0
  1 36  1  0  0  0  0
  1 37  1  0  0  0  0
  1 38  1  0  0  0  0
  2  3  1  0  0  0  0
  3  8  1  0  0  0  0
  3  4  2  0  0  0  0
  4  5  1  0  0  0  0
  4 39  1  0  0  0  0
  5  6  2  0  0  0  0
  5 40  1  0  0  0  0
  6  7  1  0  0  0  0
  6 41  1  0  0  0  0
  7  8  2  0  0  0  0
  7 42  1  0  0  0  0
  8  9  1  0  0  0  0
  9 10  1  0  0  0  0
  9 43  1  0  0  0  0
 10 11  2  0  0  0  0
 10 12  1  0  0  0  0
 12 35  1  0  0  0  0
 12 13  2  0  0  0  0
 13 14  1  0  0  0  0
 13 44  1  0  0  0  0
 14 15  2  0  0  0  0
 14 45  1  0  0  0  0
 15 16  1  0  0  0  0
 15 34  1  0  0  0  0
 16 17  1  0  0  0  0
 16 46  1  0  0  0  0
 17 18  2  0  0  0  0
 17 19  1  0  0  0  0
 19 20  1  0  0  0  0
 19 47  1  0  0  0  0
 19 48  1  0  0  0  0
 20 32  1  0  0  0  0
 20 21  1  0  0  0  0
 21 22  2  0  0  0  0
 21 23  1  0  0  0  0
 23 24  1  0  0  0  0
 23 25  2  0  0  0  0
 25 26  1  0  0  0  0
 25 49  1  0  0  0  0
 26 27  1  0  0  0  0
 26 32  1  0  0  0  0
 27 31  1  0  0  0  0
 27 28  1  0  0  0  0
 27 50  1  0  0  0  0
 28 29  1  0  0  0  0
 28 51  1  0  0  0  0
 28 52  1  0  0  0  0
 29 30  1  0  0  0  0
 29 53  1  0  0  0  0
 29 54  1  0  0  0  0
 30 31  1  0  0  0  0
 30 55  1  0  0  0  0
 30 56  1  0  0  0  0
 32 33  2  0  0  0  0
 34 35  2  0  0  0  0
 34 57  1  0  0  0  0
 35 58  1  0  0  0  0
M  END
> <s_m_source_file>
AV-unprocessed.smi

> <i_m_source_file_index>
129

> <i_lp_mmshare_version>
43012

> <i_f3d_flags>
0

> <s_epik_input>
W0NIM11PYzFbY0hdW2NIXVtjSF1bY0hdYzFbTkhdQyg9TyljMltjSF1bY0hdYyhbY0hdW2NIXTIpW05IXUMoPU8pW0NIMl1uM2MoPU8pYyhGKVtjSF1uKGMzPU8pW0NAQEhdNFtDSDJdW0NIMl1bQ0gyXU80

> <s_epik_cmdline>
J2VwaWtfcHl0aG9uJywgJy1waCcsICc3LjAnLCAnLXRuJywgJzgnLCAnLW1hJywgJzIwMCcsICctbWV0YWxfYmluZGluZycsICctaW1hZScsICc8aW5maWxlLm1hZT4nLCAnLW9tYWUnLCAnPG91dGZpbGUubWFlPic=

> <r_lp_tautomer_probability>
1

> <r_epik_Ionization_Penalty>
2.57954e-06

> <r_epik_Ionization_Penalty_Charging>
3.88729e-08

> <r_epik_Ionization_Penalty_Neutral>
2.54066e-06

> <r_epik_State_Penalty>
-0

> <r_epik_Charging_Adjusted_Penalty>
3.88729e-08

> <i_epik_Tot_Q>
0

> <i_epik_Tot_abs_Q>
0

> <r_epik_Metal_State_Penalty>
-0

> <b_epik_Metal_Only>
0

> <s_epik_Chemistry_Notes>
This compound contains an acetal/aminal-like group ( X-CH(R)-Y where X, Y are N, S, or O) that may be acid/base labile, releasing an aldehyde.

> <s_lp_Force_Field>
OPLS_2005

> <r_lp_Energy>
51.387

> <b_lp_Chiralities_Consistent>
1

> <s_lp_Variant>
AV-unprocessed.smi:129-2

> <Gold.Version>
5.8.1

> <Gold.Id.Protein>
6NUR|6NUR_protein|mol2

> <Gold.PLP.Fitness>
60.5941

> <Gold.PLP.PLP>
-58.9715

> <Gold.PLP.part.hbond>
-1.0000

> <Gold.PLP.part.metal>
0.0000

> <Gold.PLP.part.buried>
-8.0551

> <Gold.PLP.part.nonpolar>
-50.4034

> <Gold.PLP.part.repulsive>
0.2790

> <Gold.PLP.ligand.clash>
0.1955

> <Gold.PLP.ligand.torsion>
0.6320

> <Gold.PLP.Chemscore.Hbond>
0.9760

> <Gold.PLP.Chemscore.CHOScore>
0.0000

> <Gold.PLP.Chemscore.Metal>
0.0000

> <Gold.Chemscore.Hbonds>
donor molecule, donor type, donor heavy atom, donor atom, acceptor molecule, acceptor atom, score
      P1  H  7997  8010       L1    11  0.98

> <Gold.PLP.Chemscore.Internal.Correction>
0.1542

> <Gold.Rescore>
     Score         DG    S(hbond)    S(metal)    S(lipo)     H(rot)  DE(clash)    DE(int)     intcor
     14.53     -21.75       0.98        0.00     153.55       1.94       0.40       6.83       ----

> <Gold.Chemscore.Fitness>
14.5298

> <Gold.Chemscore.DG>
-21.7538

> <Gold.Chemscore.ZeroCoef>
-5.4800

> <Gold.Chemscore.Hbond>
0.9829

> <Gold.Chemscore.Metal>
0.0000

> <Gold.Chemscore.Lipo>
153.5464

> <Gold.Chemscore.Internal_Hbond>
0.0000

> <Gold.Chemscore.DEClash>
0.3985

> <Gold.Chemscore.DEInternal>
6.8254

> <Gold.Chemscore.Rot>
1.9430

> <Gold.Chemscore.Internal.Correction>
   9.000000E+99

> <Gold.Chemscore.Hbonds>
donor molecule, donor type, donor heavy atom, donor atom, acceptor molecule, acceptor atom, score
      P1  H  7997  8010       L1    11  0.63

> <Gold.Chemscore.Hbond.Weighted>
-3.2830

> <Gold.Chemscore.Metal.Weighted>
-0.0000

> <Gold.Chemscore.Lipo.Weighted>
-17.9649

> <Gold.Chemscore.Internal_Hbond.Weighted>
0.0000

> <Gold.Chemscore.DEClash.Weighted>
0.3985

> <Gold.Chemscore.DEInternal.Weighted>
6.8254

> <Gold.Chemscore.Rot.Weighted>
4.9741

> <Gold.Chemscore.Internal.Correction.Weighted>
   9.000000E+99

> <Gold.Protein.RotatedTorsions>
[ 6907 6896 6895 6894 ] final  170.34 input  -60.11 | X-H torsion
[ 7974 7965 7964 7962 ] final   18.56 input  175.53 | X-H torsion
[ 8008 7997 7996 7995 ] final   46.24 input   59.86 | X-H torsion
[ 10167 10162 10161 10158 ] final   20.65 input  -65.29 | X-H torsion
[ 10718 10713 10712 10709 ] final  -92.95 input   66.30 | X-H torsion
[ 10763 10752 10751 10750 ] final  156.67 input  -60.55 | X-H torsion
[ 11005 11000 10999 10996 ] final  -92.79 input  -57.11 | X-H torsion

> <Gold.Protein.ActiveResidues>
 VAL166  LYS551  ARG553  GLY616  TRP617  ASP618  TYR619  PRO620  LYS621  CYS622 
 ASP623  PHE694  ASN695  SER759  ASP760  ASP761  ALA762  ILE779  LEU786  VAL792 
 PHE793  MET794  SER795  GLU796  ALA797  LYS798  CYS799  TRP800  GLU811  SER814 

> <Gold.Protein.RotatedAtoms>
  151.8177  133.3390  159.3574 H   0  0  0  0  0  0  0  0  0  0  0  0  # atno 6907 bound_to 6896
  150.7305  134.5604  159.5848 H   0  0  0  0  0  0  0  0  0  0  0  0  # atno 6908 bound_to 6896
  152.3029  134.7591  160.0405 H   0  0  0  0  0  0  0  0  0  0  0  0  # atno 6909 bound_to 6896
  146.2181  139.8440  142.8635 H   0  0  0  0  0  0  0  0  0  0  0  0  # atno 7974 bound_to 7965
  155.3493  140.3412  155.4239 H   0  0  0  0  0  0  0  0  0  0  0  0  # atno 8008 bound_to 7997
  156.1772  140.1652  156.8375 H   0  0  0  0  0  0  0  0  0  0  0  0  # atno 8009 bound_to 7997
  154.5295  140.0748  156.8302 H   0  0  0  0  0  0  0  0  0  0  0  0  # atno 8010 bound_to 7997
  140.5487  143.9548  150.6564 H   0  0  0  0  0  0  0  0  0  0  0  0  # atno 10167 bound_to 10162
  156.0008  130.5007  150.5703 H   0  0  0  0  0  0  0  0  0  0  0  0  # atno 10718 bound_to 10713
  154.1880  135.2796  155.3031 H   0  0  0  0  0  0  0  0  0  0  0  0  # atno 10763 bound_to 10752
  154.5951  135.5547  153.7321 H   0  0  0  0  0  0  0  0  0  0  0  0  # atno 10764 bound_to 10752
  153.0120  135.6378  154.2018 H   0  0  0  0  0  0  0  0  0  0  0  0  # atno 10765 bound_to 10752
  141.1513  133.7844  157.0070 H   0  0  0  0  0  0  0  0  0  0  0  0  # atno 11005 bound_to 11000
  145.2870  141.0156  143.3685 LP  0  0  0  0  0  0  0  0  0  0  0  0  # atno 17320 bound_to 7965
  144.9106  139.4533  143.6588 LP  0  0  0  0  0  0  0  0  0  0  0  0  # atno 17321 bound_to 7965
  140.2968  143.3287  152.1010 LP  0  0  0  0  0  0  0  0  0  0  0  0  # atno 17342 bound_to 10162
  139.5018  144.6721  151.6216 LP  0  0  0  0  0  0  0  0  0  0  0  0  # atno 17343 bound_to 10162
  157.3599  131.0748  151.1645 LP  0  0  0  0  0  0  0  0  0  0  0  0  # atno 17370 bound_to 10713
  157.2433  130.6580  149.5899 LP  0  0  0  0  0  0  0  0  0  0  0  0  # atno 17371 bound_to 10713
  140.0903  134.9596  157.1765 LP  0  0  0  0  0  0  0  0  0  0  0  0  # atno 17394 bound_to 11000
  140.3455  134.2656  155.7205 LP  0  0  0  0  0  0  0  0  0  0  0  0  # atno 17395 bound_to 11000

$$$$
