AV-unprocessed.smi:685|AV-procd|sdf|3334|dock6
  -GOLD-   22720 0303D 1   1.00000     0.00000
 Structure written by MMmdl.
 50 51  0  0  0  0  0  0  0  0  1 V2000
  151.5588  144.4672  159.2445 C   0  0  0  0  0  0  0  0  0  0  0  0
  152.1862  143.1067  159.3550 C   0  0  0  0  0  0  0  0  0  0  0  0
  153.3906  142.9885  159.8887 N   0  0  0  0  0  0  0  0  0  0  0  0
  153.6619  141.6691  159.8363 N   0  0  0  0  0  0  0  0  0  0  0  0
  154.9274  141.1822  160.3497 C   0  0  0  0  0  0  0  0  0  0  0  0
  152.6283  140.9522  159.2655 C   0  0  0  0  0  0  0  0  0  0  0  0
  152.6936  139.4693  159.0887 C   0  0  0  0  0  0  0  0  0  0  0  0
  151.6494  141.8529  158.9398 C   0  0  0  0  0  0  0  0  0  0  0  0
  150.3105  141.6086  158.2923 C   0  0  0  0  0  0  0  0  0  0  0  0
  150.3944  141.5918  156.7509 C   0  0  1  0  0  0  0  0  0  0  0  0
  151.6267  140.8351  156.2300 C   0  0  0  0  0  0  0  0  0  0  0  0
  149.1916  140.9861  156.1862 N   0  0  0  0  0  0  0  0  0  0  0  0
  148.8486  141.0062  154.8884 C   0  0  0  0  0  0  0  0  0  0  0  0
  149.5312  141.5482  154.0185 O   0  0  0  0  0  0  0  0  0  0  0  0
  147.5377  140.3044  154.5214 C   0  0  0  0  0  0  0  0  0  0  0  0
  146.6353  141.1626  153.6145 C   0  0  0  0  0  0  0  0  0  0  0  0
  146.2033  142.4879  154.2672 C   0  0  0  0  0  0  0  0  0  0  0  0
  145.1111  142.3162  155.3254 C   0  0  0  0  0  0  0  0  0  0  0  0
  144.5030  143.7118  155.4960 C   0  0  0  0  0  0  0  0  0  0  0  0
  144.7783  144.4621  154.1842 C   0  0  0  0  0  0  0  0  0  0  0  0
  145.5883  143.5054  153.3010 C   0  0  0  0  0  0  0  0  0  0  0  0
  150.4997  144.4332  159.5007 H   0  0  0  0  0  0  0  0  0  0  0  0
  151.6414  144.8513  158.2276 H   0  0  0  0  0  0  0  0  0  0  0  0
  152.0351  145.1867  159.9115 H   0  0  0  0  0  0  0  0  0  0  0  0
  155.5002  140.7285  159.5405 H   0  0  0  0  0  0  0  0  0  0  0  0
  154.7464  140.4342  161.1219 H   0  0  0  0  0  0  0  0  0  0  0  0
  155.5097  141.9986  160.7797 H   0  0  0  0  0  0  0  0  0  0  0  0
  151.8417  139.0982  158.5195 H   0  0  0  0  0  0  0  0  0  0  0  0
  152.6967  138.9651  160.0552 H   0  0  0  0  0  0  0  0  0  0  0  0
  153.5987  139.1819  158.5530 H   0  0  0  0  0  0  0  0  0  0  0  0
  149.8718  140.6732  158.6408 H   0  0  0  0  0  0  0  0  0  0  0  0
  149.6092  142.3820  158.6070 H   0  0  0  0  0  0  0  0  0  0  0  0
  150.4613  142.6201  156.3904 H   0  0  0  0  0  0  0  0  0  0  0  0
  152.5531  141.2998  156.5678 H   0  0  0  0  0  0  0  0  0  0  0  0
  151.6493  140.8266  155.1397 H   0  0  0  0  0  0  0  0  0  0  0  0
  151.6306  139.7995  156.5718 H   0  0  0  0  0  0  0  0  0  0  0  0
  148.5738  140.5154  156.8311 H   0  0  0  0  0  0  0  0  0  0  0  0
  147.7815  139.3659  154.0230 H   0  0  0  0  0  0  0  0  0  0  0  0
  147.0022  140.0431  155.4352 H   0  0  0  0  0  0  0  0  0  0  0  0
  147.1451  141.3655  152.6714 H   0  0  0  0  0  0  0  0  0  0  0  0
  145.7379  140.5971  153.3588 H   0  0  0  0  0  0  0  0  0  0  0  0
  147.0685  142.9473  154.7483 H   0  0  0  0  0  0  0  0  0  0  0  0
  144.3452  141.6299  154.9603 H   0  0  0  0  0  0  0  0  0  0  0  0
  145.4962  141.9128  156.2624 H   0  0  0  0  0  0  0  0  0  0  0  0
  143.4377  143.6590  155.7231 H   0  0  0  0  0  0  0  0  0  0  0  0
  144.9878  144.2305  156.3240 H   0  0  0  0  0  0  0  0  0  0  0  0
  143.8556  144.7684  153.6902 H   0  0  0  0  0  0  0  0  0  0  0  0
  145.3529  145.3662  154.3898 H   0  0  0  0  0  0  0  0  0  0  0  0
  146.3400  144.0285  152.7093 H   0  0  0  0  0  0  0  0  0  0  0  0
  144.9166  142.9991  152.6063 H   0  0  0  0  0  0  0  0  0  0  0  0
  1  2  1  0  0  0  0
  1 22  1  0  0  0  0
  1 23  1  0  0  0  0
  1 24  1  0  0  0  0
  2  8  1  0  0  0  0
  2  3  2  0  0  0  0
  3  4  1  0  0  0  0
  4  5  1  0  0  0  0
  4  6  1  0  0  0  0
  5 25  1  0  0  0  0
  5 26  1  0  0  0  0
  5 27  1  0  0  0  0
  6  7  1  0  0  0  0
  6  8  2  0  0  0  0
  7 28  1  0  0  0  0
  7 29  1  0  0  0  0
  7 30  1  0  0  0  0
  8  9  1  0  0  0  0
  9 10  1  0  0  0  0
  9 31  1  0  0  0  0
  9 32  1  0  0  0  0
 10 11  1  0  0  0  0
 10 12  1  0  0  0  0
 10 33  1  0  0  0  0
 11 34  1  0  0  0  0
 11 35  1  0  0  0  0
 11 36  1  0  0  0  0
 12 13  1  0  0  0  0
 12 37  1  0  0  0  0
 13 14  2  0  0  0  0
 13 15  1  0  0  0  0
 15 16  1  0  0  0  0
 15 38  1  0  0  0  0
 15 39  1  0  0  0  0
 16 17  1  0  0  0  0
 16 40  1  0  0  0  0
 16 41  1  0  0  0  0
 17 21  1  0  0  0  0
 17 18  1  0  0  0  0
 17 42  1  0  0  0  0
 18 19  1  0  0  0  0
 18 43  1  0  0  0  0
 18 44  1  0  0  0  0
 19 20  1  0  0  0  0
 19 45  1  0  0  0  0
 19 46  1  0  0  0  0
 20 21  1  0  0  0  0
 20 47  1  0  0  0  0
 20 48  1  0  0  0  0
 21 49  1  0  0  0  0
 21 50  1  0  0  0  0
M  END
> <s_m_source_file>
AV-unprocessed.smi

> <i_m_source_file_index>
685

> <i_lp_mmshare_version>
43012

> <i_f3d_flags>
0

> <s_epik_input>
W0NIM11jMW5uKFtDSDNdKWMoW0NIM10pYzFbQ0gyXVtDQEhdKFtDSDNdKVtOSF1DKD1PKVtDSDJdW0NIMl1bQ0hdMltDSDJdW0NIMl1bQ0gyXVtDSDJdMg==

> <s_epik_cmdline>
J2VwaWtfcHl0aG9uJywgJy1waCcsICc3LjAnLCAnLXRuJywgJzgnLCAnLW1hJywgJzIwMCcsICctbWV0YWxfYmluZGluZycsICctaW1hZScsICc8aW5maWxlLm1hZT4nLCAnLW9tYWUnLCAnPG91dGZpbGUubWFlPic=

> <r_lp_tautomer_probability>
1

> <r_epik_Ionization_Penalty>
0.0131144

> <r_epik_Ionization_Penalty_Charging>
0

> <r_epik_Ionization_Penalty_Neutral>
0.0131144

> <r_epik_State_Penalty>
0.0101889

> <r_epik_Charging_Adjusted_Penalty>
0.0101889

> <i_epik_Tot_Q>
0

> <i_epik_Tot_abs_Q>
0

> <r_epik_Metal_State_Penalty>
0.00996794

> <b_epik_Metal_Only>
0

> <s_lp_Force_Field>
OPLS_2005

> <r_lp_Energy>
16.0397

> <b_lp_Chiralities_Consistent>
1

> <s_lp_Variant>
AV-unprocessed.smi:685-2

> <Gold.Version>
5.8.1

> <Gold.Id.Protein>
6NUR|6NUR_protein|mol2

> <Gold.PLP.Fitness>
45.0327

> <Gold.PLP.PLP>
-43.4784

> <Gold.PLP.part.hbond>
-2.0000

> <Gold.PLP.part.metal>
0.0000

> <Gold.PLP.part.buried>
-5.5657

> <Gold.PLP.part.nonpolar>
-36.0545

> <Gold.PLP.part.repulsive>
0.5313

> <Gold.PLP.ligand.clash>
0.0000

> <Gold.PLP.ligand.torsion>
0.8197

> <Gold.PLP.Chemscore.Hbond>
1.0385

> <Gold.PLP.Chemscore.CHOScore>
0.0000

> <Gold.PLP.Chemscore.Metal>
0.0000

> <Gold.Chemscore.Hbonds>
donor molecule, donor type, donor heavy atom, donor atom, acceptor molecule, acceptor atom, score
      P1  H  7989  7998       L1    14  0.10
      P1  H  8011  8017       L1    14  0.64

> <Gold.PLP.Chemscore.Internal.Correction>
0.0781

> <Gold.Rescore>
     Score         DG    S(hbond)    S(metal)    S(lipo)     H(rot)  DE(clash)    DE(int)     intcor
     16.00     -17.02       0.73        0.00     111.29       1.53       0.30       0.71       ----

> <Gold.Chemscore.Fitness>
16.0041

> <Gold.Chemscore.DG>
-17.0170

> <Gold.Chemscore.ZeroCoef>
-5.4800

> <Gold.Chemscore.Hbond>
0.7259

> <Gold.Chemscore.Metal>
0.0000

> <Gold.Chemscore.Lipo>
111.2914

> <Gold.Chemscore.Internal_Hbond>
0.0000

> <Gold.Chemscore.DEClash>
0.3047

> <Gold.Chemscore.DEInternal>
0.7082

> <Gold.Chemscore.Rot>
1.5268

> <Gold.Chemscore.Internal.Correction>
   9.000000E+99

> <Gold.Chemscore.Hbonds>
donor molecule, donor type, donor heavy atom, donor atom, acceptor molecule, acceptor atom, score
      P1  H  7989  7998       L1    14  0.11
      P1  H  8011  8017       L1    14  0.64

> <Gold.Chemscore.Hbond.Weighted>
-2.4244

> <Gold.Chemscore.Metal.Weighted>
-0.0000

> <Gold.Chemscore.Lipo.Weighted>
-13.0211

> <Gold.Chemscore.Internal_Hbond.Weighted>
0.0000

> <Gold.Chemscore.DEClash.Weighted>
0.3047

> <Gold.Chemscore.DEInternal.Weighted>
0.7082

> <Gold.Chemscore.Rot.Weighted>
3.9086

> <Gold.Chemscore.Internal.Correction.Weighted>
   9.000000E+99

> <Gold.Protein.RotatedTorsions>
[ 6907 6896 6895 6894 ] final   83.73 input  -60.11 | X-H torsion
[ 7974 7965 7964 7962 ] final  -55.83 input  175.53 | X-H torsion
[ 8008 7997 7996 7995 ] final   23.02 input   59.86 | X-H torsion
[ 10167 10162 10161 10158 ] final -101.44 input  -65.29 | X-H torsion
[ 10718 10713 10712 10709 ] final  -61.34 input   66.30 | X-H torsion
[ 10763 10752 10751 10750 ] final    1.07 input  -60.55 | X-H torsion
[ 11005 11000 10999 10996 ] final -110.98 input  -57.11 | X-H torsion

> <Gold.Protein.ActiveResidues>
 VAL166  LYS551  ARG553  GLY616  TRP617  ASP618  TYR619  PRO620  LYS621  CYS622 
 ASP623  PHE694  ASN695  SER759  ASP760  ASP761  ALA762  ILE779  LEU786  VAL792 
 PHE793  MET794  SER795  GLU796  ALA797  LYS798  CYS799  TRP800  GLU811  SER814 

> <Gold.Protein.RotatedAtoms>
  152.5335  134.2850  159.9021 H   0  0  0  0  0  0  0  0  0  0  0  0  # atno 6907 bound_to 6896
  151.2803  133.4206  159.2634 H   0  0  0  0  0  0  0  0  0  0  0  0  # atno 6908 bound_to 6896
  151.0289  134.9540  159.8157 H   0  0  0  0  0  0  0  0  0  0  0  0  # atno 6909 bound_to 6896
  145.8697  140.8225  142.9895 H   0  0  0  0  0  0  0  0  0  0  0  0  # atno 7974 bound_to 7965
  154.9745  140.3094  155.4973 H   0  0  0  0  0  0  0  0  0  0  0  0  # atno 8008 bound_to 7997
  156.2961  140.2278  156.4780 H   0  0  0  0  0  0  0  0  0  0  0  0  # atno 8009 bound_to 7997
  154.7846  140.0444  157.1142 H   0  0  0  0  0  0  0  0  0  0  0  0  # atno 8010 bound_to 7997
  140.2413  143.3537  152.0799 H   0  0  0  0  0  0  0  0  0  0  0  0  # atno 10167 bound_to 10162
  156.0929  130.4197  150.0980 H   0  0  0  0  0  0  0  0  0  0  0  0  # atno 10718 bound_to 10713
  153.3127  135.6964  153.7101 H   0  0  0  0  0  0  0  0  0  0  0  0  # atno 10763 bound_to 10752
  153.5972  135.3469  155.2933 H   0  0  0  0  0  0  0  0  0  0  0  0  # atno 10764 bound_to 10752
  154.8579  135.4332  154.2269 H   0  0  0  0  0  0  0  0  0  0  0  0  # atno 10765 bound_to 10752
  141.0760  133.9299  157.2387 H   0  0  0  0  0  0  0  0  0  0  0  0  # atno 11005 bound_to 11000
  144.6726  140.1220  143.7449 LP  0  0  0  0  0  0  0  0  0  0  0  0  # atno 17320 bound_to 7965
  145.9151  139.2511  143.1414 LP  0  0  0  0  0  0  0  0  0  0  0  0  # atno 17321 bound_to 7965
  139.5076  144.6835  151.5947 LP  0  0  0  0  0  0  0  0  0  0  0  0  # atno 17342 bound_to 10162
  140.6111  143.9434  150.6454 LP  0  0  0  0  0  0  0  0  0  0  0  0  # atno 17343 bound_to 10162
  156.8986  130.9612  151.3579 LP  0  0  0  0  0  0  0  0  0  0  0  0  # atno 17370 bound_to 10713
  157.6082  130.8563  149.8909 LP  0  0  0  0  0  0  0  0  0  0  0  0  # atno 17371 bound_to 10713
  139.9573  135.0162  156.9163 LP  0  0  0  0  0  0  0  0  0  0  0  0  # atno 17394 bound_to 11000
  140.5571  134.0571  155.7387 LP  0  0  0  0  0  0  0  0  0  0  0  0  # atno 17395 bound_to 11000

$$$$
