AV-unprocessed.smi:1047|AV-procd|sdf|4592|dock8
  -GOLD-   22720 3 73D 1   1.00000     0.00000
 Structure written by MMmdl.
 55 57  0  0  0  0  0  0  0  0  1 V2000
  145.8602  132.1237  161.0734 C   0  0  0  0  0  0  0  0  0  0  0  0
  146.8440  132.9404  161.9234 C   0  0  0  0  0  0  0  0  0  0  0  0
  146.6005  134.3817  161.9323 N   0  0  0  0  0  0  0  0  0  0  0  0
  147.4285  135.0457  162.9324 C   0  0  0  0  0  0  0  0  0  0  0  0
  147.1888  136.5641  162.9580 C   0  0  0  0  0  0  0  0  0  0  0  0
  147.4265  137.1026  161.6615 O   0  0  0  0  0  0  0  0  0  0  0  0
  146.5994  136.5229  160.6559 C   0  0  1  0  0  0  0  0  0  0  0  0
  146.9436  137.1978  159.3196 C   0  0  0  0  0  0  0  0  0  0  0  0
  148.3571  137.5563  159.2509 N   0  0  0  0  0  0  0  0  0  0  0  0
  148.8012  137.9090  157.9057 C   0  0  0  0  0  0  0  0  0  0  0  0
  150.2878  137.5729  157.7006 C   0  0  2  0  0  0  0  0  0  0  0  0
  150.5090  136.2482  158.1434 O   0  0  0  0  0  0  0  0  0  0  0  0
  151.2003  138.5272  158.4949 C   0  0  0  0  0  0  0  0  0  0  0  0
  151.1592  139.8897  157.9931 N   0  0  0  0  0  0  0  0  0  0  0  0
  150.7034  140.2958  156.7927 C   0  0  0  0  0  0  0  0  0  0  0  0
  150.7488  141.5991  156.5324 N   0  0  0  0  0  0  0  0  0  0  0  0
  151.2997  142.0971  157.7009 C   0  0  0  0  0  0  0  0  0  0  0  0
  151.6107  143.4229  158.0746 C   0  0  0  0  0  0  0  0  0  0  0  0
  152.1770  143.7062  159.3379 C   0  0  0  0  0  0  0  0  0  0  0  0
  152.4934  145.1468  159.6995 C   0  0  0  0  0  0  0  0  0  0  0  0
  152.4436  142.6527  160.2491 C   0  0  0  0  0  0  0  0  0  0  0  0
  153.0571  142.9321  161.6098 C   0  0  0  0  0  0  0  0  0  0  0  0
  152.1367  141.3228  159.8927 C   0  0  0  0  0  0  0  0  0  0  0  0
  151.5705  141.0538  158.6341 C   0  0  0  0  0  0  0  0  0  0  0  0
  146.8450  134.9994  160.6308 C   0  0  0  0  0  0  0  0  0  0  0  0
  146.0359  131.0559  161.2054 H   0  0  0  0  0  0  0  0  0  0  0  0
  145.9627  132.3386  160.0103 H   0  0  0  0  0  0  0  0  0  0  0  0
  144.8290  132.3273  161.3624 H   0  0  0  0  0  0  0  0  0  0  0  0
  146.7778  132.5669  162.9461 H   0  0  0  0  0  0  0  0  0  0  0  0
  147.8646  132.7377  161.5957 H   0  0  0  0  0  0  0  0  0  0  0  0
  147.2203  134.6320  163.9199 H   0  0  0  0  0  0  0  0  0  0  0  0
  148.4829  134.8514  162.7288 H   0  0  0  0  0  0  0  0  0  0  0  0
  146.1693  136.7905  163.2744 H   0  0  0  0  0  0  0  0  0  0  0  0
  147.8595  137.0425  163.6718 H   0  0  0  0  0  0  0  0  0  0  0  0
  145.5570  136.7297  160.9074 H   0  0  0  0  0  0  0  0  0  0  0  0
  146.7088  136.5092  158.5069 H   0  0  0  0  0  0  0  0  0  0  0  0
  146.3167  138.0778  159.1707 H   0  0  0  0  0  0  0  0  0  0  0  0
  148.9212  136.7924  159.6093 H   0  0  0  0  0  0  0  0  0  0  0  0
  148.2099  137.3446  157.1835 H   0  0  0  0  0  0  0  0  0  0  0  0
  148.6144  138.9636  157.6980 H   0  0  0  0  0  0  0  0  0  0  0  0
  150.5433  137.6387  156.6418 H   0  0  0  0  0  0  0  0  0  0  0  0
  150.9462  135.7733  157.4530 H   0  0  0  0  0  0  0  0  0  0  0  0
  150.9021  138.5453  159.5441 H   0  0  0  0  0  0  0  0  0  0  0  0
  152.2329  138.1764  158.4734 H   0  0  0  0  0  0  0  0  0  0  0  0
  150.3147  139.5937  156.0696 H   0  0  0  0  0  0  0  0  0  0  0  0
  151.4092  144.2243  157.3794 H   0  0  0  0  0  0  0  0  0  0  0  0
  151.9527  145.4425  160.5987 H   0  0  0  0  0  0  0  0  0  0  0  0
  152.2088  145.8303  158.8989 H   0  0  0  0  0  0  0  0  0  0  0  0
  153.5613  145.2692  159.8808 H   0  0  0  0  0  0  0  0  0  0  0  0
  153.2266  142.0101  162.1662 H   0  0  0  0  0  0  0  0  0  0  0  0
  152.3979  143.5658  162.2034 H   0  0  0  0  0  0  0  0  0  0  0  0
  154.0174  143.4365  161.5005 H   0  0  0  0  0  0  0  0  0  0  0  0
  152.3355  140.5107  160.5763 H   0  0  0  0  0  0  0  0  0  0  0  0
  147.8708  134.8011  160.3157 H   0  0  0  0  0  0  0  0  0  0  0  0
  146.1965  134.5528  159.8776 H   0  0  0  0  0  0  0  0  0  0  0  0
  1  2  1  0  0  0  0
  1 26  1  0  0  0  0
  1 27  1  0  0  0  0
  1 28  1  0  0  0  0
  2  3  1  0  0  0  0
  2 29  1  0  0  0  0
  2 30  1  0  0  0  0
  3 25  1  0  0  0  0
  3  4  1  0  0  0  0
  4  5  1  0  0  0  0
  4 31  1  0  0  0  0
  4 32  1  0  0  0  0
  5  6  1  0  0  0  0
  5 33  1  0  0  0  0
  5 34  1  0  0  0  0
  6  7  1  0  0  0  0
  7  8  1  0  0  0  0
  7 25  1  0  0  0  0
  7 35  1  0  0  0  0
  8  9  1  0  0  0  0
  8 36  1  0  0  0  0
  8 37  1  0  0  0  0
  9 10  1  0  0  0  0
  9 38  1  0  0  0  0
 10 11  1  0  0  0  0
 10 39  1  0  0  0  0
 10 40  1  0  0  0  0
 11 12  1  0  0  0  0
 11 13  1  0  0  0  0
 11 41  1  0  0  0  0
 12 42  1  0  0  0  0
 13 14  1  0  0  0  0
 13 43  1  0  0  0  0
 13 44  1  0  0  0  0
 14 24  1  0  0  0  0
 14 15  1  0  0  0  0
 15 16  2  0  0  0  0
 15 45  1  0  0  0  0
 16 17  1  0  0  0  0
 17 24  2  0  0  0  0
 17 18  1  0  0  0  0
 18 19  2  0  0  0  0
 18 46  1  0  0  0  0
 19 20  1  0  0  0  0
 19 21  1  0  0  0  0
 20 47  1  0  0  0  0
 20 48  1  0  0  0  0
 20 49  1  0  0  0  0
 21 22  1  0  0  0  0
 21 23  2  0  0  0  0
 22 50  1  0  0  0  0
 22 51  1  0  0  0  0
 22 52  1  0  0  0  0
 23 24  1  0  0  0  0
 23 53  1  0  0  0  0
 25 54  1  0  0  0  0
 25 55  1  0  0  0  0
M  END
> <s_m_source_file>
AV-unprocessed.smi

> <i_m_source_file_index>
1047

> <i_lp_mmshare_version>
43012

> <i_f3d_flags>
0

> <s_epik_input>
W0NIM11bQ0gyXU4xW0NIMl1bQ0gyXU9bQ0BIXShbQ0gyXTEpW0NIMl1bTkhdW0NIMl1bQ0BIXShbT0hdKVtDSDJdbihbY0hdbjIpYyhjMjMpW2NIXWMoW0NIM10pYyhbY0hdMylbQ0gzXQ==

> <s_epik_cmdline>
J2VwaWtfcHl0aG9uJywgJy1waCcsICc3LjAnLCAnLXRuJywgJzgnLCAnLW1hJywgJzIwMCcsICctbWV0YWxfYmluZGluZycsICctaW1hZScsICc8aW5maWxlLm1hZT4nLCAnLW9tYWUnLCAnPG91dGZpbGUubWFlPic=

> <r_epik_Ionization_Penalty>
2.74124

> <r_epik_Ionization_Penalty_Charging>
0

> <r_epik_Ionization_Penalty_Neutral>
2.74124

> <r_epik_State_Penalty>
2.37482

> <r_epik_Charging_Adjusted_Penalty>
2.37482

> <i_epik_Tot_Q>
0

> <i_epik_Tot_abs_Q>
0

> <r_epik_Metal_State_Penalty>
2.25944

> <b_epik_Metal_Only>
0

> <s_lp_Force_Field>
OPLS_2005

> <r_lp_Energy>
35.4924

> <b_lp_Chiralities_Consistent>
1

> <s_lp_Variant>
AV-unprocessed.smi:1047-33

> <Gold.Version>
5.8.1

> <Gold.Id.Protein>
6NUR|6NUR_protein|mol2

> <Gold.PLP.Fitness>
55.2399

> <Gold.PLP.PLP>
-49.8918

> <Gold.PLP.part.hbond>
-3.5142

> <Gold.PLP.part.metal>
0.0000

> <Gold.PLP.part.buried>
-8.5818

> <Gold.PLP.part.nonpolar>
-39.5502

> <Gold.PLP.part.repulsive>
0.0658

> <Gold.PLP.ligand.clash>
0.0000

> <Gold.PLP.ligand.torsion>
0.8945

> <Gold.PLP.Chemscore.Hbond>
2.3640

> <Gold.PLP.Chemscore.CHOScore>
0.0000

> <Gold.PLP.Chemscore.Metal>
0.0000

> <Gold.Chemscore.Hbonds>
donor molecule, donor type, donor heavy atom, donor atom, acceptor molecule, acceptor atom, score
      P1  H  6896  6908       L1    12  0.58
      P1  H  6931  6943       L1     6  0.96
      P1  H  6934  6947       L1     6  0.55

> <Gold.PLP.Chemscore.Internal.Correction>
0.0451

> <Gold.Rescore>
     Score         DG    S(hbond)    S(metal)    S(lipo)     H(rot)  DE(clash)    DE(int)     intcor
     16.24     -17.47       0.70        0.00     137.77       2.52       0.03       1.20       ----

> <Gold.Chemscore.Fitness>
16.2405

> <Gold.Chemscore.DG>
-17.4680

> <Gold.Chemscore.ZeroCoef>
-5.4800

> <Gold.Chemscore.Hbond>
0.6976

> <Gold.Chemscore.Metal>
0.0000

> <Gold.Chemscore.Lipo>
137.7664

> <Gold.Chemscore.Internal_Hbond>
0.0000

> <Gold.Chemscore.DEClash>
0.0269

> <Gold.Chemscore.DEInternal>
1.2006

> <Gold.Chemscore.Rot>
2.5237

> <Gold.Chemscore.Internal.Correction>
   9.000000E+99

> <Gold.Chemscore.Hbonds>
donor molecule, donor type, donor heavy atom, donor atom, acceptor molecule, acceptor atom, score
      P1  H  6896  6908       L1    12  0.11
      P1  H  6931  6943       L1     6  0.40
      P1  H  6934  6947       L1     6  0.05

> <Gold.Chemscore.Hbond.Weighted>
-2.3300

> <Gold.Chemscore.Metal.Weighted>
-0.0000

> <Gold.Chemscore.Lipo.Weighted>
-16.1187

> <Gold.Chemscore.Internal_Hbond.Weighted>
0.0000

> <Gold.Chemscore.DEClash.Weighted>
0.0269

> <Gold.Chemscore.DEInternal.Weighted>
1.2006

> <Gold.Chemscore.Rot.Weighted>
6.4607

> <Gold.Chemscore.Internal.Correction.Weighted>
   9.000000E+99

> <Gold.Protein.RotatedTorsions>
[ 6907 6896 6895 6894 ] final -160.41 input  -60.11 | X-H torsion
[ 7974 7965 7964 7962 ] final   21.16 input  175.53 | X-H torsion
[ 8008 7997 7996 7995 ] final  -77.90 input   59.86 | X-H torsion
[ 10167 10162 10161 10158 ] final  -14.87 input  -65.29 | X-H torsion
[ 10718 10713 10712 10709 ] final  -99.92 input   66.30 | X-H torsion
[ 10763 10752 10751 10750 ] final  160.98 input  -60.55 | X-H torsion
[ 11005 11000 10999 10996 ] final    1.05 input  -57.11 | X-H torsion

> <Gold.Protein.ActiveResidues>
 VAL166  LYS551  ARG553  GLY616  TRP617  ASP618  TYR619  PRO620  LYS621  CYS622 
 ASP623  PHE694  ASN695  SER759  ASP760  ASP761  ALA762  ILE779  LEU786  VAL792 
 PHE793  MET794  SER795  GLU796  ALA797  LYS798  CYS799  TRP800  GLU811  SER814 

> <Gold.Protein.RotatedAtoms>
  151.3487  133.3934  159.2677 H   0  0  0  0  0  0  0  0  0  0  0  0  # atno 6907 bound_to 6896
  150.9819  134.9173  159.7859 H   0  0  0  0  0  0  0  0  0  0  0  0  # atno 6908 bound_to 6896
  152.5220  134.3451  159.9283 H   0  0  0  0  0  0  0  0  0  0  0  0  # atno 6909 bound_to 6896
  146.2082  139.8066  142.8709 H   0  0  0  0  0  0  0  0  0  0  0  0  # atno 7974 bound_to 7965
  154.5639  140.0703  156.8861 H   0  0  0  0  0  0  0  0  0  0  0  0  # atno 8008 bound_to 7997
  155.2760  140.3368  155.4243 H   0  0  0  0  0  0  0  0  0  0  0  0  # atno 8009 bound_to 7997
  156.2065  140.1742  156.7775 H   0  0  0  0  0  0  0  0  0  0  0  0  # atno 8010 bound_to 7997
  140.7209  143.5277  150.9557 H   0  0  0  0  0  0  0  0  0  0  0  0  # atno 10167 bound_to 10162
  156.0148  130.5304  150.6741 H   0  0  0  0  0  0  0  0  0  0  0  0  # atno 10718 bound_to 10713
  154.2558  135.2770  155.2798 H   0  0  0  0  0  0  0  0  0  0  0  0  # atno 10763 bound_to 10752
  154.5426  135.5698  153.6856 H   0  0  0  0  0  0  0  0  0  0  0  0  # atno 10764 bound_to 10752
  152.9971  135.6255  154.2706 H   0  0  0  0  0  0  0  0  0  0  0  0  # atno 10765 bound_to 10752
  140.6198  133.9672  155.8219 H   0  0  0  0  0  0  0  0  0  0  0  0  # atno 11005 bound_to 11000
  145.3240  141.0251  143.3484 LP  0  0  0  0  0  0  0  0  0  0  0  0  # atno 17320 bound_to 7965
  144.8846  139.4857  143.6706 LP  0  0  0  0  0  0  0  0  0  0  0  0  # atno 17321 bound_to 7965
  139.8996  143.6852  152.3133 LP  0  0  0  0  0  0  0  0  0  0  0  0  # atno 17342 bound_to 10162
  139.7196  144.7605  151.0976 LP  0  0  0  0  0  0  0  0  0  0  0  0  # atno 17343 bound_to 10162
  157.4457  131.0866  151.0898 LP  0  0  0  0  0  0  0  0  0  0  0  0  # atno 17370 bound_to 10713
  157.1428  130.6150  149.5560 LP  0  0  0  0  0  0  0  0  0  0  0  0  # atno 17371 bound_to 10713
  141.0751  134.0148  157.3470 LP  0  0  0  0  0  0  0  0  0  0  0  0  # atno 17394 bound_to 11000
  139.9158  135.0196  156.7875 LP  0  0  0  0  0  0  0  0  0  0  0  0  # atno 17395 bound_to 11000

$$$$
