AV-unprocessed.smi:2367|AV-procd|sdf|9424|dock8
  -GOLD-   2272013 63D 1   1.00000     0.00000
 Structure written by MMmdl.
 34 35  0  0  0  0  0  0  0  0  1 V2000
  145.0363  134.4826  153.8712 C   0  0  0  0  0  0  0  0  0  0  0  0
  145.4277  135.8037  153.5207 O   0  0  0  0  0  0  0  0  0  0  0  0
  145.1610  136.1998  152.1749 C   0  0  0  0  0  0  0  0  0  0  0  0
  145.5764  137.6550  151.9131 C   0  0  0  0  0  0  0  0  0  0  0  0
  146.9729  137.8723  152.2780 N   0  0  0  0  0  0  0  0  0  0  0  0
  147.4246  138.8339  153.0947 C   0  0  0  0  0  0  0  0  0  0  0  0
  146.7035  139.6780  153.6271 O   0  0  0  0  0  0  0  0  0  0  0  0
  148.7524  138.7399  153.2737 N   0  0  0  0  0  0  0  0  0  0  0  0
  149.5569  139.5760  154.0892 C   0  0  0  0  0  0  0  0  0  0  0  0
  149.0860  140.8697  154.3944 C   0  0  0  0  0  0  0  0  0  0  0  0
  149.8728  141.6982  155.2193 C   0  0  0  0  0  0  0  0  0  0  0  0
  151.0527  141.3121  155.7498 N   0  0  0  0  0  0  0  0  0  0  0  0
  151.4880  140.0633  155.4771 C   0  0  0  0  0  0  0  0  0  0  0  0
  150.7802  139.1541  154.6650 C   0  0  0  0  0  0  0  0  0  0  0  0
  151.2623  137.9020  154.4772 F   0  0  0  0  0  0  0  0  0  0  0  0
  145.7242  135.1133  151.2389 C   0  0  0  0  0  0  0  0  0  0  0  0
  144.4100  135.1589  150.4572 C   0  0  0  0  0  0  0  0  0  0  0  0
  143.7634  135.7339  151.7184 C   0  0  0  0  0  0  0  0  0  0  0  0
  145.3830  134.2639  154.8809 H   0  0  0  0  0  0  0  0  0  0  0  0
  145.4704  133.7370  153.2050 H   0  0  0  0  0  0  0  0  0  0  0  0
  143.9533  134.3653  153.8685 H   0  0  0  0  0  0  0  0  0  0  0  0
  145.4796  137.8876  150.8523 H   0  0  0  0  0  0  0  0  0  0  0  0
  144.9078  138.3515  152.4199 H   0  0  0  0  0  0  0  0  0  0  0  0
  147.6435  137.2211  151.8971 H   0  0  0  0  0  0  0  0  0  0  0  0
  149.2067  137.9258  152.8872 H   0  0  0  0  0  0  0  0  0  0  0  0
  148.1477  141.2282  153.9968 H   0  0  0  0  0  0  0  0  0  0  0  0
  149.5438  142.6981  155.4612 H   0  0  0  0  0  0  0  0  0  0  0  0
  152.4243  139.7742  155.9310 H   0  0  0  0  0  0  0  0  0  0  0  0
  146.6008  135.4092  150.6619 H   0  0  0  0  0  0  0  0  0  0  0  0
  145.8801  134.1543  151.7365 H   0  0  0  0  0  0  0  0  0  0  0  0
  144.4322  135.8688  149.6291 H   0  0  0  0  0  0  0  0  0  0  0  0
  144.0265  134.1858  150.1492 H   0  0  0  0  0  0  0  0  0  0  0  0
  143.3358  134.9567  152.3544 H   0  0  0  0  0  0  0  0  0  0  0  0
  143.0502  136.5380  151.5347 H   0  0  0  0  0  0  0  0  0  0  0  0
  1  2  1  0  0  0  0
  1 19  1  0  0  0  0
  1 20  1  0  0  0  0
  1 21  1  0  0  0  0
  2  3  1  0  0  0  0
  3 18  1  0  0  0  0
  3  4  1  0  0  0  0
  3 16  1  0  0  0  0
  4  5  1  0  0  0  0
  4 22  1  0  0  0  0
  4 23  1  0  0  0  0
  5  6  1  0  0  0  0
  5 24  1  0  0  0  0
  6  7  2  0  0  0  0
  6  8  1  0  0  0  0
  8  9  1  0  0  0  0
  8 25  1  0  0  0  0
  9 14  1  0  0  0  0
  9 10  2  0  0  0  0
 10 11  1  0  0  0  0
 10 26  1  0  0  0  0
 11 12  2  0  0  0  0
 11 27  1  0  0  0  0
 12 13  1  0  0  0  0
 13 14  2  0  0  0  0
 13 28  1  0  0  0  0
 14 15  1  0  0  0  0
 16 17  1  0  0  0  0
 16 29  1  0  0  0  0
 16 30  1  0  0  0  0
 17 18  1  0  0  0  0
 17 31  1  0  0  0  0
 17 32  1  0  0  0  0
 18 33  1  0  0  0  0
 18 34  1  0  0  0  0
M  END
> <s_m_source_file>
AV-unprocessed.smi

> <i_m_source_file_index>
2367

> <i_lp_mmshare_version>
43012

> <i_f3d_flags>
0

> <s_epik_input>
W0NIMl0xW0NIMl1bQ0gyXUMxKE9bQ0gzXSlbQ0gyXVtOSF1DKD1PKVtOSF1jMltjSF1bY0hdbltjSF1jMkY=

> <s_epik_cmdline>
J2VwaWtfcHl0aG9uJywgJy1waCcsICc3LjAnLCAnLXRuJywgJzgnLCAnLW1hJywgJzIwMCcsICctbWV0YWxfYmluZGluZycsICctaW1hZScsICc8aW5maWxlLm1hZT4nLCAnLW9tYWUnLCAnPG91dGZpbGUubWFlPic=

> <r_epik_Ionization_Penalty>
0.00342397

> <r_epik_Ionization_Penalty_Charging>
0

> <r_epik_Ionization_Penalty_Neutral>
0.00342397

> <r_epik_State_Penalty>
0.00239946

> <r_epik_Charging_Adjusted_Penalty>
0.00239946

> <i_epik_Tot_Q>
0

> <i_epik_Tot_abs_Q>
0

> <r_epik_Metal_State_Penalty>
-0

> <b_epik_Metal_Only>
0

> <s_lp_Force_Field>
OPLS_2005

> <r_lp_Energy>
23.3759

> <b_lp_Chiralities_Consistent>
1

> <s_lp_Variant>
AV-unprocessed.smi:2367-1

> <Gold.Version>
5.8.1

> <Gold.Id.Protein>
6NUR|6NUR_protein|mol2

> <Gold.PLP.Fitness>
41.6067

> <Gold.PLP.PLP>
-32.9578

> <Gold.PLP.part.hbond>
-3.1638

> <Gold.PLP.part.metal>
0.0000

> <Gold.PLP.part.buried>
-2.2700

> <Gold.PLP.part.nonpolar>
-29.6192

> <Gold.PLP.part.repulsive>
0.3900

> <Gold.PLP.ligand.clash>
0.0000

> <Gold.PLP.ligand.torsion>
0.3052

> <Gold.PLP.Chemscore.Hbond>
1.9440

> <Gold.PLP.Chemscore.CHOScore>
1.0000

> <Gold.PLP.Chemscore.Metal>
0.0000

> <Gold.Chemscore.Hbonds>
donor molecule, donor type, donor heavy atom, donor atom, acceptor molecule, acceptor atom, score
      L1  H     5    24       P1  7948  1.00
      L1  H     8    25       P1  7948  0.93
      L1  C    11    27       P1  8028  1.00

> <Gold.PLP.Chemscore.Internal.Correction>
0.4274

> <Gold.Rescore>
     Score         DG    S(hbond)    S(metal)    S(lipo)     H(rot)  DE(clash)    DE(int)     intcor
     13.33     -16.15       1.92        0.00      69.34       1.51       1.08       1.74       ----

> <Gold.Chemscore.Fitness>
13.3318

> <Gold.Chemscore.DG>
-16.1532

> <Gold.Chemscore.ZeroCoef>
-5.4800

> <Gold.Chemscore.Hbond>
1.9212

> <Gold.Chemscore.Metal>
0.0000

> <Gold.Chemscore.Lipo>
69.3400

> <Gold.Chemscore.Internal_Hbond>
0.0000

> <Gold.Chemscore.DEClash>
1.0804

> <Gold.Chemscore.DEInternal>
1.7410

> <Gold.Chemscore.Rot>
1.5064

> <Gold.Chemscore.Internal.Correction>
   9.000000E+99

> <Gold.Chemscore.Hbonds>
donor molecule, donor type, donor heavy atom, donor atom, acceptor molecule, acceptor atom, score
      L1  H     5    24       P1  7948  0.99
      L1  H     8    25       P1  7948  0.88

> <Gold.Chemscore.Hbond.Weighted>
-6.4167

> <Gold.Chemscore.Metal.Weighted>
-0.0000

> <Gold.Chemscore.Lipo.Weighted>
-8.1128

> <Gold.Chemscore.Internal_Hbond.Weighted>
0.0000

> <Gold.Chemscore.DEClash.Weighted>
1.0804

> <Gold.Chemscore.DEInternal.Weighted>
1.7410

> <Gold.Chemscore.Rot.Weighted>
3.8563

> <Gold.Chemscore.Internal.Correction.Weighted>
   9.000000E+99

> <Gold.Protein.RotatedTorsions>
[ 6907 6896 6895 6894 ] final  -78.79 input  -60.11 | X-H torsion
[ 7974 7965 7964 7962 ] final   50.61 input  175.53 | X-H torsion
[ 8008 7997 7996 7995 ] final  128.80 input   59.86 | X-H torsion
[ 10167 10162 10161 10158 ] final   32.59 input  -65.29 | X-H torsion
[ 10718 10713 10712 10709 ] final  161.25 input   66.30 | X-H torsion
[ 10763 10752 10751 10750 ] final  117.75 input  -60.55 | X-H torsion
[ 11005 11000 10999 10996 ] final -178.21 input  -57.11 | X-H torsion

> <Gold.Protein.ActiveResidues>
 VAL166  LYS551  ARG553  GLY616  TRP617  ASP618  TYR619  PRO620  LYS621  CYS622 
 ASP623  PHE694  ASN695  SER759  ASP760  ASP761  ALA762  ILE779  LEU786  VAL792 
 PHE793  MET794  SER795  GLU796  ALA797  LYS798  CYS799  TRP800  GLU811  SER814 

> <Gold.Protein.RotatedAtoms>
  150.6964  134.4219  159.5208 H   0  0  0  0  0  0  0  0  0  0  0  0  # atno 6907 bound_to 6896
  152.1960  134.8627  160.0522 H   0  0  0  0  0  0  0  0  0  0  0  0  # atno 6908 bound_to 6896
  151.9565  133.3647  159.4056 H   0  0  0  0  0  0  0  0  0  0  0  0  # atno 6909 bound_to 6896
  145.9995  139.4424  143.0024 H   0  0  0  0  0  0  0  0  0  0  0  0  # atno 7974 bound_to 7965
  156.2923  140.2636  156.2494 H   0  0  0  0  0  0  0  0  0  0  0  0  # atno 8008 bound_to 7997
  154.9898  140.0389  157.2333 H   0  0  0  0  0  0  0  0  0  0  0  0  # atno 8009 bound_to 7997
  154.7697  140.2776  155.6153 H   0  0  0  0  0  0  0  0  0  0  0  0  # atno 8010 bound_to 7997
  140.4485  144.1084  150.6187 H   0  0  0  0  0  0  0  0  0  0  0  0  # atno 10167 bound_to 10162
  157.1392  131.0536  151.2335 H   0  0  0  0  0  0  0  0  0  0  0  0  # atno 10718 bound_to 10713
  153.5571  135.3528  155.2784 H   0  0  0  0  0  0  0  0  0  0  0  0  # atno 10763 bound_to 10752
  154.8699  135.4127  154.2872 H   0  0  0  0  0  0  0  0  0  0  0  0  # atno 10764 bound_to 10752
  153.3610  135.7060  153.6781 H   0  0  0  0  0  0  0  0  0  0  0  0  # atno 10765 bound_to 10752
  140.4323  134.6507  157.4718 H   0  0  0  0  0  0  0  0  0  0  0  0  # atno 11005 bound_to 11000
  145.7509  140.9973  143.1251 LP  0  0  0  0  0  0  0  0  0  0  0  0  # atno 17320 bound_to 7965
  144.6915  139.9213  143.7468 LP  0  0  0  0  0  0  0  0  0  0  0  0  # atno 17321 bound_to 7965
  140.4236  143.2600  151.9685 LP  0  0  0  0  0  0  0  0  0  0  0  0  # atno 17342 bound_to 10162
  139.4794  144.5809  151.7934 LP  0  0  0  0  0  0  0  0  0  0  0  0  # atno 17343 bound_to 10162
  157.4323  130.7497  149.7000 LP  0  0  0  0  0  0  0  0  0  0  0  0  # atno 17370 bound_to 10713
  155.9792  130.4043  150.3602 LP  0  0  0  0  0  0  0  0  0  0  0  0  # atno 17371 bound_to 10713
  140.0126  134.6668  155.9358 LP  0  0  0  0  0  0  0  0  0  0  0  0  # atno 17394 bound_to 11000
  141.1740  133.6539  156.4759 LP  0  0  0  0  0  0  0  0  0  0  0  0  # atno 17395 bound_to 11000

$$$$
