AV-unprocessed.smi:2450|AV-procd|sdf|9666|dock5
  -GOLD-   2272013303D 1   1.00000     0.00000
 Structure written by MMmdl.
 41 42  0  0  0  0  0  0  0  0  1 V2000
  151.7937  145.3298  159.7340 C   0  0  0  0  0  0  0  0  0  0  0  0
  151.9451  144.0334  160.5426 C   0  0  0  0  0  0  0  0  0  0  0  0
  152.6633  142.8992  159.7841 C   0  0  1  0  0  0  0  0  0  0  0  0
  152.9196  141.6889  160.6929 C   0  0  0  0  0  0  0  0  0  0  0  0
  151.8807  142.4670  158.6269 N   0  0  0  0  0  0  0  0  0  0  0  0
  152.0794  141.3481  157.9147 C   0  0  0  0  0  0  0  0  0  0  0  0
  152.9821  140.5426  158.1421 O   0  0  0  0  0  0  0  0  0  0  0  0
  151.1822  141.2450  156.9202 N   0  0  0  0  0  0  0  0  0  0  0  0
  151.0801  140.2310  155.9261 C   0  0  0  0  0  0  0  0  0  0  0  0
  152.1128  139.2824  155.7257 C   0  0  0  0  0  0  0  0  0  0  0  0
  151.9350  138.2571  154.7811 C   0  0  0  0  0  0  0  0  0  0  0  0
  150.7203  138.2055  154.0778 C   0  0  0  0  0  0  0  0  0  0  0  0
  149.7222  139.0916  154.2660 N   0  0  0  0  0  0  0  0  0  0  0  0
  149.8842  140.0950  155.1639 C   0  0  0  0  0  0  0  0  0  0  0  0
  148.8082  141.0009  155.3086 N   0  0  0  0  0  0  0  0  0  0  0  0
  147.6532  140.6525  156.1289 C   0  0  0  0  0  0  0  0  0  0  0  0
  146.5792  141.6670  155.7483 C   0  0  0  0  0  0  0  0  0  0  0  0
  146.8344  141.8666  154.2573 C   0  0  0  0  0  0  0  0  0  0  0  0
  148.3549  141.7261  154.1249 C   0  0  0  0  0  0  0  0  0  0  0  0
  151.3390  146.1127  160.3411 H   0  0  0  0  0  0  0  0  0  0  0  0
  151.1612  145.1860  158.8581 H   0  0  0  0  0  0  0  0  0  0  0  0
  152.7627  145.6950  159.3924 H   0  0  0  0  0  0  0  0  0  0  0  0
  152.5023  144.2597  161.4525 H   0  0  0  0  0  0  0  0  0  0  0  0
  150.9607  143.6954  160.8688 H   0  0  0  0  0  0  0  0  0  0  0  0
  153.6370  143.2692  159.4586 H   0  0  0  0  0  0  0  0  0  0  0  0
  153.5294  141.9669  161.5531 H   0  0  0  0  0  0  0  0  0  0  0  0
  153.4488  140.9001  160.1570 H   0  0  0  0  0  0  0  0  0  0  0  0
  151.9861  141.2684  161.0692 H   0  0  0  0  0  0  0  0  0  0  0  0
  151.1175  143.0680  158.3523 H   0  0  0  0  0  0  0  0  0  0  0  0
  150.5613  142.0317  156.7979 H   0  0  0  0  0  0  0  0  0  0  0  0
  153.0279  139.3085  156.2975 H   0  0  0  0  0  0  0  0  0  0  0  0
  152.7061  137.5207  154.6104 H   0  0  0  0  0  0  0  0  0  0  0  0
  150.5415  137.4284  153.3495 H   0  0  0  0  0  0  0  0  0  0  0  0
  147.3008  139.6471  155.8943 H   0  0  0  0  0  0  0  0  0  0  0  0
  147.8926  140.6939  157.1920 H   0  0  0  0  0  0  0  0  0  0  0  0
  145.5691  141.3202  155.9681 H   0  0  0  0  0  0  0  0  0  0  0  0
  146.7428  142.6035  156.2834 H   0  0  0  0  0  0  0  0  0  0  0  0
  146.3428  141.0725  153.6934 H   0  0  0  0  0  0  0  0  0  0  0  0
  146.4630  142.8217  153.8854 H   0  0  0  0  0  0  0  0  0  0  0  0
  148.8184  142.7131  154.1166 H   0  0  0  0  0  0  0  0  0  0  0  0
  148.6286  141.2164  153.1999 H   0  0  0  0  0  0  0  0  0  0  0  0
  1  2  1  0  0  0  0
  1 20  1  0  0  0  0
  1 21  1  0  0  0  0
  1 22  1  0  0  0  0
  2  3  1  0  0  0  0
  2 23  1  0  0  0  0
  2 24  1  0  0  0  0
  3  4  1  0  0  0  0
  3  5  1  0  0  0  0
  3 25  1  0  0  0  0
  4 26  1  0  0  0  0
  4 27  1  0  0  0  0
  4 28  1  0  0  0  0
  5  6  1  0  0  0  0
  5 29  1  0  0  0  0
  6  7  2  0  0  0  0
  6  8  1  0  0  0  0
  8  9  1  0  0  0  0
  8 30  1  0  0  0  0
  9 14  1  0  0  0  0
  9 10  2  0  0  0  0
 10 11  1  0  0  0  0
 10 31  1  0  0  0  0
 11 12  2  0  0  0  0
 11 32  1  0  0  0  0
 12 13  1  0  0  0  0
 12 33  1  0  0  0  0
 13 14  2  0  0  0  0
 14 15  1  0  0  0  0
 15 19  1  0  0  0  0
 15 16  1  0  0  0  0
 16 17  1  0  0  0  0
 16 34  1  0  0  0  0
 16 35  1  0  0  0  0
 17 18  1  0  0  0  0
 17 36  1  0  0  0  0
 17 37  1  0  0  0  0
 18 19  1  0  0  0  0
 18 38  1  0  0  0  0
 18 39  1  0  0  0  0
 19 40  1  0  0  0  0
 19 41  1  0  0  0  0
M  END
> <s_m_source_file>
AV-unprocessed.smi

> <i_m_source_file_index>
2450

> <i_lp_mmshare_version>
43012

> <i_f3d_flags>
0

> <s_epik_input>
W0NIM11bQ0gyXVtDQEhdKFtDSDNdKVtOSF1DKD1PKVtOSF1jMVtjSF1bY0hdW2NIXW5jMU4yW0NIMl1bQ0gyXVtDSDJdW0NIMl0y

> <s_epik_cmdline>
J2VwaWtfcHl0aG9uJywgJy1waCcsICc3LjAnLCAnLXRuJywgJzgnLCAnLW1hJywgJzIwMCcsICctbWV0YWxfYmluZGluZycsICctaW1hZScsICc8aW5maWxlLm1hZT4nLCAnLW9tYWUnLCAnPG91dGZpbGUubWFlPic=

> <r_lp_tautomer_probability>
1

> <r_epik_Ionization_Penalty>
0.103391

> <r_epik_Ionization_Penalty_Charging>
0

> <r_epik_Ionization_Penalty_Neutral>
0.103391

> <r_epik_State_Penalty>
0.0927616

> <r_epik_Charging_Adjusted_Penalty>
0.0927616

> <i_epik_Tot_Q>
0

> <i_epik_Tot_abs_Q>
0

> <r_epik_Metal_State_Penalty>
0.0789158

> <b_epik_Metal_Only>
0

> <s_lp_Force_Field>
OPLS_2005

> <r_lp_Energy>
32.3159

> <b_lp_Chiralities_Consistent>
1

> <s_lp_Variant>
AV-unprocessed.smi:2450-2

> <Gold.Version>
5.8.1

> <Gold.Id.Protein>
6NUR|6NUR_protein|mol2

> <Gold.PLP.Fitness>
45.0541

> <Gold.PLP.PLP>
-40.1067

> <Gold.PLP.part.hbond>
-1.0000

> <Gold.PLP.part.metal>
0.0000

> <Gold.PLP.part.buried>
-4.1178

> <Gold.PLP.part.nonpolar>
-35.8363

> <Gold.PLP.part.repulsive>
0.4374

> <Gold.PLP.ligand.clash>
0.0000

> <Gold.PLP.ligand.torsion>
0.5467

> <Gold.PLP.Chemscore.Hbond>
0.8000

> <Gold.PLP.Chemscore.CHOScore>
1.1001

> <Gold.PLP.Chemscore.Metal>
0.0000

> <Gold.Chemscore.Hbonds>
donor molecule, donor type, donor heavy atom, donor atom, acceptor molecule, acceptor atom, score
      P1  H  7997  8009       L1     7  0.78
      L1  C    12    33       P1  7948  0.55
      L1  C    12    33       P1  7949  0.54

> <Gold.PLP.Chemscore.Internal.Correction>
0.3405

> <Gold.Rescore>
     Score         DG    S(hbond)    S(metal)    S(lipo)     H(rot)  DE(clash)    DE(int)     intcor
     13.44     -16.41       0.87        0.00      97.40       1.32       0.20       2.77       ----

> <Gold.Chemscore.Fitness>
13.4428

> <Gold.Chemscore.DG>
-16.4123

> <Gold.Chemscore.ZeroCoef>
-5.4800

> <Gold.Chemscore.Hbond>
0.8699

> <Gold.Chemscore.Metal>
0.0000

> <Gold.Chemscore.Lipo>
97.4040

> <Gold.Chemscore.Internal_Hbond>
0.0000

> <Gold.Chemscore.DEClash>
0.2001

> <Gold.Chemscore.DEInternal>
2.7693

> <Gold.Chemscore.Rot>
1.3163

> <Gold.Chemscore.Internal.Correction>
   9.000000E+99

> <Gold.Chemscore.Hbonds>
donor molecule, donor type, donor heavy atom, donor atom, acceptor molecule, acceptor atom, score
      P1  H  7997  8009       L1     7  0.75

> <Gold.Chemscore.Hbond.Weighted>
-2.9056

> <Gold.Chemscore.Metal.Weighted>
-0.0000

> <Gold.Chemscore.Lipo.Weighted>
-11.3963

> <Gold.Chemscore.Internal_Hbond.Weighted>
0.0000

> <Gold.Chemscore.DEClash.Weighted>
0.2001

> <Gold.Chemscore.DEInternal.Weighted>
2.7693

> <Gold.Chemscore.Rot.Weighted>
3.3696

> <Gold.Chemscore.Internal.Correction.Weighted>
   9.000000E+99

> <Gold.Protein.RotatedTorsions>
[ 6907 6896 6895 6894 ] final -163.06 input  -60.11 | X-H torsion
[ 7974 7965 7964 7962 ] final  179.80 input  175.53 | X-H torsion
[ 8008 7997 7996 7995 ] final  163.76 input   59.86 | X-H torsion
[ 10167 10162 10161 10158 ] final   14.31 input  -65.29 | X-H torsion
[ 10718 10713 10712 10709 ] final -112.80 input   66.30 | X-H torsion
[ 10763 10752 10751 10750 ] final  -51.45 input  -60.55 | X-H torsion
[ 11005 11000 10999 10996 ] final  146.63 input  -57.11 | X-H torsion

> <Gold.Protein.ActiveResidues>
 VAL166  LYS551  ARG553  GLY616  TRP617  ASP618  TYR619  PRO620  LYS621  CYS622 
 ASP623  PHE694  ASN695  SER759  ASP760  ASP761  ALA762  ILE779  LEU786  VAL792 
 PHE793  MET794  SER795  GLU796  ALA797  LYS798  CYS799  TRP800  GLU811  SER814 

> <Gold.Protein.RotatedAtoms>
  151.3900  133.3792  159.2719 H   0  0  0  0  0  0  0  0  0  0  0  0  # atno 6907 bound_to 6896
  150.9512  134.8913  159.7683 H   0  0  0  0  0  0  0  0  0  0  0  0  # atno 6908 bound_to 6896
  152.5112  134.3856  159.9418 H   0  0  0  0  0  0  0  0  0  0  0  0  # atno 6909 bound_to 6896
  144.7142  140.0602  143.6433 H   0  0  0  0  0  0  0  0  0  0  0  0  # atno 7974 bound_to 7965
  156.1932  140.1715  156.8050 H   0  0  0  0  0  0  0  0  0  0  0  0  # atno 8008 bound_to 7997
  154.5497  140.0720  156.8679 H   0  0  0  0  0  0  0  0  0  0  0  0  # atno 8009 bound_to 7997
  155.3052  140.3364  155.4248 H   0  0  0  0  0  0  0  0  0  0  0  0  # atno 8010 bound_to 7997
  140.5944  143.8731  150.6904 H   0  0  0  0  0  0  0  0  0  0  0  0  # atno 10167 bound_to 10162
  156.0727  130.5939  150.8557 H   0  0  0  0  0  0  0  0  0  0  0  0  # atno 10718 bound_to 10713
  154.1268  135.6526  153.4914 H   0  0  0  0  0  0  0  0  0  0  0  0  # atno 10763 bound_to 10752
  153.0207  135.5283  154.7041 H   0  0  0  0  0  0  0  0  0  0  0  0  # atno 10764 bound_to 10752
  154.6264  135.2971  155.0237 H   0  0  0  0  0  0  0  0  0  0  0  0  # atno 10765 bound_to 10752
  140.0809  134.9097  157.1499 H   0  0  0  0  0  0  0  0  0  0  0  0  # atno 11005 bound_to 11000
  145.9870  139.2985  143.1007 LP  0  0  0  0  0  0  0  0  0  0  0  0  # atno 17320 bound_to 7965
  145.8946  140.9282  143.0534 LP  0  0  0  0  0  0  0  0  0  0  0  0  # atno 17321 bound_to 7965
  140.2262  143.3771  152.1603 LP  0  0  0  0  0  0  0  0  0  0  0  0  # atno 17342 bound_to 10162
  139.5248  144.7088  151.5270 LP  0  0  0  0  0  0  0  0  0  0  0  0  # atno 17343 bound_to 10162
  157.5807  131.0946  150.9275 LP  0  0  0  0  0  0  0  0  0  0  0  0  # atno 17370 bound_to 10713
  156.9471  130.5406  149.5281 LP  0  0  0  0  0  0  0  0  0  0  0  0  # atno 17371 bound_to 10713
  140.3489  134.2621  155.7201 LP  0  0  0  0  0  0  0  0  0  0  0  0  # atno 17394 bound_to 11000
  141.2046  133.7881  157.0277 LP  0  0  0  0  0  0  0  0  0  0  0  0  # atno 17395 bound_to 11000

$$$$
