AV-unprocessed.smi:3192|AV-procd|sdf|12200|dock3
  -GOLD-   2272018 33D 1   1.00000     0.00000
 Structure written by MMmdl.
 34 35  0  0  0  0  0  0  0  0  1 V2000
  150.6369  135.5040  155.7895 C   0  0  0  0  0  0  0  0  0  0  0  0
  151.7945  136.2221  155.4012 O   0  0  0  0  0  0  0  0  0  0  0  0
  151.4976  137.5391  154.9675 C   0  0  0  0  0  0  0  0  0  0  0  0
  152.7963  138.3473  154.9004 C   0  0  0  0  0  0  0  0  0  0  0  0
  152.6406  139.5227  155.6894 O   0  0  0  0  0  0  0  0  0  0  0  0
  151.4570  140.2306  155.6029 C   0  0  0  0  0  0  0  0  0  0  0  0
  150.7270  140.1303  154.4633 N   0  0  0  0  0  0  0  0  0  0  0  0
  149.5720  140.8210  154.3773 C   0  0  0  0  0  0  0  0  0  0  0  0
  149.0853  141.6398  155.4125 C   0  0  0  0  0  0  0  0  0  0  0  0
  149.8405  141.7431  156.5952 C   0  0  0  0  0  0  0  0  0  0  0  0
  151.0562  141.0269  156.7019 C   0  0  0  0  0  0  0  0  0  0  0  0
  151.8695  141.0735  157.8448 N   0  0  0  0  0  0  0  0  0  0  0  0
  151.6170  142.0207  158.9206 C   0  0  0  0  0  0  0  0  0  0  0  0
  151.7253  143.5002  158.5253 C   0  0  0  0  0  0  0  0  0  0  0  0
  152.4036  143.7311  159.8814 C   0  0  0  0  0  0  0  0  0  0  0  0
  152.8174  142.2547  159.8456 C   0  0  0  0  0  0  0  0  0  0  0  0
  150.9194  134.5036  156.1169 H   0  0  0  0  0  0  0  0  0  0  0  0
  149.9379  135.4018  154.9584 H   0  0  0  0  0  0  0  0  0  0  0  0
  150.1273  135.9976  156.6180 H   0  0  0  0  0  0  0  0  0  0  0  0
  151.0429  137.4963  153.9768 H   0  0  0  0  0  0  0  0  0  0  0  0
  150.7824  138.0209  155.6362 H   0  0  0  0  0  0  0  0  0  0  0  0
  153.6347  137.7413  155.2483 H   0  0  0  0  0  0  0  0  0  0  0  0
  152.9910  138.6295  153.8643 H   0  0  0  0  0  0  0  0  0  0  0  0
  149.0188  140.7176  153.4556 H   0  0  0  0  0  0  0  0  0  0  0  0
  148.1541  142.1756  155.3022 H   0  0  0  0  0  0  0  0  0  0  0  0
  149.4767  142.3669  157.3977 H   0  0  0  0  0  0  0  0  0  0  0  0
  152.6996  140.4989  157.8864 H   0  0  0  0  0  0  0  0  0  0  0  0
  150.7104  141.7994  159.4866 H   0  0  0  0  0  0  0  0  0  0  0  0
  152.3977  143.6791  157.6839 H   0  0  0  0  0  0  0  0  0  0  0  0
  150.7709  144.0117  158.3973 H   0  0  0  0  0  0  0  0  0  0  0  0
  153.2324  144.4392  159.8643 H   0  0  0  0  0  0  0  0  0  0  0  0
  151.6943  143.9550  160.6801 H   0  0  0  0  0  0  0  0  0  0  0  0
  152.7637  141.7385  160.8045 H   0  0  0  0  0  0  0  0  0  0  0  0
  153.7821  142.1038  159.3572 H   0  0  0  0  0  0  0  0  0  0  0  0
  1  2  1  0  0  0  0
  1 17  1  0  0  0  0
  1 18  1  0  0  0  0
  1 19  1  0  0  0  0
  2  3  1  0  0  0  0
  3  4  1  0  0  0  0
  3 20  1  0  0  0  0
  3 21  1  0  0  0  0
  4  5  1  0  0  0  0
  4 22  1  0  0  0  0
  4 23  1  0  0  0  0
  5  6  1  0  0  0  0
  6 11  1  0  0  0  0
  6  7  2  0  0  0  0
  7  8  1  0  0  0  0
  8  9  2  0  0  0  0
  8 24  1  0  0  0  0
  9 10  1  0  0  0  0
  9 25  1  0  0  0  0
 10 11  2  0  0  0  0
 10 26  1  0  0  0  0
 11 12  1  0  0  0  0
 12 13  1  0  0  0  0
 12 27  1  0  0  0  0
 13 16  1  0  0  0  0
 13 14  1  0  0  0  0
 13 28  1  0  0  0  0
 14 15  1  0  0  0  0
 14 29  1  0  0  0  0
 14 30  1  0  0  0  0
 15 16  1  0  0  0  0
 15 31  1  0  0  0  0
 15 32  1  0  0  0  0
 16 33  1  0  0  0  0
 16 34  1  0  0  0  0
M  END
> <s_m_source_file>
AV-unprocessed.smi

> <i_m_source_file_index>
3192

> <i_lp_mmshare_version>
43012

> <i_f3d_flags>
0

> <s_epik_input>
W0NIM11PW0NIMl1bQ0gyXU9jMW5bY0hdW2NIXVtjSF1jMVtOSF1bQ0hdMltDSDJdW0NIMl1bQ0gyXTI=

> <s_epik_cmdline>
J2VwaWtfcHl0aG9uJywgJy1waCcsICc3LjAnLCAnLXRuJywgJzgnLCAnLW1hJywgJzIwMCcsICctbWV0YWxfYmluZGluZycsICctaW1hZScsICc8aW5maWxlLm1hZT4nLCAnLW9tYWUnLCAnPG91dGZpbGUubWFlPic=

> <r_lp_tautomer_probability>
1

> <r_epik_Ionization_Penalty>
0.000851536

> <r_epik_Ionization_Penalty_Charging>
0

> <r_epik_Ionization_Penalty_Neutral>
0.000851536

> <r_epik_State_Penalty>
0.000481084

> <r_epik_Charging_Adjusted_Penalty>
0.000481084

> <i_epik_Tot_Q>
0

> <i_epik_Tot_abs_Q>
0

> <r_epik_Metal_State_Penalty>
-0

> <b_epik_Metal_Only>
0

> <s_lp_Force_Field>
OPLS_2005

> <r_lp_Energy>
16.6159

> <b_lp_Chiralities_Consistent>
1

> <s_lp_Variant>
AV-unprocessed.smi:3192-1

> <Gold.Version>
5.8.1

> <Gold.Id.Protein>
6NUR|6NUR_protein|mol2

> <Gold.PLP.Fitness>
44.7408

> <Gold.PLP.PLP>
-34.6289

> <Gold.PLP.part.hbond>
-3.0000

> <Gold.PLP.part.metal>
0.0000

> <Gold.PLP.part.buried>
-0.7652

> <Gold.PLP.part.nonpolar>
-31.4861

> <Gold.PLP.part.repulsive>
0.2458

> <Gold.PLP.ligand.clash>
0.0013

> <Gold.PLP.ligand.torsion>
0.9908

> <Gold.PLP.Chemscore.Hbond>
2.9500

> <Gold.PLP.Chemscore.CHOScore>
0.9976

> <Gold.PLP.Chemscore.Metal>
0.0000

> <Gold.Chemscore.Hbonds>
donor molecule, donor type, donor heavy atom, donor atom, acceptor molecule, acceptor atom, score
      P1  H  7989  7998       L1     7  0.96
      P1  H  7997  8010       L1     5  1.00
      P1  H 10752 10764       L1     2  0.94
      L1  C     8    24       P1  7957  1.00

> <Gold.PLP.Chemscore.Internal.Correction>
0.2521

> <Gold.Rescore>
     Score         DG    S(hbond)    S(metal)    S(lipo)     H(rot)  DE(clash)    DE(int)     intcor
     15.82     -18.57       1.98        0.00      91.35       1.64       0.18       2.57       ----

> <Gold.Chemscore.Fitness>
15.8192

> <Gold.Chemscore.DG>
-18.5666

> <Gold.Chemscore.ZeroCoef>
-5.4800

> <Gold.Chemscore.Hbond>
1.9773

> <Gold.Chemscore.Metal>
0.0000

> <Gold.Chemscore.Lipo>
91.3529

> <Gold.Chemscore.Internal_Hbond>
0.0000

> <Gold.Chemscore.DEClash>
0.1805

> <Gold.Chemscore.DEInternal>
2.5670

> <Gold.Chemscore.Rot>
1.6430

> <Gold.Chemscore.Internal.Correction>
   9.000000E+99

> <Gold.Chemscore.Hbonds>
donor molecule, donor type, donor heavy atom, donor atom, acceptor molecule, acceptor atom, score
      P1  H  7989  7998       L1     7  0.09
      P1  H  7997  8010       L1     5  0.65
      P1  H 10752 10764       L1     2  0.81

> <Gold.Chemscore.Hbond.Weighted>
-6.6043

> <Gold.Chemscore.Metal.Weighted>
-0.0000

> <Gold.Chemscore.Lipo.Weighted>
-10.6883

> <Gold.Chemscore.Internal_Hbond.Weighted>
0.0000

> <Gold.Chemscore.DEClash.Weighted>
0.1805

> <Gold.Chemscore.DEInternal.Weighted>
2.5670

> <Gold.Chemscore.Rot.Weighted>
4.2060

> <Gold.Chemscore.Internal.Correction.Weighted>
   9.000000E+99

> <Gold.Protein.RotatedTorsions>
[ 6907 6896 6895 6894 ] final  119.86 input  -60.11 | X-H torsion
[ 7974 7965 7964 7962 ] final -106.73 input  175.53 | X-H torsion
[ 8008 7997 7996 7995 ] final   86.14 input   59.86 | X-H torsion
[ 10167 10162 10161 10158 ] final  147.49 input  -65.29 | X-H torsion
[ 10718 10713 10712 10709 ] final -139.81 input   66.30 | X-H torsion
[ 10763 10752 10751 10750 ] final  -54.76 input  -60.55 | X-H torsion
[ 11005 11000 10999 10996 ] final -159.96 input  -57.11 | X-H torsion

> <Gold.Protein.ActiveResidues>
 VAL166  LYS551  ARG553  GLY616  TRP617  ASP618  TYR619  PRO620  LYS621  CYS622 
 ASP623  PHE694  ASN695  SER759  ASP760  ASP761  ALA762  ILE779  LEU786  VAL792 
 PHE793  MET794  SER795  GLU796  ALA797  LYS798  CYS799  TRP800  GLU811  SER814 

> <Gold.Protein.RotatedAtoms>
  152.4441  133.7503  159.6689 H   0  0  0  0  0  0  0  0  0  0  0  0  # atno 6907 bound_to 6896
  150.8337  133.8038  159.3094 H   0  0  0  0  0  0  0  0  0  0  0  0  # atno 6908 bound_to 6896
  151.5684  135.1066  160.0041 H   0  0  0  0  0  0  0  0  0  0  0  0  # atno 6909 bound_to 6896
  145.2142  140.9108  143.3297 H   0  0  0  0  0  0  0  0  0  0  0  0  # atno 7974 bound_to 7965
  155.9590  140.3395  155.6474 H   0  0  0  0  0  0  0  0  0  0  0  0  # atno 8008 bound_to 7997
  155.6822  140.0739  157.2498 H   0  0  0  0  0  0  0  0  0  0  0  0  # atno 8009 bound_to 7997
  154.4139  140.1672  156.1982 H   0  0  0  0  0  0  0  0  0  0  0  0  # atno 8010 bound_to 7997
  139.4889  144.5751  151.6980 H   0  0  0  0  0  0  0  0  0  0  0  0  # atno 10167 bound_to 10162
  156.3150  130.7503  151.1587 H   0  0  0  0  0  0  0  0  0  0  0  0  # atno 10718 bound_to 10713
  154.1800  135.6445  153.5031 H   0  0  0  0  0  0  0  0  0  0  0  0  # atno 10763 bound_to 10752
  153.0062  135.5403  154.6524 H   0  0  0  0  0  0  0  0  0  0  0  0  # atno 10764 bound_to 10752
  154.5886  135.2932  155.0632 H   0  0  0  0  0  0  0  0  0  0  0  0  # atno 10765 bound_to 10752
  140.6368  134.4593  157.5232 H   0  0  0  0  0  0  0  0  0  0  0  0  # atno 11005 bound_to 11000
  144.9827  139.3767  143.6254 LP  0  0  0  0  0  0  0  0  0  0  0  0  # atno 17320 bound_to 7965
  146.3391  139.8975  142.8799 LP  0  0  0  0  0  0  0  0  0  0  0  0  # atno 17321 bound_to 7965
  140.5346  144.0676  150.6066 LP  0  0  0  0  0  0  0  0  0  0  0  0  # atno 17342 bound_to 10162
  140.3678  143.2872  152.0312 LP  0  0  0  0  0  0  0  0  0  0  0  0  # atno 17343 bound_to 10162
  157.7399  131.0523  150.5199 LP  0  0  0  0  0  0  0  0  0  0  0  0  # atno 17370 bound_to 10713
  156.5343  130.4192  149.6185 LP  0  0  0  0  0  0  0  0  0  0  0  0  # atno 17371 bound_to 10713
  139.9095  134.8375  156.1580 LP  0  0  0  0  0  0  0  0  0  0  0  0  # atno 17394 bound_to 11000
  141.0636  133.6830  156.2000 LP  0  0  0  0  0  0  0  0  0  0  0  0  # atno 17395 bound_to 11000

$$$$
