AV-unprocessed.smi:1696|AV-procd|sdf|6800|dock3
  -GOLD-   22720 7563D 1   1.00000     0.00000
 Structure written by MMmdl.
 39 40  0  0  0  0  0  0  0  0  2 V2000
  149.6459  136.2596  157.4996 C   0  0  0  0  0  0  0  0  0  0  0  0
  150.7583  135.6961  156.6024 C   0  0  0  0  0  0  0  0  0  0  0  0
  150.3148  135.3760  155.1490 C   0  0  1  0  0  0  0  0  0  0  0  0
  149.0763  134.4364  155.1035 C   0  0  0  0  0  0  0  0  0  0  0  0
  148.2824  134.5781  153.8832 N   0  0  0  0  0  0  0  0  0  0  0  0
  147.1747  133.8836  153.5869 C   0  0  0  0  0  0  0  0  0  0  0  0
  146.6797  133.0433  154.3366 O   0  0  0  0  0  0  0  0  0  0  0  0
  146.6925  134.2295  152.3825 N   0  0  0  0  0  0  0  0  0  0  0  0
  145.5349  133.7301  151.7359 C   0  0  0  0  0  0  0  0  0  0  0  0
  144.8893  134.5170  150.8733 N   0  0  0  0  0  0  0  0  0  0  0  0
  143.7736  133.8829  150.3186 C   0  0  0  0  0  0  0  0  0  0  0  0
  143.5817  132.6031  150.7768 C   0  0  0  0  0  0  0  0  0  0  0  0
  144.8005  132.1368  151.9324 S   0  0  0  0  0  0  0  0  0  0  0  0
  150.0675  136.6220  154.3605 N   0  3  0  0  0  0  0  0  0  0  0  0
  148.9798  137.5000  154.8457 C   0  0  0  0  0  0  0  0  0  0  0  0
  149.2547  138.8586  154.2125 C   0  0  0  0  0  0  0  0  0  0  0  0
  150.7755  138.9481  154.2350 C   0  0  0  0  0  0  0  0  0  0  0  0
  151.2568  137.4922  154.1686 C   0  0  0  0  0  0  0  0  0  0  0  0
  149.9938  136.3469  158.5291 H   0  0  0  0  0  0  0  0  0  0  0  0
  148.7723  135.6076  157.5016 H   0  0  0  0  0  0  0  0  0  0  0  0
  149.3260  137.2525  157.1866 H   0  0  0  0  0  0  0  0  0  0  0  0
  151.6090  136.3778  156.5988 H   0  0  0  0  0  0  0  0  0  0  0  0
  151.1074  134.7897  157.0949 H   0  0  0  0  0  0  0  0  0  0  0  0
  151.1441  134.8526  154.6704 H   0  0  0  0  0  0  0  0  0  0  0  0
  149.4046  133.3979  155.1415 H   0  0  0  0  0  0  0  0  0  0  0  0
  148.4510  134.5527  155.9884 H   0  0  0  0  0  0  0  0  0  0  0  0
  148.6196  135.2381  153.1973 H   0  0  0  0  0  0  0  0  0  0  0  0
  147.2095  134.9265  151.8673 H   0  0  0  0  0  0  0  0  0  0  0  0
  143.1693  134.4179  149.6008 H   0  0  0  0  0  0  0  0  0  0  0  0
  142.8005  131.9087  150.5049 H   0  0  0  0  0  0  0  0  0  0  0  0
  147.9945  137.1218  154.5720 H   0  0  0  0  0  0  0  0  0  0  0  0
  149.0283  137.5822  155.9330 H   0  0  0  0  0  0  0  0  0  0  0  0
  148.8981  138.8660  153.1816 H   0  0  0  0  0  0  0  0  0  0  0  0
  148.7721  139.6804  154.7425 H   0  0  0  0  0  0  0  0  0  0  0  0
  151.1674  139.5570  153.4197 H   0  0  0  0  0  0  0  0  0  0  0  0
  151.1025  139.4006  155.1722 H   0  0  0  0  0  0  0  0  0  0  0  0
  152.0087  137.3236  154.9409 H   0  0  0  0  0  0  0  0  0  0  0  0
  151.7151  137.2689  153.2049 H   0  0  0  0  0  0  0  0  0  0  0  0
  149.7858  136.3296  153.4356 H   0  0  0  0  0  0  0  0  0  0  0  0
  1  2  1  0  0  0  0
  1 19  1  0  0  0  0
  1 20  1  0  0  0  0
  1 21  1  0  0  0  0
  2  3  1  0  0  0  0
  2 22  1  0  0  0  0
  2 23  1  0  0  0  0
  3  4  1  0  0  0  0
  3 14  1  0  0  0  0
  3 24  1  0  0  0  0
  4  5  1  0  0  0  0
  4 25  1  0  0  0  0
  4 26  1  0  0  0  0
  5  6  1  0  0  0  0
  5 27  1  0  0  0  0
  6  7  2  0  0  0  0
  6  8  1  0  0  0  0
  8  9  1  0  0  0  0
  8 28  1  0  0  0  0
  9 13  1  0  0  0  0
  9 10  2  0  0  0  0
 10 11  1  0  0  0  0
 11 12  2  0  0  0  0
 11 29  1  0  0  0  0
 12 13  1  0  0  0  0
 12 30  1  0  0  0  0
 14 18  1  0  0  0  0
 14 15  1  0  0  0  0
 14 39  1  0  0  0  0
 15 16  1  0  0  0  0
 15 31  1  0  0  0  0
 15 32  1  0  0  0  0
 16 17  1  0  0  0  0
 16 33  1  0  0  0  0
 16 34  1  0  0  0  0
 17 18  1  0  0  0  0
 17 35  1  0  0  0  0
 17 36  1  0  0  0  0
 18 37  1  0  0  0  0
 18 38  1  0  0  0  0
M  CHG  1  14   1
M  END
> <s_m_source_file>
AV-unprocessed.smi

> <i_m_source_file_index>
1696

> <i_lp_mmshare_version>
43012

> <i_f3d_flags>
0

> <s_epik_input>
W0NIMl0xW0NIMl1bQ0gyXVtDSDJdTjFbQ0BIXShbQ0gyXVtDSDNdKVtDSDJdW05IXUMoPU8pW05IXWMybltjSF1bY0hdczI=

> <s_epik_cmdline>
J2VwaWtfcHl0aG9uJywgJy1waCcsICc3LjAnLCAnLXRuJywgJzgnLCAnLW1hJywgJzIwMCcsICctbWV0YWxfYmluZGluZycsICctaW1hZScsICc8aW5maWxlLm1hZT4nLCAnLW9tYWUnLCAnPG91dGZpbGUubWFlPic=

> <r_lp_tautomer_probability>
1

> <r_epik_Ionization_Penalty>
0.0013883

> <r_epik_Ionization_Penalty_Charging>
0.00115997

> <r_epik_Ionization_Penalty_Neutral>
0.000228323

> <r_epik_State_Penalty>
-0

> <r_epik_Charging_Adjusted_Penalty>
0.00115997

> <i_epik_Tot_Q>
1

> <i_epik_Tot_abs_Q>
1

> <r_epik_Metal_State_Penalty>
0.0131845

> <b_epik_Metal_Only>
0

> <s_lp_Force_Field>
OPLS_2005

> <r_lp_Energy>
36.9264

> <b_lp_Chiralities_Consistent>
1

> <s_lp_Variant>
AV-unprocessed.smi:1696-2

> <Gold.Version>
5.8.1

> <Gold.Id.Protein>
6NUR|6NUR_protein|mol2

> <Gold.PLP.Fitness>
43.3023

> <Gold.PLP.PLP>
-29.1686

> <Gold.PLP.part.hbond>
-3.3688

> <Gold.PLP.part.metal>
0.0000

> <Gold.PLP.part.buried>
-4.9493

> <Gold.PLP.part.nonpolar>
-22.6227

> <Gold.PLP.part.repulsive>
0.3106

> <Gold.PLP.ligand.clash>
0.0000

> <Gold.PLP.ligand.torsion>
0.5825

> <Gold.PLP.Chemscore.Hbond>
3.8130

> <Gold.PLP.Chemscore.CHOScore>
1.2564

> <Gold.PLP.Chemscore.Metal>
0.0000

> <Gold.Chemscore.Hbonds>
donor molecule, donor type, donor heavy atom, donor atom, acceptor molecule, acceptor atom, score
      L1  H     5    27       P1  7948  1.00
      L1  H     8    28       P1  7948  0.69
      L1  H    14    39       P1  7948  1.90
      L1  C    11    29       P1 10186  0.92
      L1  C    12    30       P1 10952  0.61

> <Gold.PLP.Chemscore.Internal.Correction>
0.0904

> <Gold.Rescore>
     Score         DG    S(hbond)    S(metal)    S(lipo)     H(rot)  DE(clash)    DE(int)     intcor
     14.68     -16.26       2.56        0.00      57.76       1.77       0.00       1.58       ----

> <Gold.Chemscore.Fitness>
14.6805

> <Gold.Chemscore.DG>
-16.2616

> <Gold.Chemscore.ZeroCoef>
-5.4800

> <Gold.Chemscore.Hbond>
2.5617

> <Gold.Chemscore.Metal>
0.0000

> <Gold.Chemscore.Lipo>
57.7589

> <Gold.Chemscore.Internal_Hbond>
0.0000

> <Gold.Chemscore.DEClash>
0.0000

> <Gold.Chemscore.DEInternal>
1.5811

> <Gold.Chemscore.Rot>
1.7705

> <Gold.Chemscore.Internal.Correction>
   9.000000E+99

> <Gold.Chemscore.Hbonds>
donor molecule, donor type, donor heavy atom, donor atom, acceptor molecule, acceptor atom, score
      L1  H     5    27       P1  7948  0.82
      L1  H     8    28       P1  7948  0.59
      L1  H    14    39       P1  7948  0.22

> <Gold.Chemscore.Hbond.Weighted>
-8.5562

> <Gold.Chemscore.Metal.Weighted>
-0.0000

> <Gold.Chemscore.Lipo.Weighted>
-6.7578

> <Gold.Chemscore.Internal_Hbond.Weighted>
0.0000

> <Gold.Chemscore.DEClash.Weighted>
0.0000

> <Gold.Chemscore.DEInternal.Weighted>
1.5811

> <Gold.Chemscore.Rot.Weighted>
4.5324

> <Gold.Chemscore.Internal.Correction.Weighted>
   9.000000E+99

> <Gold.Protein.RotatedTorsions>
[ 6907 6896 6895 6894 ] final   49.99 input  -60.11 | X-H torsion
[ 7974 7965 7964 7962 ] final   42.23 input  175.53 | X-H torsion
[ 8008 7997 7996 7995 ] final   23.69 input   59.86 | X-H torsion
[ 10167 10162 10161 10158 ] final  149.17 input  -65.29 | X-H torsion
[ 10718 10713 10712 10709 ] final  -65.62 input   66.30 | X-H torsion
[ 10763 10752 10751 10750 ] final  -67.82 input  -60.55 | X-H torsion
[ 11005 11000 10999 10996 ] final    6.89 input  -57.11 | X-H torsion

> <Gold.Protein.ActiveResidues>
 VAL166  LYS551  ARG553  GLY616  TRP617  ASP618  TYR619  PRO620  LYS621  CYS622 
 ASP623  PHE694  ASN695  SER759  ASP760  ASP761  ALA762  ILE779  LEU786  VAL792 
 PHE793  MET794  SER795  GLU796  ALA797  LYS798  CYS799  TRP800  GLU811  SER814 

> <Gold.Protein.RotatedAtoms>
  152.2969  134.7657  160.0365 H   0  0  0  0  0  0  0  0  0  0  0  0  # atno 6907 bound_to 6896
  151.8184  133.3386  159.3584 H   0  0  0  0  0  0  0  0  0  0  0  0  # atno 6908 bound_to 6896
  150.7255  134.5527  159.5847 H   0  0  0  0  0  0  0  0  0  0  0  0  # atno 6909 bound_to 6896
  146.0757  139.5324  142.9569 H   0  0  0  0  0  0  0  0  0  0  0  0  # atno 7974 bound_to 7965
  154.9849  140.3106  155.4931 H   0  0  0  0  0  0  0  0  0  0  0  0  # atno 8008 bound_to 7997
  156.2948  140.2260  156.4890 H   0  0  0  0  0  0  0  0  0  0  0  0  # atno 8009 bound_to 7997
  154.7756  140.0449  157.1074 H   0  0  0  0  0  0  0  0  0  0  0  0  # atno 8010 bound_to 7997
  139.4865  144.5623  151.7209 H   0  0  0  0  0  0  0  0  0  0  0  0  # atno 10167 bound_to 10162
  156.0659  130.4250  150.1590 H   0  0  0  0  0  0  0  0  0  0  0  0  # atno 10718 bound_to 10713
  154.3800  135.6076  153.5786 H   0  0  0  0  0  0  0  0  0  0  0  0  # atno 10763 bound_to 10752
  152.9788  135.5858  154.4421 H   0  0  0  0  0  0  0  0  0  0  0  0  # atno 10764 bound_to 10752
  154.4188  135.2845  155.1966 H   0  0  0  0  0  0  0  0  0  0  0  0  # atno 10765 bound_to 10752
  140.5544  134.0252  155.7948 H   0  0  0  0  0  0  0  0  0  0  0  0  # atno 11005 bound_to 11000
  145.6310  141.0304  143.1863 LP  0  0  0  0  0  0  0  0  0  0  0  0  # atno 17320 bound_to 7965
  144.7260  139.7874  143.7364 LP  0  0  0  0  0  0  0  0  0  0  0  0  # atno 17321 bound_to 7965
  140.5195  144.0902  150.6018 LP  0  0  0  0  0  0  0  0  0  0  0  0  # atno 17342 bound_to 10162
  140.3855  143.2780  152.0121 LP  0  0  0  0  0  0  0  0  0  0  0  0  # atno 17343 bound_to 10162
  156.9650  130.9817  151.3471 LP  0  0  0  0  0  0  0  0  0  0  0  0  # atno 17370 bound_to 10713
  157.5700  130.8304  149.8378 LP  0  0  0  0  0  0  0  0  0  0  0  0  # atno 17371 bound_to 10713
  141.1152  133.9552  157.2836 LP  0  0  0  0  0  0  0  0  0  0  0  0  # atno 17394 bound_to 11000
  139.9439  135.0187  156.8792 LP  0  0  0  0  0  0  0  0  0  0  0  0  # atno 17395 bound_to 11000

$$$$
