#       Name:                AV-unprocessed.smi:3008
#       Creating user name   scv26
#       Creation time:       Fri Mar 27 16:37:58 2020


#       File generated by GOLD software.
#

@<TRIPOS>MOLECULE
AV-unprocessed.smi:3008
    43    44     1
SMALL
NO_CHARGES


@<TRIPOS>ATOM
      1 ****        -5.5251   1.5755  -2.9405 N.am           1 S1                 0.0000
      2 ****        -5.4577   0.9352  -1.7703 C.2            1 S1                 0.0000
      3 ****        -5.7626   1.4712  -0.7069 O.2            1 S1                 0.0000
      4 ****        -4.9779  -0.5167  -1.7964 C.3            1 S1                 0.0000
      5 ****        -3.5341  -0.5935  -1.6686 N.pl3          1 S1                 0.0000
      6 ****        -2.7790  -0.5787  -0.5123 C.2            1 S1                 0.0000
      7 ****        -1.4808  -0.6757  -0.9137 C.2            1 S1                 0.0000
      8 ****        -0.3668  -0.7036  -0.0378 N.am           1 S1                 0.0000
      9 ****         0.9381  -0.7809  -0.3642 C.2            1 S1                 0.0000
     10 ****         1.3315  -0.8767  -1.5279 O.2            1 S1                 0.0000
     11 ****         1.7851  -0.8091   0.7008 N.am           1 S1                 0.0000
     12 ****         1.3853  -0.5095   2.0937 C.3            1 S1                 0.0000
     13 ****         2.4362   0.2587   2.9241 C.3            1 S1                 0.0000
     14 ****         3.1149   1.4262   2.1838 C.3            1 S1                 0.0000
     15 ****         4.3454   0.9895   1.3703 C.3            1 S1                 0.0000
     16 ****         4.0325   0.1033   0.1539 C.3            1 S1                 0.0000
     17 ****         3.2024  -1.1473   0.4963 C.3            1 S1                 0.0000
     18 ****        -1.5177  -0.7423  -2.3356 C.2            1 S1                 0.0000
     19 ****        -2.7642  -0.6922  -2.7814 N.2            1 S1                 0.0000
     20 ****        -5.8295   2.5378  -2.9695 H              1 S1                 0.0000
     21 ****        -5.2645   1.0978  -3.7913 H              1 S1                 0.0000
     22 ****        -5.4315  -1.0688  -0.9723 H              1 S1                 0.0000
     23 ****        -5.2904  -1.0074  -2.7200 H              1 S1                 0.0000
     24 ****        -3.2227  -0.5028   0.4696 H              1 S1                 0.0000
     25 ****        -0.5804  -0.6508   0.9475 H              1 S1                 0.0000
     26 ****         0.4852   0.1058   2.1197 H              1 S1                 0.0000
     27 ****         1.1282  -1.4434   2.5951 H              1 S1                 0.0000
     28 ****         1.9370   0.6505   3.8111 H              1 S1                 0.0000
     29 ****         3.1931  -0.4268   3.3069 H              1 S1                 0.0000
     30 ****         2.3978   1.9529   1.5527 H              1 S1                 0.0000
     31 ****         3.4487   2.1521   2.9261 H              1 S1                 0.0000
     32 ****         4.8737   1.8786   1.0245 H              1 S1                 0.0000
     33 ****         5.0436   0.4683   2.0265 H              1 S1                 0.0000
     34 ****         3.5280   0.6916  -0.6137 H              1 S1                 0.0000
     35 ****         4.9772  -0.2126  -0.2899 H              1 S1                 0.0000
     36 ****         3.6112  -1.6548   1.3707 H              1 S1                 0.0000
     37 ****         3.3013  -1.8769  -0.3096 H              1 S1                 0.0000
     38 ****        -0.7121  -0.8257  -3.0498 H              1 S1                 0.0000
     39 ****        -6.0749   2.4212  -0.6973 LP             1 S1                 0.0000
     40 ****        -5.6983   0.9573   0.1485 LP             1 S1                 0.0000
     41 ****         0.6713  -0.8999  -2.2786 LP             1 S1                 0.0000
     42 ****         2.3110  -0.9312  -1.7217 LP             1 S1                 0.0000
     43 ****        -3.0713  -0.7209  -3.7327 LP             1 S1                 0.0000
@<TRIPOS>BOND
    1    1    2 am    
    2    1   20 1     
    3    1   21 1     
    4    2    3 2     
    5    2    4 1     
    6    4    5 1     
    7    4   22 1     
    8    4   23 1     
    9    5   19 1     
   10    5    6 1     
   11    6    7 2     
   12    6   24 1     
   13    7    8 1     
   14    7   18 1     
   15    8    9 am    
   16    8   25 1     
   17    9   10 2     
   18    9   11 am    
   19   11   17 1     
   20   11   12 1     
   21   12   13 1     
   22   12   26 1     
   23   12   27 1     
   24   13   14 1     
   25   13   28 1     
   26   13   29 1     
   27   14   15 1     
   28   14   30 1     
   29   14   31 1     
   30   15   16 1     
   31   15   32 1     
   32   15   33 1     
   33   16   17 1     
   34   16   34 1     
   35   16   35 1     
   36   17   36 1     
   37   17   37 1     
   38   18   19 2     
   39   18   38 1     
   40    3   39 1     
   41    3   40 1     
   42   10   41 1     
   43   10   42 1     
   44   19   43 1     
@<TRIPOS>SUBSTRUCTURE
      1 S1             1
@<TRIPOS>SET
LONE_PAIRS      STATIC     ATOMS    <user>   **** ""
5 39 40 41 42 43
DONOR_HYDROGENS      STATIC     ATOMS    <user>   **** ""
3 20 21 25
ATOM$BLUE        STATIC     ATOMS    COLORGROUP SYSTEM
5 39 40 41 42 43
ATOM$RED        STATIC     ATOMS    COLORGROUP SYSTEM
3 20 21 25
