AV-unprocessed.smi:2772|AV-procd|sdf|10670|dock8
  -GOLD-   2272015113D 1   1.00000     0.00000
 Structure written by MMmdl.
 54 56  0  0  0  0  0  0  0  0  2 V2000
  148.7680  129.3658  153.8593 C   0  0  0  0  0  0  0  0  0  0  0  0
  149.0928  130.8415  153.9591 C   0  0  0  0  0  0  0  0  0  0  0  0
  150.0542  131.3097  154.8779 C   0  0  0  0  0  0  0  0  0  0  0  0
  150.3224  132.6912  154.9272 C   0  0  0  0  0  0  0  0  0  0  0  0
  149.6255  133.5554  154.0484 C   0  0  0  0  0  0  0  0  0  0  0  0
  149.7918  134.9668  154.0087 N   0  0  0  0  0  0  0  0  0  0  0  0
  150.5967  135.7403  154.7573 C   0  0  0  0  0  0  0  0  0  0  0  0
  151.3703  135.3373  155.6256 O   0  0  0  0  0  0  0  0  0  0  0  0
  150.4710  137.0336  154.4266 N   0  0  0  0  0  0  0  0  0  0  0  0
  151.2052  138.1332  155.0465 C   0  0  2  0  0  0  0  0  0  0  0  0
  151.2666  137.9332  156.5658 C   0  0  0  0  0  0  0  0  0  0  0  0
  151.9666  139.1127  157.2636 C   0  0  0  0  0  0  0  0  0  0  0  0
  151.3136  140.4167  156.9450 N   0  3  1  0  0  0  0  0  0  0  0  0
  151.8756  141.6043  157.6684 C   0  0  0  0  0  0  0  0  0  0  0  0
  152.0198  141.4062  159.1972 C   0  0  0  0  0  0  0  0  0  0  0  0
  152.5022  142.6875  159.8993 C   0  0  0  0  0  0  0  0  0  0  0  0
  151.5648  143.7798  159.6521 N   0  0  0  0  0  0  0  0  0  0  0  0
  152.0036  144.9651  160.3755 C   0  0  0  0  0  0  0  0  0  0  0  0
  151.5214  144.0751  158.2223 C   0  0  0  0  0  0  0  0  0  0  0  0
  150.9947  142.8558  157.4467 C   0  0  0  0  0  0  0  0  0  0  0  0
  151.2616  140.6288  155.4696 C   0  0  0  0  0  0  0  0  0  0  0  0
  150.5340  139.4829  154.7495 C   0  0  0  0  0  0  0  0  0  0  0  0
  148.6757  132.9795  153.1782 C   0  0  0  0  0  0  0  0  0  0  0  0
  148.4127  131.6566  153.1247 N   0  0  0  0  0  0  0  0  0  0  0  0
  149.1443  128.8212  154.7257 H   0  0  0  0  0  0  0  0  0  0  0  0
  149.2219  128.9403  152.9641 H   0  0  0  0  0  0  0  0  0  0  0  0
  147.6899  129.2114  153.8054 H   0  0  0  0  0  0  0  0  0  0  0  0
  150.5743  130.6284  155.5347 H   0  0  0  0  0  0  0  0  0  0  0  0
  151.0432  133.0549  155.6424 H   0  0  0  0  0  0  0  0  0  0  0  0
  149.2692  135.4396  153.2860 H   0  0  0  0  0  0  0  0  0  0  0  0
  149.8153  137.2753  153.6978 H   0  0  0  0  0  0  0  0  0  0  0  0
  152.2258  138.1447  154.6585 H   0  0  0  0  0  0  0  0  0  0  0  0
  150.2576  137.8249  156.9668 H   0  0  0  0  0  0  0  0  0  0  0  0
  151.7919  137.0063  156.7991 H   0  0  0  0  0  0  0  0  0  0  0  0
  151.9279  138.9087  158.3327 H   0  0  0  0  0  0  0  0  0  0  0  0
  153.0191  139.1514  156.9786 H   0  0  0  0  0  0  0  0  0  0  0  0
  152.8732  141.7995  157.2708 H   0  0  0  0  0  0  0  0  0  0  0  0
  151.0672  141.0942  159.6287 H   0  0  0  0  0  0  0  0  0  0  0  0
  152.7428  140.6211  159.4187 H   0  0  0  0  0  0  0  0  0  0  0  0
  152.5743  142.5070  160.9728 H   0  0  0  0  0  0  0  0  0  0  0  0
  153.5009  142.9583  159.5524 H   0  0  0  0  0  0  0  0  0  0  0  0
  151.3108  145.7913  160.2114 H   0  0  0  0  0  0  0  0  0  0  0  0
  152.9971  145.2834  160.0561 H   0  0  0  0  0  0  0  0  0  0  0  0
  152.0361  144.7692  161.4478 H   0  0  0  0  0  0  0  0  0  0  0  0
  150.8634  144.9272  158.0473 H   0  0  0  0  0  0  0  0  0  0  0  0
  152.5124  144.3564  157.8617 H   0  0  0  0  0  0  0  0  0  0  0  0
  150.9475  143.1281  156.3939 H   0  0  0  0  0  0  0  0  0  0  0  0
  149.9690  142.6460  157.7545 H   0  0  0  0  0  0  0  0  0  0  0  0
  150.7480  141.5561  155.2248 H   0  0  0  0  0  0  0  0  0  0  0  0
  152.2769  140.7244  155.0812 H   0  0  0  0  0  0  0  0  0  0  0  0
  150.5297  139.6742  153.6756 H   0  0  0  0  0  0  0  0  0  0  0  0
  149.4893  139.4593  155.0631 H   0  0  0  0  0  0  0  0  0  0  0  0
  148.1099  133.5992  152.4980 H   0  0  0  0  0  0  0  0  0  0  0  0
  150.3584  140.3274  157.2608 H   0  0  0  0  0  0  0  0  0  0  0  0
  1  2  1  0  0  0  0
  1 25  1  0  0  0  0
  1 26  1  0  0  0  0
  1 27  1  0  0  0  0
  2 24  1  0  0  0  0
  2  3  2  0  0  0  0
  3  4  1  0  0  0  0
  3 28  1  0  0  0  0
  4  5  2  0  0  0  0
  4 29  1  0  0  0  0
  5  6  1  0  0  0  0
  5 23  1  0  0  0  0
  6  7  1  0  0  0  0
  6 30  1  0  0  0  0
  7  8  2  0  0  0  0
  7  9  1  0  0  0  0
  9 10  1  0  0  0  0
  9 31  1  0  0  0  0
 10 22  1  0  0  0  0
 10 11  1  0  0  0  0
 10 32  1  0  0  0  0
 11 12  1  0  0  0  0
 11 33  1  0  0  0  0
 11 34  1  0  0  0  0
 12 13  1  0  0  0  0
 12 35  1  0  0  0  0
 12 36  1  0  0  0  0
 13 14  1  0  0  0  0
 13 21  1  0  0  0  0
 13 54  1  0  0  0  0
 14 20  1  0  0  0  0
 14 15  1  0  0  0  0
 14 37  1  0  0  0  0
 15 16  1  0  0  0  0
 15 38  1  0  0  0  0
 15 39  1  0  0  0  0
 16 17  1  0  0  0  0
 16 40  1  0  0  0  0
 16 41  1  0  0  0  0
 17 18  1  0  0  0  0
 17 19  1  0  0  0  0
 18 42  1  0  0  0  0
 18 43  1  0  0  0  0
 18 44  1  0  0  0  0
 19 20  1  0  0  0  0
 19 45  1  0  0  0  0
 19 46  1  0  0  0  0
 20 47  1  0  0  0  0
 20 48  1  0  0  0  0
 21 22  1  0  0  0  0
 21 49  1  0  0  0  0
 21 50  1  0  0  0  0
 22 51  1  0  0  0  0
 22 52  1  0  0  0  0
 23 24  2  0  0  0  0
 23 53  1  0  0  0  0
M  CHG  1  13   1
M  END
> <s_m_source_file>
AV-unprocessed.smi

> <i_m_source_file_index>
2772

> <i_lp_mmshare_version>
43012

> <i_f3d_flags>
0

> <s_epik_input>
W0NIM11jMVtjSF1bY0hdYyhbY0hdbjEpW05IXUMoPU8pW05IXVtDSF0yW0NIMl1bQ0gyXU4oW0NIMl1bQ0gyXTIpW0NIXTNbQ0gyXVtDSDJdTihbQ0gzXSlbQ0gyXVtDSDJdMw==

> <s_epik_cmdline>
J2VwaWtfcHl0aG9uJywgJy1waCcsICc3LjAnLCAnLXRuJywgJzgnLCAnLW1hJywgJzIwMCcsICctbWV0YWxfYmluZGluZycsICctaW1hZScsICc8aW5maWxlLm1hZT4nLCAnLW9tYWUnLCAnPG91dGZpbGUubWFlPic=

> <r_epik_Ionization_Penalty>
1.38854

> <r_epik_Ionization_Penalty_Charging>
0.00081195

> <r_epik_Ionization_Penalty_Neutral>
1.38772

> <r_epik_State_Penalty>
1.56122

> <r_epik_Charging_Adjusted_Penalty>
1.56203

> <i_epik_Tot_Q>
1

> <i_epik_Tot_abs_Q>
1

> <r_epik_Metal_State_Penalty>
1.5614

> <b_epik_Metal_Only>
0

> <s_lp_Force_Field>
OPLS_2005

> <r_lp_Energy>
35.3566

> <b_lp_Chiralities_Consistent>
1

> <s_lp_Variant>
AV-unprocessed.smi:2772-7

> <Gold.Version>
5.8.1

> <Gold.Id.Protein>
6NUR|6NUR_protein|mol2

> <Gold.PLP.Fitness>
51.9448

> <Gold.PLP.PLP>
-44.9575

> <Gold.PLP.part.hbond>
-4.1786

> <Gold.PLP.part.metal>
0.0000

> <Gold.PLP.part.buried>
-1.8561

> <Gold.PLP.part.nonpolar>
-38.2509

> <Gold.PLP.part.repulsive>
0.7679

> <Gold.PLP.ligand.clash>
0.0000

> <Gold.PLP.ligand.torsion>
0.2917

> <Gold.PLP.Chemscore.Hbond>
2.3318

> <Gold.PLP.Chemscore.CHOScore>
0.1813

> <Gold.PLP.Chemscore.Metal>
0.0000

> <Gold.Chemscore.Hbonds>
donor molecule, donor type, donor heavy atom, donor atom, acceptor molecule, acceptor atom, score
      L1  H     6    30       P1  7948  0.95
      L1  H     9    31       P1  7948  0.32
      P1  H 10752 10765       L1     8  0.99
      L1  C    23    53       P1  7948  0.19

> <Gold.PLP.Chemscore.Internal.Correction>
0.0316

> <Gold.Rescore>
     Score         DG    S(hbond)    S(metal)    S(lipo)     H(rot)  DE(clash)    DE(int)     intcor
     19.29     -22.40       1.61        0.00     124.83       1.19       0.21       2.90       ----

> <Gold.Chemscore.Fitness>
19.2880

> <Gold.Chemscore.DG>
-22.3990

> <Gold.Chemscore.ZeroCoef>
-5.4800

> <Gold.Chemscore.Hbond>
1.6057

> <Gold.Chemscore.Metal>
0.0000

> <Gold.Chemscore.Lipo>
124.8279

> <Gold.Chemscore.Internal_Hbond>
0.0000

> <Gold.Chemscore.DEClash>
0.2101

> <Gold.Chemscore.DEInternal>
2.9009

> <Gold.Chemscore.Rot>
1.1910

> <Gold.Chemscore.Internal.Correction>
   9.000000E+99

> <Gold.Chemscore.Hbonds>
donor molecule, donor type, donor heavy atom, donor atom, acceptor molecule, acceptor atom, score
      L1  H     6    30       P1  7948  0.21
      L1  H     9    31       P1  7948  0.21
      P1  H 10752 10765       L1     8  0.70

> <Gold.Chemscore.Hbond.Weighted>
-5.3630

> <Gold.Chemscore.Metal.Weighted>
-0.0000

> <Gold.Chemscore.Lipo.Weighted>
-14.6049

> <Gold.Chemscore.Internal_Hbond.Weighted>
0.0000

> <Gold.Chemscore.DEClash.Weighted>
0.2101

> <Gold.Chemscore.DEInternal.Weighted>
2.9009

> <Gold.Chemscore.Rot.Weighted>
3.0489

> <Gold.Chemscore.Internal.Correction.Weighted>
   9.000000E+99

> <Gold.Protein.RotatedTorsions>
[ 6907 6896 6895 6894 ] final  163.49 input  -60.11 | X-H torsion
[ 7974 7965 7964 7962 ] final   -8.93 input  175.53 | X-H torsion
[ 8008 7997 7996 7995 ] final  -40.38 input   59.86 | X-H torsion
[ 10167 10162 10161 10158 ] final  -49.46 input  -65.29 | X-H torsion
[ 10718 10713 10712 10709 ] final  -33.65 input   66.30 | X-H torsion
[ 10763 10752 10751 10750 ] final -152.05 input  -60.55 | X-H torsion
[ 11005 11000 10999 10996 ] final -109.23 input  -57.11 | X-H torsion

> <Gold.Protein.ActiveResidues>
 VAL166  LYS551  ARG553  GLY616  TRP617  ASP618  TYR619  PRO620  LYS621  CYS622 
 ASP623  PHE694  ASN695  SER759  ASP760  ASP761  ALA762  ILE779  LEU786  VAL792 
 PHE793  MET794  SER795  GLU796  ALA797  LYS798  CYS799  TRP800  GLU811  SER814 

> <Gold.Protein.RotatedAtoms>
  151.9244  133.3594  159.3908 H   0  0  0  0  0  0  0  0  0  0  0  0  # atno 6907 bound_to 6896
  150.7030  134.4602  159.5386 H   0  0  0  0  0  0  0  0  0  0  0  0  # atno 6908 bound_to 6896
  152.2231  134.8394  160.0534 H   0  0  0  0  0  0  0  0  0  0  0  0  # atno 6909 bound_to 6896
  146.2266  140.2541  142.8348 H   0  0  0  0  0  0  0  0  0  0  0  0  # atno 7974 bound_to 7965
  154.4013  140.1527  156.3017 H   0  0  0  0  0  0  0  0  0  0  0  0  # atno 8008 bound_to 7997
  155.8694  140.3449  155.5789 H   0  0  0  0  0  0  0  0  0  0  0  0  # atno 8009 bound_to 7997
  155.7791  140.0841  157.2059 H   0  0  0  0  0  0  0  0  0  0  0  0  # atno 8010 bound_to 7997
  140.6684  143.2697  151.4218 H   0  0  0  0  0  0  0  0  0  0  0  0  # atno 10167 bound_to 10162
  156.3601  130.4322  149.7631 H   0  0  0  0  0  0  0  0  0  0  0  0  # atno 10718 bound_to 10713
  154.8019  135.3245  154.7528 H   0  0  0  0  0  0  0  0  0  0  0  0  # atno 10763 bound_to 10752
  153.8194  135.6889  153.4833 H   0  0  0  0  0  0  0  0  0  0  0  0  # atno 10764 bound_to 10752
  153.1741  135.4612  154.9885 H   0  0  0  0  0  0  0  0  0  0  0  0  # atno 10765 bound_to 10752
  141.0859  133.9140  157.2186 H   0  0  0  0  0  0  0  0  0  0  0  0  # atno 11005 bound_to 11000
  144.9389  140.8056  143.5643 LP  0  0  0  0  0  0  0  0  0  0  0  0  # atno 17320 bound_to 7965
  145.2491  139.2039  143.4952 LP  0  0  0  0  0  0  0  0  0  0  0  0  # atno 17321 bound_to 7965
  139.5942  144.1434  152.2124 LP  0  0  0  0  0  0  0  0  0  0  0  0  # atno 17342 bound_to 10162
  140.0798  144.5710  150.7131 LP  0  0  0  0  0  0  0  0  0  0  0  0  # atno 17343 bound_to 10162
  156.4798  130.8036  151.3050 LP  0  0  0  0  0  0  0  0  0  0  0  0  # atno 17370 bound_to 10713
  157.7472  131.0009  150.2944 LP  0  0  0  0  0  0  0  0  0  0  0  0  # atno 17371 bound_to 10713
  139.9677  135.0137  156.9431 LP  0  0  0  0  0  0  0  0  0  0  0  0  # atno 17394 bound_to 11000
  140.5364  134.0763  155.7329 LP  0  0  0  0  0  0  0  0  0  0  0  0  # atno 17395 bound_to 11000

$$$$
