AV-unprocessed.smi:549|AV-procd|sdf|2893|dock8
  -GOLD-   2262023383D 1   1.00000     0.00000
 Structure written by MMmdl.
 44 45  0  0  0  0  0  0  0  0  2 V2000
  145.2514  131.5476  150.7297 C   0  0  0  0  0  0  0  0  0  0  0  0
  144.2403  132.5903  150.6897 N   0  0  0  0  0  0  0  0  0  0  0  0
  144.5150  133.8675  151.1952 C   0  0  0  0  0  0  0  0  0  0  0  0
  145.7518  134.2508  151.7650 C   0  0  0  0  0  0  0  0  0  0  0  0
  145.9157  135.5681  152.2410 C   0  0  0  0  0  0  0  0  0  0  0  0
  144.8470  136.4857  152.1528 C   0  0  0  0  0  0  0  0  0  0  0  0
  145.0672  137.8056  152.6337 N   0  0  0  0  0  0  0  0  0  0  0  0
  146.0428  138.2523  153.4437 C   0  0  0  0  0  0  0  0  0  0  0  0
  146.9644  137.5705  153.8914 O   0  0  0  0  0  0  0  0  0  0  0  0
  145.9023  139.5612  153.6978 N   0  0  0  0  0  0  0  0  0  0  0  0
  146.7951  140.3534  154.5391 C   0  0  0  0  0  0  0  0  0  0  0  0
  148.0910  140.6659  153.7768 C   0  0  0  0  0  0  0  0  0  0  0  0
  149.0808  141.4542  154.6528 C   0  0  0  0  0  0  0  0  0  0  0  0
  149.3457  140.7655  155.9319 N   0  0  0  0  0  0  0  0  0  0  0  0
  150.8158  139.8579  156.1428 S   0  0  0  0  0  0  0  0  0  0  0  0
  151.6194  140.6374  157.6023 C   0  0  0  0  0  0  0  0  0  0  0  0
  150.4462  138.4808  156.5041 O   0  0  0  0  0  0  0  0  0  0  0  0
  151.6662  140.0999  154.9672 O   0  0  0  0  0  0  0  0  0  0  0  0
  148.1366  140.3991  156.6967 C   0  0  0  0  0  0  0  0  0  0  0  0
  147.1388  139.6034  155.8373 C   0  0  0  0  0  0  0  0  0  0  0  0
  143.6352  136.0482  151.5644 C   0  0  0  0  0  0  0  0  0  0  0  0
  143.5202  134.7781  151.1193 N   0  3  0  0  0  0  0  0  0  0  0  0
  144.8579  130.6329  150.2864 H   0  0  0  0  0  0  0  0  0  0  0  0
  145.5426  131.3301  151.7577 H   0  0  0  0  0  0  0  0  0  0  0  0
  146.1370  131.8440  150.1668 H   0  0  0  0  0  0  0  0  0  0  0  0
  143.3272  132.3755  150.3153 H   0  0  0  0  0  0  0  0  0  0  0  0
  146.5756  133.5568  151.8419 H   0  0  0  0  0  0  0  0  0  0  0  0
  146.8588  135.8674  152.6749 H   0  0  0  0  0  0  0  0  0  0  0  0
  144.4231  138.5039  152.2921 H   0  0  0  0  0  0  0  0  0  0  0  0
  145.1192  140.0465  153.2850 H   0  0  0  0  0  0  0  0  0  0  0  0
  146.3069  141.2977  154.7888 H   0  0  0  0  0  0  0  0  0  0  0  0
  148.5537  139.7407  153.4348 H   0  0  0  0  0  0  0  0  0  0  0  0
  147.8645  141.2423  152.8790 H   0  0  0  0  0  0  0  0  0  0  0  0
  150.0118  141.6256  154.1131 H   0  0  0  0  0  0  0  0  0  0  0  0
  148.6679  142.4395  154.8725 H   0  0  0  0  0  0  0  0  0  0  0  0
  152.5606  140.1266  157.8039 H   0  0  0  0  0  0  0  0  0  0  0  0
  150.9746  140.5457  158.4744 H   0  0  0  0  0  0  0  0  0  0  0  0
  151.8248  141.6864  157.3971 H   0  0  0  0  0  0  0  0  0  0  0  0
  148.4070  139.8323  157.5873 H   0  0  0  0  0  0  0  0  0  0  0  0
  147.6620  141.3157  157.0491 H   0  0  0  0  0  0  0  0  0  0  0  0
  146.2333  139.4205  156.4169 H   0  0  0  0  0  0  0  0  0  0  0  0
  147.5500  138.6224  155.6013 H   0  0  0  0  0  0  0  0  0  0  0  0
  142.7562  136.6572  151.4177 H   0  0  0  0  0  0  0  0  0  0  0  0
  142.6334  134.4951  150.7012 H   0  0  0  0  0  0  0  0  0  0  0  0
  1  2  1  0  0  0  0
  1 23  1  0  0  0  0
  1 24  1  0  0  0  0
  1 25  1  0  0  0  0
  2  3  1  0  0  0  0
  2 26  1  0  0  0  0
  3 22  1  0  0  0  0
  3  4  2  0  0  0  0
  4  5  1  0  0  0  0
  4 27  1  0  0  0  0
  5  6  2  0  0  0  0
  5 28  1  0  0  0  0
  6  7  1  0  0  0  0
  6 21  1  0  0  0  0
  7  8  1  0  0  0  0
  7 29  1  0  0  0  0
  8  9  2  0  0  0  0
  8 10  1  0  0  0  0
 10 11  1  0  0  0  0
 10 30  1  0  0  0  0
 11 20  1  0  0  0  0
 11 12  1  0  0  0  0
 11 31  1  0  0  0  0
 12 13  1  0  0  0  0
 12 32  1  0  0  0  0
 12 33  1  0  0  0  0
 13 14  1  0  0  0  0
 13 34  1  0  0  0  0
 13 35  1  0  0  0  0
 14 15  1  0  0  0  0
 14 19  1  0  0  0  0
 15 16  1  0  0  0  0
 15 17  2  0  0  0  0
 15 18  2  0  0  0  0
 16 36  1  0  0  0  0
 16 37  1  0  0  0  0
 16 38  1  0  0  0  0
 19 20  1  0  0  0  0
 19 39  1  0  0  0  0
 19 40  1  0  0  0  0
 20 41  1  0  0  0  0
 20 42  1  0  0  0  0
 21 22  2  0  0  0  0
 21 43  1  0  0  0  0
 22 44  1  0  0  0  0
M  CHG  1  22   1
M  END
> <s_m_source_file>
AV-unprocessed.smi

> <i_m_source_file_index>
549

> <i_lp_mmshare_version>
43012

> <i_f3d_flags>
0

> <s_epik_input>
W0NIM11bTkhdYzFbY0hdW2NIXWMoW2NIXW4xKVtOSF1DKD1PKVtOSF1bQ0hdMltDSDJdW0NIMl1OKFMoPU8pKD1PKVtDSDNdKVtDSDJdW0NIMl0y

> <s_epik_cmdline>
J2VwaWtfcHl0aG9uJywgJy1waCcsICc3LjAnLCAnLXRuJywgJzgnLCAnLW1hJywgJzIwMCcsICctbWV0YWxfYmluZGluZycsICctaW1hZScsICc8aW5maWxlLm1hZT4nLCAnLW9tYWUnLCAnPG91dGZpbGUubWFlPic=

> <r_lp_tautomer_probability>
0.999994

> <r_epik_Ionization_Penalty>
0.450019

> <r_epik_Ionization_Penalty_Charging>
0.449999

> <r_epik_Ionization_Penalty_Neutral>
1.96337e-05

> <r_epik_State_Penalty>
0.452724

> <r_epik_Charging_Adjusted_Penalty>
0.902724

> <i_epik_Tot_Q>
1

> <i_epik_Tot_abs_Q>
1

> <r_epik_Metal_State_Penalty>
0.680753

> <b_epik_Metal_Only>
0

> <s_lp_Force_Field>
OPLS_2005

> <r_lp_Energy>
8.99887

> <b_lp_Chiralities_Consistent>
1

> <s_lp_Variant>
AV-unprocessed.smi:549-2

> <Gold.Version>
5.8.1

> <Gold.Id.Protein>
6NUR|6NUR_protein|mol2

> <Gold.PLP.Fitness>
42.3160

> <Gold.PLP.PLP>
-28.4082

> <Gold.PLP.part.hbond>
-4.5003

> <Gold.PLP.part.metal>
0.0000

> <Gold.PLP.part.buried>
-3.6541

> <Gold.PLP.part.nonpolar>
-21.1414

> <Gold.PLP.part.repulsive>
0.2343

> <Gold.PLP.ligand.clash>
0.0000

> <Gold.PLP.ligand.torsion>
1.3096

> <Gold.PLP.Chemscore.Hbond>
4.8247

> <Gold.PLP.Chemscore.CHOScore>
0.0000

> <Gold.PLP.Chemscore.Metal>
0.0000

> <Gold.Chemscore.Hbonds>
donor molecule, donor type, donor heavy atom, donor atom, acceptor molecule, acceptor atom, score
      L1  H     7    29       P1 10175  0.84
      L1  H    10    30       P1 10175  1.00
      L1  H    22    44       P1 10186  2.00
      P1  H  7989  7998       L1    18  1.00

> <Gold.PLP.Chemscore.Internal.Correction>
2.0528

> <Gold.Rescore>
     Score         DG    S(hbond)    S(metal)    S(lipo)     H(rot)  DE(clash)    DE(int)     intcor
     15.23     -19.52       3.04        0.00      55.04       1.00       0.19       4.10       ----

> <Gold.Chemscore.Fitness>
15.2337

> <Gold.Chemscore.DG>
-19.5210

> <Gold.Chemscore.ZeroCoef>
-5.4800

> <Gold.Chemscore.Hbond>
3.0422

> <Gold.Chemscore.Metal>
0.0000

> <Gold.Chemscore.Lipo>
55.0435

> <Gold.Chemscore.Internal_Hbond>
0.0000

> <Gold.Chemscore.DEClash>
0.1883

> <Gold.Chemscore.DEInternal>
4.0991

> <Gold.Chemscore.Rot>
1.0000

> <Gold.Chemscore.Internal.Correction>
   9.000000E+99

> <Gold.Chemscore.Hbonds>
donor molecule, donor type, donor heavy atom, donor atom, acceptor molecule, acceptor atom, score
      L1  H     7    29       P1 10175  0.78
      L1  H    10    30       P1 10175  1.00
      L1  H    22    44       P1 10186  0.25
      P1  H  7989  7998       L1    18  0.94

> <Gold.Chemscore.Hbond.Weighted>
-10.1610

> <Gold.Chemscore.Metal.Weighted>
-0.0000

> <Gold.Chemscore.Lipo.Weighted>
-6.4401

> <Gold.Chemscore.Internal_Hbond.Weighted>
0.0000

> <Gold.Chemscore.DEClash.Weighted>
0.1883

> <Gold.Chemscore.DEInternal.Weighted>
4.0991

> <Gold.Chemscore.Rot.Weighted>
2.5600

> <Gold.Chemscore.Internal.Correction.Weighted>
   9.000000E+99

> <Gold.Protein.RotatedTorsions>
[ 6907 6896 6895 6894 ] final    4.85 input  -60.11 | X-H torsion
[ 7974 7965 7964 7962 ] final  -32.95 input  175.53 | X-H torsion
[ 8008 7997 7996 7995 ] final   39.26 input   59.86 | X-H torsion
[ 10167 10162 10161 10158 ] final  166.43 input  -65.29 | X-H torsion
[ 10718 10713 10712 10709 ] final   40.61 input   66.30 | X-H torsion
[ 10763 10752 10751 10750 ] final -149.63 input  -60.55 | X-H torsion
[ 11005 11000 10999 10996 ] final -113.76 input  -57.11 | X-H torsion

> <Gold.Protein.ActiveResidues>
 VAL166  LYS551  ARG553  GLY616  TRP617  ASP618  TYR619  PRO620  LYS621  CYS622 
 ASP623  PHE694  ASN695  SER759  ASP760  ASP761  ALA762  ILE779  LEU786  VAL792 
 PHE793  MET794  SER795  GLU796  ALA797  LYS798  CYS799  TRP800  GLU811  SER814 

> <Gold.Protein.RotatedAtoms>
  151.6480  135.1005  160.0154 H   0  0  0  0  0  0  0  0  0  0  0  0  # atno 6907 bound_to 6896
  152.4017  133.6823  159.6330 H   0  0  0  0  0  0  0  0  0  0  0  0  # atno 6908 bound_to 6896
  150.7916  133.8696  159.3296 H   0  0  0  0  0  0  0  0  0  0  0  0  # atno 6909 bound_to 6896
  146.0950  140.5855  142.8847 H   0  0  0  0  0  0  0  0  0  0  0  0  # atno 7974 bound_to 7965
  155.2337  140.3340  155.4300 H   0  0  0  0  0  0  0  0  0  0  0  0  # atno 8008 bound_to 7997
  156.2284  140.1840  156.7349 H   0  0  0  0  0  0  0  0  0  0  0  0  # atno 8009 bound_to 7997
  154.5937  140.0634  156.9260 H   0  0  0  0  0  0  0  0  0  0  0  0  # atno 8010 bound_to 7997
  139.4924  144.4028  151.9390 H   0  0  0  0  0  0  0  0  0  0  0  0  # atno 10167 bound_to 10162
  157.3841  130.7770  149.7216 H   0  0  0  0  0  0  0  0  0  0  0  0  # atno 10718 bound_to 10713
  154.8166  135.3304  154.7159 H   0  0  0  0  0  0  0  0  0  0  0  0  # atno 10763 bound_to 10752
  153.7798  135.6919  153.4895 H   0  0  0  0  0  0  0  0  0  0  0  0  # atno 10764 bound_to 10752
  153.1988  135.4524  155.0188 H   0  0  0  0  0  0  0  0  0  0  0  0  # atno 10765 bound_to 10752
  141.0594  133.9560  157.2694 H   0  0  0  0  0  0  0  0  0  0  0  0  # atno 11005 bound_to 11000
  144.7388  140.4885  143.6884 LP  0  0  0  0  0  0  0  0  0  0  0  0  # atno 17320 bound_to 7965
  145.5966  139.1500  143.3152 LP  0  0  0  0  0  0  0  0  0  0  0  0  # atno 17321 bound_to 7965
  140.3467  144.3138  150.5957 LP  0  0  0  0  0  0  0  0  0  0  0  0  # atno 17342 bound_to 10162
  140.5520  143.2205  151.7911 LP  0  0  0  0  0  0  0  0  0  0  0  0  # atno 17343 bound_to 10162
  155.9782  130.4053  150.3661 LP  0  0  0  0  0  0  0  0  0  0  0  0  # atno 17370 bound_to 10713
  157.1769  131.0382  151.2768 LP  0  0  0  0  0  0  0  0  0  0  0  0  # atno 17371 bound_to 10713
  139.9419  135.0190  156.8734 LP  0  0  0  0  0  0  0  0  0  0  0  0  # atno 17394 bound_to 11000
  140.5899  134.0272  155.7495 LP  0  0  0  0  0  0  0  0  0  0  0  0  # atno 17395 bound_to 11000

$$$$
