AV-unprocessed.smi:2433|AV-procd|sdf|9590|dock4
  -GOLD-   2272013223D 1   1.00000     0.00000
 Structure written by MMmdl.
 38 40  0  0  0  0  0  0  0  0  1 V2000
  150.4583  137.3499  159.7715 O   0  0  0  0  0  0  0  0  0  0  0  0
  151.0918  138.0721  159.0012 C   0  0  0  0  0  0  0  0  0  0  0  0
  151.8584  139.2316  159.4581 C   0  0  0  0  0  0  0  0  0  0  0  0
  152.5460  140.0005  158.5811 C   0  0  0  0  0  0  0  0  0  0  0  0
  153.3421  141.2130  159.0573 C   0  0  0  0  0  0  0  0  0  0  0  0
  154.2817  140.9777  160.2528 C   0  0  0  0  0  0  0  0  0  0  0  0
  153.2483  141.6389  161.1716 C   0  0  0  0  0  0  0  0  0  0  0  0
  152.5423  142.1938  159.9292 C   0  0  0  0  0  0  0  0  0  0  0  0
  152.5160  139.7117  157.2102 N   0  0  0  0  0  0  0  0  0  0  0  0
  151.8443  138.6922  156.7795 C   0  0  0  0  0  0  0  0  0  0  0  0
  151.1341  137.8497  157.6552 N   0  0  0  0  0  0  0  0  0  0  0  0
  150.4340  136.7087  157.0422 C   0  0  0  0  0  0  0  0  0  0  0  0
  151.3955  135.7495  156.3068 C   0  0  1  0  0  0  0  0  0  0  0  0
  152.3758  135.2980  157.2209 O   0  0  0  0  0  0  0  0  0  0  0  0
  150.6301  134.5879  155.6902 C   0  0  0  0  0  0  0  0  0  0  0  0
  150.8508  133.2747  156.1586 C   0  0  0  0  0  0  0  0  0  0  0  0
  150.1584  132.1899  155.5859 C   0  0  0  0  0  0  0  0  0  0  0  0
  149.2437  132.4114  154.5386 C   0  0  0  0  0  0  0  0  0  0  0  0
  148.5790  131.3686  153.9874 F   0  0  0  0  0  0  0  0  0  0  0  0
  149.0226  133.7180  154.0632 C   0  0  0  0  0  0  0  0  0  0  0  0
  149.7148  134.8030  154.6355 C   0  0  0  0  0  0  0  0  0  0  0  0
  151.8769  139.4658  160.5127 H   0  0  0  0  0  0  0  0  0  0  0  0
  153.8490  141.7141  158.2313 H   0  0  0  0  0  0  0  0  0  0  0  0
  154.4939  139.9338  160.4863 H   0  0  0  0  0  0  0  0  0  0  0  0
  155.2016  141.5593  160.1789 H   0  0  0  0  0  0  0  0  0  0  0  0
  152.6402  140.9146  161.7153 H   0  0  0  0  0  0  0  0  0  0  0  0
  153.6569  142.4007  161.8360 H   0  0  0  0  0  0  0  0  0  0  0  0
  152.8002  143.2352  159.7319 H   0  0  0  0  0  0  0  0  0  0  0  0
  151.4621  142.0425  159.9216 H   0  0  0  0  0  0  0  0  0  0  0  0
  151.7858  138.4275  155.7223 H   0  0  0  0  0  0  0  0  0  0  0  0
  149.8241  136.1595  157.7626 H   0  0  0  0  0  0  0  0  0  0  0  0
  149.7119  137.1073  156.3268 H   0  0  0  0  0  0  0  0  0  0  0  0
  151.9147  136.2762  155.5050 H   0  0  0  0  0  0  0  0  0  0  0  0
  151.9659  135.1807  158.0645 H   0  0  0  0  0  0  0  0  0  0  0  0
  151.5552  133.0936  156.9573 H   0  0  0  0  0  0  0  0  0  0  0  0
  150.3311  131.1875  155.9490 H   0  0  0  0  0  0  0  0  0  0  0  0
  148.3238  133.8885  153.2577 H   0  0  0  0  0  0  0  0  0  0  0  0
  149.5421  135.8004  154.2585 H   0  0  0  0  0  0  0  0  0  0  0  0
  1  2  2  0  0  0  0
  2 11  1  0  0  0  0
  2  3  1  0  0  0  0
  3  4  2  0  0  0  0
  3 22  1  0  0  0  0
  4  5  1  0  0  0  0
  4  9  1  0  0  0  0
  5  8  1  0  0  0  0
  5  6  1  0  0  0  0
  5 23  1  0  0  0  0
  6  7  1  0  0  0  0
  6 24  1  0  0  0  0
  6 25  1  0  0  0  0
  7  8  1  0  0  0  0
  7 26  1  0  0  0  0
  7 27  1  0  0  0  0
  8 28  1  0  0  0  0
  8 29  1  0  0  0  0
  9 10  2  0  0  0  0
 10 11  1  0  0  0  0
 10 30  1  0  0  0  0
 11 12  1  0  0  0  0
 12 13  1  0  0  0  0
 12 31  1  0  0  0  0
 12 32  1  0  0  0  0
 13 14  1  0  0  0  0
 13 15  1  0  0  0  0
 13 33  1  0  0  0  0
 14 34  1  0  0  0  0
 15 21  1  0  0  0  0
 15 16  2  0  0  0  0
 16 17  1  0  0  0  0
 16 35  1  0  0  0  0
 17 18  2  0  0  0  0
 17 36  1  0  0  0  0
 18 19  1  0  0  0  0
 18 20  1  0  0  0  0
 20 21  2  0  0  0  0
 20 37  1  0  0  0  0
 21 38  1  0  0  0  0
M  END
> <s_m_source_file>
AV-unprocessed.smi

> <i_m_source_file_index>
2433

> <i_lp_mmshare_version>
43012

> <i_f3d_flags>
0

> <s_epik_input>
W0NIMl0xW0NIMl1bQ0gyXVtDSF0xYyhbY0hdYzI9TyluW2NIXW4yW0NIMl1bQ0BIXShbT0hdKWMzW2NIXVtjSF1jKEYpW2NIXVtjSF0z

> <s_epik_cmdline>
J2VwaWtfcHl0aG9uJywgJy1waCcsICc3LjAnLCAnLXRuJywgJzgnLCAnLW1hJywgJzIwMCcsICctbWV0YWxfYmluZGluZycsICctaW1hZScsICc8aW5maWxlLm1hZT4nLCAnLW9tYWUnLCAnPG91dGZpbGUubWFlPic=

> <r_lp_tautomer_probability>
1

> <r_epik_Ionization_Penalty>
2.57762e-05

> <r_epik_Ionization_Penalty_Charging>
5.39435e-08

> <r_epik_Ionization_Penalty_Neutral>
2.57223e-05

> <r_epik_State_Penalty>
-0

> <r_epik_Charging_Adjusted_Penalty>
5.39435e-08

> <i_epik_Tot_Q>
0

> <i_epik_Tot_abs_Q>
0

> <r_epik_Metal_State_Penalty>
-0

> <b_epik_Metal_Only>
0

> <s_lp_Force_Field>
OPLS_2005

> <r_lp_Energy>
28.3662

> <b_lp_Chiralities_Consistent>
1

> <s_lp_Variant>
AV-unprocessed.smi:2433-2

> <Gold.Version>
5.8.1

> <Gold.Id.Protein>
6NUR|6NUR_protein|mol2

> <Gold.PLP.Fitness>
42.9794

> <Gold.PLP.PLP>
-35.5909

> <Gold.PLP.part.hbond>
-3.1897

> <Gold.PLP.part.metal>
0.0000

> <Gold.PLP.part.buried>
-2.2344

> <Gold.PLP.part.nonpolar>
-29.1128

> <Gold.PLP.part.repulsive>
0.0000

> <Gold.PLP.ligand.clash>
0.0961

> <Gold.PLP.ligand.torsion>
0.2590

> <Gold.PLP.Chemscore.Hbond>
2.5423

> <Gold.PLP.Chemscore.CHOScore>
0.0000

> <Gold.PLP.Chemscore.Metal>
0.0000

> <Gold.Chemscore.Hbonds>
donor molecule, donor type, donor heavy atom, donor atom, acceptor molecule, acceptor atom, score
      P1  H  6896  6908       L1     1  0.16
      P1  H  7997  8009       L1     9  1.00
      P1  H 10752 10763       L1    14  0.06

> <Gold.PLP.Chemscore.Internal.Correction>
0.3758

> <Gold.Rescore>
     Score         DG    S(hbond)    S(metal)    S(lipo)     H(rot)  DE(clash)    DE(int)     intcor
     15.80     -16.35       1.68        0.00      91.73       2.14       0.13       0.42       ----

> <Gold.Chemscore.Fitness>
15.8003

> <Gold.Chemscore.DG>
-16.3501

> <Gold.Chemscore.ZeroCoef>
-5.4800

> <Gold.Chemscore.Hbond>
1.6792

> <Gold.Chemscore.Metal>
0.0000

> <Gold.Chemscore.Lipo>
91.7301

> <Gold.Chemscore.Internal_Hbond>
0.0000

> <Gold.Chemscore.DEClash>
0.1291

> <Gold.Chemscore.DEInternal>
0.4207

> <Gold.Chemscore.Rot>
2.1370

> <Gold.Chemscore.Internal.Correction>
   9.000000E+99

> <Gold.Chemscore.Hbonds>
donor molecule, donor type, donor heavy atom, donor atom, acceptor molecule, acceptor atom, score
      P1  H  6896  6908       L1     1  0.16
      P1  H  7997  8009       L1     9  0.57

> <Gold.Chemscore.Hbond.Weighted>
-5.6084

> <Gold.Chemscore.Metal.Weighted>
-0.0000

> <Gold.Chemscore.Lipo.Weighted>
-10.7324

> <Gold.Chemscore.Internal_Hbond.Weighted>
0.0000

> <Gold.Chemscore.DEClash.Weighted>
0.1291

> <Gold.Chemscore.DEInternal.Weighted>
0.4207

> <Gold.Chemscore.Rot.Weighted>
5.4707

> <Gold.Chemscore.Internal.Correction.Weighted>
   9.000000E+99

> <Gold.Protein.RotatedTorsions>
[ 6907 6896 6895 6894 ] final -134.41 input  -60.11 | X-H torsion
[ 7974 7965 7964 7962 ] final  150.71 input  175.53 | X-H torsion
[ 8008 7997 7996 7995 ] final -170.33 input   59.86 | X-H torsion
[ 10167 10162 10161 10158 ] final -149.13 input  -65.29 | X-H torsion
[ 10718 10713 10712 10709 ] final  -53.43 input   66.30 | X-H torsion
[ 10763 10752 10751 10750 ] final  136.38 input  -60.55 | X-H torsion
[ 11005 11000 10999 10996 ] final  136.37 input  -57.11 | X-H torsion

> <Gold.Protein.ActiveResidues>
 VAL166  LYS551  ARG553  GLY616  TRP617  ASP618  TYR619  PRO620  LYS621  CYS622 
 ASP623  PHE694  ASN695  SER759  ASP760  ASP761  ALA762  ILE779  LEU786  VAL792 
 PHE793  MET794  SER795  GLU796  ALA797  LYS798  CYS799  TRP800  GLU811  SER814 

> <Gold.Protein.RotatedAtoms>
  150.9855  133.6202  159.2715 H   0  0  0  0  0  0  0  0  0  0  0  0  # atno 6907 bound_to 6896
  151.3441  135.0869  159.9391 H   0  0  0  0  0  0  0  0  0  0  0  0  # atno 6908 bound_to 6896
  152.5229  133.9461  159.7704 H   0  0  0  0  0  0  0  0  0  0  0  0  # atno 6909 bound_to 6896
  144.8344  139.6444  143.6044 H   0  0  0  0  0  0  0  0  0  0  0  0  # atno 7974 bound_to 7965
  155.9169  140.1067  157.1236 H   0  0  0  0  0  0  0  0  0  0  0  0  # atno 8008 bound_to 7997
  154.4048  140.1263  156.4695 H   0  0  0  0  0  0  0  0  0  0  0  0  # atno 8009 bound_to 7997
  155.7242  140.3469  155.5032 H   0  0  0  0  0  0  0  0  0  0  0  0  # atno 8010 bound_to 7997
  139.7469  143.8576  152.2577 H   0  0  0  0  0  0  0  0  0  0  0  0  # atno 10167 bound_to 10162
  156.1536  130.4151  149.9905 H   0  0  0  0  0  0  0  0  0  0  0  0  # atno 10718 bound_to 10713
  153.8555  135.3074  155.3435 H   0  0  0  0  0  0  0  0  0  0  0  0  # atno 10763 bound_to 10752
  154.7872  135.4803  153.9975 H   0  0  0  0  0  0  0  0  0  0  0  0  # atno 10764 bound_to 10752
  153.1493  135.6840  153.9001 H   0  0  0  0  0  0  0  0  0  0  0  0  # atno 10765 bound_to 10752
  140.0042  134.9466  157.0138 H   0  0  0  0  0  0  0  0  0  0  0  0  # atno 11005 bound_to 11000
  146.2644  139.6486  142.9339 LP  0  0  0  0  0  0  0  0  0  0  0  0  # atno 17320 bound_to 7965
  145.4826  141.0438  143.2637 LP  0  0  0  0  0  0  0  0  0  0  0  0  # atno 17321 bound_to 7965
  139.8543  144.7149  150.9176 LP  0  0  0  0  0  0  0  0  0  0  0  0  # atno 17342 bound_to 10162
  140.7793  143.3872  151.1373 LP  0  0  0  0  0  0  0  0  0  0  0  0  # atno 17343 bound_to 10162
  156.7755  130.9202  151.3645 LP  0  0  0  0  0  0  0  0  0  0  0  0  # atno 17370 bound_to 10713
  157.6677  130.9022  149.9969 LP  0  0  0  0  0  0  0  0  0  0  0  0  # atno 17371 bound_to 10713
  140.4672  134.1423  155.7198 LP  0  0  0  0  0  0  0  0  0  0  0  0  # atno 17394 bound_to 11000
  141.1664  133.8694  157.1701 LP  0  0  0  0  0  0  0  0  0  0  0  0  # atno 17395 bound_to 11000

$$$$
