AV-unprocessed.smi:676|AV-procd|sdf|3310|dock3
  -GOLD-   22720 0273D 1   1.00000     0.00000
 Structure written by MMmdl.
 42 43  0  0  0  0  0  0  0  0  1 V2000
  147.8635  140.4049  154.6291 C   0  0  0  0  0  0  0  0  0  0  0  0
  147.8082  140.0431  156.0029 O   0  0  0  0  0  0  0  0  0  0  0  0
  148.8591  139.2007  156.4790 C   0  0  2  0  0  0  0  0  0  0  0  0
  148.7674  137.8183  155.8140 C   0  0  0  0  0  0  0  0  0  0  0  0
  149.0007  139.2564  158.0114 C   0  0  0  0  0  0  0  0  0  0  0  0
  150.5080  139.3346  157.7808 C   0  0  2  0  0  0  0  0  0  0  0  0
  151.1811  140.2062  158.7374 N   0  0  0  0  0  0  0  0  0  0  0  0
  152.4419  140.6418  158.6046 C   0  0  0  0  0  0  0  0  0  0  0  0
  153.1612  140.3360  157.6521 O   0  0  0  0  0  0  0  0  0  0  0  0
  152.9461  141.5809  159.7097 C   0  0  0  0  0  0  0  0  0  0  0  0
  152.0997  142.7708  159.8981 N   0  0  0  0  0  0  0  0  0  0  0  0
  151.9017  143.5993  158.7753 C   0  0  0  0  0  0  0  0  0  0  0  0
  151.1556  144.7136  158.8378 C   0  0  0  0  0  0  0  0  0  0  0  0
  150.5450  145.0561  160.1005 C   0  0  0  0  0  0  0  0  0  0  0  0
  150.7311  144.2726  161.1816 C   0  0  0  0  0  0  0  0  0  0  0  0
  151.5496  143.0560  161.1188 C   0  0  0  0  0  0  0  0  0  0  0  0
  151.7296  142.3380  162.1028 O   0  0  0  0  0  0  0  0  0  0  0  0
  150.2093  139.9858  156.4059 C   0  0  0  0  0  0  0  0  0  0  0  0
  151.1652  139.6120  155.2685 C   0  0  0  0  0  0  0  0  0  0  0  0
  150.0994  141.5238  156.3743 C   0  0  0  0  0  0  0  0  0  0  0  0
  146.9578  140.9527  154.3690 H   0  0  0  0  0  0  0  0  0  0  0  0
  147.9188  139.5325  153.9780 H   0  0  0  0  0  0  0  0  0  0  0  0
  148.7088  141.0584  154.4145 H   0  0  0  0  0  0  0  0  0  0  0  0
  149.6269  137.1935  156.0559 H   0  0  0  0  0  0  0  0  0  0  0  0
  148.7207  137.9031  154.7281 H   0  0  0  0  0  0  0  0  0  0  0  0
  147.8869  137.2664  156.1418 H   0  0  0  0  0  0  0  0  0  0  0  0
  148.5773  140.1576  158.4591 H   0  0  0  0  0  0  0  0  0  0  0  0
  148.6701  138.3583  158.5339 H   0  0  0  0  0  0  0  0  0  0  0  0
  150.9563  138.3420  157.6963 H   0  0  0  0  0  0  0  0  0  0  0  0
  150.6514  140.5033  159.5440 H   0  0  0  0  0  0  0  0  0  0  0  0
  153.0083  141.0104  160.6376 H   0  0  0  0  0  0  0  0  0  0  0  0
  153.9731  141.8767  159.4875 H   0  0  0  0  0  0  0  0  0  0  0  0
  152.3991  143.2768  157.8719 H   0  0  0  0  0  0  0  0  0  0  0  0
  151.0195  145.3395  157.9681 H   0  0  0  0  0  0  0  0  0  0  0  0
  149.9371  145.9453  160.1794 H   0  0  0  0  0  0  0  0  0  0  0  0
  150.2672  144.5452  162.1184 H   0  0  0  0  0  0  0  0  0  0  0  0
  152.1091  140.1528  155.3440 H   0  0  0  0  0  0  0  0  0  0  0  0
  150.7323  139.8392  154.2940 H   0  0  0  0  0  0  0  0  0  0  0  0
  151.4136  138.5508  155.2757 H   0  0  0  0  0  0  0  0  0  0  0  0
  151.0696  142.0005  156.5183 H   0  0  0  0  0  0  0  0  0  0  0  0
  149.4376  141.9081  157.1507 H   0  0  0  0  0  0  0  0  0  0  0  0
  149.7077  141.8755  155.4193 H   0  0  0  0  0  0  0  0  0  0  0  0
  1  2  1  0  0  0  0
  1 21  1  0  0  0  0
  1 22  1  0  0  0  0
  1 23  1  0  0  0  0
  2  3  1  0  0  0  0
  3 18  1  0  0  0  0
  3  4  1  0  0  0  0
  3  5  1  0  0  0  0
  4 24  1  0  0  0  0
  4 25  1  0  0  0  0
  4 26  1  0  0  0  0
  5  6  1  0  0  0  0
  5 27  1  0  0  0  0
  5 28  1  0  0  0  0
  6  7  1  0  0  0  0
  6 18  1  0  0  0  0
  6 29  1  0  0  0  0
  7  8  1  0  0  0  0
  7 30  1  0  0  0  0
  8  9  2  0  0  0  0
  8 10  1  0  0  0  0
 10 11  1  0  0  0  0
 10 31  1  0  0  0  0
 10 32  1  0  0  0  0
 11 16  1  0  0  0  0
 11 12  1  0  0  0  0
 12 13  2  0  0  0  0
 12 33  1  0  0  0  0
 13 14  1  0  0  0  0
 13 34  1  0  0  0  0
 14 15  2  0  0  0  0
 14 35  1  0  0  0  0
 15 16  1  0  0  0  0
 15 36  1  0  0  0  0
 16 17  2  0  0  0  0
 18 19  1  0  0  0  0
 18 20  1  0  0  0  0
 19 37  1  0  0  0  0
 19 38  1  0  0  0  0
 19 39  1  0  0  0  0
 20 40  1  0  0  0  0
 20 41  1  0  0  0  0
 20 42  1  0  0  0  0
M  END
> <s_m_source_file>
AV-unprocessed.smi

> <i_m_source_file_index>
676

> <i_lp_mmshare_version>
43012

> <i_f3d_flags>
0

> <s_epik_input>
W0NIM11PW0NAQF0xKFtDSDNdKVtDSDJdW0NASF0oQzEoW0NIM10pW0NIM10pW05IXUMoPU8pW0NIMl1uMltjSF1bY0hdW2NIXVtjSF1jMj1P

> <s_epik_cmdline>
J2VwaWtfcHl0aG9uJywgJy1waCcsICc3LjAnLCAnLXRuJywgJzgnLCAnLW1hJywgJzIwMCcsICctbWV0YWxfYmluZGluZycsICctaW1hZScsICc8aW5maWxlLm1hZT4nLCAnLW9tYWUnLCAnPG91dGZpbGUubWFlPic=

> <r_lp_tautomer_probability>
1

> <r_epik_Ionization_Penalty>
4.09771e-07

> <r_epik_Ionization_Penalty_Charging>
3.90712e-07

> <r_epik_Ionization_Penalty_Neutral>
1.90591e-08

> <r_epik_State_Penalty>
-0

> <r_epik_Charging_Adjusted_Penalty>
3.90712e-07

> <i_epik_Tot_Q>
0

> <i_epik_Tot_abs_Q>
0

> <r_epik_Metal_State_Penalty>
-0

> <b_epik_Metal_Only>
0

> <s_lp_Force_Field>
OPLS_2005

> <r_lp_Energy>
31.4384

> <b_lp_Chiralities_Consistent>
1

> <s_lp_Variant>
AV-unprocessed.smi:676-4

> <Gold.Version>
5.8.1

> <Gold.Id.Protein>
6NUR|6NUR_protein|mol2

> <Gold.PLP.Fitness>
49.1618

> <Gold.PLP.PLP>
-43.9944

> <Gold.PLP.part.hbond>
-2.0000

> <Gold.PLP.part.metal>
0.0000

> <Gold.PLP.part.buried>
-5.1556

> <Gold.PLP.part.nonpolar>
-38.1614

> <Gold.PLP.part.repulsive>
0.4293

> <Gold.PLP.ligand.clash>
0.0000

> <Gold.PLP.ligand.torsion>
0.2396

> <Gold.PLP.Chemscore.Hbond>
1.7579

> <Gold.PLP.Chemscore.CHOScore>
0.0000

> <Gold.PLP.Chemscore.Metal>
0.0000

> <Gold.Chemscore.Hbonds>
donor molecule, donor type, donor heavy atom, donor atom, acceptor molecule, acceptor atom, score
      P1  H  6933  6945       L1    17  0.82
      P1  H  7997  8009       L1     9  0.88

> <Gold.PLP.Chemscore.Internal.Correction>
0.3729

> <Gold.Rescore>
     Score         DG    S(hbond)    S(metal)    S(lipo)     H(rot)  DE(clash)    DE(int)     intcor
     18.40     -18.86       1.78        0.00      98.83       1.62       0.12       0.34       ----

> <Gold.Chemscore.Fitness>
18.4014

> <Gold.Chemscore.DG>
-18.8575

> <Gold.Chemscore.ZeroCoef>
-5.4800

> <Gold.Chemscore.Hbond>
1.7831

> <Gold.Chemscore.Metal>
0.0000

> <Gold.Chemscore.Lipo>
98.8278

> <Gold.Chemscore.Internal_Hbond>
0.0000

> <Gold.Chemscore.DEClash>
0.1151

> <Gold.Chemscore.DEInternal>
0.3410

> <Gold.Chemscore.Rot>
1.6175

> <Gold.Chemscore.Internal.Correction>
   9.000000E+99

> <Gold.Chemscore.Hbonds>
donor molecule, donor type, donor heavy atom, donor atom, acceptor molecule, acceptor atom, score
      P1  H  6933  6945       L1    17  0.14
      P1  H  7997  8009       L1     9  0.82

> <Gold.Chemscore.Hbond.Weighted>
-5.9554

> <Gold.Chemscore.Metal.Weighted>
-0.0000

> <Gold.Chemscore.Lipo.Weighted>
-11.5629

> <Gold.Chemscore.Internal_Hbond.Weighted>
0.0000

> <Gold.Chemscore.DEClash.Weighted>
0.1151

> <Gold.Chemscore.DEInternal.Weighted>
0.3410

> <Gold.Chemscore.Rot.Weighted>
4.1408

> <Gold.Chemscore.Internal.Correction.Weighted>
   9.000000E+99

> <Gold.Protein.RotatedTorsions>
[ 6907 6896 6895 6894 ] final  -54.37 input  -60.11 | X-H torsion
[ 7974 7965 7964 7962 ] final -172.00 input  175.53 | X-H torsion
[ 8008 7997 7996 7995 ] final  170.69 input   59.86 | X-H torsion
[ 10167 10162 10161 10158 ] final  112.86 input  -65.29 | X-H torsion
[ 10718 10713 10712 10709 ] final   71.79 input   66.30 | X-H torsion
[ 10763 10752 10751 10750 ] final  101.08 input  -60.55 | X-H torsion
[ 11005 11000 10999 10996 ] final  -96.59 input  -57.11 | X-H torsion

> <Gold.Protein.ActiveResidues>
 VAL166  LYS551  ARG553  GLY616  TRP617  ASP618  TYR619  PRO620  LYS621  CYS622 
 ASP623  PHE694  ASN695  SER759  ASP760  ASP761  ALA762  ILE779  LEU786  VAL792 
 PHE793  MET794  SER795  GLU796  ALA797  LYS798  CYS799  TRP800  GLU811  SER814 

> <Gold.Protein.RotatedAtoms>
  150.8344  134.7611  159.6880 H   0  0  0  0  0  0  0  0  0  0  0  0  # atno 6907 bound_to 6896
  152.4443  134.5523  159.9880 H   0  0  0  0  0  0  0  0  0  0  0  0  # atno 6908 bound_to 6896
  151.5677  133.3356  159.3019 H   0  0  0  0  0  0  0  0  0  0  0  0  # atno 6909 bound_to 6896
  144.7151  140.1837  143.6355 H   0  0  0  0  0  0  0  0  0  0  0  0  # atno 7974 bound_to 7965
  156.1342  140.1531  156.9020 H   0  0  0  0  0  0  0  0  0  0  0  0  # atno 8008 bound_to 7997
  154.4933  140.0845  156.7682 H   0  0  0  0  0  0  0  0  0  0  0  0  # atno 8009 bound_to 7997
  155.4200  140.3422  155.4273 H   0  0  0  0  0  0  0  0  0  0  0  0  # atno 8010 bound_to 7997
  139.6504  144.7128  151.2059 H   0  0  0  0  0  0  0  0  0  0  0  0  # atno 10167 bound_to 10162
  157.6469  130.9546  150.0839 H   0  0  0  0  0  0  0  0  0  0  0  0  # atno 10718 bound_to 10713
  153.3221  135.4057  155.1425 H   0  0  0  0  0  0  0  0  0  0  0  0  # atno 10763 bound_to 10752
  154.8603  135.3590  154.5583 H   0  0  0  0  0  0  0  0  0  0  0  0  # atno 10764 bound_to 10752
  153.6017  135.7071  153.5441 H   0  0  0  0  0  0  0  0  0  0  0  0  # atno 10765 bound_to 10752
  141.1406  133.8108  157.0591 H   0  0  0  0  0  0  0  0  0  0  0  0  # atno 11005 bound_to 11000
  145.8832  139.2334  143.1593 LP  0  0  0  0  0  0  0  0  0  0  0  0  # atno 17320 bound_to 7965
  145.9975  140.8550  143.0035 LP  0  0  0  0  0  0  0  0  0  0  0  0  # atno 17321 bound_to 7965
  140.7535  143.6159  150.8560 LP  0  0  0  0  0  0  0  0  0  0  0  0  # atno 17342 bound_to 10162
  139.9807  143.5955  152.2944 LP  0  0  0  0  0  0  0  0  0  0  0  0  # atno 17343 bound_to 10162
  156.1807  130.3650  149.9039 LP  0  0  0  0  0  0  0  0  0  0  0  0  # atno 17370 bound_to 10713
  156.6992  130.8926  151.3597 LP  0  0  0  0  0  0  0  0  0  0  0  0  # atno 17371 bound_to 10713
  140.0583  134.9769  157.1259 LP  0  0  0  0  0  0  0  0  0  0  0  0  # atno 17394 bound_to 11000
  140.3887  134.2208  155.7167 LP  0  0  0  0  0  0  0  0  0  0  0  0  # atno 17395 bound_to 11000

$$$$
