AV-unprocessed.smi:694|AV-procd|sdf|3383|dock5
  -GOLD-   22720 0363D 1   1.00000     0.00000
 Structure written by MMmdl.
 42 43  0  0  0  0  0  0  0  0  1 V2000
  148.7173  142.4558  158.0156 C   0  0  0  0  0  0  0  0  0  0  0  0
  149.6698  141.8683  157.0787 N   0  0  0  0  0  0  0  0  0  0  0  0
  151.0621  142.2994  157.0930 C   0  0  0  0  0  0  0  0  0  0  0  0
  149.2283  140.9190  156.1286 C   0  0  0  0  0  0  0  0  0  0  0  0
  150.1403  140.2358  155.2864 C   0  0  0  0  0  0  0  0  0  0  0  0
  149.6490  139.2969  154.3596 C   0  0  0  0  0  0  0  0  0  0  0  0
  148.2647  139.0495  154.2952 C   0  0  0  0  0  0  0  0  0  0  0  0
  147.7967  138.1077  153.3399 N   0  0  0  0  0  0  0  0  0  0  0  0
  146.5326  137.7179  153.1029 C   0  0  0  0  0  0  0  0  0  0  0  0
  145.5391  138.1188  153.7090 O   0  0  0  0  0  0  0  0  0  0  0  0
  146.4846  136.8017  152.1253 N   0  0  0  0  0  0  0  0  0  0  0  0
  145.2759  136.1399  151.6431 C   0  0  0  0  0  0  0  0  0  0  0  0
  145.5930  134.7923  150.9645 C   0  0  1  0  0  0  0  0  0  0  0  0
  146.0553  133.6863  151.9253 C   0  0  0  0  0  0  0  0  0  0  0  0
  145.6945  132.3533  151.2524 C   0  0  0  0  0  0  0  0  0  0  0  0
  144.8103  132.7018  150.0479 C   0  0  0  0  0  0  0  0  0  0  0  0
  144.3889  134.1574  150.2628 C   0  0  2  0  0  0  0  0  0  0  0  0
  144.0863  134.7937  149.0386 O   0  0  0  0  0  0  0  0  0  0  0  0
  147.4274  139.7874  155.1642 C   0  0  0  0  0  0  0  0  0  0  0  0
  147.8947  140.6896  156.0523 N   0  0  0  0  0  0  0  0  0  0  0  0
  147.9669  143.0388  157.4806 H   0  0  0  0  0  0  0  0  0  0  0  0
  149.2131  143.1181  158.7253 H   0  0  0  0  0  0  0  0  0  0  0  0
  148.2097  141.6784  158.5874 H   0  0  0  0  0  0  0  0  0  0  0  0
  151.7207  141.4582  157.3113 H   0  0  0  0  0  0  0  0  0  0  0  0
  151.2335  143.0619  157.8527 H   0  0  0  0  0  0  0  0  0  0  0  0
  151.3431  142.7233  156.1285 H   0  0  0  0  0  0  0  0  0  0  0  0
  151.2043  140.4108  155.3325 H   0  0  0  0  0  0  0  0  0  0  0  0
  150.3328  138.7697  153.7102 H   0  0  0  0  0  0  0  0  0  0  0  0
  148.5146  137.6277  152.8176 H   0  0  0  0  0  0  0  0  0  0  0  0
  147.3526  136.5308  151.6870 H   0  0  0  0  0  0  0  0  0  0  0  0
  144.5542  136.0035  152.4504 H   0  0  0  0  0  0  0  0  0  0  0  0
  144.8009  136.8073  150.9238 H   0  0  0  0  0  0  0  0  0  0  0  0
  146.3810  134.9446  150.2244 H   0  0  0  0  0  0  0  0  0  0  0  0
  147.1194  133.7592  152.1517 H   0  0  0  0  0  0  0  0  0  0  0  0
  145.5164  133.7638  152.8705 H   0  0  0  0  0  0  0  0  0  0  0  0
  146.5876  131.8170  150.9300 H   0  0  0  0  0  0  0  0  0  0  0  0
  145.1632  131.7089  151.9537 H   0  0  0  0  0  0  0  0  0  0  0  0
  145.4040  132.6152  149.1363 H   0  0  0  0  0  0  0  0  0  0  0  0
  143.9562  132.0314  149.9476 H   0  0  0  0  0  0  0  0  0  0  0  0
  143.5152  134.1932  150.9153 H   0  0  0  0  0  0  0  0  0  0  0  0
  144.8891  134.9070  148.5532 H   0  0  0  0  0  0  0  0  0  0  0  0
  146.3537  139.6844  155.1503 H   0  0  0  0  0  0  0  0  0  0  0  0
  1  2  1  0  0  0  0
  1 21  1  0  0  0  0
  1 22  1  0  0  0  0
  1 23  1  0  0  0  0
  2  3  1  0  0  0  0
  2  4  1  0  0  0  0
  3 24  1  0  0  0  0
  3 25  1  0  0  0  0
  3 26  1  0  0  0  0
  4 20  1  0  0  0  0
  4  5  2  0  0  0  0
  5  6  1  0  0  0  0
  5 27  1  0  0  0  0
  6  7  2  0  0  0  0
  6 28  1  0  0  0  0
  7  8  1  0  0  0  0
  7 19  1  0  0  0  0
  8  9  1  0  0  0  0
  8 29  1  0  0  0  0
  9 10  2  0  0  0  0
  9 11  1  0  0  0  0
 11 12  1  0  0  0  0
 11 30  1  0  0  0  0
 12 13  1  0  0  0  0
 12 31  1  0  0  0  0
 12 32  1  0  0  0  0
 13 17  1  0  0  0  0
 13 14  1  0  0  0  0
 13 33  1  0  0  0  0
 14 15  1  0  0  0  0
 14 34  1  0  0  0  0
 14 35  1  0  0  0  0
 15 16  1  0  0  0  0
 15 36  1  0  0  0  0
 15 37  1  0  0  0  0
 16 17  1  0  0  0  0
 16 38  1  0  0  0  0
 16 39  1  0  0  0  0
 17 18  1  0  0  0  0
 17 40  1  0  0  0  0
 18 41  1  0  0  0  0
 19 20  2  0  0  0  0
 19 42  1  0  0  0  0
M  END
> <s_m_source_file>
AV-unprocessed.smi

> <i_m_source_file_index>
694

> <i_lp_mmshare_version>
43012

> <i_f3d_flags>
0

> <s_epik_input>
W0NIM11OKFtDSDNdKWMxW2NIXVtjSF1jKFtjSF1uMSlbTkhdQyg9TylbTkhdW0NIMl1bQ0BASF0yW0NIMl1bQ0gyXVtDSDJdW0NASF0yW09IXQ==

> <s_epik_cmdline>
J2VwaWtfcHl0aG9uJywgJy1waCcsICc3LjAnLCAnLXRuJywgJzgnLCAnLW1hJywgJzIwMCcsICctbWV0YWxfYmluZGluZycsICctaW1hZScsICc8aW5maWxlLm1hZT4nLCAnLW9tYWUnLCAnPG91dGZpbGUubWFlPic=

> <r_lp_tautomer_probability>
1

> <r_epik_Ionization_Penalty>
0.60335

> <r_epik_Ionization_Penalty_Charging>
0

> <r_epik_Ionization_Penalty_Neutral>
0.60335

> <r_epik_State_Penalty>
0.616805

> <r_epik_Charging_Adjusted_Penalty>
0.616805

> <i_epik_Tot_Q>
0

> <i_epik_Tot_abs_Q>
0

> <r_epik_Metal_State_Penalty>
0.301709

> <b_epik_Metal_Only>
0

> <s_lp_Force_Field>
OPLS_2005

> <r_lp_Energy>
25.3577

> <b_lp_Chiralities_Consistent>
1

> <s_lp_Variant>
AV-unprocessed.smi:694-8

> <Gold.Version>
5.8.1

> <Gold.Id.Protein>
6NUR|6NUR_protein|mol2

> <Gold.PLP.Fitness>
41.0526

> <Gold.PLP.PLP>
-32.6067

> <Gold.PLP.part.hbond>
-3.4555

> <Gold.PLP.part.metal>
0.0000

> <Gold.PLP.part.buried>
-4.9740

> <Gold.PLP.part.nonpolar>
-24.7087

> <Gold.PLP.part.repulsive>
0.2944

> <Gold.PLP.ligand.clash>
0.0000

> <Gold.PLP.ligand.torsion>
0.2329

> <Gold.PLP.Chemscore.Hbond>
2.9680

> <Gold.PLP.Chemscore.CHOScore>
0.0000

> <Gold.PLP.Chemscore.Metal>
0.0000

> <Gold.Chemscore.Hbonds>
donor molecule, donor type, donor heavy atom, donor atom, acceptor molecule, acceptor atom, score
      L1  H     8    29       P1  7948  0.98
      L1  H    11    30       P1  7948  0.99
      L1  H    18    41       P1  7921  1.00

> <Gold.PLP.Chemscore.Internal.Correction>
0.0077

> <Gold.Rescore>
     Score         DG    S(hbond)    S(metal)    S(lipo)     H(rot)  DE(clash)    DE(int)     intcor
     17.55     -19.07       2.85        0.00      72.66       1.73       0.05       1.46       ----

> <Gold.Chemscore.Fitness>
17.5546

> <Gold.Chemscore.DG>
-19.0665

> <Gold.Chemscore.ZeroCoef>
-5.4800

> <Gold.Chemscore.Hbond>
2.8454

> <Gold.Chemscore.Metal>
0.0000

> <Gold.Chemscore.Lipo>
72.6593

> <Gold.Chemscore.Internal_Hbond>
0.0000

> <Gold.Chemscore.DEClash>
0.0524

> <Gold.Chemscore.DEInternal>
1.4595

> <Gold.Chemscore.Rot>
1.7259

> <Gold.Chemscore.Internal.Correction>
   9.000000E+99

> <Gold.Chemscore.Hbonds>
donor molecule, donor type, donor heavy atom, donor atom, acceptor molecule, acceptor atom, score
      L1  H     8    29       P1  7948  0.93
      L1  H    11    30       P1  7948  0.92
      L1  H    18    41       P1  7921  0.94

> <Gold.Chemscore.Hbond.Weighted>
-9.5037

> <Gold.Chemscore.Metal.Weighted>
-0.0000

> <Gold.Chemscore.Lipo.Weighted>
-8.5011

> <Gold.Chemscore.Internal_Hbond.Weighted>
0.0000

> <Gold.Chemscore.DEClash.Weighted>
0.0524

> <Gold.Chemscore.DEInternal.Weighted>
1.4595

> <Gold.Chemscore.Rot.Weighted>
4.4184

> <Gold.Chemscore.Internal.Correction.Weighted>
   9.000000E+99

> <Gold.Protein.RotatedTorsions>
[ 6907 6896 6895 6894 ] final  -41.65 input  -60.11 | X-H torsion
[ 7974 7965 7964 7962 ] final -137.67 input  175.53 | X-H torsion
[ 8008 7997 7996 7995 ] final  -60.56 input   59.86 | X-H torsion
[ 10167 10162 10161 10158 ] final  -66.98 input  -65.29 | X-H torsion
[ 10718 10713 10712 10709 ] final -171.90 input   66.30 | X-H torsion
[ 10763 10752 10751 10750 ] final   34.72 input  -60.55 | X-H torsion
[ 11005 11000 10999 10996 ] final  128.48 input  -57.11 | X-H torsion

> <Gold.Protein.ActiveResidues>
 VAL166  LYS551  ARG553  GLY616  TRP617  ASP618  TYR619  PRO620  LYS621  CYS622 
 ASP623  PHE694  ASN695  SER759  ASP760  ASP761  ALA762  ILE779  LEU786  VAL792 
 PHE793  MET794  SER795  GLU796  ALA797  LYS798  CYS799  TRP800  GLU811  SER814 

> <Gold.Protein.RotatedAtoms>
  150.9643  134.9026  159.7749 H   0  0  0  0  0  0  0  0  0  0  0  0  # atno 6907 bound_to 6896
  152.5168  134.3629  159.9301 H   0  0  0  0  0  0  0  0  0  0  0  0  # atno 6908 bound_to 6896
  151.3640  133.3838  159.2727 H   0  0  0  0  0  0  0  0  0  0  0  0  # atno 6909 bound_to 6896
  144.8822  140.6524  143.5198 H   0  0  0  0  0  0  0  0  0  0  0  0  # atno 7974 bound_to 7965
  154.4404  140.1037  156.6292 H   0  0  0  0  0  0  0  0  0  0  0  0  # atno 8008 bound_to 7997
  155.5623  140.3487  155.4476 H   0  0  0  0  0  0  0  0  0  0  0  0  # atno 8009 bound_to 7997
  156.0451  140.1291  157.0102 H   0  0  0  0  0  0  0  0  0  0  0  0  # atno 8010 bound_to 7997
  140.5617  143.2313  151.6715 H   0  0  0  0  0  0  0  0  0  0  0  0  # atno 10167 bound_to 10162
  156.7477  130.9366  151.3113 H   0  0  0  0  0  0  0  0  0  0  0  0  # atno 10718 bound_to 10713
  153.0151  135.6353  154.1713 H   0  0  0  0  0  0  0  0  0  0  0  0  # atno 10763 bound_to 10752
  154.1453  135.2832  155.3151 H   0  0  0  0  0  0  0  0  0  0  0  0  # atno 10764 bound_to 10752
  154.6094  135.5561  153.7518 H   0  0  0  0  0  0  0  0  0  0  0  0  # atno 10765 bound_to 10752
  139.9563  134.9612  156.9007 H   0  0  0  0  0  0  0  0  0  0  0  0  # atno 11005 bound_to 11000
  145.3933  139.1612  143.4217 LP  0  0  0  0  0  0  0  0  0  0  0  0  # atno 17320 bound_to 7965
  146.3002  140.4024  142.8707 LP  0  0  0  0  0  0  0  0  0  0  0  0  # atno 17321 bound_to 7965
  139.5073  144.3650  152.0525 LP  0  0  0  0  0  0  0  0  0  0  0  0  # atno 17342 bound_to 10162
  140.2778  144.3893  150.6129 LP  0  0  0  0  0  0  0  0  0  0  0  0  # atno 17343 bound_to 10162
  157.6791  130.9122  150.0222 LP  0  0  0  0  0  0  0  0  0  0  0  0  # atno 17370 bound_to 10713
  156.1422  130.3642  149.9565 LP  0  0  0  0  0  0  0  0  0  0  0  0  # atno 17371 bound_to 10713
  140.5602  134.0542  155.7396 LP  0  0  0  0  0  0  0  0  0  0  0  0  # atno 17394 bound_to 11000
  141.1234  133.9423  157.2683 LP  0  0  0  0  0  0  0  0  0  0  0  0  # atno 17395 bound_to 11000

$$$$
