AV-unprocessed.smi:1216|AV-procd|sdf|5101|dock6
  -GOLD-   22720 4153D 1   1.00000     0.00000
 Structure written by MMmdl.
 42 43  0  0  0  0  0  0  0  0  1 V2000
  145.4062  136.1894  153.4812 C   0  0  0  0  0  0  0  0  0  0  0  0
  145.5524  134.8974  152.6660 C   0  0  1  0  0  0  0  0  0  0  0  0
  145.1097  135.1039  151.2019 C   0  0  0  0  0  0  0  0  0  0  0  0
  145.1133  133.8716  150.4348 N   0  0  0  0  0  0  0  0  0  0  0  0
  146.2025  133.0512  150.1709 C   0  0  0  0  0  0  0  0  0  0  0  0
  145.7301  132.0017  149.4162 C   0  0  0  0  0  0  0  0  0  0  0  0
  144.3633  132.1581  149.1988 N   0  0  0  0  0  0  0  0  0  0  0  0
  144.0698  133.2878  149.8295 C   0  0  0  0  0  0  0  0  0  0  0  0
  146.9431  134.4496  152.7311 N   0  0  0  0  0  0  0  0  0  0  0  0
  147.3526  133.1991  152.9969 C   0  0  0  0  0  0  0  0  0  0  0  0
  146.5786  132.2668  153.2192 O   0  0  0  0  0  0  0  0  0  0  0  0
  148.8710  132.9767  152.9809 C   0  0  0  0  0  0  0  0  0  0  0  0
  149.3941  132.4498  154.2504 N   0  0  0  0  0  0  0  0  0  0  0  0
  149.0260  131.0665  154.5918 C   0  0  0  0  0  0  0  0  0  0  0  0
  150.2112  130.0748  154.5451 C   0  0  0  0  0  0  0  0  0  0  0  0
  151.5990  130.6572  154.8775 C   0  0  0  0  0  0  0  0  0  0  0  0
  151.6772  131.4424  156.2033 C   0  0  0  0  0  0  0  0  0  0  0  0
  150.6579  132.5922  156.3871 C   0  0  0  0  0  0  0  0  0  0  0  0
  150.1536  133.2146  155.0746 C   0  0  0  0  0  0  0  0  0  0  0  0
  150.4535  134.3815  154.8200 O   0  0  0  0  0  0  0  0  0  0  0  0
  144.3698  136.5276  153.4969 H   0  0  0  0  0  0  0  0  0  0  0  0
  146.0126  136.9943  153.0646 H   0  0  0  0  0  0  0  0  0  0  0  0
  145.7171  136.0382  154.5155 H   0  0  0  0  0  0  0  0  0  0  0  0
  144.9009  134.1531  153.1278 H   0  0  0  0  0  0  0  0  0  0  0  0
  144.0991  135.5129  151.1697 H   0  0  0  0  0  0  0  0  0  0  0  0
  145.7551  135.8294  150.7044 H   0  0  0  0  0  0  0  0  0  0  0  0
  147.1941  133.2730  150.5363 H   0  0  0  0  0  0  0  0  0  0  0  0
  146.2646  131.1535  149.0144 H   0  0  0  0  0  0  0  0  0  0  0  0
  143.0707  133.6978  149.8572 H   0  0  0  0  0  0  0  0  0  0  0  0
  147.6515  135.1475  152.5560 H   0  0  0  0  0  0  0  0  0  0  0  0
  149.1093  132.2903  152.1674 H   0  0  0  0  0  0  0  0  0  0  0  0
  149.3701  133.9126  152.7227 H   0  0  0  0  0  0  0  0  0  0  0  0
  148.5686  131.0508  155.5813 H   0  0  0  0  0  0  0  0  0  0  0  0
  148.2346  130.7068  153.9327 H   0  0  0  0  0  0  0  0  0  0  0  0
  149.9961  129.2385  155.2111 H   0  0  0  0  0  0  0  0  0  0  0  0
  150.2640  129.6460  153.5440 H   0  0  0  0  0  0  0  0  0  0  0  0
  152.3233  129.8426  154.9079 H   0  0  0  0  0  0  0  0  0  0  0  0
  151.9288  131.2957  154.0568 H   0  0  0  0  0  0  0  0  0  0  0  0
  151.5651  130.7448  157.0340 H   0  0  0  0  0  0  0  0  0  0  0  0
  152.6845  131.8494  156.2989 H   0  0  0  0  0  0  0  0  0  0  0  0
  149.8013  132.2449  156.9645 H   0  0  0  0  0  0  0  0  0  0  0  0
  151.1081  133.3725  157.0020 H   0  0  0  0  0  0  0  0  0  0  0  0
  1  2  1  0  0  0  0
  1 21  1  0  0  0  0
  1 22  1  0  0  0  0
  1 23  1  0  0  0  0
  2  3  1  0  0  0  0
  2  9  1  0  0  0  0
  2 24  1  0  0  0  0
  3  4  1  0  0  0  0
  3 25  1  0  0  0  0
  3 26  1  0  0  0  0
  4  8  1  0  0  0  0
  4  5  1  0  0  0  0
  5  6  2  0  0  0  0
  5 27  1  0  0  0  0
  6  7  1  0  0  0  0
  6 28  1  0  0  0  0
  7  8  2  0  0  0  0
  8 29  1  0  0  0  0
  9 10  1  0  0  0  0
  9 30  1  0  0  0  0
 10 11  2  0  0  0  0
 10 12  1  0  0  0  0
 12 13  1  0  0  0  0
 12 31  1  0  0  0  0
 12 32  1  0  0  0  0
 13 19  1  0  0  0  0
 13 14  1  0  0  0  0
 14 15  1  0  0  0  0
 14 33  1  0  0  0  0
 14 34  1  0  0  0  0
 15 16  1  0  0  0  0
 15 35  1  0  0  0  0
 15 36  1  0  0  0  0
 16 17  1  0  0  0  0
 16 37  1  0  0  0  0
 16 38  1  0  0  0  0
 17 18  1  0  0  0  0
 17 39  1  0  0  0  0
 17 40  1  0  0  0  0
 18 19  1  0  0  0  0
 18 41  1  0  0  0  0
 18 42  1  0  0  0  0
 19 20  2  0  0  0  0
M  END
> <s_m_source_file>
AV-unprocessed.smi

> <i_m_source_file_index>
1216

> <i_lp_mmshare_version>
43012

> <i_f3d_flags>
0

> <s_epik_input>
W2NIXTFuW2NIXVtjSF1uMVtDSDJdW0NAQEhdKFtDSDNdKVtOSF1DKD1PKVtDSDJdTjJbQ0gyXVtDSDJdW0NIMl1bQ0gyXVtDSDJdQzI9Tw==

> <s_epik_cmdline>
J2VwaWtfcHl0aG9uJywgJy1waCcsICc3LjAnLCAnLXRuJywgJzgnLCAnLW1hJywgJzIwMCcsICctbWV0YWxfYmluZGluZycsICctaW1hZScsICc8aW5maWxlLm1hZT4nLCAnLW9tYWUnLCAnPG91dGZpbGUubWFlPic=

> <r_lp_tautomer_probability>
1

> <r_epik_Ionization_Penalty>
0.623868

> <r_epik_Ionization_Penalty_Charging>
0.623868

> <r_epik_Ionization_Penalty_Neutral>
4.50838e-08

> <r_epik_State_Penalty>
0.640129

> <r_epik_Charging_Adjusted_Penalty>
1.264

> <i_epik_Tot_Q>
0

> <i_epik_Tot_abs_Q>
0

> <r_epik_Metal_State_Penalty>
0.307431

> <b_epik_Metal_Only>
0

> <s_lp_Force_Field>
OPLS_2005

> <r_lp_Energy>
20.3142

> <b_lp_Chiralities_Consistent>
1

> <s_lp_Variant>
AV-unprocessed.smi:1216-4

> <Gold.Version>
5.8.1

> <Gold.Id.Protein>
6NUR|6NUR_protein|mol2

> <Gold.PLP.Fitness>
43.4685

> <Gold.PLP.PLP>
-35.9215

> <Gold.PLP.part.hbond>
-2.0000

> <Gold.PLP.part.metal>
0.0000

> <Gold.PLP.part.buried>
-4.8455

> <Gold.PLP.part.nonpolar>
-30.1231

> <Gold.PLP.part.repulsive>
0.4114

> <Gold.PLP.ligand.clash>
0.0000

> <Gold.PLP.ligand.torsion>
0.2753

> <Gold.PLP.Chemscore.Hbond>
1.1872

> <Gold.PLP.Chemscore.CHOScore>
1.5079

> <Gold.PLP.Chemscore.Metal>
0.0000

> <Gold.Chemscore.Hbonds>
donor molecule, donor type, donor heavy atom, donor atom, acceptor molecule, acceptor atom, score
      L1  H     9    30       P1  7948  1.00
      P1  H 10785 10796       L1     7  0.09
      L1  C     8    29       P1 10186  1.00

> <Gold.PLP.Chemscore.Internal.Correction>
0.0125

> <Gold.Rescore>
     Score         DG    S(hbond)    S(metal)    S(lipo)     H(rot)  DE(clash)    DE(int)     intcor
     12.36     -12.73       1.55        0.00      64.34       2.13       0.03       0.34       ----

> <Gold.Chemscore.Fitness>
12.3623

> <Gold.Chemscore.DG>
-12.7279

> <Gold.Chemscore.ZeroCoef>
-5.4800

> <Gold.Chemscore.Hbond>
1.5515

> <Gold.Chemscore.Metal>
0.0000

> <Gold.Chemscore.Lipo>
64.3437

> <Gold.Chemscore.Internal_Hbond>
0.0000

> <Gold.Chemscore.DEClash>
0.0297

> <Gold.Chemscore.DEInternal>
0.3358

> <Gold.Chemscore.Rot>
2.1338

> <Gold.Chemscore.Internal.Correction>
   9.000000E+99

> <Gold.Chemscore.Hbonds>
donor molecule, donor type, donor heavy atom, donor atom, acceptor molecule, acceptor atom, score
      L1  H     9    30       P1  7948  0.99
      P1  H 10785 10796       L1     7  0.09

> <Gold.Chemscore.Hbond.Weighted>
-5.1821

> <Gold.Chemscore.Metal.Weighted>
-0.0000

> <Gold.Chemscore.Lipo.Weighted>
-7.5282

> <Gold.Chemscore.Internal_Hbond.Weighted>
0.0000

> <Gold.Chemscore.DEClash.Weighted>
0.0297

> <Gold.Chemscore.DEInternal.Weighted>
0.3358

> <Gold.Chemscore.Rot.Weighted>
5.4625

> <Gold.Chemscore.Internal.Correction.Weighted>
   9.000000E+99

> <Gold.Protein.RotatedTorsions>
[ 6907 6896 6895 6894 ] final -115.72 input  -60.11 | X-H torsion
[ 7974 7965 7964 7962 ] final   92.51 input  175.53 | X-H torsion
[ 8008 7997 7996 7995 ] final   93.91 input   59.86 | X-H torsion
[ 10167 10162 10161 10158 ] final  -47.16 input  -65.29 | X-H torsion
[ 10718 10713 10712 10709 ] final   59.69 input   66.30 | X-H torsion
[ 10763 10752 10751 10750 ] final  167.60 input  -60.55 | X-H torsion
[ 11005 11000 10999 10996 ] final -113.88 input  -57.11 | X-H torsion

> <Gold.Protein.ActiveResidues>
 VAL166  LYS551  ARG553  GLY616  TRP617  ASP618  TYR619  PRO620  LYS621  CYS622 
 ASP623  PHE694  ASN695  SER759  ASP760  ASP761  ALA762  ILE779  LEU786  VAL792 
 PHE793  MET794  SER795  GLU796  ALA797  LYS798  CYS799  TRP800  GLU811  SER814 

> <Gold.Protein.RotatedAtoms>
  150.8000  133.8618  159.3233 H   0  0  0  0  0  0  0  0  0  0  0  0  # atno 6907 bound_to 6896
  151.6433  135.1008  160.0155 H   0  0  0  0  0  0  0  0  0  0  0  0  # atno 6908 bound_to 6896
  152.4086  133.6888  159.6413 H   0  0  0  0  0  0  0  0  0  0  0  0  # atno 6909 bound_to 6896
  145.4913  139.2276  143.2828 H   0  0  0  0  0  0  0  0  0  0  0  0  # atno 7974 bound_to 7965
  156.0520  140.3307  155.7362 H   0  0  0  0  0  0  0  0  0  0  0  0  # atno 8008 bound_to 7997
  155.5586  140.0617  157.2851 H   0  0  0  0  0  0  0  0  0  0  0  0  # atno 8009 bound_to 7997
  154.4440  140.1881  156.0748 H   0  0  0  0  0  0  0  0  0  0  0  0  # atno 8010 bound_to 7997
  140.6787  143.2797  151.3887 H   0  0  0  0  0  0  0  0  0  0  0  0  # atno 10167 bound_to 10162
  157.5695  130.8897  149.9244 H   0  0  0  0  0  0  0  0  0  0  0  0  # atno 10718 bound_to 10713
  154.3563  135.2753  155.2345 H   0  0  0  0  0  0  0  0  0  0  0  0  # atno 10763 bound_to 10752
  154.4552  135.5921  153.6222 H   0  0  0  0  0  0  0  0  0  0  0  0  # atno 10764 bound_to 10752
  152.9846  135.6051  154.3778 H   0  0  0  0  0  0  0  0  0  0  0  0  # atno 10765 bound_to 10752
  141.0587  133.9571  157.2707 H   0  0  0  0  0  0  0  0  0  0  0  0  # atno 11005 bound_to 11000
  146.2282  140.5707  142.8987 LP  0  0  0  0  0  0  0  0  0  0  0  0  # atno 17320 bound_to 7965
  144.7832  140.5883  143.6591 LP  0  0  0  0  0  0  0  0  0  0  0  0  # atno 17321 bound_to 7965
  139.6095  144.1128  152.2284 LP  0  0  0  0  0  0  0  0  0  0  0  0  # atno 17342 bound_to 10162
  140.0537  144.5912  150.7316 LP  0  0  0  0  0  0  0  0  0  0  0  0  # atno 17343 bound_to 10162
  156.0741  130.3681  150.0713 LP  0  0  0  0  0  0  0  0  0  0  0  0  # atno 17370 bound_to 10713
  156.8868  130.9575  151.3593 LP  0  0  0  0  0  0  0  0  0  0  0  0  # atno 17371 bound_to 10713
  139.9413  135.0190  156.8716 LP  0  0  0  0  0  0  0  0  0  0  0  0  # atno 17394 bound_to 11000
  140.5913  134.0259  155.7500 LP  0  0  0  0  0  0  0  0  0  0  0  0  # atno 17395 bound_to 11000

$$$$
