#       Name:                AV-unprocessed.smi:126
#       Creating user name   scv26
#       Creation time:       Thu Mar 26 18:28:56 2020


#       File generated by GOLD software.
#

@<TRIPOS>MOLECULE
AV-unprocessed.smi:126
    48    50     1
SMALL
NO_CHARGES


@<TRIPOS>ATOM
      1 ****        -1.2683  -0.7213   0.0245 O.2            1 S1                 0.0000
      2 ****        -0.6412  -1.7716  -0.1205 C.2            1 S1                 0.0000
      3 ****         0.8947  -1.7592  -0.1704 C.3            1 S1                 0.0000
      4 ****         1.4917  -0.5397   0.4173 N.am           1 S1                 0.0000
      5 ****         1.7108  -0.5025   1.8168 C.2            1 S1                 0.0000
      6 ****         1.4226  -1.4625   2.5333 O.2            1 S1                 0.0000
      7 ****         2.2860   0.7348   2.3322 C.2            1 S1                 0.0000
      8 ****         2.5357   0.8553   3.6472 F              1 S1                 0.0000
      9 ****         2.5744   1.7633   1.5085 C.2            1 S1                 0.0000
     10 ****         2.3452   1.7171   0.1449 N.am           1 S1                 0.0000
     11 ****         2.6721   2.8817  -0.7654 C.3            1 S1                 0.0000
     12 ****         1.3868   3.6182  -1.1857 C.3            1 S1                 0.0000
     13 ****         1.7184   5.0653  -0.8810 C.3            1 S1                 0.0000
     14 ****         2.6804   4.9262   0.2892 C.3            1 S1                 0.0000
     15 ****         3.4727   3.8069  -0.0858 O.3            1 S1                 0.0000
     16 ****         1.7929   0.5523  -0.4308 C.2            1 S1                 0.0000
     17 ****         1.5739   0.4958  -1.6429 O.2            1 S1                 0.0000
     18 ****        -1.2089  -2.9802  -0.2854 N.am           1 S1                 0.0000
     19 ****        -2.5878  -3.3226  -0.2565 C.ar           1 S1                 0.0000
     20 ****        -2.9788  -4.4939  -0.9389 C.ar           1 S1                 0.0000
     21 ****        -4.3250  -4.9074  -0.9351 C.ar           1 S1                 0.0000
     22 ****        -5.2901  -4.1578  -0.2367 C.ar           1 S1                 0.0000
     23 ****        -4.9066  -2.9976   0.4618 C.ar           1 S1                 0.0000
     24 ****        -3.5609  -2.5815   0.4577 C.ar           1 S1                 0.0000
     25 ****         1.2746  -2.6484   0.3361 H              1 S1                 0.0000
     26 ****         1.2022  -1.8957  -1.2082 H              1 S1                 0.0000
     27 ****         3.0006   2.6494   1.9530 H              1 S1                 0.0000
     28 ****         3.2382   2.4593  -1.5972 H              1 S1                 0.0000
     29 ****         1.1577   3.4388  -2.2365 H              1 S1                 0.0000
     30 ****         0.5447   3.2849  -0.5767 H              1 S1                 0.0000
     31 ****         2.2270   5.5217  -1.7312 H              1 S1                 0.0000
     32 ****         0.8396   5.6649  -0.6432 H              1 S1                 0.0000
     33 ****         3.2908   5.8161   0.4436 H              1 S1                 0.0000
     34 ****         2.1398   4.7137   1.2126 H              1 S1                 0.0000
     35 ****        -0.5789  -3.7376  -0.5062 H              1 S1                 0.0000
     36 ****        -2.2460  -5.0793  -1.4750 H              1 S1                 0.0000
     37 ****        -4.6166  -5.8012  -1.4664 H              1 S1                 0.0000
     38 ****        -6.3223  -4.4760  -0.2318 H              1 S1                 0.0000
     39 ****        -5.6446  -2.4279   1.0072 H              1 S1                 0.0000
     40 ****        -3.2956  -1.7007   1.0217 H              1 S1                 0.0000
     41 ****        -0.7780   0.1460   0.1105 LP             1 S1                 0.0000
     42 ****        -2.2677  -0.7360   0.0562 LP             1 S1                 0.0000
     43 ****         1.0265  -2.2870   2.1291 LP             1 S1                 0.0000
     44 ****         1.5847  -1.4172   3.5190 LP             1 S1                 0.0000
     45 ****         4.2156   4.1085  -0.6833 LP             1 S1                 0.0000
     46 ****         3.8560   3.3794   0.7329 LP             1 S1                 0.0000
     47 ****         1.1772  -0.3312  -2.0413 LP             1 S1                 0.0000
     48 ****         1.7929   1.2770  -2.2275 LP             1 S1                 0.0000
@<TRIPOS>BOND
    1    1    2 2     
    2    2    3 1     
    3    2   18 am    
    4    3    4 1     
    5    3   25 1     
    6    3   26 1     
    7    4   16 am    
    8    4    5 am    
    9    5    6 2     
   10    5    7 1     
   11    7    8 1     
   12    7    9 2     
   13    9   10 1     
   14    9   27 1     
   15   10   11 1     
   16   10   16 am    
   17   11   15 1     
   18   11   12 1     
   19   11   28 1     
   20   12   13 1     
   21   12   29 1     
   22   12   30 1     
   23   13   14 1     
   24   13   31 1     
   25   13   32 1     
   26   14   15 1     
   27   14   33 1     
   28   14   34 1     
   29   16   17 2     
   30   18   19 1     
   31   18   35 1     
   32   19   24 ar    
   33   19   20 ar    
   34   20   21 ar    
   35   20   36 1     
   36   21   22 ar    
   37   21   37 1     
   38   22   23 ar    
   39   22   38 1     
   40   23   24 ar    
   41   23   39 1     
   42   24   40 1     
   43    1   41 1     
   44    1   42 1     
   45    6   43 1     
   46    6   44 1     
   47   15   45 1     
   48   15   46 1     
   49   17   47 1     
   50   17   48 1     
@<TRIPOS>SUBSTRUCTURE
      1 S1             1
@<TRIPOS>SET
LONE_PAIRS      STATIC     ATOMS    <user>   **** ""
8 41 42 43 44 45 46 47 48
DONOR_HYDROGENS      STATIC     ATOMS    <user>   **** ""
1 35
ATOM$BLUE        STATIC     ATOMS    COLORGROUP SYSTEM
8 41 42 43 44 45 46 47 48
ATOM$RED        STATIC     ATOMS    COLORGROUP SYSTEM
1 35
