AV-unprocessed.smi:3088|AV-procd|sdf|11768|dock5
  -GOLD-   2272017153D 1   1.00000     0.00000
 Structure written by MMmdl.
 29 30  0  0  0  0  0  0  0  0  2 V2000
  148.6240  138.8786  152.9586 N   0  3  0  0  0  0  0  0  0  0  0  0
  149.5905  139.0504  154.0561 C   0  0  0  0  0  0  0  0  0  0  0  0
  149.5591  140.4812  154.6111 C   0  0  0  0  0  0  0  0  0  0  0  0
  150.4864  140.6586  155.7749 C   0  0  0  0  0  0  0  0  0  0  0  0
  151.3127  139.7087  156.3229 C   0  0  0  0  0  0  0  0  0  0  0  0
  152.2264  140.3374  157.6669 S   0  0  0  0  0  0  0  0  0  0  0  0
  151.4378  141.8941  157.4300 C   0  0  0  0  0  0  0  0  0  0  0  0
  151.7141  142.9932  158.2379 N   0  0  0  0  0  0  0  0  0  0  0  0
  152.3362  142.9725  159.5586 C   0  0  0  0  0  0  0  0  0  0  0  0
  152.1773  144.3619  160.1711 C   0  0  0  0  0  0  0  0  0  0  0  0
  152.1660  145.2546  158.9456 C   0  0  0  0  0  0  0  0  0  0  0  0
  151.4307  144.3905  157.9244 C   0  0  0  0  0  0  0  0  0  0  0  0
  150.5696  141.8991  156.4148 N   0  0  0  0  0  0  0  0  0  0  0  0
  148.6450  137.9207  152.6390 H   0  0  0  0  0  0  0  0  0  0  0  0
  148.8682  139.4926  152.1946 H   0  0  0  0  0  0  0  0  0  0  0  0
  149.3573  138.3333  154.8437 H   0  0  0  0  0  0  0  0  0  0  0  0
  150.5866  138.8077  153.6842 H   0  0  0  0  0  0  0  0  0  0  0  0
  149.8222  141.1850  153.8202 H   0  0  0  0  0  0  0  0  0  0  0  0
  148.5405  140.7335  154.9086 H   0  0  0  0  0  0  0  0  0  0  0  0
  151.4404  138.6798  156.0205 H   0  0  0  0  0  0  0  0  0  0  0  0
  151.8872  142.2091  160.1947 H   0  0  0  0  0  0  0  0  0  0  0  0
  153.3924  142.7277  159.4397 H   0  0  0  0  0  0  0  0  0  0  0  0
  151.2212  144.4334  160.6916 H   0  0  0  0  0  0  0  0  0  0  0  0
  152.9702  144.6097  160.8774 H   0  0  0  0  0  0  0  0  0  0  0  0
  151.6810  146.2157  159.1177 H   0  0  0  0  0  0  0  0  0  0  0  0
  153.1874  145.4419  158.6113 H   0  0  0  0  0  0  0  0  0  0  0  0
  151.7351  144.6358  156.9064 H   0  0  0  0  0  0  0  0  0  0  0  0
  150.3542  144.5481  157.9969 H   0  0  0  0  0  0  0  0  0  0  0  0
  147.6956  139.1029  153.2871 H   0  0  0  0  0  0  0  0  0  0  0  0
  1  2  1  0  0  0  0
  1 14  1  0  0  0  0
  1 15  1  0  0  0  0
  1 29  1  0  0  0  0
  2  3  1  0  0  0  0
  2 16  1  0  0  0  0
  2 17  1  0  0  0  0
  3  4  1  0  0  0  0
  3 18  1  0  0  0  0
  3 19  1  0  0  0  0
  4 13  1  0  0  0  0
  4  5  2  0  0  0  0
  5  6  1  0  0  0  0
  5 20  1  0  0  0  0
  6  7  1  0  0  0  0
  7  8  1  0  0  0  0
  7 13  2  0  0  0  0
  8 12  1  0  0  0  0
  8  9  1  0  0  0  0
  9 10  1  0  0  0  0
  9 21  1  0  0  0  0
  9 22  1  0  0  0  0
 10 11  1  0  0  0  0
 10 23  1  0  0  0  0
 10 24  1  0  0  0  0
 11 12  1  0  0  0  0
 11 25  1  0  0  0  0
 11 26  1  0  0  0  0
 12 27  1  0  0  0  0
 12 28  1  0  0  0  0
M  CHG  1   1   1
M  END
> <s_m_source_file>
AV-unprocessed.smi

> <i_m_source_file_index>
3088

> <i_lp_mmshare_version>
43012

> <i_f3d_flags>
0

> <s_epik_input>
W05IMl1bQ0gyXVtDSDJdYzFbY0hdc2MobjEpTjJbQ0gyXVtDSDJdW0NIMl1bQ0gyXTI=

> <s_epik_cmdline>
J2VwaWtfcHl0aG9uJywgJy1waCcsICc3LjAnLCAnLXRuJywgJzgnLCAnLW1hJywgJzIwMCcsICctbWV0YWxfYmluZGluZycsICctaW1hZScsICc8aW5maWxlLm1hZT4nLCAnLW9tYWUnLCAnPG91dGZpbGUubWFlPic=

> <r_epik_Ionization_Penalty>
0.0059221

> <r_epik_Ionization_Penalty_Charging>
0.00199846

> <r_epik_Ionization_Penalty_Neutral>
0.00392364

> <r_epik_State_Penalty>
0.00774005

> <r_epik_Charging_Adjusted_Penalty>
0.00973852

> <i_epik_Tot_Q>
1

> <i_epik_Tot_abs_Q>
1

> <r_epik_Metal_State_Penalty>
7.11937e-06

> <b_epik_Metal_Only>
0

> <s_lp_Force_Field>
OPLS_2005

> <r_lp_Energy>
15.4389

> <b_lp_Chiralities_Consistent>
1

> <s_lp_Variant>
AV-unprocessed.smi:3088-1

> <Gold.Version>
5.8.1

> <Gold.Id.Protein>
6NUR|6NUR_protein|mol2

> <Gold.PLP.Fitness>
42.9014

> <Gold.PLP.PLP>
-34.2133

> <Gold.PLP.part.hbond>
-1.8800

> <Gold.PLP.part.metal>
0.0000

> <Gold.PLP.part.buried>
-3.8961

> <Gold.PLP.part.nonpolar>
-29.2960

> <Gold.PLP.part.repulsive>
0.1683

> <Gold.PLP.ligand.clash>
0.0000

> <Gold.PLP.ligand.torsion>
0.1567

> <Gold.PLP.Chemscore.Hbond>
3.0000

> <Gold.PLP.Chemscore.CHOScore>
0.0000

> <Gold.PLP.Chemscore.Metal>
0.0000

> <Gold.Chemscore.Hbonds>
donor molecule, donor type, donor heavy atom, donor atom, acceptor molecule, acceptor atom, score
      L1  H     1    14       P1  7948  2.00
      L1  H     1    15       P1  7957  0.62

> <Gold.PLP.Chemscore.Internal.Correction>
0.0015

> <Gold.Rescore>
     Score         DG    S(hbond)    S(metal)    S(lipo)     H(rot)  DE(clash)    DE(int)     intcor
     18.37     -18.52       1.99        0.00      83.50       1.32       0.03       0.12       ----

> <Gold.Chemscore.Fitness>
18.3728

> <Gold.Chemscore.DG>
-18.5249

> <Gold.Chemscore.ZeroCoef>
-5.4800

> <Gold.Chemscore.Hbond>
1.9897

> <Gold.Chemscore.Metal>
0.0000

> <Gold.Chemscore.Lipo>
83.4994

> <Gold.Chemscore.Internal_Hbond>
0.0000

> <Gold.Chemscore.DEClash>
0.0285

> <Gold.Chemscore.DEInternal>
0.1235

> <Gold.Chemscore.Rot>
1.3164

> <Gold.Chemscore.Internal.Correction>
   9.000000E+99

> <Gold.Chemscore.Hbonds>
donor molecule, donor type, donor heavy atom, donor atom, acceptor molecule, acceptor atom, score
      L1  H     1    14       P1  7948  1.00
      L1  H     1    15       P1  7957  0.60

> <Gold.Chemscore.Hbond.Weighted>
-6.6455

> <Gold.Chemscore.Metal.Weighted>
-0.0000

> <Gold.Chemscore.Lipo.Weighted>
-9.7694

> <Gold.Chemscore.Internal_Hbond.Weighted>
0.0000

> <Gold.Chemscore.DEClash.Weighted>
0.0285

> <Gold.Chemscore.DEInternal.Weighted>
0.1235

> <Gold.Chemscore.Rot.Weighted>
3.3700

> <Gold.Chemscore.Internal.Correction.Weighted>
   9.000000E+99

> <Gold.Protein.RotatedTorsions>
[ 6907 6896 6895 6894 ] final  -98.84 input  -60.11 | X-H torsion
[ 7974 7965 7964 7962 ] final  -93.61 input  175.53 | X-H torsion
[ 8008 7997 7996 7995 ] final   74.00 input   59.86 | X-H torsion
[ 10167 10162 10161 10158 ] final  123.85 input  -65.29 | X-H torsion
[ 10718 10713 10712 10709 ] final -134.68 input   66.30 | X-H torsion
[ 10763 10752 10751 10750 ] final  -87.30 input  -60.55 | X-H torsion
[ 11005 11000 10999 10996 ] final  -80.65 input  -57.11 | X-H torsion

> <Gold.Protein.ActiveResidues>
 VAL166  LYS551  ARG553  GLY616  TRP617  ASP618  TYR619  PRO620  LYS621  CYS622 
 ASP623  PHE694  ASN695  SER759  ASP760  ASP761  ALA762  ILE779  LEU786  VAL792 
 PHE793  MET794  SER795  GLU796  ALA797  LYS798  CYS799  TRP800  GLU811  SER814 

> <Gold.Protein.RotatedAtoms>
  150.7060  134.1133  159.4007 H   0  0  0  0  0  0  0  0  0  0  0  0  # atno 6907 bound_to 6896
  151.9120  135.0333  160.0524 H   0  0  0  0  0  0  0  0  0  0  0  0  # atno 6908 bound_to 6896
  152.2328  133.5036  159.5262 H   0  0  0  0  0  0  0  0  0  0  0  0  # atno 6909 bound_to 6896
  145.3843  140.9521  143.2376 H   0  0  0  0  0  0  0  0  0  0  0  0  # atno 7974 bound_to 7965
  155.7920  140.3479  155.5354 H   0  0  0  0  0  0  0  0  0  0  0  0  # atno 8008 bound_to 7997
  155.8624  140.0973  157.1625 H   0  0  0  0  0  0  0  0  0  0  0  0  # atno 8009 bound_to 7997
  154.4012  140.1356  156.3965 H   0  0  0  0  0  0  0  0  0  0  0  0  # atno 8010 bound_to 7997
  139.5776  144.6971  151.3613 H   0  0  0  0  0  0  0  0  0  0  0  0  # atno 10167 bound_to 10162
  156.2580  130.7193  151.1116 H   0  0  0  0  0  0  0  0  0  0  0  0  # atno 10718 bound_to 10713
  154.6321  135.5418  153.7692 H   0  0  0  0  0  0  0  0  0  0  0  0  # atno 10763 bound_to 10752
  153.0290  135.6438  154.1285 H   0  0  0  0  0  0  0  0  0  0  0  0  # atno 10764 bound_to 10752
  154.1215  135.2920  155.3187 H   0  0  0  0  0  0  0  0  0  0  0  0  # atno 10765 bound_to 10752
  141.1667  133.7160  156.8304 H   0  0  0  0  0  0  0  0  0  0  0  0  # atno 11005 bound_to 11000
  144.8485  139.5358  143.6867 LP  0  0  0  0  0  0  0  0  0  0  0  0  # atno 17320 bound_to 7965
  146.2827  139.6921  142.9217 LP  0  0  0  0  0  0  0  0  0  0  0  0  # atno 17321 bound_to 7965
  140.7057  143.7520  150.7478 LP  0  0  0  0  0  0  0  0  0  0  0  0  # atno 17342 bound_to 10162
  140.1044  143.4758  152.2407 LP  0  0  0  0  0  0  0  0  0  0  0  0  # atno 17343 bound_to 10162
  157.7240  131.0663  150.6014 LP  0  0  0  0  0  0  0  0  0  0  0  0  # atno 17370 bound_to 10713
  156.6099  130.4377  149.5863 LP  0  0  0  0  0  0  0  0  0  0  0  0  # atno 17371 bound_to 10713
  140.2055  134.8866  157.3216 LP  0  0  0  0  0  0  0  0  0  0  0  0  # atno 17394 bound_to 11000
  140.2142  134.4101  155.7597 LP  0  0  0  0  0  0  0  0  0  0  0  0  # atno 17395 bound_to 11000

$$$$
