AV-unprocessed.smi:56|AV-procd|sdf|580|dock1
  -GOLD-   2262016483D 1   1.00000     0.00000
 Structure written by MMmdl.
 23 24  0  0  0  0  0  0  0  0  2 V2000
  144.8340  134.5457  150.1834 O   0  0  0  0  0  0  0  0  0  0  0  0
  144.8961  133.1614  150.4830 C   0  0  2  0  0  0  0  0  0  0  0  0
  145.8996  132.9176  151.5725 C   0  0  0  0  0  0  0  0  0  0  0  0
  147.2319  133.2137  151.6749 C   0  0  0  0  0  0  0  0  0  0  0  0
  147.6064  132.7146  152.9558 C   0  0  0  0  0  0  0  0  0  0  0  0
  146.5974  132.1546  153.6021 N   0  0  0  0  0  0  0  0  0  0  0  0
  145.5633  132.2866  152.7512 N   0  0  0  0  0  0  0  0  0  0  0  0
  145.1442  132.3997  149.1754 C   0  0  0  0  0  0  0  0  0  0  0  0
  143.7679  132.3462  148.4977 C   0  0  0  0  0  0  0  0  0  0  0  0
  142.7652  132.5212  149.5686 N   0  3  0  0  0  0  0  0  0  0  0  0
  143.4817  132.6903  150.8473 C   0  0  0  0  0  0  0  0  0  0  0  0
  144.6396  131.9527  152.9876 H   0  0  0  0  0  0  0  0  0  0  0  0
  145.2223  134.6958  149.3354 H   0  0  0  0  0  0  0  0  0  0  0  0
  147.8527  133.7140  150.9467 H   0  0  0  0  0  0  0  0  0  0  0  0
  148.5758  132.7436  153.4313 H   0  0  0  0  0  0  0  0  0  0  0  0
  145.9207  132.8436  148.5510 H   0  0  0  0  0  0  0  0  0  0  0  0
  145.4499  131.3759  149.3961 H   0  0  0  0  0  0  0  0  0  0  0  0
  143.6589  133.1632  147.7838 H   0  0  0  0  0  0  0  0  0  0  0  0
  143.6136  131.4092  147.9618 H   0  0  0  0  0  0  0  0  0  0  0  0
  142.2300  133.3557  149.3756 H   0  0  0  0  0  0  0  0  0  0  0  0
  143.5284  131.7095  151.3232 H   0  0  0  0  0  0  0  0  0  0  0  0
  142.9592  133.3623  151.5294 H   0  0  0  0  0  0  0  0  0  0  0  0
  142.1458  131.7246  149.6174 H   0  0  0  0  0  0  0  0  0  0  0  0
  1  2  1  0  0  0  0
  1 13  1  0  0  0  0
  2 11  1  0  0  0  0
  2  3  1  0  0  0  0
  2  8  1  0  0  0  0
  3  7  1  0  0  0  0
  3  4  2  0  0  0  0
  4  5  1  0  0  0  0
  4 14  1  0  0  0  0
  5  6  2  0  0  0  0
  5 15  1  0  0  0  0
  6  7  1  0  0  0  0
  7 12  1  0  0  0  0
  8  9  1  0  0  0  0
  8 16  1  0  0  0  0
  8 17  1  0  0  0  0
  9 10  1  0  0  0  0
  9 18  1  0  0  0  0
  9 19  1  0  0  0  0
 10 11  1  0  0  0  0
 10 20  1  0  0  0  0
 10 23  1  0  0  0  0
 11 21  1  0  0  0  0
 11 22  1  0  0  0  0
M  CHG  1  10   1
M  END
> <s_m_source_file>
AV-unprocessed.smi

> <i_m_source_file_index>
56

> <i_lp_mmshare_version>
43012

> <i_f3d_flags>
0

> <s_epik_input>
W0NIMl0xW05IXVtDSDJdW0NIMl1bQ0BAXTEoW09IXSljMltjSF1bY0hdbltuSF0y

> <s_epik_cmdline>
J2VwaWtfcHl0aG9uJywgJy1waCcsICc3LjAnLCAnLXRuJywgJzgnLCAnLW1hJywgJzIwMCcsICctbWV0YWxfYmluZGluZycsICctaW1hZScsICc8aW5maWxlLm1hZT4nLCAnLW9tYWUnLCAnPG91dGZpbGUubWFlPic=

> <r_lp_tautomer_probability>
0.5

> <r_epik_Ionization_Penalty>
0.00599842

> <r_epik_Ionization_Penalty_Charging>
0.00599115

> <r_epik_Ionization_Penalty_Neutral>
7.26593e-06

> <r_epik_State_Penalty>
0.41068

> <r_epik_Charging_Adjusted_Penalty>
0.416671

> <i_epik_Tot_Q>
1

> <i_epik_Tot_abs_Q>
1

> <r_epik_Metal_State_Penalty>
0.410678

> <b_epik_Metal_Only>
0

> <s_lp_Force_Field>
OPLS_2005

> <r_lp_Energy>
26.3948

> <b_lp_Chiralities_Consistent>
1

> <s_lp_Variant>
AV-unprocessed.smi:56-4

> <Gold.Version>
5.8.1

> <Gold.Id.Protein>
6NUR|6NUR_protein|mol2

> <Gold.PLP.Fitness>
34.4892

> <Gold.PLP.PLP>
-22.5703

> <Gold.PLP.part.hbond>
-3.0000

> <Gold.PLP.part.metal>
0.0000

> <Gold.PLP.part.buried>
-1.4868

> <Gold.PLP.part.nonpolar>
-17.9007

> <Gold.PLP.part.repulsive>
0.2372

> <Gold.PLP.ligand.clash>
0.0000

> <Gold.PLP.ligand.torsion>
0.0479

> <Gold.PLP.Chemscore.Hbond>
4.0000

> <Gold.PLP.Chemscore.CHOScore>
0.0000

> <Gold.PLP.Chemscore.Metal>
0.0000

> <Gold.Chemscore.Hbonds>
donor molecule, donor type, donor heavy atom, donor atom, acceptor molecule, acceptor atom, score
      L1  H     1    13       P1  7921  1.00
      L1  H    10    20       P1 10186  2.00
      L1  H    10    23       P1 10952  1.00

> <Gold.PLP.Chemscore.Internal.Correction>
0.0148

> <Gold.Rescore>
     Score         DG    S(hbond)    S(metal)    S(lipo)     H(rot)  DE(clash)    DE(int)     intcor
     18.49     -19.14       2.97        0.00      64.64       1.50       0.46       0.19       ----

> <Gold.Chemscore.Fitness>
18.4942

> <Gold.Chemscore.DG>
-19.1360

> <Gold.Chemscore.ZeroCoef>
-5.4800

> <Gold.Chemscore.Hbond>
2.9728

> <Gold.Chemscore.Metal>
0.0000

> <Gold.Chemscore.Lipo>
64.6410

> <Gold.Chemscore.Internal_Hbond>
0.0000

> <Gold.Chemscore.DEClash>
0.4562

> <Gold.Chemscore.DEInternal>
0.1857

> <Gold.Chemscore.Rot>
1.4985

> <Gold.Chemscore.Internal.Correction>
   9.000000E+99

> <Gold.Chemscore.Hbonds>
donor molecule, donor type, donor heavy atom, donor atom, acceptor molecule, acceptor atom, score
      L1  H     1    13       P1  7921  0.99
      L1  H    10    20       P1 10186  0.98
      L1  H    10    23       P1 10952  1.00

> <Gold.Chemscore.Hbond.Weighted>
-9.9292

> <Gold.Chemscore.Metal.Weighted>
-0.0000

> <Gold.Chemscore.Lipo.Weighted>
-7.5630

> <Gold.Chemscore.Internal_Hbond.Weighted>
0.0000

> <Gold.Chemscore.DEClash.Weighted>
0.4562

> <Gold.Chemscore.DEInternal.Weighted>
0.1857

> <Gold.Chemscore.Rot.Weighted>
3.8362

> <Gold.Chemscore.Internal.Correction.Weighted>
   9.000000E+99

> <Gold.Protein.RotatedTorsions>
[ 6907 6896 6895 6894 ] final  -56.06 input  -60.11 | X-H torsion
[ 7974 7965 7964 7962 ] final  134.25 input  175.53 | X-H torsion
[ 8008 7997 7996 7995 ] final -121.29 input   59.86 | X-H torsion
[ 10167 10162 10161 10158 ] final -124.35 input  -65.29 | X-H torsion
[ 10718 10713 10712 10709 ] final  154.74 input   66.30 | X-H torsion
[ 10763 10752 10751 10750 ] final -161.91 input  -60.55 | X-H torsion
[ 11005 11000 10999 10996 ] final   14.32 input  -57.11 | X-H torsion

> <Gold.Protein.ActiveResidues>
 VAL166  LYS551  ARG553  GLY616  TRP617  ASP618  TYR619  PRO620  LYS621  CYS622 
 ASP623  PHE694  ASN695  SER759  ASP760  ASP761  ALA762  ILE779  LEU786  VAL792 
 PHE793  MET794  SER795  GLU796  ALA797  LYS798  CYS799  TRP800  GLU811  SER814 

> <Gold.Protein.RotatedAtoms>
  150.8199  134.7402  159.6762 H   0  0  0  0  0  0  0  0  0  0  0  0  # atno 6907 bound_to 6896
  152.4316  134.5764  159.9945 H   0  0  0  0  0  0  0  0  0  0  0  0  # atno 6908 bound_to 6896
  151.5951  133.3325  159.3071 H   0  0  0  0  0  0  0  0  0  0  0  0  # atno 6909 bound_to 6896
  144.9782  139.4532  143.5399 H   0  0  0  0  0  0  0  0  0  0  0  0  # atno 7974 bound_to 7965
  155.1456  140.0403  157.2809 H   0  0  0  0  0  0  0  0  0  0  0  0  # atno 8008 bound_to 7997
  154.6441  140.2554  155.7261 H   0  0  0  0  0  0  0  0  0  0  0  0  # atno 8009 bound_to 7997
  156.2547  140.2849  156.0848 H   0  0  0  0  0  0  0  0  0  0  0  0  # atno 8010 bound_to 7997
  139.9937  143.5613  152.2331 H   0  0  0  0  0  0  0  0  0  0  0  0  # atno 10167 bound_to 10162
  157.2276  131.0732  151.1873 H   0  0  0  0  0  0  0  0  0  0  0  0  # atno 10718 bound_to 10713
  154.7262  135.3036  154.8968 H   0  0  0  0  0  0  0  0  0  0  0  0  # atno 10763 bound_to 10752
  153.9824  135.6728  153.4754 H   0  0  0  0  0  0  0  0  0  0  0  0  # atno 10764 bound_to 10752
  153.0877  135.4975  154.8548 H   0  0  0  0  0  0  0  0  0  0  0  0  # atno 10765 bound_to 10752
  140.4708  134.1033  155.7732 H   0  0  0  0  0  0  0  0  0  0  0  0  # atno 11005 bound_to 11000
  146.3401  139.9039  142.8790 LP  0  0  0  0  0  0  0  0  0  0  0  0  # atno 17320 bound_to 7965
  145.2459  141.0026  143.3909 LP  0  0  0  0  0  0  0  0  0  0  0  0  # atno 17321 bound_to 7965
  139.6321  144.7645  151.2514 LP  0  0  0  0  0  0  0  0  0  0  0  0  # atno 17342 bound_to 10162
  140.7445  143.6461  150.8291 LP  0  0  0  0  0  0  0  0  0  0  0  0  # atno 17343 bound_to 10162
  157.3512  130.7083  149.6441 LP  0  0  0  0  0  0  0  0  0  0  0  0  # atno 17370 bound_to 10713
  155.9677  130.4252  150.4643 LP  0  0  0  0  0  0  0  0  0  0  0  0  # atno 17371 bound_to 10713
  141.1578  133.8850  157.1931 LP  0  0  0  0  0  0  0  0  0  0  0  0  # atno 17394 bound_to 11000
  139.9886  135.0073  156.9922 LP  0  0  0  0  0  0  0  0  0  0  0  0  # atno 17395 bound_to 11000

$$$$
