AV-unprocessed.smi:609|AV-procd|sdf|3049|dock1
  -GOLD-   2262023573D 1   1.00000     0.00000
 Structure written by MMmdl.
 44 46  0  0  0  0  0  0  0  0  3 V2000
  153.0107  142.8931  161.6230 C   0  0  0  0  0  0  0  0  0  0  0  0
  152.4403  142.4727  160.2790 C   0  0  0  0  0  0  0  0  0  0  0  0
  152.6495  141.1448  159.8431 C   0  0  0  0  0  0  0  0  0  0  0  0
  152.1124  140.7898  158.6114 C   0  0  0  0  0  0  0  0  0  0  0  0
  152.1359  139.5781  157.9170 N   0  3  0  0  0  0  0  0  0  0  0  0
  151.4634  139.7154  156.7406 C   0  0  0  0  0  0  0  0  0  0  0  0
  151.0212  141.0006  156.6690 N   0  0  0  0  0  0  0  0  0  0  0  0
  150.2454  141.6773  155.6217 C   0  0  0  0  0  0  0  0  0  0  0  0
  149.2289  140.7535  154.9192 C   0  0  2  0  0  0  0  0  0  0  0  0
  149.9468  139.9140  154.0389 O   0  0  0  0  0  0  0  0  0  0  0  0
  148.1438  141.5101  154.1309 C   0  0  0  0  0  0  0  0  0  0  0  0
  147.0967  140.3898  153.1596 S   0  0  0  0  0  0  0  0  0  0  0  0
  146.8159  138.9934  154.2029 C   0  0  0  0  0  0  0  0  0  0  0  0
  147.2125  137.7478  153.9295 N   0  3  0  0  0  0  0  0  0  0  0  0
  146.8362  136.9071  154.9421 C   0  0  0  0  0  0  0  0  0  0  0  0
  146.1895  137.6813  155.8725 C   0  0  0  0  0  0  0  0  0  0  0  0
  146.1959  138.9669  155.3932 N   0  0  0  0  0  0  0  0  0  0  0  0
  145.6289  140.1444  156.0547 C   0  0  0  0  0  0  0  0  0  0  0  0
  151.3929  141.7047  157.8188 C   0  0  0  0  0  0  0  0  0  0  0  0
  151.1767  143.0163  158.2331 C   0  0  0  0  0  0  0  0  0  0  0  0
  151.7116  143.3960  159.4849 C   0  0  0  0  0  0  0  0  0  0  0  0
  151.4882  144.8197  159.9659 C   0  0  0  0  0  0  0  0  0  0  0  0
  153.5592  142.0783  162.0965 H   0  0  0  0  0  0  0  0  0  0  0  0
  152.2108  143.1937  162.3002 H   0  0  0  0  0  0  0  0  0  0  0  0
  153.6976  143.7312  161.5035 H   0  0  0  0  0  0  0  0  0  0  0  0
  153.2003  140.4359  160.4438 H   0  0  0  0  0  0  0  0  0  0  0  0
  151.3111  138.9451  155.9982 H   0  0  0  0  0  0  0  0  0  0  0  0
  149.7289  142.5148  156.0933 H   0  0  0  0  0  0  0  0  0  0  0  0
  150.9441  142.1090  154.9033 H   0  0  0  0  0  0  0  0  0  0  0  0
  148.7472  140.1182  155.6629 H   0  0  0  0  0  0  0  0  0  0  0  0
  149.5118  139.9146  153.1997 H   0  0  0  0  0  0  0  0  0  0  0  0
  147.4984  142.0596  154.8138 H   0  0  0  0  0  0  0  0  0  0  0  0
  148.5965  142.2436  153.4626 H   0  0  0  0  0  0  0  0  0  0  0  0
  147.0525  135.8487  154.9268 H   0  0  0  0  0  0  0  0  0  0  0  0
  145.7396  137.4182  156.8192 H   0  0  0  0  0  0  0  0  0  0  0  0
  145.5778  139.9643  157.1289 H   0  0  0  0  0  0  0  0  0  0  0  0
  144.6241  140.3219  155.6715 H   0  0  0  0  0  0  0  0  0  0  0  0
  146.2576  141.0163  155.8719 H   0  0  0  0  0  0  0  0  0  0  0  0
  150.6208  143.7179  157.6287 H   0  0  0  0  0  0  0  0  0  0  0  0
  150.8764  145.3869  159.2637 H   0  0  0  0  0  0  0  0  0  0  0  0
  152.4400  145.3399  160.0757 H   0  0  0  0  0  0  0  0  0  0  0  0
  150.9771  144.8239  160.9289 H   0  0  0  0  0  0  0  0  0  0  0  0
  147.7145  137.4709  153.0951 H   0  0  0  0  0  0  0  0  0  0  0  0
  152.5709  138.7177  158.2248 H   0  0  0  0  0  0  0  0  0  0  0  0
  1  2  1  0  0  0  0
  1 23  1  0  0  0  0
  1 24  1  0  0  0  0
  1 25  1  0  0  0  0
  2 21  1  0  0  0  0
  2  3  2  0  0  0  0
  3  4  1  0  0  0  0
  3 26  1  0  0  0  0
  4 19  2  0  0  0  0
  4  5  1  0  0  0  0
  5  6  2  0  0  0  0
  5 44  1  0  0  0  0
  6  7  1  0  0  0  0
  6 27  1  0  0  0  0
  7  8  1  0  0  0  0
  7 19  1  0  0  0  0
  8  9  1  0  0  0  0
  8 28  1  0  0  0  0
  8 29  1  0  0  0  0
  9 10  1  0  0  0  0
  9 11  1  0  0  0  0
  9 30  1  0  0  0  0
 10 31  1  0  0  0  0
 11 12  1  0  0  0  0
 11 32  1  0  0  0  0
 11 33  1  0  0  0  0
 12 13  1  0  0  0  0
 13 17  1  0  0  0  0
 13 14  2  0  0  0  0
 14 15  1  0  0  0  0
 14 43  1  0  0  0  0
 15 16  2  0  0  0  0
 15 34  1  0  0  0  0
 16 17  1  0  0  0  0
 16 35  1  0  0  0  0
 17 18  1  0  0  0  0
 18 36  1  0  0  0  0
 18 37  1  0  0  0  0
 18 38  1  0  0  0  0
 19 20  1  0  0  0  0
 20 21  2  0  0  0  0
 20 39  1  0  0  0  0
 21 22  1  0  0  0  0
 22 40  1  0  0  0  0
 22 41  1  0  0  0  0
 22 42  1  0  0  0  0
M  CHG  1   5   1
M  CHG  1  14   1
M  END
> <s_m_source_file>
AV-unprocessed.smi

> <i_m_source_file_index>
609

> <i_lp_mmshare_version>
43012

> <i_f3d_flags>
0

> <s_epik_input>
W0NIM11jKFtjSF0xKWMoW0NIM10pW2NIXWMoYzEyKW4oW2NIXW4yKVtDSDJdW0NASF0oW09IXSlbQ0gyXVNjM25bY0hdW2NIXW4zW0NIM10=

> <s_epik_cmdline>
J2VwaWtfcHl0aG9uJywgJy1waCcsICc3LjAnLCAnLXRuJywgJzgnLCAnLW1hJywgJzIwMCcsICctbWV0YWxfYmluZGluZycsICctaW1hZScsICc8aW5maWxlLm1hZT4nLCAnLW9tYWUnLCAnPG91dGZpbGUubWFlPic=

> <r_lp_tautomer_probability>
1

> <r_epik_Ionization_Penalty>
1.19058

> <r_epik_Ionization_Penalty_Charging>
1.07615

> <r_epik_Ionization_Penalty_Neutral>
0.114429

> <r_epik_State_Penalty>
1.23473

> <r_epik_Charging_Adjusted_Penalty>
2.31088

> <i_epik_Tot_Q>
2

> <i_epik_Tot_abs_Q>
2

> <r_epik_Metal_State_Penalty>
4.63867

> <b_epik_Metal_Only>
0

> <s_lp_Force_Field>
OPLS_2005

> <r_lp_Energy>
20.2349

> <b_lp_Chiralities_Consistent>
1

> <s_lp_Variant>
AV-unprocessed.smi:609-5

> <Gold.Version>
5.8.1

> <Gold.Id.Protein>
6NUR|6NUR_protein|mol2

> <Gold.PLP.Fitness>
53.8419

> <Gold.PLP.PLP>
-43.3305

> <Gold.PLP.part.hbond>
-3.0000

> <Gold.PLP.part.metal>
0.0000

> <Gold.PLP.part.buried>
-4.9536

> <Gold.PLP.part.nonpolar>
-34.9019

> <Gold.PLP.part.repulsive>
0.0901

> <Gold.PLP.ligand.clash>
0.0000

> <Gold.PLP.ligand.torsion>
0.6045

> <Gold.PLP.Chemscore.Hbond>
3.8800

> <Gold.PLP.Chemscore.CHOScore>
0.0000

> <Gold.PLP.Chemscore.Metal>
0.0000

> <Gold.Chemscore.Hbonds>
donor molecule, donor type, donor heavy atom, donor atom, acceptor molecule, acceptor atom, score
      L1  H    10    31       P1  7957  0.95
      L1  H    14    43       P1  7948  1.46
      P1  H  7989  7998       L1    10  0.79

> <Gold.PLP.Chemscore.Internal.Correction>
0.0804

> <Gold.Rescore>
     Score         DG    S(hbond)    S(metal)    S(lipo)     H(rot)  DE(clash)    DE(int)     intcor
     19.01     -19.71       2.43        0.00     108.83       2.59       0.09       0.61       ----

> <Gold.Chemscore.Fitness>
19.0118

> <Gold.Chemscore.DG>
-19.7054

> <Gold.Chemscore.ZeroCoef>
-5.4800

> <Gold.Chemscore.Hbond>
2.4292

> <Gold.Chemscore.Metal>
0.0000

> <Gold.Chemscore.Lipo>
108.8277

> <Gold.Chemscore.Internal_Hbond>
0.0000

> <Gold.Chemscore.DEClash>
0.0872

> <Gold.Chemscore.DEInternal>
0.6063

> <Gold.Chemscore.Rot>
2.5863

> <Gold.Chemscore.Internal.Correction>
   9.000000E+99

> <Gold.Chemscore.Hbonds>
donor molecule, donor type, donor heavy atom, donor atom, acceptor molecule, acceptor atom, score
      L1  H    10    31       P1  7957  0.85
      L1  H    14    43       P1  7948  0.72
      P1  H  7989  7998       L1    10  0.08

> <Gold.Chemscore.Hbond.Weighted>
-8.1135

> <Gold.Chemscore.Metal.Weighted>
-0.0000

> <Gold.Chemscore.Lipo.Weighted>
-12.7328

> <Gold.Chemscore.Internal_Hbond.Weighted>
0.0000

> <Gold.Chemscore.DEClash.Weighted>
0.0872

> <Gold.Chemscore.DEInternal.Weighted>
0.6063

> <Gold.Chemscore.Rot.Weighted>
6.6210

> <Gold.Chemscore.Internal.Correction.Weighted>
   9.000000E+99

> <Gold.Protein.RotatedTorsions>
[ 6907 6896 6895 6894 ] final   -6.35 input  -60.11 | X-H torsion
[ 7974 7965 7964 7962 ] final -179.31 input  175.53 | X-H torsion
[ 8008 7997 7996 7995 ] final  -11.86 input   59.86 | X-H torsion
[ 10167 10162 10161 10158 ] final  -18.75 input  -65.29 | X-H torsion
[ 10718 10713 10712 10709 ] final  115.85 input   66.30 | X-H torsion
[ 10763 10752 10751 10750 ] final  113.58 input  -60.55 | X-H torsion
[ 11005 11000 10999 10996 ] final -133.67 input  -57.11 | X-H torsion

> <Gold.Protein.ActiveResidues>
 VAL166  LYS551  ARG553  GLY616  TRP617  ASP618  TYR619  PRO620  LYS621  CYS622 
 ASP623  PHE694  ASN695  SER759  ASP760  ASP761  ALA762  ILE779  LEU786  VAL792 
 PHE793  MET794  SER795  GLU796  ALA797  LYS798  CYS799  TRP800  GLU811  SER814 

> <Gold.Protein.RotatedAtoms>
  151.4669  135.1043  159.9740 H   0  0  0  0  0  0  0  0  0  0  0  0  # atno 6907 bound_to 6896
  152.4831  133.8301  159.7109 H   0  0  0  0  0  0  0  0  0  0  0  0  # atno 6908 bound_to 6896
  150.8919  133.7171  159.2929 H   0  0  0  0  0  0  0  0  0  0  0  0  # atno 6909 bound_to 6896
  144.7136  140.0736  143.6428 H   0  0  0  0  0  0  0  0  0  0  0  0  # atno 7974 bound_to 7965
  154.5428  140.2291  155.8613 H   0  0  0  0  0  0  0  0  0  0  0  0  # atno 8008 bound_to 7997
  156.1874  140.3085  155.9227 H   0  0  0  0  0  0  0  0  0  0  0  0  # atno 8009 bound_to 7997
  155.3225  140.0441  157.3030 H   0  0  0  0  0  0  0  0  0  0  0  0  # atno 8010 bound_to 7997
  140.7262  143.4886  151.0022 H   0  0  0  0  0  0  0  0  0  0  0  0  # atno 10167 bound_to 10162
  157.6196  131.1018  150.7389 H   0  0  0  0  0  0  0  0  0  0  0  0  # atno 10718 bound_to 10713
  153.4946  135.3651  155.2509 H   0  0  0  0  0  0  0  0  0  0  0  0  # atno 10763 bound_to 10752
  154.8750  135.3985  154.3548 H   0  0  0  0  0  0  0  0  0  0  0  0  # atno 10764 bound_to 10752
  153.4174  135.7079  153.6383 H   0  0  0  0  0  0  0  0  0  0  0  0  # atno 10765 bound_to 10752
  140.9060  134.1629  157.4425 H   0  0  0  0  0  0  0  0  0  0  0  0  # atno 11005 bound_to 11000
  145.9762  139.2906  143.1069 LP  0  0  0  0  0  0  0  0  0  0  0  0  # atno 17320 bound_to 7965
  145.9062  140.9210  143.0477 LP  0  0  0  0  0  0  0  0  0  0  0  0  # atno 17321 bound_to 7965
  139.8588  143.7341  152.3174 LP  0  0  0  0  0  0  0  0  0  0  0  0  # atno 17342 bound_to 10162
  139.7549  144.7523  151.0450 LP  0  0  0  0  0  0  0  0  0  0  0  0  # atno 17343 bound_to 10162
  156.7749  130.4841  149.5411 LP  0  0  0  0  0  0  0  0  0  0  0  0  # atno 17370 bound_to 10713
  156.1335  130.6195  151.0367 LP  0  0  0  0  0  0  0  0  0  0  0  0  # atno 17371 bound_to 10713
  139.8749  134.9917  156.5561 LP  0  0  0  0  0  0  0  0  0  0  0  0  # atno 17394 bound_to 11000
  140.8170  133.8383  155.8861 LP  0  0  0  0  0  0  0  0  0  0  0  0  # atno 17395 bound_to 11000

$$$$
