#       Name:                AV-unprocessed.smi:439
#       Creating user name   scv26
#       Creation time:       Thu Mar 26 22:56:31 2020


#       File generated by GOLD software.
#

@<TRIPOS>MOLECULE
AV-unprocessed.smi:439
    56    57     1
SMALL
NO_CHARGES


@<TRIPOS>ATOM
      1 ****        -4.9307   1.7864   0.0424 C.3            1 S1                 0.0000
      2 ****        -4.2896   2.2257  -1.2807 C.3            1 S1                 0.0000
      3 ****        -2.7590   2.0898  -1.3001 C.3            1 S1                 0.0000
      4 ****        -2.2739   0.6287  -1.2925 C.3            1 S1                 0.0000
      5 ****        -0.8284   0.5231  -1.3094 N.am           1 S1                 0.0000
      6 ****        -0.0419   0.4933  -0.1536 C.2            1 S1                 0.0000
      7 ****        -0.6872   0.5752   1.0702 N.pl3          1 S1                 0.0000
      8 ****         1.3184   0.3701  -0.2118 C.2            1 S1                 0.0000
      9 ****         2.1195   0.3642   0.9521 N.am           1 S1                 0.0000
     10 ****         2.3329   1.6777   1.5878 C.3            1 S1                 0.0000
     11 ****         1.8264   1.7486   3.0402 C.3            1 S1                 0.0000
     12 ****         2.8330  -0.7235   1.3732 C.2            1 S1                 0.0000
     13 ****         3.7644  -0.6021   2.1720 O.2            1 S1                 0.0000
     14 ****         2.4190  -2.0325   0.8569 C.2            1 S1                 0.0000
     15 ****         3.3444  -3.0147   0.7588 C.2            1 S1                 0.0000
     16 ****         3.0636  -4.2924   0.3438 O.3            1 S1                 0.0000
     17 ****         1.6775  -4.6004   0.2598 C.3            1 S1                 0.0000
     18 ****         0.8980  -3.4112  -0.3177 C.3            1 S1                 0.0000
     19 ****         1.1126  -2.2561   0.4834 O.3            1 S1                 0.0000
     20 ****         2.0045   0.3123  -1.5120 C.2            1 S1                 0.0000
     21 ****         3.2201   0.2246  -1.6807 O.2            1 S1                 0.0000
     22 ****         1.1669   0.3749  -2.6220 N.am           1 S1                 0.0000
     23 ****        -0.2180   0.4851  -2.5856 C.2            1 S1                 0.0000
     24 ****        -0.8456   0.5487  -3.6432 O.2            1 S1                 0.0000
     25 ****         1.6038   0.3461  -3.5319 H              1 S1                 0.0000
     26 ****        -6.0069   1.9596   0.0257 H              1 S1                 0.0000
     27 ****        -4.5183   2.3433   0.8840 H              1 S1                 0.0000
     28 ****        -4.7745   0.7247   0.2321 H              1 S1                 0.0000
     29 ****        -4.7217   1.6594  -2.1064 H              1 S1                 0.0000
     30 ****        -4.5495   3.2693  -1.4610 H              1 S1                 0.0000
     31 ****        -2.3791   2.5863  -2.1938 H              1 S1                 0.0000
     32 ****        -2.3338   2.6286  -0.4527 H              1 S1                 0.0000
     33 ****        -2.6155   0.0902  -0.4098 H              1 S1                 0.0000
     34 ****        -2.6699   0.0601  -2.1356 H              1 S1                 0.0000
     35 ****        -1.6919   0.6540   1.1366 H              1 S1                 0.0000
     36 ****        -0.1786   0.5738   1.9428 H              1 S1                 0.0000
     37 ****         3.3943   1.9292   1.5551 H              1 S1                 0.0000
     38 ****         1.8354   2.4570   1.0079 H              1 S1                 0.0000
     39 ****         1.9818   2.7476   3.4479 H              1 S1                 0.0000
     40 ****         2.3510   1.0493   3.6910 H              1 S1                 0.0000
     41 ****         0.7616   1.5321   3.1098 H              1 S1                 0.0000
     42 ****         4.3860  -2.9065   1.0262 H              1 S1                 0.0000
     43 ****         1.5454  -5.4835  -0.3652 H              1 S1                 0.0000
     44 ****         1.3059  -4.8510   1.2542 H              1 S1                 0.0000
     45 ****         1.2144  -3.2034  -1.3410 H              1 S1                 0.0000
     46 ****        -0.1692  -3.6309  -0.3489 H              1 S1                 0.0000
     47 ****         4.0082   0.3023   2.5221 LP             1 S1                 0.0000
     48 ****         4.2761  -1.4081   2.4697 LP             1 S1                 0.0000
     49 ****         3.4854  -4.9291   0.9894 LP             1 S1                 0.0000
     50 ****         3.4665  -4.4209  -0.5624 LP             1 S1                 0.0000
     51 ****         0.7984  -1.4595  -0.0330 LP             1 S1                 0.0000
     52 ****         0.5656  -2.3512   1.3151 LP             1 S1                 0.0000
     53 ****         3.8330   0.1864  -0.8914 LP             1 S1                 0.0000
     54 ****         3.5953   0.1915  -2.6071 LP             1 S1                 0.0000
     55 ****        -1.8420   0.6321  -3.6291 LP             1 S1                 0.0000
     56 ****        -0.3588   0.5169  -4.5162 LP             1 S1                 0.0000
@<TRIPOS>BOND
    1    1    2 1     
    2    1   26 1     
    3    1   27 1     
    4    1   28 1     
    5    2    3 1     
    6    2   29 1     
    7    2   30 1     
    8    3    4 1     
    9    3   31 1     
   10    3   32 1     
   11    4    5 1     
   12    4   33 1     
   13    4   34 1     
   14    5   23 1     
   15    5    6 1     
   16    6    7 1     
   17    6    8 2     
   18    7   35 1     
   19    7   36 1     
   20    8    9 1     
   21    8   20 1     
   22    9   10 1     
   23    9   12 am    
   24   10   11 1     
   25   10   37 1     
   26   10   38 1     
   27   11   39 1     
   28   11   40 1     
   29   11   41 1     
   30   12   13 2     
   31   12   14 1     
   32   14   19 1     
   33   14   15 2     
   34   15   16 1     
   35   15   42 1     
   36   16   17 1     
   37   17   18 1     
   38   17   43 1     
   39   17   44 1     
   40   18   19 1     
   41   18   45 1     
   42   18   46 1     
   43   20   21 2     
   44   20   22 1     
   45   22   25 1     
   46   22   23 1     
   47   23   24 2     
   48   13   47 1     
   49   13   48 1     
   50   16   49 1     
   51   16   50 1     
   52   19   51 1     
   53   19   52 1     
   54   21   53 1     
   55   21   54 1     
   56   24   55 1     
   57   24   56 1     
@<TRIPOS>SUBSTRUCTURE
      1 S1             1
@<TRIPOS>SET
LONE_PAIRS      STATIC     ATOMS    <user>   **** ""
10 47 48 49 50 51 52 53 54 55 56
DONOR_HYDROGENS      STATIC     ATOMS    <user>   **** ""
3 35 36 25
ATOM$BLUE        STATIC     ATOMS    COLORGROUP SYSTEM
10 47 48 49 50 51 52 53 54 55 56
ATOM$RED        STATIC     ATOMS    COLORGROUP SYSTEM
3 35 36 25
