#       Name:                AV-unprocessed.smi:159
#       Creating user name   scv26
#       Creation time:       Thu Mar 26 19:03:51 2020


#       File generated by GOLD software.
#

@<TRIPOS>MOLECULE
AV-unprocessed.smi:159
    35    36     1
SMALL
NO_CHARGES


@<TRIPOS>ATOM
      1 ****        -4.8442  -0.4961   0.0572 N.pl3          1 S1                 0.0000
      2 ****        -3.5110  -0.6106  -0.0179 C.2            1 S1                 0.0000
      3 ****        -2.7207   0.4425  -0.6130 C.2            1 S1                 0.0000
      4 ****        -1.3827   0.2566  -0.6497 C.2            1 S1                 0.0000
      5 ****        -0.7784  -0.8838  -0.1335 N.am           1 S1                 0.0000
      6 ****         0.7217  -1.1062  -0.1848 C.3            1 S1                 0.0000
      7 ****         1.3346  -1.0482   1.2277 C.3            1 S1                 0.0000
      8 ****         2.4376  -0.0205   1.0688 C.3            1 S1                 0.0000
      9 ****         1.8835   0.8758  -0.0330 C.3            1 S1                 0.0000
     10 ****         2.9557   1.7124  -0.7443 C.3            1 S1                 0.0000
     11 ****         2.3469   2.7673  -1.4577 O.3            1 S1                 0.0000
     12 ****         1.3326  -0.0876  -0.9234 O.3            1 S1                 0.0000
     13 ****        -1.5837  -1.9045   0.4278 C.2            1 S1                 0.0000
     14 ****        -1.0944  -2.9413   0.8750 O.2            1 S1                 0.0000
     15 ****        -2.9367  -1.6983   0.4574 N.2            1 S1                 0.0000
     16 ****         0.8599  -2.0606  -0.6963 H              1 S1                 0.0000
     17 ****         1.0976   1.5113   0.3801 H              1 S1                 0.0000
     18 ****        -5.3945  -1.2342   0.4721 H              1 S1                 0.0000
     19 ****        -5.2968   0.3318  -0.3023 H              1 S1                 0.0000
     20 ****        -3.1477   1.3486  -1.0185 H              1 S1                 0.0000
     21 ****        -0.7937   1.0410  -1.1004 H              1 S1                 0.0000
     22 ****         0.5938  -0.7023   1.9504 H              1 S1                 0.0000
     23 ****         1.7021  -2.0272   1.5363 H              1 S1                 0.0000
     24 ****         2.6510   0.5201   1.9914 H              1 S1                 0.0000
     25 ****         3.3556  -0.5082   0.7373 H              1 S1                 0.0000
     26 ****         3.6305   2.1577  -0.0128 H              1 S1                 0.0000
     27 ****         3.5597   1.0985  -1.4131 H              1 S1                 0.0000
     28 ****         3.0229   3.2727  -1.8826 H              1 S1                 0.0000
     29 ****         1.8364   3.3509  -0.8261 LP             1 S1                 0.0000
     30 ****         1.7232   2.3939  -2.1445 LP             1 S1                 0.0000
     31 ****         0.6534   0.3515  -1.5116 LP             1 S1                 0.0000
     32 ****         2.0613  -0.4756  -1.4878 LP             1 S1                 0.0000
     33 ****        -0.1044  -3.0793   0.8475 LP             1 S1                 0.0000
     34 ****        -1.6869  -3.6457   1.2658 LP             1 S1                 0.0000
     35 ****        -3.5175  -2.4066   0.8587 LP             1 S1                 0.0000
@<TRIPOS>BOND
    1    1    2 1     
    2    1   18 1     
    3    1   19 1     
    4    2   15 2     
    5    2    3 1     
    6    3    4 2     
    7    3   20 1     
    8    4    5 1     
    9    4   21 1     
   10    5    6 1     
   11    5   13 am    
   12    6   16 1     
   13    6   12 1     
   14    6    7 1     
   15    7    8 1     
   16    7   22 1     
   17    7   23 1     
   18    8    9 1     
   19    8   24 1     
   20    8   25 1     
   21    9   17 1     
   22    9   10 1     
   23    9   12 1     
   24   10   11 1     
   25   10   26 1     
   26   10   27 1     
   27   11   28 1     
   28   13   14 2     
   29   13   15 1     
   30   11   29 1     
   31   11   30 1     
   32   12   31 1     
   33   12   32 1     
   34   14   33 1     
   35   14   34 1     
   36   15   35 1     
@<TRIPOS>SUBSTRUCTURE
      1 S1             1
@<TRIPOS>SET
LONE_PAIRS      STATIC     ATOMS    <user>   **** ""
7 29 30 31 32 33 34 35
DONOR_HYDROGENS      STATIC     ATOMS    <user>   **** ""
3 18 19 28
ATOM$BLUE        STATIC     ATOMS    COLORGROUP SYSTEM
7 29 30 31 32 33 34 35
ATOM$RED        STATIC     ATOMS    COLORGROUP SYSTEM
3 18 19 28
