AV-unprocessed.smi:2439|AV-procd|sdf|9608|dock5
  -GOLD-   2272013243D 1   1.00000     0.00000
 Structure written by MMmdl.
 41 43  0  0  0  0  0  0  0  0  2 V2000
  154.0262  139.3367  158.4885 N   0  0  0  0  0  0  0  0  0  0  0  0
  153.6993  140.1702  159.2211 C   0  0  0  0  0  0  0  0  0  0  0  0
  153.2883  141.2203  160.1451 C   0  0  0  0  0  0  0  0  0  0  0  0
  153.9267  141.3132  161.3997 C   0  0  0  0  0  0  0  0  0  0  0  0
  153.5330  142.3231  162.2965 C   0  0  0  0  0  0  0  0  0  0  0  0
  152.5118  143.2049  161.8996 C   0  0  0  0  0  0  0  0  0  0  0  0
  151.8927  143.1269  160.7031 N   0  0  0  0  0  0  0  0  0  0  0  0
  152.2657  142.1563  159.8328 C   0  0  0  0  0  0  0  0  0  0  0  0
  151.6039  142.1009  158.5916 N   0  0  0  0  0  0  0  0  0  0  0  0
  150.1786  142.3796  158.4596 C   0  0  0  0  0  0  0  0  0  0  0  0
  149.5332  141.6098  157.2943 C   0  0  1  0  0  0  0  0  0  0  0  0
  148.0222  141.9122  157.1883 C   0  0  0  0  0  0  0  0  0  0  0  0
  147.4193  141.2713  155.9944 N   0  3  2  0  0  0  0  0  0  0  0  0
  147.1783  139.8121  156.1631 C   0  0  0  0  0  0  0  0  0  0  0  0
  146.4885  139.2144  154.9282 C   0  0  0  0  0  0  0  0  0  0  0  0
  147.3179  139.4764  153.6663 C   0  0  0  0  0  0  0  0  0  0  0  0
  147.5586  140.9835  153.5044 C   0  0  0  0  0  0  0  0  0  0  0  0
  148.1808  141.6237  154.7638 C   0  0  2  0  0  0  0  0  0  0  0  0
  149.6822  141.3174  154.9455 C   0  0  0  0  0  0  0  0  0  0  0  0
  150.1680  142.0173  156.0855 O   0  0  0  0  0  0  0  0  0  0  0  0
  154.7094  140.6214  161.6764 H   0  0  0  0  0  0  0  0  0  0  0  0
  154.0035  142.4197  163.2638 H   0  0  0  0  0  0  0  0  0  0  0  0
  152.1820  143.9933  162.5598 H   0  0  0  0  0  0  0  0  0  0  0  0
  152.1058  141.7739  157.7780 H   0  0  0  0  0  0  0  0  0  0  0  0
  149.6761  142.1403  159.3976 H   0  0  0  0  0  0  0  0  0  0  0  0
  150.0481  143.4522  158.3139 H   0  0  0  0  0  0  0  0  0  0  0  0
  149.6843  140.5399  157.4411 H   0  0  0  0  0  0  0  0  0  0  0  0
  147.4988  141.5924  158.0903 H   0  0  0  0  0  0  0  0  0  0  0  0
  147.8707  142.9897  157.1096 H   0  0  0  0  0  0  0  0  0  0  0  0
  148.1147  139.2856  156.3466 H   0  0  0  0  0  0  0  0  0  0  0  0
  146.5520  139.6501  157.0410 H   0  0  0  0  0  0  0  0  0  0  0  0
  146.3451  138.1419  155.0639 H   0  0  0  0  0  0  0  0  0  0  0  0
  145.4942  139.6482  154.8144 H   0  0  0  0  0  0  0  0  0  0  0  0
  148.2696  138.9477  153.7292 H   0  0  0  0  0  0  0  0  0  0  0  0
  146.8015  139.0834  152.7899 H   0  0  0  0  0  0  0  0  0  0  0  0
  148.1877  141.1719  152.6338 H   0  0  0  0  0  0  0  0  0  0  0  0
  146.6039  141.4690  153.2964 H   0  0  0  0  0  0  0  0  0  0  0  0
  148.0950  142.7047  154.6415 H   0  0  0  0  0  0  0  0  0  0  0  0
  149.8726  140.2485  155.0500 H   0  0  0  0  0  0  0  0  0  0  0  0
  150.2415  141.6521  154.0715 H   0  0  0  0  0  0  0  0  0  0  0  0
  146.5021  141.6806  155.8856 H   0  0  0  0  0  0  0  0  0  0  0  0
  1  2  3  0  0  0  0
  2  3  1  0  0  0  0
  3  8  1  0  0  0  0
  3  4  2  0  0  0  0
  4  5  1  0  0  0  0
  4 21  1  0  0  0  0
  5  6  2  0  0  0  0
  5 22  1  0  0  0  0
  6  7  1  0  0  0  0
  6 23  1  0  0  0  0
  7  8  2  0  0  0  0
  8  9  1  0  0  0  0
  9 10  1  0  0  0  0
  9 24  1  0  0  0  0
 10 11  1  0  0  0  0
 10 25  1  0  0  0  0
 10 26  1  0  0  0  0
 11 20  1  0  0  0  0
 11 12  1  0  0  0  0
 11 27  1  0  0  0  0
 12 13  1  0  0  0  0
 12 28  1  0  0  0  0
 12 29  1  0  0  0  0
 13 18  1  0  0  0  0
 13 14  1  0  0  0  0
 13 41  1  0  0  0  0
 14 15  1  0  0  0  0
 14 30  1  0  0  0  0
 14 31  1  0  0  0  0
 15 16  1  0  0  0  0
 15 32  1  0  0  0  0
 15 33  1  0  0  0  0
 16 17  1  0  0  0  0
 16 34  1  0  0  0  0
 16 35  1  0  0  0  0
 17 18  1  0  0  0  0
 17 36  1  0  0  0  0
 17 37  1  0  0  0  0
 18 19  1  0  0  0  0
 18 38  1  0  0  0  0
 19 20  1  0  0  0  0
 19 39  1  0  0  0  0
 19 40  1  0  0  0  0
M  CHG  1  13   1
M  END
> <s_m_source_file>
AV-unprocessed.smi

> <i_m_source_file_index>
2439

> <i_lp_mmshare_version>
43012

> <i_f3d_flags>
0

> <s_epik_input>
TiNDYzFbY0hdW2NIXVtjSF1uYzFbTkhdW0NIMl1bQ0BIXShbQ0gyXTIpT1tDSDJdW0NAQEhdKE4yMylbQ0gyXVtDSDJdW0NIMl1bQ0gyXTM=

> <s_epik_cmdline>
J2VwaWtfcHl0aG9uJywgJy1waCcsICc3LjAnLCAnLXRuJywgJzgnLCAnLW1hJywgJzIwMCcsICctbWV0YWxfYmluZGluZycsICctaW1hZScsICc8aW5maWxlLm1hZT4nLCAnLW9tYWUnLCAnPG91dGZpbGUubWFlPic=

> <r_epik_Ionization_Penalty>
0.0803594

> <r_epik_Ionization_Penalty_Charging>
0.0803403

> <r_epik_Ionization_Penalty_Neutral>
1.90988e-05

> <r_epik_State_Penalty>
0.0711481

> <r_epik_Charging_Adjusted_Penalty>
0.151488

> <i_epik_Tot_Q>
1

> <i_epik_Tot_abs_Q>
1

> <r_epik_Metal_State_Penalty>
0.0711482

> <b_epik_Metal_Only>
0

> <s_lp_Force_Field>
OPLS_2005

> <r_lp_Energy>
31.3602

> <b_lp_Chiralities_Consistent>
1

> <s_lp_Variant>
AV-unprocessed.smi:2439-6

> <Gold.Version>
5.8.1

> <Gold.Id.Protein>
6NUR|6NUR_protein|mol2

> <Gold.PLP.Fitness>
39.3432

> <Gold.PLP.PLP>
-37.2711

> <Gold.PLP.part.hbond>
-1.0823

> <Gold.PLP.part.metal>
0.0000

> <Gold.PLP.part.buried>
-4.4660

> <Gold.PLP.part.nonpolar>
-31.2985

> <Gold.PLP.part.repulsive>
0.8796

> <Gold.PLP.ligand.clash>
0.0000

> <Gold.PLP.ligand.torsion>
0.4645

> <Gold.PLP.Chemscore.Hbond>
1.0000

> <Gold.PLP.Chemscore.CHOScore>
0.0000

> <Gold.PLP.Chemscore.Metal>
0.0000

> <Gold.Chemscore.Hbonds>
donor molecule, donor type, donor heavy atom, donor atom, acceptor molecule, acceptor atom, score
      P1  H  7997  8009       L1     1  1.00

> <Gold.PLP.Chemscore.Internal.Correction>
0.0012

> <Gold.Rescore>
     Score         DG    S(hbond)    S(metal)    S(lipo)     H(rot)  DE(clash)    DE(int)     intcor
     14.66     -15.36       0.98        0.00      84.28       1.27       0.28       0.43       ----

> <Gold.Chemscore.Fitness>
14.6550

> <Gold.Chemscore.DG>
-15.3615

> <Gold.Chemscore.ZeroCoef>
-5.4800

> <Gold.Chemscore.Hbond>
0.9764

> <Gold.Chemscore.Metal>
0.0000

> <Gold.Chemscore.Lipo>
84.2832

> <Gold.Chemscore.Internal_Hbond>
0.0000

> <Gold.Chemscore.DEClash>
0.2801

> <Gold.Chemscore.DEInternal>
0.4264

> <Gold.Chemscore.Rot>
1.2659

> <Gold.Chemscore.Internal.Correction>
   9.000000E+99

> <Gold.Chemscore.Hbonds>
donor molecule, donor type, donor heavy atom, donor atom, acceptor molecule, acceptor atom, score
      P1  H  7997  8009       L1     1  0.70

> <Gold.Chemscore.Hbond.Weighted>
-3.2611

> <Gold.Chemscore.Metal.Weighted>
-0.0000

> <Gold.Chemscore.Lipo.Weighted>
-9.8611

> <Gold.Chemscore.Internal_Hbond.Weighted>
0.0000

> <Gold.Chemscore.DEClash.Weighted>
0.2801

> <Gold.Chemscore.DEInternal.Weighted>
0.4264

> <Gold.Chemscore.Rot.Weighted>
3.2408

> <Gold.Chemscore.Internal.Correction.Weighted>
   9.000000E+99

> <Gold.Protein.RotatedTorsions>
[ 6907 6896 6895 6894 ] final    3.53 input  -60.11 | X-H torsion
[ 7974 7965 7964 7962 ] final  -46.87 input  175.53 | X-H torsion
[ 8008 7997 7996 7995 ] final  129.41 input   59.86 | X-H torsion
[ 10167 10162 10161 10158 ] final -164.21 input  -65.29 | X-H torsion
[ 10718 10713 10712 10709 ] final   70.79 input   66.30 | X-H torsion
[ 10763 10752 10751 10750 ] final    7.88 input  -60.55 | X-H torsion
[ 11005 11000 10999 10996 ] final   -3.47 input  -57.11 | X-H torsion

> <Gold.Protein.ActiveResidues>
 VAL166  LYS551  ARG553  GLY616  TRP617  ASP618  TYR619  PRO620  LYS621  CYS622 
 ASP623  PHE694  ASN695  SER759  ASP760  ASP761  ALA762  ILE779  LEU786  VAL792 
 PHE793  MET794  SER795  GLU796  ALA797  LYS798  CYS799  TRP800  GLU811  SER814 

> <Gold.Protein.RotatedAtoms>
  151.6265  135.1027  160.0112 H   0  0  0  0  0  0  0  0  0  0  0  0  # atno 6907 bound_to 6896
  152.4130  133.6988  159.6422 H   0  0  0  0  0  0  0  0  0  0  0  0  # atno 6908 bound_to 6896
  150.8019  133.8508  159.3246 H   0  0  0  0  0  0  0  0  0  0  0  0  # atno 6909 bound_to 6896
  145.9674  140.7417  142.9427 H   0  0  0  0  0  0  0  0  0  0  0  0  # atno 7974 bound_to 7965
  156.2935  140.2621  156.2594 H   0  0  0  0  0  0  0  0  0  0  0  0  # atno 8008 bound_to 7997
  154.9803  140.0390  157.2293 H   0  0  0  0  0  0  0  0  0  0  0  0  # atno 8009 bound_to 7997
  154.7778  140.2789  155.6092 H   0  0  0  0  0  0  0  0  0  0  0  0  # atno 8010 bound_to 7997
  139.6266  144.0520  152.1980 H   0  0  0  0  0  0  0  0  0  0  0  0  # atno 10167 bound_to 10162
  157.6418  130.9495  150.0699 H   0  0  0  0  0  0  0  0  0  0  0  0  # atno 10718 bound_to 10713
  153.2313  135.6893  153.7886 H   0  0  0  0  0  0  0  0  0  0  0  0  # atno 10763 bound_to 10752
  153.7050  135.3291  155.3234 H   0  0  0  0  0  0  0  0  0  0  0  0  # atno 10764 bound_to 10752
  154.8315  135.4577  154.1200 H   0  0  0  0  0  0  0  0  0  0  0  0  # atno 10765 bound_to 10752
  140.6696  133.9248  155.8486 H   0  0  0  0  0  0  0  0  0  0  0  0  # atno 11005 bound_to 11000
  144.6829  140.2692  143.7308 LP  0  0  0  0  0  0  0  0  0  0  0  0  # atno 17320 bound_to 7965
  145.7954  139.1943  143.2079 LP  0  0  0  0  0  0  0  0  0  0  0  0  # atno 17321 bound_to 7965
  140.0175  144.6178  150.7595 LP  0  0  0  0  0  0  0  0  0  0  0  0  # atno 17342 bound_to 10162
  140.7415  143.2818  151.3576 LP  0  0  0  0  0  0  0  0  0  0  0  0  # atno 17343 bound_to 10162
  156.1707  130.3646  149.9170 LP  0  0  0  0  0  0  0  0  0  0  0  0  # atno 17370 bound_to 10713
  156.7146  130.8983  151.3612 LP  0  0  0  0  0  0  0  0  0  0  0  0  # atno 17371 bound_to 10713
  141.0402  134.0632  157.3911 LP  0  0  0  0  0  0  0  0  0  0  0  0  # atno 17394 bound_to 11000
  139.8986  135.0155  156.7155 LP  0  0  0  0  0  0  0  0  0  0  0  0  # atno 17395 bound_to 11000

$$$$
