AV-unprocessed.smi:2772|AV-procd|sdf|10672|dock2
  -GOLD-   2272015123D 1   1.00000     0.00000
 Structure written by MMmdl.
 56 58  0  0  0  0  0  0  0  0  4 V2000
  152.1932  144.7680  158.6754 C   0  0  0  0  0  0  0  0  0  0  0  0
  151.7573  143.3753  158.2720 C   0  0  0  0  0  0  0  0  0  0  0  0
  152.3410  142.2148  158.8214 C   0  0  0  0  0  0  0  0  0  0  0  0
  151.8875  140.9490  158.3962 C   0  0  0  0  0  0  0  0  0  0  0  0
  150.8554  140.8596  157.4359 C   0  0  0  0  0  0  0  0  0  0  0  0
  150.4419  139.5613  157.0289 N   0  0  0  0  0  0  0  0  0  0  0  0
  149.2745  139.1890  156.4760 C   0  0  0  0  0  0  0  0  0  0  0  0
  148.3245  139.9375  156.2486 O   0  0  0  0  0  0  0  0  0  0  0  0
  149.2564  137.8741  156.2134 N   0  0  0  0  0  0  0  0  0  0  0  0
  148.1341  137.1546  155.6174 C   0  0  2  0  0  0  0  0  0  0  0  0
  148.5608  135.7536  155.1529 C   0  0  0  0  0  0  0  0  0  0  0  0
  147.3988  135.0302  154.4544 C   0  0  0  0  0  0  0  0  0  0  0  0
  146.8840  135.8024  153.2865 N   0  3  1  0  0  0  0  0  0  0  0  0
  145.8732  135.0231  152.4969 C   0  0  2  0  0  0  0  0  0  0  0  0
  146.5010  133.7267  151.9309 C   0  0  0  0  0  0  0  0  0  0  0  0
  145.4914  132.9010  151.1153 C   0  0  0  0  0  0  0  0  0  0  0  0
  144.9204  133.7001  150.0057 N   0  3  1  0  0  0  0  0  0  0  0  0
  144.0299  132.9016  149.1356 C   0  0  0  0  0  0  0  0  0  0  0  0
  144.2667  134.9339  150.5024 C   0  0  0  0  0  0  0  0  0  0  0  0
  145.2501  135.8001  151.3090 C   0  0  0  0  0  0  0  0  0  0  0  0
  146.4539  137.1675  153.7110 C   0  0  0  0  0  0  0  0  0  0  0  0
  147.5893  137.9334  154.4134 C   0  0  0  0  0  0  0  0  0  0  0  0
  150.3177  142.0625  156.9120 C   0  0  0  0  0  0  0  0  0  0  0  0
  150.7811  143.2551  157.3457 N   0  3  0  0  0  0  0  0  0  0  0  0
  152.7209  144.7501  159.6296 H   0  0  0  0  0  0  0  0  0  0  0  0
  151.3311  145.4280  158.7779 H   0  0  0  0  0  0  0  0  0  0  0  0
  152.8606  145.1870  157.9220 H   0  0  0  0  0  0  0  0  0  0  0  0
  153.1272  142.2901  159.5584 H   0  0  0  0  0  0  0  0  0  0  0  0
  152.3293  140.0546  158.8112 H   0  0  0  0  0  0  0  0  0  0  0  0
  151.0977  138.8179  157.2211 H   0  0  0  0  0  0  0  0  0  0  0  0
  150.0794  137.3329  156.4351 H   0  0  0  0  0  0  0  0  0  0  0  0
  147.3360  137.0612  156.3570 H   0  0  0  0  0  0  0  0  0  0  0  0
  149.4090  135.8265  154.4703 H   0  0  0  0  0  0  0  0  0  0  0  0
  148.8992  135.1607  156.0038 H   0  0  0  0  0  0  0  0  0  0  0  0
  147.7495  134.0460  154.1497 H   0  0  0  0  0  0  0  0  0  0  0  0
  146.5873  134.8631  155.1647 H   0  0  0  0  0  0  0  0  0  0  0  0
  145.0572  134.7566  153.1712 H   0  0  0  0  0  0  0  0  0  0  0  0
  147.3553  133.9783  151.3004 H   0  0  0  0  0  0  0  0  0  0  0  0
  146.8883  133.0917  152.7261 H   0  0  0  0  0  0  0  0  0  0  0  0
  145.9875  132.0183  150.7094 H   0  0  0  0  0  0  0  0  0  0  0  0
  144.6881  132.5437  151.7622 H   0  0  0  0  0  0  0  0  0  0  0  0
  143.1601  132.5436  149.6879 H   0  0  0  0  0  0  0  0  0  0  0  0
  144.5587  132.0375  148.7321 H   0  0  0  0  0  0  0  0  0  0  0  0
  143.6785  133.4982  148.2930 H   0  0  0  0  0  0  0  0  0  0  0  0
  143.8854  135.5088  149.6574 H   0  0  0  0  0  0  0  0  0  0  0  0
  143.4060  134.6691  151.1190 H   0  0  0  0  0  0  0  0  0  0  0  0
  144.7004  136.6728  151.6625 H   0  0  0  0  0  0  0  0  0  0  0  0
  146.0364  136.1658  150.6468 H   0  0  0  0  0  0  0  0  0  0  0  0
  146.1588  137.7673  152.8510 H   0  0  0  0  0  0  0  0  0  0  0  0
  145.5858  137.0908  154.3675 H   0  0  0  0  0  0  0  0  0  0  0  0
  147.2275  138.9111  154.7346 H   0  0  0  0  0  0  0  0  0  0  0  0
  148.3926  138.1214  153.6990 H   0  0  0  0  0  0  0  0  0  0  0  0
  149.5476  142.1262  156.1584 H   0  0  0  0  0  0  0  0  0  0  0  0
  147.6682  135.9488  152.6667 H   0  0  0  0  0  0  0  0  0  0  0  0
  145.6952  133.9927  149.4272 H   0  0  0  0  0  0  0  0  0  0  0  0
  150.3758  144.1050  156.9523 H   0  0  0  0  0  0  0  0  0  0  0  0
  1  2  1  0  0  0  0
  1 25  1  0  0  0  0
  1 26  1  0  0  0  0
  1 27  1  0  0  0  0
  2 24  1  0  0  0  0
  2  3  2  0  0  0  0
  3  4  1  0  0  0  0
  3 28  1  0  0  0  0
  4  5  2  0  0  0  0
  4 29  1  0  0  0  0
  5  6  1  0  0  0  0
  5 23  1  0  0  0  0
  6  7  1  0  0  0  0
  6 30  1  0  0  0  0
  7  8  2  0  0  0  0
  7  9  1  0  0  0  0
  9 10  1  0  0  0  0
  9 31  1  0  0  0  0
 10 22  1  0  0  0  0
 10 11  1  0  0  0  0
 10 32  1  0  0  0  0
 11 12  1  0  0  0  0
 11 33  1  0  0  0  0
 11 34  1  0  0  0  0
 12 13  1  0  0  0  0
 12 35  1  0  0  0  0
 12 36  1  0  0  0  0
 13 14  1  0  0  0  0
 13 21  1  0  0  0  0
 13 54  1  0  0  0  0
 14 20  1  0  0  0  0
 14 15  1  0  0  0  0
 14 37  1  0  0  0  0
 15 16  1  0  0  0  0
 15 38  1  0  0  0  0
 15 39  1  0  0  0  0
 16 17  1  0  0  0  0
 16 40  1  0  0  0  0
 16 41  1  0  0  0  0
 17 18  1  0  0  0  0
 17 19  1  0  0  0  0
 17 55  1  0  0  0  0
 18 42  1  0  0  0  0
 18 43  1  0  0  0  0
 18 44  1  0  0  0  0
 19 20  1  0  0  0  0
 19 45  1  0  0  0  0
 19 46  1  0  0  0  0
 20 47  1  0  0  0  0
 20 48  1  0  0  0  0
 21 22  1  0  0  0  0
 21 49  1  0  0  0  0
 21 50  1  0  0  0  0
 22 51  1  0  0  0  0
 22 52  1  0  0  0  0
 23 24  2  0  0  0  0
 23 53  1  0  0  0  0
 24 56  1  0  0  0  0
M  CHG  1  13   1
M  CHG  1  17   1
M  CHG  1  24   1
M  END
> <s_m_source_file>
AV-unprocessed.smi

> <i_m_source_file_index>
2772

> <i_lp_mmshare_version>
43012

> <i_f3d_flags>
0

> <s_epik_input>
W0NIM11jMVtjSF1bY0hdYyhbY0hdbjEpW05IXUMoPU8pW05IXVtDSF0yW0NIMl1bQ0gyXU4oW0NIMl1bQ0gyXTIpW0NIXTNbQ0gyXVtDSDJdTihbQ0gzXSlbQ0gyXVtDSDJdMw==

> <s_epik_cmdline>
J2VwaWtfcHl0aG9uJywgJy1waCcsICc3LjAnLCAnLXRuJywgJzgnLCAnLW1hJywgJzIwMCcsICctbWV0YWxfYmluZGluZycsICctaW1hZScsICc8aW5maWxlLm1hZT4nLCAnLW9tYWUnLCAnPG91dGZpbGUubWFlPic=

> <r_epik_Ionization_Penalty>
2.34117

> <r_epik_Ionization_Penalty_Charging>
2.34115

> <r_epik_Ionization_Penalty_Neutral>
2.22786e-05

> <r_epik_State_Penalty>
2.43944

> <r_epik_Charging_Adjusted_Penalty>
4.78059

> <i_epik_Tot_Q>
3

> <i_epik_Tot_abs_Q>
3

> <r_epik_Metal_State_Penalty>
2.45906

> <b_epik_Metal_Only>
0

> <s_lp_Force_Field>
OPLS_2005

> <r_lp_Energy>
50.0284

> <b_lp_Chiralities_Consistent>
1

> <s_lp_Variant>
AV-unprocessed.smi:2772-9

> <Gold.Version>
5.8.1

> <Gold.Id.Protein>
6NUR|6NUR_protein|mol2

> <Gold.PLP.Fitness>
50.3917

> <Gold.PLP.PLP>
-37.3278

> <Gold.PLP.part.hbond>
-3.0000

> <Gold.PLP.part.metal>
0.0000

> <Gold.PLP.part.buried>
-5.0062

> <Gold.PLP.part.nonpolar>
-30.8399

> <Gold.PLP.part.repulsive>
0.0871

> <Gold.PLP.ligand.clash>
0.0000

> <Gold.PLP.ligand.torsion>
0.3254

> <Gold.PLP.Chemscore.Hbond>
4.5600

> <Gold.PLP.Chemscore.CHOScore>
0.0000

> <Gold.PLP.Chemscore.Metal>
0.0000

> <Gold.Chemscore.Hbonds>
donor molecule, donor type, donor heavy atom, donor atom, acceptor molecule, acceptor atom, score
      L1  H    13    54       P1  7948  2.00
      L1  H    17    55       P1  7921  0.86
      L1  H    24    56       P1  8028  1.65

> <Gold.PLP.Chemscore.Internal.Correction>
0.0346

> <Gold.Rescore>
     Score         DG    S(hbond)    S(metal)    S(lipo)     H(rot)  DE(clash)    DE(int)     intcor
     20.83     -23.82       2.71        0.00     106.00       1.22       0.06       2.93       ----

> <Gold.Chemscore.Fitness>
20.8279

> <Gold.Chemscore.DG>
-23.8198

> <Gold.Chemscore.ZeroCoef>
-5.4800

> <Gold.Chemscore.Hbond>
2.7145

> <Gold.Chemscore.Metal>
0.0000

> <Gold.Chemscore.Lipo>
106.0005

> <Gold.Chemscore.Internal_Hbond>
0.0000

> <Gold.Chemscore.DEClash>
0.0637

> <Gold.Chemscore.DEInternal>
2.9282

> <Gold.Chemscore.Rot>
1.2222

> <Gold.Chemscore.Internal.Correction>
   9.000000E+99

> <Gold.Chemscore.Hbonds>
donor molecule, donor type, donor heavy atom, donor atom, acceptor molecule, acceptor atom, score
      L1  H    13    54       P1  7948  0.93
      L1  H    17    55       P1  7921  0.40
      L1  H    24    56       P1  8028  0.74

> <Gold.Chemscore.Hbond.Weighted>
-9.0666

> <Gold.Chemscore.Metal.Weighted>
-0.0000

> <Gold.Chemscore.Lipo.Weighted>
-12.4021

> <Gold.Chemscore.Internal_Hbond.Weighted>
0.0000

> <Gold.Chemscore.DEClash.Weighted>
0.0637

> <Gold.Chemscore.DEInternal.Weighted>
2.9282

> <Gold.Chemscore.Rot.Weighted>
3.1289

> <Gold.Chemscore.Internal.Correction.Weighted>
   9.000000E+99

> <Gold.Protein.RotatedTorsions>
[ 6907 6896 6895 6894 ] final  -49.19 input  -60.11 | X-H torsion
[ 7974 7965 7964 7962 ] final  150.65 input  175.53 | X-H torsion
[ 8008 7997 7996 7995 ] final  -97.18 input   59.86 | X-H torsion
[ 10167 10162 10161 10158 ] final -104.51 input  -65.29 | X-H torsion
[ 10718 10713 10712 10709 ] final   -3.99 input   66.30 | X-H torsion
[ 10763 10752 10751 10750 ] final   61.71 input  -60.55 | X-H torsion
[ 11005 11000 10999 10996 ] final  126.29 input  -57.11 | X-H torsion

> <Gold.Protein.ActiveResidues>
 VAL166  LYS551  ARG553  GLY616  TRP617  ASP618  TYR619  PRO620  LYS621  CYS622 
 ASP623  PHE694  ASN695  SER759  ASP760  ASP761  ALA762  ILE779  LEU786  VAL792 
 PHE793  MET794  SER795  GLU796  ALA797  LYS798  CYS799  TRP800  GLU811  SER814 

> <Gold.Protein.RotatedAtoms>
  150.8830  134.8224  159.7238 H   0  0  0  0  0  0  0  0  0  0  0  0  # atno 6907 bound_to 6896
  152.4790  134.4766  159.9662 H   0  0  0  0  0  0  0  0  0  0  0  0  # atno 6908 bound_to 6896
  151.4839  133.3501  159.2878 H   0  0  0  0  0  0  0  0  0  0  0  0  # atno 6909 bound_to 6896
  144.8349  139.6436  143.6042 H   0  0  0  0  0  0  0  0  0  0  0  0  # atno 7974 bound_to 7965
  154.7843  140.0465  157.1152 H   0  0  0  0  0  0  0  0  0  0  0  0  # atno 8008 bound_to 7997
  154.9667  140.3084  155.4986 H   0  0  0  0  0  0  0  0  0  0  0  0  # atno 8009 bound_to 7997
  156.2941  140.2261  156.4756 H   0  0  0  0  0  0  0  0  0  0  0  0  # atno 8010 bound_to 7997
  140.2085  143.3765  152.1071 H   0  0  0  0  0  0  0  0  0  0  0  0  # atno 10167 bound_to 10162
  156.7679  130.5290  149.5773 H   0  0  0  0  0  0  0  0  0  0  0  0  # atno 10718 bound_to 10713
  152.9959  135.5491  154.6077 H   0  0  0  0  0  0  0  0  0  0  0  0  # atno 10763 bound_to 10752
  154.5405  135.2819  155.1102 H   0  0  0  0  0  0  0  0  0  0  0  0  # atno 10764 bound_to 10752
  154.2382  135.6421  153.5250 H   0  0  0  0  0  0  0  0  0  0  0  0  # atno 10765 bound_to 10752
  139.9449  134.9631  156.8685 H   0  0  0  0  0  0  0  0  0  0  0  0  # atno 11005 bound_to 11000
  146.2648  139.6495  142.9337 LP  0  0  0  0  0  0  0  0  0  0  0  0  # atno 17320 bound_to 7965
  145.4817  141.0438  143.2642 LP  0  0  0  0  0  0  0  0  0  0  0  0  # atno 17321 bound_to 7965
  139.5189  144.7012  151.5487 LP  0  0  0  0  0  0  0  0  0  0  0  0  # atno 17342 bound_to 10162
  140.6340  143.9019  150.6631 LP  0  0  0  0  0  0  0  0  0  0  0  0  # atno 17343 bound_to 10162
  156.1297  130.6169  151.0315 LP  0  0  0  0  0  0  0  0  0  0  0  0  # atno 17370 bound_to 10713
  157.6704  131.0862  150.7625 LP  0  0  0  0  0  0  0  0  0  0  0  0  # atno 17371 bound_to 10713
  140.5860  134.0307  155.7482 LP  0  0  0  0  0  0  0  0  0  0  0  0  # atno 17394 bound_to 11000
  141.1096  133.9638  157.2935 LP  0  0  0  0  0  0  0  0  0  0  0  0  # atno 17395 bound_to 11000

$$$$
