AV-unprocessed.smi:2752|AV-procd|sdf|10606|dock2
  -GOLD-   2272015 53D 1   1.00000     0.00000
 Structure written by MMmdl.
 34 35  0  0  0  0  0  0  0  0  1 V2000
  151.3413  141.3236  158.3786 C   0  0  0  0  0  0  0  0  0  0  0  0
  150.7388  142.5603  158.7239 O   0  0  0  0  0  0  0  0  0  0  0  0
  151.4539  143.2902  159.7175 C   0  0  1  0  0  0  0  0  0  0  0  0
  152.9020  143.4778  159.2522 C   0  0  0  0  0  0  0  0  0  0  0  0
  152.8339  144.6619  158.2917 C   0  0  0  0  0  0  0  0  0  0  0  0
  151.7852  145.5982  158.8987 C   0  0  0  0  0  0  0  0  0  0  0  0
  150.9015  144.7304  159.8164 C   0  0  1  0  0  0  0  0  0  0  0  0
  149.4914  144.8291  159.4454 N   0  0  0  0  0  0  0  0  0  0  0  0
  148.4652  144.5768  160.2703 C   0  0  0  0  0  0  0  0  0  0  0  0
  148.6081  144.2475  161.4483 O   0  0  0  0  0  0  0  0  0  0  0  0
  147.2867  144.7251  159.6404 N   0  0  0  0  0  0  0  0  0  0  0  0
  145.9805  144.5501  160.1697 C   0  0  0  0  0  0  0  0  0  0  0  0
  145.9066  143.7382  161.3246 C   0  0  0  0  0  0  0  0  0  0  0  0
  144.6555  143.5013  161.9267 C   0  0  0  0  0  0  0  0  0  0  0  0
  143.5100  144.0839  161.3560 C   0  0  0  0  0  0  0  0  0  0  0  0
  142.2859  143.8847  161.8996 F   0  0  0  0  0  0  0  0  0  0  0  0
  143.6691  144.8789  160.2060 C   0  0  0  0  0  0  0  0  0  0  0  0
  144.8676  145.1065  159.6282 N   0  0  0  0  0  0  0  0  0  0  0  0
  150.7546  140.8384  157.5987 H   0  0  0  0  0  0  0  0  0  0  0  0
  151.3737  140.6527  159.2378 H   0  0  0  0  0  0  0  0  0  0  0  0
  152.3552  141.4571  158.0013 H   0  0  0  0  0  0  0  0  0  0  0  0
  151.3908  142.7895  160.6855 H   0  0  0  0  0  0  0  0  0  0  0  0
  153.5270  143.7404  160.1066 H   0  0  0  0  0  0  0  0  0  0  0  0
  153.3335  142.5891  158.7919 H   0  0  0  0  0  0  0  0  0  0  0  0
  153.8006  145.1479  158.1564 H   0  0  0  0  0  0  0  0  0  0  0  0
  152.4959  144.3175  157.3134 H   0  0  0  0  0  0  0  0  0  0  0  0
  152.2764  146.3707  159.4913 H   0  0  0  0  0  0  0  0  0  0  0  0
  151.2187  146.1073  158.1178 H   0  0  0  0  0  0  0  0  0  0  0  0
  151.0291  145.0898  160.8394 H   0  0  0  0  0  0  0  0  0  0  0  0
  149.2883  145.0866  158.4910 H   0  0  0  0  0  0  0  0  0  0  0  0
  147.3294  144.9931  158.6684 H   0  0  0  0  0  0  0  0  0  0  0  0
  146.7979  143.2991  161.7490 H   0  0  0  0  0  0  0  0  0  0  0  0
  144.5776  142.8844  162.8096 H   0  0  0  0  0  0  0  0  0  0  0  0
  142.8143  145.3439  159.7376 H   0  0  0  0  0  0  0  0  0  0  0  0
  1  2  1  0  0  0  0
  1 19  1  0  0  0  0
  1 20  1  0  0  0  0
  1 21  1  0  0  0  0
  2  3  1  0  0  0  0
  3  7  1  0  0  0  0
  3  4  1  0  0  0  0
  3 22  1  0  0  0  0
  4  5  1  0  0  0  0
  4 23  1  0  0  0  0
  4 24  1  0  0  0  0
  5  6  1  0  0  0  0
  5 25  1  0  0  0  0
  5 26  1  0  0  0  0
  6  7  1  0  0  0  0
  6 27  1  0  0  0  0
  6 28  1  0  0  0  0
  7  8  1  0  0  0  0
  7 29  1  0  0  0  0
  8  9  1  0  0  0  0
  8 30  1  0  0  0  0
  9 10  2  0  0  0  0
  9 11  1  0  0  0  0
 11 12  1  0  0  0  0
 11 31  1  0  0  0  0
 12 18  1  0  0  0  0
 12 13  2  0  0  0  0
 13 14  1  0  0  0  0
 13 32  1  0  0  0  0
 14 15  2  0  0  0  0
 14 33  1  0  0  0  0
 15 16  1  0  0  0  0
 15 17  1  0  0  0  0
 17 18  2  0  0  0  0
 17 34  1  0  0  0  0
M  END
> <s_m_source_file>
AV-unprocessed.smi

> <i_m_source_file_index>
2752

> <i_lp_mmshare_version>
43012

> <i_f3d_flags>
0

> <s_epik_input>
W0NIM11PW0NAQEhdMVtDSDJdW0NIMl1bQ0gyXVtDQEhdMVtOSF1DKD1PKVtOSF1jMltjSF1bY0hdYyhGKVtjSF1uMg==

> <s_epik_cmdline>
J2VwaWtfcHl0aG9uJywgJy1waCcsICc3LjAnLCAnLXRuJywgJzgnLCAnLW1hJywgJzIwMCcsICctbWV0YWxfYmluZGluZycsICctaW1hZScsICc8aW5maWxlLm1hZT4nLCAnLW9tYWUnLCAnPG91dGZpbGUubWFlPic=

> <r_lp_tautomer_probability>
1

> <r_epik_Ionization_Penalty>
3.49853e-05

> <r_epik_Ionization_Penalty_Charging>
0

> <r_epik_Ionization_Penalty_Neutral>
3.49853e-05

> <r_epik_State_Penalty>
-0

> <r_epik_Charging_Adjusted_Penalty>
0

> <i_epik_Tot_Q>
0

> <i_epik_Tot_abs_Q>
0

> <r_epik_Metal_State_Penalty>
-0

> <b_epik_Metal_Only>
0

> <s_lp_Force_Field>
OPLS_2005

> <r_lp_Energy>
23.7986

> <b_lp_Chiralities_Consistent>
1

> <s_lp_Variant>
AV-unprocessed.smi:2752-2

> <Gold.Version>
5.8.1

> <Gold.Id.Protein>
6NUR|6NUR_protein|mol2

> <Gold.PLP.Fitness>
42.1967

> <Gold.PLP.PLP>
-35.0918

> <Gold.PLP.part.hbond>
-3.0000

> <Gold.PLP.part.metal>
0.0000

> <Gold.PLP.part.buried>
-4.1705

> <Gold.PLP.part.nonpolar>
-29.5949

> <Gold.PLP.part.repulsive>
0.6907

> <Gold.PLP.ligand.clash>
0.0000

> <Gold.PLP.ligand.torsion>
0.4736

> <Gold.PLP.Chemscore.Hbond>
2.6800

> <Gold.PLP.Chemscore.CHOScore>
0.0000

> <Gold.PLP.Chemscore.Metal>
0.0000

> <Gold.Chemscore.Hbonds>
donor molecule, donor type, donor heavy atom, donor atom, acceptor molecule, acceptor atom, score
      L1  H     8    30       P1  8029  0.89
      L1  H    11    31       P1  8029  1.00
      P1  H  6933  6944       L1    10  0.77

> <Gold.PLP.Chemscore.Internal.Correction>
0.0120

> <Gold.Rescore>
     Score         DG    S(hbond)    S(metal)    S(lipo)     H(rot)  DE(clash)    DE(int)     intcor
     19.50     -21.87       2.66        0.00      92.13       1.28       0.43       1.95       ----

> <Gold.Chemscore.Fitness>
19.4973

> <Gold.Chemscore.DG>
-21.8688

> <Gold.Chemscore.ZeroCoef>
-5.4800

> <Gold.Chemscore.Hbond>
2.6622

> <Gold.Chemscore.Metal>
0.0000

> <Gold.Chemscore.Lipo>
92.1308

> <Gold.Chemscore.Internal_Hbond>
0.0000

> <Gold.Chemscore.DEClash>
0.4263

> <Gold.Chemscore.DEInternal>
1.9452

> <Gold.Chemscore.Rot>
1.2821

> <Gold.Chemscore.Internal.Correction>
   9.000000E+99

> <Gold.Chemscore.Hbonds>
donor molecule, donor type, donor heavy atom, donor atom, acceptor molecule, acceptor atom, score
      L1  H     8    30       P1  8029  0.64
      L1  H    11    31       P1  8029  0.99
      P1  H  6933  6944       L1    10  0.42

> <Gold.Chemscore.Hbond.Weighted>
-8.8917

> <Gold.Chemscore.Metal.Weighted>
-0.0000

> <Gold.Chemscore.Lipo.Weighted>
-10.7793

> <Gold.Chemscore.Internal_Hbond.Weighted>
0.0000

> <Gold.Chemscore.DEClash.Weighted>
0.4263

> <Gold.Chemscore.DEInternal.Weighted>
1.9452

> <Gold.Chemscore.Rot.Weighted>
3.2822

> <Gold.Chemscore.Internal.Correction.Weighted>
   9.000000E+99

> <Gold.Protein.RotatedTorsions>
[ 6907 6896 6895 6894 ] final   -1.05 input  -60.11 | X-H torsion
[ 7974 7965 7964 7962 ] final   74.35 input  175.53 | X-H torsion
[ 8008 7997 7996 7995 ] final   51.00 input   59.86 | X-H torsion
[ 10167 10162 10161 10158 ] final  -18.36 input  -65.29 | X-H torsion
[ 10718 10713 10712 10709 ] final   40.59 input   66.30 | X-H torsion
[ 10763 10752 10751 10750 ] final -155.54 input  -60.55 | X-H torsion
[ 11005 11000 10999 10996 ] final   18.16 input  -57.11 | X-H torsion

> <Gold.Protein.ActiveResidues>
 VAL166  LYS551  ARG553  GLY616  TRP617  ASP618  TYR619  PRO620  LYS621  CYS622 
 ASP623  PHE694  ASN695  SER759  ASP760  ASP761  ALA762  ILE779  LEU786  VAL792 
 PHE793  MET794  SER795  GLU796  ALA797  LYS798  CYS799  TRP800  GLU811  SER814 

> <Gold.Protein.RotatedAtoms>
  151.5524  135.1067  159.9952 H   0  0  0  0  0  0  0  0  0  0  0  0  # atno 6907 bound_to 6896
  152.4485  133.7579  159.6741 H   0  0  0  0  0  0  0  0  0  0  0  0  # atno 6908 bound_to 6896
  150.8407  133.7873  159.3086 H   0  0  0  0  0  0  0  0  0  0  0  0  # atno 6909 bound_to 6896
  145.7293  139.2678  143.1550 H   0  0  0  0  0  0  0  0  0  0  0  0  # atno 7974 bound_to 7965
  155.4280  140.3449  155.4277 H   0  0  0  0  0  0  0  0  0  0  0  0  # atno 8008 bound_to 7997
  156.1353  140.1526  156.9034 H   0  0  0  0  0  0  0  0  0  0  0  0  # atno 8009 bound_to 7997
  154.4927  140.0836  156.7610 H   0  0  0  0  0  0  0  0  0  0  0  0  # atno 8010 bound_to 7997
  140.7258  143.4924  150.9975 H   0  0  0  0  0  0  0  0  0  0  0  0  # atno 10167 bound_to 10162
  157.3839  130.7769  149.7215 H   0  0  0  0  0  0  0  0  0  0  0  0  # atno 10718 bound_to 10713
  154.7779  135.3165  154.8052 H   0  0  0  0  0  0  0  0  0  0  0  0  # atno 10763 bound_to 10752
  153.8771  135.6838  153.4774 H   0  0  0  0  0  0  0  0  0  0  0  0  # atno 10764 bound_to 10752
  153.1407  135.4740  154.9428 H   0  0  0  0  0  0  0  0  0  0  0  0  # atno 10765 bound_to 10752
  140.4279  134.1451  155.7678 H   0  0  0  0  0  0  0  0  0  0  0  0  # atno 11005 bound_to 11000
  146.0552  140.8028  142.9762 LP  0  0  0  0  0  0  0  0  0  0  0  0  # atno 17320 bound_to 7965
  144.6897  140.3113  143.7247 LP  0  0  0  0  0  0  0  0  0  0  0  0  # atno 17321 bound_to 7965
  139.8629  143.7291  152.3172 LP  0  0  0  0  0  0  0  0  0  0  0  0  # atno 17342 bound_to 10162
  139.7513  144.7533  151.0502 LP  0  0  0  0  0  0  0  0  0  0  0  0  # atno 17343 bound_to 10162
  155.9782  130.4054  150.3663 LP  0  0  0  0  0  0  0  0  0  0  0  0  # atno 17370 bound_to 10713
  157.1771  131.0383  151.2767 LP  0  0  0  0  0  0  0  0  0  0  0  0  # atno 17371 bound_to 10713
  141.1758  133.8517  157.1426 LP  0  0  0  0  0  0  0  0  0  0  0  0  # atno 17394 bound_to 11000
  140.0155  134.9969  157.0484 LP  0  0  0  0  0  0  0  0  0  0  0  0  # atno 17395 bound_to 11000

$$$$
