AV-unprocessed.smi:260|AV-procd|sdf|1979|dock7
  -GOLD-   2262021153D 1   1.00000     0.00000
 Structure written by MMmdl.
 53 56  0  0  0  0  0  0  0  0  1 V2000
  148.1944  131.5032  158.1655 C   0  0  0  0  0  0  0  0  0  0  0  0
  148.3037  132.1500  156.8671 N   0  0  0  0  0  0  0  0  0  0  0  0
  149.3283  132.9331  156.4935 C   0  0  0  0  0  0  0  0  0  0  0  0
  150.2795  133.1641  157.2417 O   0  0  0  0  0  0  0  0  0  0  0  0
  149.2726  133.5368  155.0646 C   0  0  1  0  0  0  0  0  0  0  0  0
  149.4156  132.4317  153.9946 C   0  0  0  0  0  0  0  0  0  0  0  0
  147.9856  134.3630  154.8413 C   0  0  0  0  0  0  0  0  0  0  0  0
  148.2964  135.7618  155.3920 C   0  0  0  0  0  0  0  0  0  0  0  0
  149.7482  135.8521  155.4374 N   0  0  0  0  0  0  0  0  0  0  0  0
  150.3858  137.0491  155.3600 C   0  0  0  0  0  0  0  0  0  0  0  0
  151.4537  137.1666  154.5263 N   0  0  0  0  0  0  0  0  0  0  0  0
  152.1075  138.3266  154.4179 C   0  0  0  0  0  0  0  0  0  0  0  0
  151.8698  139.4796  155.0447 N   0  0  0  0  0  0  0  0  0  0  0  0
  150.8084  139.3689  155.8929 C   0  0  0  0  0  0  0  0  0  0  0  0
  150.0185  138.2036  156.1135 C   0  0  0  0  0  0  0  0  0  0  0  0
  149.0363  138.4803  157.0595 N   0  0  0  0  0  0  0  0  0  0  0  0
  149.2279  139.7329  157.3699 C   0  0  0  0  0  0  0  0  0  0  0  0
  150.2716  140.3436  156.7144 N   0  0  0  0  0  0  0  0  0  0  0  0
  150.7074  141.7212  156.8617 C   0  0  0  0  0  0  0  0  0  0  0  0
  150.1471  142.3862  158.1342 C   0  0  2  0  0  0  0  0  0  0  0  0
  149.0671  143.2305  157.7824 O   0  0  0  0  0  0  0  0  0  0  0  0
  151.2116  143.2216  158.8692 C   0  0  1  0  0  0  0  0  0  0  0  0
  151.6942  144.4523  158.1036 C   0  0  0  0  0  0  0  0  0  0  0  0
  152.2901  145.3023  159.2073 C   0  0  0  0  0  0  0  0  0  0  0  0
  151.4688  144.9118  160.4390 C   0  0  0  0  0  0  0  0  0  0  0  0
  150.6685  143.7998  160.0480 O   0  0  0  0  0  0  0  0  0  0  0  0
  150.3439  134.6316  154.9092 C   0  0  0  0  0  0  0  0  0  0  0  0
  147.2648  130.9370  158.2216 H   0  0  0  0  0  0  0  0  0  0  0  0
  148.1934  132.2414  158.9684 H   0  0  0  0  0  0  0  0  0  0  0  0
  149.0242  130.8140  158.3266 H   0  0  0  0  0  0  0  0  0  0  0  0
  147.5544  131.9946  156.2086 H   0  0  0  0  0  0  0  0  0  0  0  0
  149.2981  132.8361  152.9886 H   0  0  0  0  0  0  0  0  0  0  0  0
  148.6603  131.6551  154.1224 H   0  0  0  0  0  0  0  0  0  0  0  0
  150.3963  131.9558  154.0287 H   0  0  0  0  0  0  0  0  0  0  0  0
  147.7774  134.4468  153.7738 H   0  0  0  0  0  0  0  0  0  0  0  0
  147.0958  133.9269  155.2976 H   0  0  0  0  0  0  0  0  0  0  0  0
  147.8559  136.5350  154.7614 H   0  0  0  0  0  0  0  0  0  0  0  0
  147.9023  135.8762  156.4024 H   0  0  0  0  0  0  0  0  0  0  0  0
  152.9395  138.3314  153.7296 H   0  0  0  0  0  0  0  0  0  0  0  0
  148.6115  140.2474  158.0924 H   0  0  0  0  0  0  0  0  0  0  0  0
  151.7979  141.7296  156.8789 H   0  0  0  0  0  0  0  0  0  0  0  0
  150.4068  142.2792  155.9740 H   0  0  0  0  0  0  0  0  0  0  0  0
  149.7658  141.6156  158.8058 H   0  0  0  0  0  0  0  0  0  0  0  0
  148.2834  142.7062  157.7228 H   0  0  0  0  0  0  0  0  0  0  0  0
  152.0648  142.5991  159.1466 H   0  0  0  0  0  0  0  0  0  0  0  0
  152.4120  144.2129  157.3185 H   0  0  0  0  0  0  0  0  0  0  0  0
  150.8500  144.9719  157.6477 H   0  0  0  0  0  0  0  0  0  0  0  0
  153.3371  145.0372  159.3592 H   0  0  0  0  0  0  0  0  0  0  0  0
  152.2407  146.3690  158.9865 H   0  0  0  0  0  0  0  0  0  0  0  0
  152.1184  144.6345  161.2700 H   0  0  0  0  0  0  0  0  0  0  0  0
  150.8232  145.7255  160.7707 H   0  0  0  0  0  0  0  0  0  0  0  0
  151.2627  134.3854  155.4437 H   0  0  0  0  0  0  0  0  0  0  0  0
  150.5989  134.7773  153.8585 H   0  0  0  0  0  0  0  0  0  0  0  0
  1  2  1  0  0  0  0
  1 28  1  0  0  0  0
  1 29  1  0  0  0  0
  1 30  1  0  0  0  0
  2  3  1  0  0  0  0
  2 31  1  0  0  0  0
  3  4  2  0  0  0  0
  3  5  1  0  0  0  0
  5 27  1  0  0  0  0
  5  6  1  0  0  0  0
  5  7  1  0  0  0  0
  6 32  1  0  0  0  0
  6 33  1  0  0  0  0
  6 34  1  0  0  0  0
  7  8  1  0  0  0  0
  7 35  1  0  0  0  0
  7 36  1  0  0  0  0
  8  9  1  0  0  0  0
  8 37  1  0  0  0  0
  8 38  1  0  0  0  0
  9 10  1  0  0  0  0
  9 27  1  0  0  0  0
 10 15  1  0  0  0  0
 10 11  2  0  0  0  0
 11 12  1  0  0  0  0
 12 13  2  0  0  0  0
 12 39  1  0  0  0  0
 13 14  1  0  0  0  0
 14 18  1  0  0  0  0
 14 15  2  0  0  0  0
 15 16  1  0  0  0  0
 16 17  2  0  0  0  0
 17 18  1  0  0  0  0
 17 40  1  0  0  0  0
 18 19  1  0  0  0  0
 19 20  1  0  0  0  0
 19 41  1  0  0  0  0
 19 42  1  0  0  0  0
 20 21  1  0  0  0  0
 20 22  1  0  0  0  0
 20 43  1  0  0  0  0
 21 44  1  0  0  0  0
 22 26  1  0  0  0  0
 22 23  1  0  0  0  0
 22 45  1  0  0  0  0
 23 24  1  0  0  0  0
 23 46  1  0  0  0  0
 23 47  1  0  0  0  0
 24 25  1  0  0  0  0
 24 48  1  0  0  0  0
 24 49  1  0  0  0  0
 25 26  1  0  0  0  0
 25 50  1  0  0  0  0
 25 51  1  0  0  0  0
 27 52  1  0  0  0  0
 27 53  1  0  0  0  0
M  END
> <s_m_source_file>
AV-unprocessed.smi

> <i_m_source_file_index>
260

> <i_lp_mmshare_version>
43012

> <i_f3d_flags>
0

> <s_epik_input>
W0NIM11bTkhdQyg9TylbQ0BAXTEoW0NIM10pW0NIMl1bQ0gyXU4oW0NIMl0xKWMobltjSF1uMiljKGMyMyluW2NIXW4zW0NIMl1bQ0BIXShbT0hdKVtDQEBIXTRbQ0gyXVtDSDJdW0NIMl1PNA==

> <s_epik_cmdline>
J2VwaWtfcHl0aG9uJywgJy1waCcsICc3LjAnLCAnLXRuJywgJzgnLCAnLW1hJywgJzIwMCcsICctbWV0YWxfYmluZGluZycsICctaW1hZScsICc8aW5maWxlLm1hZT4nLCAnLW9tYWUnLCAnPG91dGZpbGUubWFlPic=

> <r_lp_tautomer_probability>
1

> <r_epik_Ionization_Penalty>
0.00115068

> <r_epik_Ionization_Penalty_Charging>
0

> <r_epik_Ionization_Penalty_Neutral>
0.00115068

> <r_epik_State_Penalty>
0.000668876

> <r_epik_Charging_Adjusted_Penalty>
0.000668876

> <i_epik_Tot_Q>
0

> <i_epik_Tot_abs_Q>
0

> <r_epik_Metal_State_Penalty>
-0

> <b_epik_Metal_Only>
0

> <s_lp_Force_Field>
OPLS_2005

> <r_lp_Energy>
50.4513

> <b_lp_Chiralities_Consistent>
1

> <s_lp_Variant>
AV-unprocessed.smi:260-5

> <Gold.Version>
5.8.1

> <Gold.Id.Protein>
6NUR|6NUR_protein|mol2

> <Gold.PLP.Fitness>
48.5855

> <Gold.PLP.PLP>
-42.8356

> <Gold.PLP.part.hbond>
-5.2951

> <Gold.PLP.part.metal>
0.0000

> <Gold.PLP.part.buried>
-7.6662

> <Gold.PLP.part.nonpolar>
-29.0474

> <Gold.PLP.part.repulsive>
0.3163

> <Gold.PLP.ligand.clash>
0.0000

> <Gold.PLP.ligand.torsion>
1.4842

> <Gold.PLP.Chemscore.Hbond>
2.7747

> <Gold.PLP.Chemscore.CHOScore>
0.0000

> <Gold.PLP.Chemscore.Metal>
0.0000

> <Gold.Chemscore.Hbonds>
donor molecule, donor type, donor heavy atom, donor atom, acceptor molecule, acceptor atom, score
      P1  H  6896  6907       L1     4  0.35
      P1  H  7989  7998       L1    13  0.88
      P1  H 10752 10764       L1    11  0.76

> <Gold.PLP.Chemscore.Internal.Correction>
0.3941

> <Gold.Rescore>
     Score         DG    S(hbond)    S(metal)    S(lipo)     H(rot)  DE(clash)    DE(int)     intcor
     14.68     -16.79       2.19        0.00      89.44       2.53       0.54       1.57       ----

> <Gold.Chemscore.Fitness>
14.6757

> <Gold.Chemscore.DG>
-16.7873

> <Gold.Chemscore.ZeroCoef>
-5.4800

> <Gold.Chemscore.Hbond>
2.1883

> <Gold.Chemscore.Metal>
0.0000

> <Gold.Chemscore.Lipo>
89.4434

> <Gold.Chemscore.Internal_Hbond>
0.0000

> <Gold.Chemscore.DEClash>
0.5435

> <Gold.Chemscore.DEInternal>
1.5681

> <Gold.Chemscore.Rot>
2.5259

> <Gold.Chemscore.Internal.Correction>
   9.000000E+99

> <Gold.Chemscore.Hbonds>
donor molecule, donor type, donor heavy atom, donor atom, acceptor molecule, acceptor atom, score
      P1  H  6896  6907       L1     4  0.35
      P1  H  7989  7998       L1    13  0.34
      P1  H 10752 10764       L1    11  0.40

> <Gold.Chemscore.Hbond.Weighted>
-7.3088

> <Gold.Chemscore.Metal.Weighted>
-0.0000

> <Gold.Chemscore.Lipo.Weighted>
-10.4649

> <Gold.Chemscore.Internal_Hbond.Weighted>
0.0000

> <Gold.Chemscore.DEClash.Weighted>
0.5435

> <Gold.Chemscore.DEInternal.Weighted>
1.5681

> <Gold.Chemscore.Rot.Weighted>
6.4663

> <Gold.Chemscore.Internal.Correction.Weighted>
   9.000000E+99

> <Gold.Protein.RotatedTorsions>
[ 6907 6896 6895 6894 ] final -162.19 input  -60.11 | X-H torsion
[ 7974 7965 7964 7962 ] final  -84.11 input  175.53 | X-H torsion
[ 8008 7997 7996 7995 ] final   69.38 input   59.86 | X-H torsion
[ 10167 10162 10161 10158 ] final  107.84 input  -65.29 | X-H torsion
[ 10718 10713 10712 10709 ] final -121.16 input   66.30 | X-H torsion
[ 10763 10752 10751 10750 ] final  -69.96 input  -60.55 | X-H torsion
[ 11005 11000 10999 10996 ] final  -90.86 input  -57.11 | X-H torsion

> <Gold.Protein.ActiveResidues>
 VAL166  LYS551  ARG553  GLY616  TRP617  ASP618  TYR619  PRO620  LYS621  CYS622 
 ASP623  PHE694  ASN695  SER759  ASP760  ASP761  ALA762  ILE779  LEU786  VAL792 
 PHE793  MET794  SER795  GLU796  ALA797  LYS798  CYS799  TRP800  GLU811  SER814 

> <Gold.Protein.RotatedAtoms>
  151.3765  133.3836  159.2705 H   0  0  0  0  0  0  0  0  0  0  0  0  # atno 6907 bound_to 6896
  150.9611  134.8999  159.7741 H   0  0  0  0  0  0  0  0  0  0  0  0  # atno 6908 bound_to 6896
  152.5149  134.3724  159.9375 H   0  0  0  0  0  0  0  0  0  0  0  0  # atno 6909 bound_to 6896
  145.5110  140.9540  143.1707 H   0  0  0  0  0  0  0  0  0  0  0  0  # atno 7974 bound_to 7965
  155.7227  140.3493  155.5023 H   0  0  0  0  0  0  0  0  0  0  0  0  # atno 8008 bound_to 7997
  155.9255  140.1075  157.1195 H   0  0  0  0  0  0  0  0  0  0  0  0  # atno 8009 bound_to 7997
  154.4076  140.1241  156.4721 H   0  0  0  0  0  0  0  0  0  0  0  0  # atno 8010 bound_to 7997
  139.6895  144.7109  151.1374 H   0  0  0  0  0  0  0  0  0  0  0  0  # atno 10167 bound_to 10162
  156.1315  130.6399  150.9628 H   0  0  0  0  0  0  0  0  0  0  0  0  # atno 10718 bound_to 10713
  154.4109  135.6009  153.5952 H   0  0  0  0  0  0  0  0  0  0  0  0  # atno 10763 bound_to 10752
  152.9790  135.5929  154.4071 H   0  0  0  0  0  0  0  0  0  0  0  0  # atno 10764 bound_to 10752
  154.3883  135.2841  155.2148 H   0  0  0  0  0  0  0  0  0  0  0  0  # atno 10765 bound_to 10752
  141.1557  133.7719  156.9797 H   0  0  0  0  0  0  0  0  0  0  0  0  # atno 11005 bound_to 11000
  144.7727  139.6698  143.7188 LP  0  0  0  0  0  0  0  0  0  0  0  0  # atno 17320 bound_to 7965
  146.2166  139.5561  142.9646 LP  0  0  0  0  0  0  0  0  0  0  0  0  # atno 17321 bound_to 7965
  140.7678  143.5581  150.9130 LP  0  0  0  0  0  0  0  0  0  0  0  0  # atno 17342 bound_to 10162
  139.9257  143.6553  152.3087 LP  0  0  0  0  0  0  0  0  0  0  0  0  # atno 17343 bound_to 10162
  157.6492  131.0899  150.8087 LP  0  0  0  0  0  0  0  0  0  0  0  0  # atno 17370 bound_to 10713
  156.8172  130.4972  149.5348 LP  0  0  0  0  0  0  0  0  0  0  0  0  # atno 17371 bound_to 10713
  140.1074  134.9498  157.2014 LP  0  0  0  0  0  0  0  0  0  0  0  0  # atno 17394 bound_to 11000
  140.3239  134.2886  155.7241 LP  0  0  0  0  0  0  0  0  0  0  0  0  # atno 17395 bound_to 11000

$$$$
