#       Name:                AV-unprocessed.smi:978
#       Creating user name   scv26
#       Creation time:       Fri Mar 27 02:21:35 2020


#       File generated by GOLD software.
#

@<TRIPOS>MOLECULE
AV-unprocessed.smi:978
    44    45     1
SMALL
NO_CHARGES


@<TRIPOS>ATOM
      1 ****        -3.5534  -2.5249  -0.8414 C.3            1 S1                 0.0000
      2 ****        -4.1201  -1.1680  -1.1548 C.2            1 S1                 0.0000
      3 ****        -5.4085  -1.0617  -1.4457 N.2            1 S1                 0.0000
      4 ****        -5.6421   0.2861  -1.7592 O.3            1 S1                 0.0000
      5 ****        -4.4747   0.9716  -1.6474 C.2            1 S1                 0.0000
      6 ****        -4.5119   2.4294  -1.9599 C.3            1 S1                 0.0000
      7 ****        -3.4964   0.1116  -1.2435 C.2            1 S1                 0.0000
      8 ****        -2.1392   0.4719  -1.0478 N.am           1 S1                 0.0000
      9 ****        -1.3025  -0.0144  -0.1186 C.2            1 S1                 0.0000
     10 ****        -1.6025  -0.8522   0.7313 O.2            1 S1                 0.0000
     11 ****        -0.0874   0.5447  -0.2116 N.am           1 S1                 0.0000
     12 ****         1.0402   0.2490   0.6677 C.3            1 S1                 0.0000
     13 ****         2.0479   1.4100   0.6363 C.3            1 S1                 0.0000
     14 ****         3.2873   1.0942   1.4913 C.3            1 S1                 0.0000
     15 ****         3.9282  -0.1719   1.0560 N.4            1 S1                 1.0000
     16 ****         5.1879  -0.4440   1.7811 C.3            1 S1                 0.0000
     17 ****         2.9876  -1.3186   1.1093 C.3            1 S1                 0.0000
     18 ****         1.7433  -1.0551   0.2451 C.3            1 S1                 0.0000
     19 ****        -2.5305  -2.6195  -1.2055 H              1 S1                 0.0000
     20 ****        -4.1375  -3.3190  -1.3078 H              1 S1                 0.0000
     21 ****        -3.5478  -2.7083   0.2330 H              1 S1                 0.0000
     22 ****        -3.5057   2.8456  -2.0113 H              1 S1                 0.0000
     23 ****        -5.0642   2.9738  -1.1938 H              1 S1                 0.0000
     24 ****        -4.9988   2.6066  -2.9190 H              1 S1                 0.0000
     25 ****        -1.8023   1.2433  -1.6051 H              1 S1                 0.0000
     26 ****         0.0659   1.2289  -0.9383 H              1 S1                 0.0000
     27 ****         0.6736   0.1413   1.6907 H              1 S1                 0.0000
     28 ****         2.3583   1.6056  -0.3914 H              1 S1                 0.0000
     29 ****         1.5762   2.3252   0.9966 H              1 S1                 0.0000
     30 ****         4.0030   1.9130   1.4087 H              1 S1                 0.0000
     31 ****         3.0090   1.0209   2.5439 H              1 S1                 0.0000
     32 ****         5.0025  -0.5980   2.8450 H              1 S1                 0.0000
     33 ****         5.8838   0.3884   1.6715 H              1 S1                 0.0000
     34 ****         5.6739  -1.3365   1.3860 H              1 S1                 0.0000
     35 ****         3.4902  -2.2204   0.7572 H              1 S1                 0.0000
     36 ****         2.6933  -1.5030   2.1438 H              1 S1                 0.0000
     37 ****         1.0576  -1.8995   0.3270 H              1 S1                 0.0000
     38 ****         2.0360  -0.9959  -0.8045 H              1 S1                 0.0000
     39 ****         4.1788  -0.0491   0.0852 H              1 S1                 0.0000
     40 ****        -6.0837  -1.7993  -1.4425 LP             1 S1                 0.0000
     41 ****        -6.3166   0.6661  -1.1263 LP             1 S1                 0.0000
     42 ****        -5.9857   0.3584  -2.6955 LP             1 S1                 0.0000
     43 ****        -2.5311  -1.2219   0.7630 LP             1 S1                 0.0000
     44 ****        -0.9177  -1.1634   1.3903 LP             1 S1                 0.0000
@<TRIPOS>BOND
    1    1    2 1     
    2    1   19 1     
    3    1   20 1     
    4    1   21 1     
    5    2    7 1     
    6    2    3 2     
    7    3    4 1     
    8    4    5 1     
    9    5    6 1     
   10    5    7 2     
   11    6   22 1     
   12    6   23 1     
   13    6   24 1     
   14    7    8 1     
   15    8    9 am    
   16    8   25 1     
   17    9   10 2     
   18    9   11 am    
   19   11   12 1     
   20   11   26 1     
   21   12   18 1     
   22   12   13 1     
   23   12   27 1     
   24   13   14 1     
   25   13   28 1     
   26   13   29 1     
   27   14   15 1     
   28   14   30 1     
   29   14   31 1     
   30   15   16 1     
   31   15   17 1     
   32   15   39 1     
   33   16   32 1     
   34   16   33 1     
   35   16   34 1     
   36   17   18 1     
   37   17   35 1     
   38   17   36 1     
   39   18   37 1     
   40   18   38 1     
   41    3   40 1     
   42    4   41 1     
   43    4   42 1     
   44   10   43 1     
   45   10   44 1     
@<TRIPOS>SUBSTRUCTURE
      1 S1             1
@<TRIPOS>SET
LONE_PAIRS      STATIC     ATOMS    <user>   **** ""
5 40 41 42 43 44
DONOR_HYDROGENS      STATIC     ATOMS    <user>   **** ""
3 25 26 39
ATOM$BLUE        STATIC     ATOMS    COLORGROUP SYSTEM
5 40 41 42 43 44
ATOM$RED        STATIC     ATOMS    COLORGROUP SYSTEM
3 25 26 39
