AV-unprocessed.smi:3204|AV-procd|sdf|12250|dock2
  -GOLD-   2272018 83D 1   1.00000     0.00000
 Structure written by MMmdl.
 30 31  0  0  0  0  0  0  0  0  1 V2000
  152.1990  144.8205  159.3117 C   0  0  0  0  0  0  0  0  0  0  0  0
  152.1580  143.7188  160.3766 C   0  0  0  0  0  0  0  0  0  0  0  0
  152.6813  142.3929  159.8562 C   0  0  0  0  0  0  0  0  0  0  0  0
  153.8820  141.9868  160.3263 N   0  0  0  0  0  0  0  0  0  0  0  0
  154.3420  140.8188  159.8713 C   0  0  0  0  0  0  0  0  0  0  0  0
  153.7373  140.0064  159.0006 N   0  0  0  0  0  0  0  0  0  0  0  0
  152.5307  140.3962  158.5241 C   0  0  0  0  0  0  0  0  0  0  0  0
  151.8522  139.5819  157.6060 N   0  0  0  0  0  0  0  0  0  0  0  0
  151.8912  139.8491  156.1725 C   0  0  2  0  0  0  0  0  0  0  0  0
  150.4918  140.1316  155.6233 C   0  0  0  0  0  0  0  0  0  0  0  0
  150.5762  139.7276  154.2689 O   0  0  0  0  0  0  0  0  0  0  0  0
  151.2913  138.5021  154.2477 C   0  0  0  0  0  0  0  0  0  0  0  0
  152.3560  138.6477  155.3425 C   0  0  1  0  0  0  0  0  0  0  0  0
  153.6081  138.9151  154.7447 O   0  0  0  0  0  0  0  0  0  0  0  0
  151.9466  141.6139  158.9352 C   0  0  0  0  0  0  0  0  0  0  0  0
  150.7378  142.0133  158.4696 F   0  0  0  0  0  0  0  0  0  0  0  0
  151.8200  145.7612  159.7117 H   0  0  0  0  0  0  0  0  0  0  0  0
  151.5892  144.5568  158.4471 H   0  0  0  0  0  0  0  0  0  0  0  0
  153.2181  144.9927  158.9642 H   0  0  0  0  0  0  0  0  0  0  0  0
  152.7383  144.0244  161.2476 H   0  0  0  0  0  0  0  0  0  0  0  0
  151.1337  143.5835  160.7266 H   0  0  0  0  0  0  0  0  0  0  0  0
  155.3023  140.4971  160.2461 H   0  0  0  0  0  0  0  0  0  0  0  0
  151.3848  138.7487  157.9332 H   0  0  0  0  0  0  0  0  0  0  0  0
  152.5196  140.7182  155.9703 H   0  0  0  0  0  0  0  0  0  0  0  0
  149.7333  139.5265  156.1240 H   0  0  0  0  0  0  0  0  0  0  0  0
  150.2079  141.1803  155.7154 H   0  0  0  0  0  0  0  0  0  0  0  0
  150.6025  137.6942  154.4991 H   0  0  0  0  0  0  0  0  0  0  0  0
  151.7021  138.2937  153.2590 H   0  0  0  0  0  0  0  0  0  0  0  0
  152.4276  137.7304  155.9288 H   0  0  0  0  0  0  0  0  0  0  0  0
  153.5445  138.7169  153.8226 H   0  0  0  0  0  0  0  0  0  0  0  0
  1  2  1  0  0  0  0
  1 17  1  0  0  0  0
  1 18  1  0  0  0  0
  1 19  1  0  0  0  0
  2  3  1  0  0  0  0
  2 20  1  0  0  0  0
  2 21  1  0  0  0  0
  3 15  1  0  0  0  0
  3  4  2  0  0  0  0
  4  5  1  0  0  0  0
  5  6  2  0  0  0  0
  5 22  1  0  0  0  0
  6  7  1  0  0  0  0
  7  8  1  0  0  0  0
  7 15  2  0  0  0  0
  8  9  1  0  0  0  0
  8 23  1  0  0  0  0
  9 13  1  0  0  0  0
  9 10  1  0  0  0  0
  9 24  1  0  0  0  0
 10 11  1  0  0  0  0
 10 25  1  0  0  0  0
 10 26  1  0  0  0  0
 11 12  1  0  0  0  0
 12 13  1  0  0  0  0
 12 27  1  0  0  0  0
 12 28  1  0  0  0  0
 13 14  1  0  0  0  0
 13 29  1  0  0  0  0
 14 30  1  0  0  0  0
 15 16  1  0  0  0  0
M  END
> <s_m_source_file>
AV-unprocessed.smi

> <i_m_source_file_index>
3204

> <i_lp_mmshare_version>
43012

> <i_f3d_flags>
0

> <s_epik_input>
W0NIM11bQ0gyXWMxbltjSF1uYyhjMUYpW05IXVtDQEBIXTJbQ0gyXU9bQ0gyXVtDQEhdMltPSF0=

> <s_epik_cmdline>
J2VwaWtfcHl0aG9uJywgJy1waCcsICc3LjAnLCAnLXRuJywgJzgnLCAnLW1hJywgJzIwMCcsICctbWV0YWxfYmluZGluZycsICctaW1hZScsICc8aW5maWxlLm1hZT4nLCAnLW9tYWUnLCAnPG91dGZpbGUubWFlPic=

> <r_lp_tautomer_probability>
1

> <r_epik_Ionization_Penalty>
0.000484964

> <r_epik_Ionization_Penalty_Charging>
0

> <r_epik_Ionization_Penalty_Neutral>
0.000484964

> <r_epik_State_Penalty>
-0

> <r_epik_Charging_Adjusted_Penalty>
0

> <i_epik_Tot_Q>
0

> <i_epik_Tot_abs_Q>
0

> <r_epik_Metal_State_Penalty>
-0

> <b_epik_Metal_Only>
0

> <s_lp_Force_Field>
OPLS_2005

> <r_lp_Energy>
13.6654

> <b_lp_Chiralities_Consistent>
1

> <s_lp_Variant>
AV-unprocessed.smi:3204-1

> <Gold.Version>
5.8.1

> <Gold.Id.Protein>
6NUR|6NUR_protein|mol2

> <Gold.PLP.Fitness>
43.2738

> <Gold.PLP.PLP>
-36.1512

> <Gold.PLP.part.hbond>
-3.0000

> <Gold.PLP.part.metal>
0.0000

> <Gold.PLP.part.buried>
-5.8616

> <Gold.PLP.part.nonpolar>
-27.7693

> <Gold.PLP.part.repulsive>
0.2167

> <Gold.PLP.ligand.clash>
0.0000

> <Gold.PLP.ligand.torsion>
0.8717

> <Gold.PLP.Chemscore.Hbond>
2.9520

> <Gold.PLP.Chemscore.CHOScore>
0.0000

> <Gold.PLP.Chemscore.Metal>
0.0000

> <Gold.Chemscore.Hbonds>
donor molecule, donor type, donor heavy atom, donor atom, acceptor molecule, acceptor atom, score
      P1  H  7989  7998       L1    11  1.00
      P1  H  7997  8008       L1    14  0.96
      P1  H  7997  8010       L1     6  0.79

> <Gold.PLP.Chemscore.Internal.Correction>
0.0100

> <Gold.Rescore>
     Score         DG    S(hbond)    S(metal)    S(lipo)     H(rot)  DE(clash)    DE(int)     intcor
     13.34     -14.23       1.46        0.00      73.20       1.83       0.01       0.89       ----

> <Gold.Chemscore.Fitness>
13.3379

> <Gold.Chemscore.DG>
-14.2344

> <Gold.Chemscore.ZeroCoef>
-5.4800

> <Gold.Chemscore.Hbond>
1.4622

> <Gold.Chemscore.Metal>
0.0000

> <Gold.Chemscore.Lipo>
73.2029

> <Gold.Chemscore.Internal_Hbond>
0.0000

> <Gold.Chemscore.DEClash>
0.0102

> <Gold.Chemscore.DEInternal>
0.8863

> <Gold.Chemscore.Rot>
1.8337

> <Gold.Chemscore.Internal.Correction>
   9.000000E+99

> <Gold.Chemscore.Hbonds>
donor molecule, donor type, donor heavy atom, donor atom, acceptor molecule, acceptor atom, score
      P1  H  7989  7998       L1    11  0.30
      P1  H  7997  8008       L1    14  0.87
      P1  H  7997  8010       L1     6  0.15

> <Gold.Chemscore.Hbond.Weighted>
-4.8839

> <Gold.Chemscore.Metal.Weighted>
-0.0000

> <Gold.Chemscore.Lipo.Weighted>
-8.5647

> <Gold.Chemscore.Internal_Hbond.Weighted>
0.0000

> <Gold.Chemscore.DEClash.Weighted>
0.0102

> <Gold.Chemscore.DEInternal.Weighted>
0.8863

> <Gold.Chemscore.Rot.Weighted>
4.6942

> <Gold.Chemscore.Internal.Correction.Weighted>
   9.000000E+99

> <Gold.Protein.RotatedTorsions>
[ 6907 6896 6895 6894 ] final   47.25 input  -60.11 | X-H torsion
[ 7974 7965 7964 7962 ] final   87.35 input  175.53 | X-H torsion
[ 8008 7997 7996 7995 ] final    7.39 input   59.86 | X-H torsion
[ 10167 10162 10161 10158 ] final -165.02 input  -65.29 | X-H torsion
[ 10718 10713 10712 10709 ] final  151.80 input   66.30 | X-H torsion
[ 10763 10752 10751 10750 ] final   15.21 input  -60.55 | X-H torsion
[ 11005 11000 10999 10996 ] final  -13.57 input  -57.11 | X-H torsion

> <Gold.Protein.ActiveResidues>
 VAL166  LYS551  ARG553  GLY616  TRP617  ASP618  TYR619  PRO620  LYS621  CYS622 
 ASP623  PHE694  ASN695  SER759  ASP760  ASP761  ALA762  ILE779  LEU786  VAL792 
 PHE793  MET794  SER795  GLU796  ALA797  LYS798  CYS799  TRP800  GLU811  SER814 

> <Gold.Protein.RotatedAtoms>
  152.2659  134.7984  160.0422 H   0  0  0  0  0  0  0  0  0  0  0  0  # atno 6907 bound_to 6896
  151.8614  133.3453  159.3713 H   0  0  0  0  0  0  0  0  0  0  0  0  # atno 6908 bound_to 6896
  150.7134  134.5130  159.5661 H   0  0  0  0  0  0  0  0  0  0  0  0  # atno 6909 bound_to 6896
  145.5602  139.2303  143.2464 H   0  0  0  0  0  0  0  0  0  0  0  0  # atno 7974 bound_to 7965
  154.7532  140.2771  155.6275 H   0  0  0  0  0  0  0  0  0  0  0  0  # atno 8008 bound_to 7997
  156.2900  140.2674  156.2218 H   0  0  0  0  0  0  0  0  0  0  0  0  # atno 8009 bound_to 7997
  155.0111  140.0372  157.2389 H   0  0  0  0  0  0  0  0  0  0  0  0  # atno 8010 bound_to 7997
  139.6210  144.0624  152.1933 H   0  0  0  0  0  0  0  0  0  0  0  0  # atno 10167 bound_to 10162
  157.2660  131.0807  151.1633 H   0  0  0  0  0  0  0  0  0  0  0  0  # atno 10718 bound_to 10713
  153.1547  135.6785  153.8830 H   0  0  0  0  0  0  0  0  0  0  0  0  # atno 10763 bound_to 10752
  153.8245  135.3126  155.3414 H   0  0  0  0  0  0  0  0  0  0  0  0  # atno 10764 bound_to 10752
  154.7889  135.4846  154.0094 H   0  0  0  0  0  0  0  0  0  0  0  0  # atno 10765 bound_to 10752
  140.7775  133.8389  155.9262 H   0  0  0  0  0  0  0  0  0  0  0  0  # atno 11005 bound_to 11000
  146.1856  140.6427  142.9169 LP  0  0  0  0  0  0  0  0  0  0  0  0  # atno 17320 bound_to 7965
  144.7487  140.5134  143.6817 LP  0  0  0  0  0  0  0  0  0  0  0  0  # atno 17321 bound_to 7965
  140.0266  144.6113  150.7522 LP  0  0  0  0  0  0  0  0  0  0  0  0  # atno 17342 bound_to 10162
  140.7382  143.2775  151.3697 LP  0  0  0  0  0  0  0  0  0  0  0  0  # atno 17343 bound_to 10162
  157.3124  130.6896  149.6223 LP  0  0  0  0  0  0  0  0  0  0  0  0  # atno 17370 bound_to 10713
  155.9663  130.4359  150.5113 LP  0  0  0  0  0  0  0  0  0  0  0  0  # atno 17371 bound_to 10713
  140.9514  134.1773  157.4724 LP  0  0  0  0  0  0  0  0  0  0  0  0  # atno 17394 bound_to 11000
  139.8747  134.9911  156.5532 LP  0  0  0  0  0  0  0  0  0  0  0  0  # atno 17395 bound_to 11000

$$$$
