AV-unprocessed.smi:2710|AV-procd|sdf|10467|dock3
  -GOLD-   2272014503D 1   1.00000     0.00000
 Structure written by MMmdl.
 53 54  0  0  0  0  0  0  0  0  2 V2000
  146.1851  137.9407  151.7064 C   0  0  0  0  0  0  0  0  0  0  0  0
  145.6450  136.8428  152.6351 C   0  0  0  0  0  0  0  0  0  0  0  0
  146.1652  135.4870  152.3105 N   0  3  1  0  0  0  0  0  0  0  0  0
  146.0197  134.5448  153.4525 C   0  0  0  0  0  0  0  0  0  0  0  0
  146.7496  133.2183  153.1851 C   0  0  0  0  0  0  0  0  0  0  0  0
  146.2591  132.5678  151.8838 C   0  0  2  0  0  0  0  0  0  0  0  0
  147.0154  131.3470  151.6193 N   0  0  0  0  0  0  0  0  0  0  0  0
  146.9055  130.2072  152.3173 C   0  0  0  0  0  0  0  0  0  0  0  0
  146.1334  130.0673  153.2649 O   0  0  0  0  0  0  0  0  0  0  0  0
  147.7455  129.2691  151.8474 N   0  0  0  0  0  0  0  0  0  0  0  0
  147.9395  127.9349  152.2983 C   0  0  0  0  0  0  0  0  0  0  0  0
  148.9016  127.0238  151.7984 C   0  0  0  0  0  0  0  0  0  0  0  0
  149.0178  125.7734  152.2945 N   0  0  0  0  0  0  0  0  0  0  0  0
  148.2144  125.4241  153.3077 C   0  0  0  0  0  0  0  0  0  0  0  0
  148.2522  123.9543  153.7613 C   0  0  0  0  0  0  0  0  0  0  0  0
  147.2267  123.6933  154.8901 C   0  0  0  0  0  0  0  0  0  0  0  0
  149.6357  123.5883  154.3483 C   0  0  0  0  0  0  0  0  0  0  0  0
  147.9428  123.0397  152.5620 C   0  0  0  0  0  0  0  0  0  0  0  0
  147.2514  126.1973  153.8262 N   0  0  0  0  0  0  0  0  0  0  0  0
  147.1250  127.4497  153.3411 C   0  0  0  0  0  0  0  0  0  0  0  0
  146.4116  133.5724  150.7259 C   0  0  0  0  0  0  0  0  0  0  0  0
  145.6948  134.9088  151.0124 C   0  0  1  0  0  0  0  0  0  0  0  0
  144.1596  134.7779  150.9111 C   0  0  0  0  0  0  0  0  0  0  0  0
  145.8791  138.9250  152.0619 H   0  0  0  0  0  0  0  0  0  0  0  0
  145.8078  137.8381  150.6890 H   0  0  0  0  0  0  0  0  0  0  0  0
  147.2746  137.9278  151.6694 H   0  0  0  0  0  0  0  0  0  0  0  0
  145.9505  137.0929  153.6519 H   0  0  0  0  0  0  0  0  0  0  0  0
  144.5550  136.8475  152.6419 H   0  0  0  0  0  0  0  0  0  0  0  0
  146.4348  134.9970  154.3540 H   0  0  0  0  0  0  0  0  0  0  0  0
  144.9640  134.3633  153.6565 H   0  0  0  0  0  0  0  0  0  0  0  0
  147.8236  133.4020  153.1273 H   0  0  0  0  0  0  0  0  0  0  0  0
  146.5967  132.5393  154.0246 H   0  0  0  0  0  0  0  0  0  0  0  0
  145.2064  132.3065  152.0054 H   0  0  0  0  0  0  0  0  0  0  0  0
  147.6755  131.3739  150.8558 H   0  0  0  0  0  0  0  0  0  0  0  0
  148.3430  129.5539  151.0851 H   0  0  0  0  0  0  0  0  0  0  0  0
  149.5917  127.2689  151.0070 H   0  0  0  0  0  0  0  0  0  0  0  0
  147.2841  122.6651  155.2489 H   0  0  0  0  0  0  0  0  0  0  0  0
  146.2006  123.8518  154.5563 H   0  0  0  0  0  0  0  0  0  0  0  0
  147.4013  124.3484  155.7445 H   0  0  0  0  0  0  0  0  0  0  0  0
  149.8977  124.2391  155.1834 H   0  0  0  0  0  0  0  0  0  0  0  0
  150.4298  123.6675  153.6050 H   0  0  0  0  0  0  0  0  0  0  0  0
  149.6518  122.5617  154.7159 H   0  0  0  0  0  0  0  0  0  0  0  0
  147.9616  121.9876  152.8481 H   0  0  0  0  0  0  0  0  0  0  0  0
  148.6713  123.1763  151.7619 H   0  0  0  0  0  0  0  0  0  0  0  0
  146.9563  123.2505  152.1474 H   0  0  0  0  0  0  0  0  0  0  0  0
  146.3579  128.0668  153.7857 H   0  0  0  0  0  0  0  0  0  0  0  0
  147.4719  133.7682  150.5585 H   0  0  0  0  0  0  0  0  0  0  0  0
  146.0360  133.1420  149.7965 H   0  0  0  0  0  0  0  0  0  0  0  0
  146.0067  135.5856  150.2178 H   0  0  0  0  0  0  0  0  0  0  0  0
  143.8755  134.3255  149.9604 H   0  0  0  0  0  0  0  0  0  0  0  0
  143.6660  135.7484  150.9545 H   0  0  0  0  0  0  0  0  0  0  0  0
  143.7413  134.1556  151.7014 H   0  0  0  0  0  0  0  0  0  0  0  0
  147.1617  135.6091  152.1996 H   0  0  0  0  0  0  0  0  0  0  0  0
  1  2  1  0  0  0  0
  1 24  1  0  0  0  0
  1 25  1  0  0  0  0
  1 26  1  0  0  0  0
  2  3  1  0  0  0  0
  2 27  1  0  0  0  0
  2 28  1  0  0  0  0
  3 22  1  0  0  0  0
  3  4  1  0  0  0  0
  3 53  1  0  0  0  0
  4  5  1  0  0  0  0
  4 29  1  0  0  0  0
  4 30  1  0  0  0  0
  5  6  1  0  0  0  0
  5 31  1  0  0  0  0
  5 32  1  0  0  0  0
  6  7  1  0  0  0  0
  6 21  1  0  0  0  0
  6 33  1  0  0  0  0
  7  8  1  0  0  0  0
  7 34  1  0  0  0  0
  8  9  2  0  0  0  0
  8 10  1  0  0  0  0
 10 11  1  0  0  0  0
 10 35  1  0  0  0  0
 11 20  1  0  0  0  0
 11 12  2  0  0  0  0
 12 13  1  0  0  0  0
 12 36  1  0  0  0  0
 13 14  2  0  0  0  0
 14 15  1  0  0  0  0
 14 19  1  0  0  0  0
 15 16  1  0  0  0  0
 15 17  1  0  0  0  0
 15 18  1  0  0  0  0
 16 37  1  0  0  0  0
 16 38  1  0  0  0  0
 16 39  1  0  0  0  0
 17 40  1  0  0  0  0
 17 41  1  0  0  0  0
 17 42  1  0  0  0  0
 18 43  1  0  0  0  0
 18 44  1  0  0  0  0
 18 45  1  0  0  0  0
 19 20  2  0  0  0  0
 20 46  1  0  0  0  0
 21 22  1  0  0  0  0
 21 47  1  0  0  0  0
 21 48  1  0  0  0  0
 22 23  1  0  0  0  0
 22 49  1  0  0  0  0
 23 50  1  0  0  0  0
 23 51  1  0  0  0  0
 23 52  1  0  0  0  0
M  CHG  1   3   1
M  END
> <s_m_source_file>
AV-unprocessed.smi

> <i_m_source_file_index>
2710

> <i_lp_mmshare_version>
43012

> <i_f3d_flags>
0

> <s_epik_input>
W0NIM11bQ0gyXU4xW0NIMl1bQ0gyXVtDQEhdKFtDSDJdW0NASF0xW0NIM10pW05IXUMoPU8pW05IXWMyW2NIXW5jKEMoW0NIM10pKFtDSDNdKVtDSDNdKW5bY0hdMg==

> <s_epik_cmdline>
J2VwaWtfcHl0aG9uJywgJy1waCcsICc3LjAnLCAnLXRuJywgJzgnLCAnLW1hJywgJzIwMCcsICctbWV0YWxfYmluZGluZycsICctaW1hZScsICc8aW5maWxlLm1hZT4nLCAnLW9tYWUnLCAnPG91dGZpbGUubWFlPic=

> <r_lp_tautomer_probability>
1

> <r_epik_Ionization_Penalty>
0.00396003

> <r_epik_Ionization_Penalty_Charging>
0.0039379

> <r_epik_Ionization_Penalty_Neutral>
2.21316e-05

> <r_epik_State_Penalty>
0.00281651

> <r_epik_Charging_Adjusted_Penalty>
0.00675441

> <i_epik_Tot_Q>
1

> <i_epik_Tot_abs_Q>
1

> <r_epik_Metal_State_Penalty>
-0

> <b_epik_Metal_Only>
0

> <s_lp_Force_Field>
OPLS_2005

> <r_lp_Energy>
21.0802

> <b_lp_Chiralities_Consistent>
1

> <s_lp_Variant>
AV-unprocessed.smi:2710-4

> <Gold.Version>
5.8.1

> <Gold.Id.Protein>
6NUR|6NUR_protein|mol2

> <Gold.PLP.Fitness>
43.2347

> <Gold.PLP.PLP>
-29.5457

> <Gold.PLP.part.hbond>
-3.7682

> <Gold.PLP.part.metal>
0.0000

> <Gold.PLP.part.buried>
-2.0144

> <Gold.PLP.part.nonpolar>
-23.9323

> <Gold.PLP.part.repulsive>
0.3315

> <Gold.PLP.ligand.clash>
0.0000

> <Gold.PLP.ligand.torsion>
0.2968

> <Gold.PLP.Chemscore.Hbond>
3.9680

> <Gold.PLP.Chemscore.CHOScore>
0.7344

> <Gold.PLP.Chemscore.Metal>
0.0000

> <Gold.Chemscore.Hbonds>
donor molecule, donor type, donor heavy atom, donor atom, acceptor molecule, acceptor atom, score
      L1  H     3    53       P1  7948  2.00
      L1  H     7    34       P1 10747  0.91
      L1  H    10    35       P1 10747  0.94
      L1  C    12    36       P1 10737  0.70

> <Gold.PLP.Chemscore.Internal.Correction>
0.1754

> <Gold.Rescore>
     Score         DG    S(hbond)    S(metal)    S(lipo)     H(rot)  DE(clash)    DE(int)     intcor
     16.31     -18.14       2.60        0.00      62.74       1.31       0.22       1.62       ----

> <Gold.Chemscore.Fitness>
16.3069

> <Gold.Chemscore.DG>
-18.1440

> <Gold.Chemscore.ZeroCoef>
-5.4800

> <Gold.Chemscore.Hbond>
2.5964

> <Gold.Chemscore.Metal>
0.0000

> <Gold.Chemscore.Lipo>
62.7411

> <Gold.Chemscore.Internal_Hbond>
0.0000

> <Gold.Chemscore.DEClash>
0.2211

> <Gold.Chemscore.DEInternal>
1.6160

> <Gold.Chemscore.Rot>
1.3081

> <Gold.Chemscore.Internal.Correction>
   9.000000E+99

> <Gold.Chemscore.Hbonds>
donor molecule, donor type, donor heavy atom, donor atom, acceptor molecule, acceptor atom, score
      L1  H     3    53       P1  7948  1.00
      L1  H     7    34       P1 10747  0.84
      L1  H    10    35       P1 10747  0.27

> <Gold.Chemscore.Hbond.Weighted>
-8.6721

> <Gold.Chemscore.Metal.Weighted>
-0.0000

> <Gold.Chemscore.Lipo.Weighted>
-7.3407

> <Gold.Chemscore.Internal_Hbond.Weighted>
0.0000

> <Gold.Chemscore.DEClash.Weighted>
0.2211

> <Gold.Chemscore.DEInternal.Weighted>
1.6160

> <Gold.Chemscore.Rot.Weighted>
3.3488

> <Gold.Chemscore.Internal.Correction.Weighted>
   9.000000E+99

> <Gold.Protein.RotatedTorsions>
[ 6907 6896 6895 6894 ] final  -37.09 input  -60.11 | X-H torsion
[ 7974 7965 7964 7962 ] final  -72.46 input  175.53 | X-H torsion
[ 8008 7997 7996 7995 ] final  -43.23 input   59.86 | X-H torsion
[ 10167 10162 10161 10158 ] final -178.57 input  -65.29 | X-H torsion
[ 10718 10713 10712 10709 ] final   42.45 input   66.30 | X-H torsion
[ 10763 10752 10751 10750 ] final -120.96 input  -60.55 | X-H torsion
[ 11005 11000 10999 10996 ] final -153.58 input  -57.11 | X-H torsion

> <Gold.Protein.ActiveResidues>
 VAL166  LYS551  ARG553  GLY616  TRP617  ASP618  TYR619  PRO620  LYS621  CYS622 
 ASP623  PHE694  ASN695  SER759  ASP760  ASP761  ALA762  ILE779  LEU786  VAL792 
 PHE793  MET794  SER795  GLU796  ALA797  LYS798  CYS799  TRP800  GLU811  SER814 

> <Gold.Protein.RotatedAtoms>
  151.0190  134.9454  159.8048 H   0  0  0  0  0  0  0  0  0  0  0  0  # atno 6907 bound_to 6896
  152.5320  134.2928  159.9059 H   0  0  0  0  0  0  0  0  0  0  0  0  # atno 6908 bound_to 6896
  151.2936  133.4112  159.2669 H   0  0  0  0  0  0  0  0  0  0  0  0  # atno 6909 bound_to 6896
  145.6648  140.9241  143.0914 H   0  0  0  0  0  0  0  0  0  0  0  0  # atno 7974 bound_to 7965
  154.3997  140.1453  156.3485 H   0  0  0  0  0  0  0  0  0  0  0  0  # atno 8008 bound_to 7997
  155.8291  140.3466  155.5540 H   0  0  0  0  0  0  0  0  0  0  0  0  # atno 8009 bound_to 7997
  155.8207  140.0897  157.1841 H   0  0  0  0  0  0  0  0  0  0  0  0  # atno 8010 bound_to 7997
  139.5426  144.2321  152.0926 H   0  0  0  0  0  0  0  0  0  0  0  0  # atno 10167 bound_to 10162
  157.4050  130.7881  149.7381 H   0  0  0  0  0  0  0  0  0  0  0  0  # atno 10718 bound_to 10713
  154.8657  135.4184  154.2543 H   0  0  0  0  0  0  0  0  0  0  0  0  # atno 10763 bound_to 10752
  153.3483  135.6997  153.6815 H   0  0  0  0  0  0  0  0  0  0  0  0  # atno 10764 bound_to 10752
  153.5765  135.3581  155.2831 H   0  0  0  0  0  0  0  0  0  0  0  0  # atno 10765 bound_to 10752
  140.7066  134.3879  157.5203 H   0  0  0  0  0  0  0  0  0  0  0  0  # atno 11005 bound_to 11000
  144.7076  139.8496  143.7425 LP  0  0  0  0  0  0  0  0  0  0  0  0  # atno 17320 bound_to 7965
  146.1095  139.4098  143.0297 LP  0  0  0  0  0  0  0  0  0  0  0  0  # atno 17321 bound_to 7965
  140.1802  144.4852  150.6532 LP  0  0  0  0  0  0  0  0  0  0  0  0  # atno 17342 bound_to 10162
  140.6662  143.2269  151.5736 LP  0  0  0  0  0  0  0  0  0  0  0  0  # atno 17343 bound_to 10162
  155.9834  130.4001  150.3366 LP  0  0  0  0  0  0  0  0  0  0  0  0  # atno 17370 bound_to 10713
  157.1498  131.0318  151.2890 LP  0  0  0  0  0  0  0  0  0  0  0  0  # atno 17371 bound_to 10713
  139.8882  134.8861  156.2484 LP  0  0  0  0  0  0  0  0  0  0  0  0  # atno 17394 bound_to 11000
  141.0120  133.7090  156.1126 LP  0  0  0  0  0  0  0  0  0  0  0  0  # atno 17395 bound_to 11000

$$$$
