AV-unprocessed.smi:2226|AV-procd|sdf|9009|dock2
  -GOLD-   2272012213D 1   1.00000     0.00000
 Structure written by MMmdl.
 40 42  0  0  0  0  0  0  0  0  2 V2000
  149.6722  138.8798  154.1912 C   0  0  0  0  0  0  0  0  0  0  0  0
  148.4015  138.3471  153.6444 N   0  3  2  0  0  0  0  0  0  0  0  0
  147.6380  139.2990  152.8029 C   0  0  2  0  0  0  0  0  0  0  0  0
  147.0278  140.4426  153.6518 C   0  0  0  0  0  0  0  0  0  0  0  0
  146.2230  139.9622  154.8731 C   0  0  0  0  0  0  0  0  0  0  0  0
  146.8899  138.7785  155.5959 C   0  0  0  0  0  0  0  0  0  0  0  0
  147.5054  137.7210  154.6457 C   0  0  1  0  0  0  0  0  0  0  0  0
  146.4838  136.8189  153.9146 C   0  0  0  0  0  0  0  0  0  0  0  0
  145.7740  137.4577  152.6890 C   0  0  1  0  0  0  0  0  0  0  0  0
  144.4456  137.9769  153.0055 N   0  0  0  0  0  0  0  0  0  0  0  0
  143.3783  137.2557  153.3823 C   0  0  0  0  0  0  0  0  0  0  0  0
  143.4357  136.0275  153.4984 O   0  0  0  0  0  0  0  0  0  0  0  0
  142.3002  138.0955  153.6179 N   0  0  0  0  0  0  0  0  0  0  0  0
  141.2656  137.6428  154.2561 C   0  0  0  0  0  0  0  0  0  0  0  0
  140.1001  138.3235  154.5700 N   0  0  0  0  0  0  0  0  0  0  0  0
  139.2785  137.4686  155.2519 C   0  0  0  0  0  0  0  0  0  0  0  0
  139.9005  136.2987  155.3651 C   0  0  0  0  0  0  0  0  0  0  0  0
  141.1216  136.3728  154.7660 O   0  0  0  0  0  0  0  0  0  0  0  0
  146.6300  138.5084  151.9364 C   0  0  0  0  0  0  0  0  0  0  0  0
  149.5103  139.7037  154.8857 H   0  0  0  0  0  0  0  0  0  0  0  0
  150.3114  139.2392  153.3845 H   0  0  0  0  0  0  0  0  0  0  0  0
  150.2173  138.0962  154.7180 H   0  0  0  0  0  0  0  0  0  0  0  0
  148.3388  139.7616  152.1061 H   0  0  0  0  0  0  0  0  0  0  0  0
  147.8360  141.0830  154.0062 H   0  0  0  0  0  0  0  0  0  0  0  0
  146.4047  141.0836  153.0274 H   0  0  0  0  0  0  0  0  0  0  0  0
  146.0979  140.7894  155.5724 H   0  0  0  0  0  0  0  0  0  0  0  0
  145.2107  139.7033  154.5816 H   0  0  0  0  0  0  0  0  0  0  0  0
  147.6771  139.1704  156.2404 H   0  0  0  0  0  0  0  0  0  0  0  0
  146.1736  138.3067  156.2695 H   0  0  0  0  0  0  0  0  0  0  0  0
  148.1113  137.0556  155.2626 H   0  0  0  0  0  0  0  0  0  0  0  0
  147.0347  135.9524  153.5462 H   0  0  0  0  0  0  0  0  0  0  0  0
  145.7630  136.4099  154.6237 H   0  0  0  0  0  0  0  0  0  0  0  0
  145.5954  136.6533  151.9723 H   0  0  0  0  0  0  0  0  0  0  0  0
  144.3245  138.9770  152.9350 H   0  0  0  0  0  0  0  0  0  0  0  0
  139.8563  139.2798  154.3564 H   0  0  0  0  0  0  0  0  0  0  0  0
  138.3084  137.7983  155.5935 H   0  0  0  0  0  0  0  0  0  0  0  0
  139.6225  135.3602  155.8214 H   0  0  0  0  0  0  0  0  0  0  0  0
  145.9983  139.1899  151.3650 H   0  0  0  0  0  0  0  0  0  0  0  0
  147.2122  137.9700  151.1871 H   0  0  0  0  0  0  0  0  0  0  0  0
  148.6824  137.6001  153.0253 H   0  0  0  0  0  0  0  0  0  0  0  0
  1  2  1  0  0  0  0
  1 20  1  0  0  0  0
  1 21  1  0  0  0  0
  1 22  1  0  0  0  0
  2  7  1  0  0  0  0
  2  3  1  0  0  0  0
  2 40  1  0  0  0  0
  3 19  1  0  0  0  0
  3  4  1  0  0  0  0
  3 23  1  0  0  0  0
  4  5  1  0  0  0  0
  4 24  1  0  0  0  0
  4 25  1  0  0  0  0
  5  6  1  0  0  0  0
  5 26  1  0  0  0  0
  5 27  1  0  0  0  0
  6  7  1  0  0  0  0
  6 28  1  0  0  0  0
  6 29  1  0  0  0  0
  7  8  1  0  0  0  0
  7 30  1  0  0  0  0
  8  9  1  0  0  0  0
  8 31  1  0  0  0  0
  8 32  1  0  0  0  0
  9 10  1  0  0  0  0
  9 19  1  0  0  0  0
  9 33  1  0  0  0  0
 10 34  1  0  0  0  0
 10 11  1  0  0  0  0
 11 13  1  0  0  0  0
 11 12  2  0  0  0  0
 13 14  2  0  0  0  0
 14 18  1  0  0  0  0
 14 15  1  0  0  0  0
 15 35  1  0  0  0  0
 15 16  1  0  0  0  0
 16 36  1  0  0  0  0
 16 17  2  0  0  0  0
 17 37  1  0  0  0  0
 17 18  1  0  0  0  0
 19 38  1  0  0  0  0
 19 39  1  0  0  0  0
M  CHG  1   2   1
M  END
> <s_m_source_file>
AV-unprocessed.smi

> <i_m_source_file_index>
2226

> <i_lp_mmshare_version>
43012

> <i_f3d_flags>
0

> <s_epik_input>
W0NIMl0xW0NIMl1bQ0gyXVtDQEhdKE4oW0NIM10pW0NIXTEyKVtDSDJdW0NASF0oW0NIMl0yKVtOSF1DKD1PKVtOSF1jM25bY0hdW2NIXW8z

> <s_epik_cmdline>
J2VwaWtfcHl0aG9uJywgJy1waCcsICc3LjAnLCAnLXRuJywgJzgnLCAnLW1hJywgJzIwMCcsICctbWV0YWxfYmluZGluZycsICctaW1hZScsICc8aW5maWxlLm1hZT4nLCAnLW9tYWUnLCAnPG91dGZpbGUubWFlPic=

> <r_lp_tautomer_probability>
0.107061

> <r_epik_Ionization_Penalty>
1.08307

> <r_epik_Ionization_Penalty_Charging>
1.08272

> <r_epik_Ionization_Penalty_Neutral>
0.000345913

> <r_epik_State_Penalty>
2.5744

> <r_epik_Charging_Adjusted_Penalty>
3.65713

> <i_epik_Tot_Q>
1

> <i_epik_Tot_abs_Q>
1

> <r_epik_Metal_State_Penalty>
3.72133

> <b_epik_Metal_Only>
0

> <s_lp_Force_Field>
OPLS_2005

> <r_lp_Energy>
58.5529

> <b_lp_Chiralities_Consistent>
1

> <s_lp_Variant>
AV-unprocessed.smi:2226-9

> <Gold.Version>
5.8.1

> <Gold.Id.Protein>
6NUR|6NUR_protein|mol2

> <Gold.PLP.Fitness>
34.6697

> <Gold.PLP.PLP>
-23.2600

> <Gold.PLP.part.hbond>
-3.0000

> <Gold.PLP.part.metal>
0.0000

> <Gold.PLP.part.buried>
0.1902

> <Gold.PLP.part.nonpolar>
-24.1068

> <Gold.PLP.part.repulsive>
2.9650

> <Gold.PLP.ligand.clash>
0.0000

> <Gold.PLP.ligand.torsion>
0.1557

> <Gold.PLP.Chemscore.Hbond>
3.0000

> <Gold.PLP.Chemscore.CHOScore>
0.8896

> <Gold.PLP.Chemscore.Metal>
0.0000

> <Gold.Chemscore.Hbonds>
donor molecule, donor type, donor heavy atom, donor atom, acceptor molecule, acceptor atom, score
      L1  H     2    40       P1  7948  2.00
      L1  H    10    34       P1 10175  1.00

> <Gold.PLP.Chemscore.Internal.Correction>
0.0522

> <Gold.Rescore>
     Score         DG    S(hbond)    S(metal)    S(lipo)     H(rot)  DE(clash)    DE(int)     intcor
     13.15     -17.20       2.00        0.00      65.02       1.00       2.28       1.77       ----

> <Gold.Chemscore.Fitness>
13.1453

> <Gold.Chemscore.DG>
-17.1994

> <Gold.Chemscore.ZeroCoef>
-5.4800

> <Gold.Chemscore.Hbond>
1.9977

> <Gold.Chemscore.Metal>
0.0000

> <Gold.Chemscore.Lipo>
65.0181

> <Gold.Chemscore.Internal_Hbond>
0.0000

> <Gold.Chemscore.DEClash>
2.2794

> <Gold.Chemscore.DEInternal>
1.7746

> <Gold.Chemscore.Rot>
1.0000

> <Gold.Chemscore.Internal.Correction>
   9.000000E+99

> <Gold.Chemscore.Hbonds>
donor molecule, donor type, donor heavy atom, donor atom, acceptor molecule, acceptor atom, score
      L1  H     2    40       P1  7948  1.00
      L1  H    10    34       P1 10175  0.99

> <Gold.Chemscore.Hbond.Weighted>
-6.6723

> <Gold.Chemscore.Metal.Weighted>
-0.0000

> <Gold.Chemscore.Lipo.Weighted>
-7.6071

> <Gold.Chemscore.Internal_Hbond.Weighted>
0.0000

> <Gold.Chemscore.DEClash.Weighted>
2.2794

> <Gold.Chemscore.DEInternal.Weighted>
1.7746

> <Gold.Chemscore.Rot.Weighted>
2.5600

> <Gold.Chemscore.Internal.Correction.Weighted>
   9.000000E+99

> <Gold.Protein.RotatedTorsions>
[ 6907 6896 6895 6894 ] final  -98.17 input  -60.11 | X-H torsion
[ 7974 7965 7964 7962 ] final   94.59 input  175.53 | X-H torsion
[ 8008 7997 7996 7995 ] final  140.65 input   59.86 | X-H torsion
[ 10167 10162 10161 10158 ] final -145.31 input  -65.29 | X-H torsion
[ 10718 10713 10712 10709 ] final  106.52 input   66.30 | X-H torsion
[ 10763 10752 10751 10750 ] final    1.28 input  -60.55 | X-H torsion
[ 11005 11000 10999 10996 ] final -165.93 input  -57.11 | X-H torsion

> <Gold.Protein.ActiveResidues>
 VAL166  LYS551  ARG553  GLY616  TRP617  ASP618  TYR619  PRO620  LYS621  CYS622 
 ASP623  PHE694  ASN695  SER759  ASP760  ASP761  ALA762  ILE779  LEU786  VAL792 
 PHE793  MET794  SER795  GLU796  ALA797  LYS798  CYS799  TRP800  GLU811  SER814 

> <Gold.Protein.RotatedAtoms>
  150.7038  134.1235  159.4043 H   0  0  0  0  0  0  0  0  0  0  0  0  # atno 6907 bound_to 6896
  151.9221  135.0291  160.0532 H   0  0  0  0  0  0  0  0  0  0  0  0  # atno 6908 bound_to 6896
  152.2247  133.4976  159.5219 H   0  0  0  0  0  0  0  0  0  0  0  0  # atno 6909 bound_to 6896
  145.4635  139.2285  143.2974 H   0  0  0  0  0  0  0  0  0  0  0  0  # atno 7974 bound_to 7965
  156.2976  140.2336  156.4435 H   0  0  0  0  0  0  0  0  0  0  0  0  # atno 8008 bound_to 7997
  154.8165  140.0440  157.1400 H   0  0  0  0  0  0  0  0  0  0  0  0  # atno 8009 bound_to 7997
  154.9364  140.3023  155.5146 H   0  0  0  0  0  0  0  0  0  0  0  0  # atno 8010 bound_to 7997
  139.7818  143.8091  152.2639 H   0  0  0  0  0  0  0  0  0  0  0  0  # atno 10167 bound_to 10162
  157.6665  131.0852  150.6019 H   0  0  0  0  0  0  0  0  0  0  0  0  # atno 10718 bound_to 10713
  153.3100  135.6962  153.7124 H   0  0  0  0  0  0  0  0  0  0  0  0  # atno 10763 bound_to 10752
  153.6005  135.3463  155.2944 H   0  0  0  0  0  0  0  0  0  0  0  0  # atno 10764 bound_to 10752
  154.8573  135.4339  154.2235 H   0  0  0  0  0  0  0  0  0  0  0  0  # atno 10765 bound_to 10752
  140.5702  134.5245  157.5160 H   0  0  0  0  0  0  0  0  0  0  0  0  # atno 11005 bound_to 11000
  146.2437  140.5406  142.8923 LP  0  0  0  0  0  0  0  0  0  0  0  0  # atno 17320 bound_to 7965
  144.7988  140.6174  143.6492 LP  0  0  0  0  0  0  0  0  0  0  0  0  # atno 17321 bound_to 7965
  139.8155  144.7318  150.9640 LP  0  0  0  0  0  0  0  0  0  0  0  0  # atno 17342 bound_to 10162
  140.7818  143.4209  151.0843 LP  0  0  0  0  0  0  0  0  0  0  0  0  # atno 17343 bound_to 10162
  156.6320  130.4434  149.5783 LP  0  0  0  0  0  0  0  0  0  0  0  0  # atno 17370 bound_to 10713
  156.2275  130.6774  151.1430 LP  0  0  0  0  0  0  0  0  0  0  0  0  # atno 17371 bound_to 10713
  139.9365  134.7865  156.0788 LP  0  0  0  0  0  0  0  0  0  0  0  0  # atno 17394 bound_to 11000
  141.1061  133.6659  156.2867 LP  0  0  0  0  0  0  0  0  0  0  0  0  # atno 17395 bound_to 11000

$$$$
