#       Name:                AV-unprocessed.smi:3162
#       Creating user name   scv26
#       Creation time:       Fri Mar 27 17:50:11 2020


#       File generated by GOLD software.
#

@<TRIPOS>MOLECULE
AV-unprocessed.smi:3162
    40    40     1
SMALL
NO_CHARGES


@<TRIPOS>ATOM
      1 ****        -4.3760   2.4604   0.9361 C.3            1 S1                 0.0000
      2 ****        -3.5959   1.1494   1.1224 C.3            1 S1                 0.0000
      3 ****        -2.1430   1.1936   0.5997 C.3            1 S1                 0.0000
      4 ****        -1.4342  -0.0284   1.0271 N.3            1 S1                 0.0000
      5 ****        -0.0039  -0.0762   0.7296 C.3            1 S1                 0.0000
      6 ****         0.7192  -0.5246   2.0106 C.3            1 S1                 0.0000
      7 ****         0.2509  -1.0305  -0.4593 C.3            1 S1                 0.0000
      8 ****         1.6583  -1.1461  -0.7939 N.pl3          1 S1                 0.0000
      9 ****         2.4933  -2.2307  -0.6301 C.2            1 S1                 0.0000
     10 ****         3.7278  -1.8726  -1.0929 C.2            1 S1                 0.0000
     11 ****         4.9866  -2.6902  -1.1343 C.3            1 S1                 0.0000
     12 ****         3.5399  -0.5309  -1.5312 C.2            1 S1                 0.0000
     13 ****         2.3017  -0.1001  -1.3544 N.2            1 S1                 0.0000
     14 ****        -2.0903   1.4178  -0.9230 C.2            1 S1                 0.0000
     15 ****        -1.3154   2.4097  -1.3686 N.am           1 S1                 0.0000
     16 ****        -2.7249   0.6915  -1.6859 O.2            1 S1                 0.0000
     17 ****        -5.3666   2.3857   1.3848 H              1 S1                 0.0000
     18 ****        -4.5124   2.7042  -0.1177 H              1 S1                 0.0000
     19 ****        -3.8598   3.2953   1.4108 H              1 S1                 0.0000
     20 ****        -3.5803   0.9169   2.1882 H              1 S1                 0.0000
     21 ****        -4.1428   0.3322   0.6495 H              1 S1                 0.0000
     22 ****        -1.6518   2.0397   1.0844 H              1 S1                 0.0000
     23 ****        -1.8914  -0.8681   0.7015 H              1 S1                 0.0000
     24 ****         0.3625   0.9224   0.4860 H              1 S1                 0.0000
     25 ****         1.8015  -0.5219   1.8790 H              1 S1                 0.0000
     26 ****         0.4233  -1.5323   2.3044 H              1 S1                 0.0000
     27 ****         0.4957   0.1443   2.8424 H              1 S1                 0.0000
     28 ****        -0.1294  -2.0271  -0.2306 H              1 S1                 0.0000
     29 ****        -0.2772  -0.6988  -1.3531 H              1 S1                 0.0000
     30 ****         2.1442  -3.1574  -0.1989 H              1 S1                 0.0000
     31 ****         5.8130  -2.1404  -1.5855 H              1 S1                 0.0000
     32 ****         4.8537  -3.6034  -1.7148 H              1 S1                 0.0000
     33 ****         5.3059  -2.9870  -0.1351 H              1 S1                 0.0000
     34 ****         4.2638   0.1388  -1.9714 H              1 S1                 0.0000
     35 ****        -1.2527   2.5943  -2.3591 H              1 S1                 0.0000
     36 ****        -0.7963   2.9738  -0.7113 H              1 S1                 0.0000
     37 ****        -1.4900   0.0158   2.0245 LP             1 S1                 0.0000
     38 ****         1.9268   0.7981  -1.5842 LP             1 S1                 0.0000
     39 ****        -3.2822  -0.0534  -1.3191 LP             1 S1                 0.0000
     40 ****        -2.6837   0.8458  -2.6731 LP             1 S1                 0.0000
@<TRIPOS>BOND
    1    1    2 1     
    2    1   17 1     
    3    1   18 1     
    4    1   19 1     
    5    2    3 1     
    6    2   20 1     
    7    2   21 1     
    8    3    4 1     
    9    3   14 1     
   10    3   22 1     
   11    4    5 1     
   12    4   23 1     
   13    5    6 1     
   14    5    7 1     
   15    5   24 1     
   16    6   25 1     
   17    6   26 1     
   18    6   27 1     
   19    7    8 1     
   20    7   28 1     
   21    7   29 1     
   22    8   13 1     
   23    8    9 1     
   24    9   10 2     
   25    9   30 1     
   26   10   11 1     
   27   10   12 1     
   28   11   31 1     
   29   11   32 1     
   30   11   33 1     
   31   12   13 2     
   32   12   34 1     
   33   14   15 am    
   34   14   16 2     
   35   15   35 1     
   36   15   36 1     
   37    4   37 1     
   38   13   38 1     
   39   16   39 1     
   40   16   40 1     
@<TRIPOS>SUBSTRUCTURE
      1 S1             1
@<TRIPOS>SET
LONE_PAIRS      STATIC     ATOMS    <user>   **** ""
4 37 38 39 40
DONOR_HYDROGENS      STATIC     ATOMS    <user>   **** ""
3 23 35 36
ATOM$BLUE        STATIC     ATOMS    COLORGROUP SYSTEM
4 37 38 39 40
ATOM$RED        STATIC     ATOMS    COLORGROUP SYSTEM
3 23 35 36
