AV-unprocessed.smi:2265|AV-procd|sdf|9144|dock7
  -GOLD-   2272012353D 1   1.00000     0.00000
 Structure written by MMmdl.
 36 37  0  0  0  0  0  0  0  0  1 V2000
  151.3555  139.1125  155.1176 C   0  0  0  0  0  0  0  0  0  0  0  0
  149.9757  139.7445  154.9053 C   0  0  0  0  0  0  0  0  0  0  0  0
  148.9892  138.7877  154.2231 C   0  0  0  0  0  0  0  0  0  0  0  0
  147.6239  139.4192  154.0153 C   0  0  1  0  0  0  0  0  0  0  0  0
  147.1815  139.8805  152.6520 C   0  0  0  0  0  0  0  0  0  0  0  0
  146.4970  138.6963  153.3042 C   0  0  1  0  0  0  0  0  0  0  0  0
  146.7398  137.4063  152.7299 N   0  0  0  0  0  0  0  0  0  0  0  0
  145.8321  136.5351  152.2546 C   0  0  0  0  0  0  0  0  0  0  0  0
  144.6338  136.8163  152.2465 O   0  0  0  0  0  0  0  0  0  0  0  0
  146.3711  135.3933  151.7727 N   0  0  0  0  0  0  0  0  0  0  0  0
  145.7182  134.3040  151.1831 C   0  0  0  0  0  0  0  0  0  0  0  0
  144.7870  134.4308  150.2793 N   0  0  0  0  0  0  0  0  0  0  0  0
  144.1575  133.3216  149.7142 C   0  0  0  0  0  0  0  0  0  0  0  0
  144.4909  132.0735  150.0893 C   0  0  0  0  0  0  0  0  0  0  0  0
  145.4806  131.8578  151.0584 N   0  0  0  0  0  0  0  0  0  0  0  0
  145.8069  130.4799  151.4266 C   0  0  0  0  0  0  0  0  0  0  0  0
  146.1312  132.9020  151.6398 C   0  0  0  0  0  0  0  0  0  0  0  0
  147.0113  132.7624  152.4916 O   0  0  0  0  0  0  0  0  0  0  0  0
  152.0344  139.8152  155.6008 H   0  0  0  0  0  0  0  0  0  0  0  0
  151.8032  138.8159  154.1688 H   0  0  0  0  0  0  0  0  0  0  0  0
  151.2893  138.2262  155.7491 H   0  0  0  0  0  0  0  0  0  0  0  0
  149.5735  140.0601  155.8685 H   0  0  0  0  0  0  0  0  0  0  0  0
  150.0825  140.6483  154.3043 H   0  0  0  0  0  0  0  0  0  0  0  0
  149.3952  138.4682  153.2627 H   0  0  0  0  0  0  0  0  0  0  0  0
  148.8631  137.8880  154.8264 H   0  0  0  0  0  0  0  0  0  0  0  0
  147.3117  140.0425  154.8513 H   0  0  0  0  0  0  0  0  0  0  0  0
  146.6260  140.8144  152.5963 H   0  0  0  0  0  0  0  0  0  0  0  0
  147.8468  139.6864  151.8128 H   0  0  0  0  0  0  0  0  0  0  0  0
  145.4879  138.8962  153.6615 H   0  0  0  0  0  0  0  0  0  0  0  0
  147.7105  137.1600  152.5999 H   0  0  0  0  0  0  0  0  0  0  0  0
  147.3766  135.3302  151.8375 H   0  0  0  0  0  0  0  0  0  0  0  0
  143.3998  133.5192  148.9705 H   0  0  0  0  0  0  0  0  0  0  0  0
  144.0330  131.1850  149.6799 H   0  0  0  0  0  0  0  0  0  0  0  0
  146.8251  130.2369  151.1204 H   0  0  0  0  0  0  0  0  0  0  0  0
  145.1399  129.7545  150.9596 H   0  0  0  0  0  0  0  0  0  0  0  0
  145.7337  130.3398  152.5061 H   0  0  0  0  0  0  0  0  0  0  0  0
  1  2  1  0  0  0  0
  1 19  1  0  0  0  0
  1 20  1  0  0  0  0
  1 21  1  0  0  0  0
  2  3  1  0  0  0  0
  2 22  1  0  0  0  0
  2 23  1  0  0  0  0
  3  4  1  0  0  0  0
  3 24  1  0  0  0  0
  3 25  1  0  0  0  0
  4  6  1  0  0  0  0
  4  5  1  0  0  0  0
  4 26  1  0  0  0  0
  5  6  1  0  0  0  0
  5 27  1  0  0  0  0
  5 28  1  0  0  0  0
  6  7  1  0  0  0  0
  6 29  1  0  0  0  0
  7  8  1  0  0  0  0
  7 30  1  0  0  0  0
  8  9  2  0  0  0  0
  8 10  1  0  0  0  0
 10 11  1  0  0  0  0
 10 31  1  0  0  0  0
 11 17  1  0  0  0  0
 11 12  2  0  0  0  0
 12 13  1  0  0  0  0
 13 14  2  0  0  0  0
 13 32  1  0  0  0  0
 14 15  1  0  0  0  0
 14 33  1  0  0  0  0
 15 16  1  0  0  0  0
 15 17  1  0  0  0  0
 16 34  1  0  0  0  0
 16 35  1  0  0  0  0
 16 36  1  0  0  0  0
 17 18  2  0  0  0  0
M  END
> <s_m_source_file>
AV-unprocessed.smi

> <i_m_source_file_index>
2265

> <i_lp_mmshare_version>
43012

> <i_f3d_flags>
0

> <s_epik_input>
W0NIM11bQ0gyXVtDSDJdW0NAQEhdMVtDSDJdW0NASF0xW05IXUMoPU8pW05IXWMybltjSF1bY0hdbihbQ0gzXSljMj1P

> <s_epik_cmdline>
J2VwaWtfcHl0aG9uJywgJy1waCcsICc3LjAnLCAnLXRuJywgJzgnLCAnLW1hJywgJzIwMCcsICctbWV0YWxfYmluZGluZycsICctaW1hZScsICc8aW5maWxlLm1hZT4nLCAnLW9tYWUnLCAnPG91dGZpbGUubWFlPic=

> <r_lp_tautomer_probability>
1

> <r_epik_Ionization_Penalty>
0.000728552

> <r_epik_Ionization_Penalty_Charging>
1.67739e-07

> <r_epik_Ionization_Penalty_Neutral>
0.000728385

> <r_epik_State_Penalty>
-0

> <r_epik_Charging_Adjusted_Penalty>
1.67739e-07

> <i_epik_Tot_Q>
0

> <i_epik_Tot_abs_Q>
0

> <r_epik_Metal_State_Penalty>
-0

> <b_epik_Metal_Only>
0

> <s_lp_Force_Field>
OPLS_2005

> <r_lp_Energy>
43.9495

> <b_lp_Chiralities_Consistent>
1

> <s_lp_Variant>
AV-unprocessed.smi:2265-2

> <Gold.Version>
5.8.1

> <Gold.Id.Protein>
6NUR|6NUR_protein|mol2

> <Gold.PLP.Fitness>
39.9786

> <Gold.PLP.PLP>
-31.9549

> <Gold.PLP.part.hbond>
-2.0000

> <Gold.PLP.part.metal>
0.0000

> <Gold.PLP.part.buried>
-1.2811

> <Gold.PLP.part.nonpolar>
-28.5677

> <Gold.PLP.part.repulsive>
0.9140

> <Gold.PLP.ligand.clash>
0.0000

> <Gold.PLP.ligand.torsion>
0.7629

> <Gold.PLP.Chemscore.Hbond>
2.0000

> <Gold.PLP.Chemscore.CHOScore>
0.9972

> <Gold.PLP.Chemscore.Metal>
0.0000

> <Gold.Chemscore.Hbonds>
donor molecule, donor type, donor heavy atom, donor atom, acceptor molecule, acceptor atom, score
      L1  H     7    30       P1  7948  1.00
      L1  H    10    31       P1  7948  0.94
      L1  C    13    32       P1 10186  0.69

> <Gold.PLP.Chemscore.Internal.Correction>
0.5578

> <Gold.Rescore>
     Score         DG    S(hbond)    S(metal)    S(lipo)     H(rot)  DE(clash)    DE(int)     intcor
     15.16     -16.18       1.94        0.00      67.97       1.46       0.06       0.95       ----

> <Gold.Chemscore.Fitness>
15.1588

> <Gold.Chemscore.DG>
-16.1759

> <Gold.Chemscore.ZeroCoef>
-5.4800

> <Gold.Chemscore.Hbond>
1.9407

> <Gold.Chemscore.Metal>
0.0000

> <Gold.Chemscore.Lipo>
67.9733

> <Gold.Chemscore.Internal_Hbond>
0.0000

> <Gold.Chemscore.DEClash>
0.0635

> <Gold.Chemscore.DEInternal>
0.9537

> <Gold.Chemscore.Rot>
1.4604

> <Gold.Chemscore.Internal.Correction>
   9.000000E+99

> <Gold.Chemscore.Hbonds>
donor molecule, donor type, donor heavy atom, donor atom, acceptor molecule, acceptor atom, score
      L1  H     7    30       P1  7948  0.96
      L1  H    10    31       P1  7948  0.89

> <Gold.Chemscore.Hbond.Weighted>
-6.4818

> <Gold.Chemscore.Metal.Weighted>
-0.0000

> <Gold.Chemscore.Lipo.Weighted>
-7.9529

> <Gold.Chemscore.Internal_Hbond.Weighted>
0.0000

> <Gold.Chemscore.DEClash.Weighted>
0.0635

> <Gold.Chemscore.DEInternal.Weighted>
0.9537

> <Gold.Chemscore.Rot.Weighted>
3.7387

> <Gold.Chemscore.Internal.Correction.Weighted>
   9.000000E+99

> <Gold.Protein.RotatedTorsions>
[ 6907 6896 6895 6894 ] final    0.69 input  -60.11 | X-H torsion
[ 7974 7965 7964 7962 ] final  164.78 input  175.53 | X-H torsion
[ 8008 7997 7996 7995 ] final  116.33 input   59.86 | X-H torsion
[ 10167 10162 10161 10158 ] final -160.95 input  -65.29 | X-H torsion
[ 10718 10713 10712 10709 ] final  113.82 input   66.30 | X-H torsion
[ 10763 10752 10751 10750 ] final   97.51 input  -60.55 | X-H torsion
[ 11005 11000 10999 10996 ] final -118.34 input  -57.11 | X-H torsion

> <Gold.Protein.ActiveResidues>
 VAL166  LYS551  ARG553  GLY616  TRP617  ASP618  TYR619  PRO620  LYS621  CYS622 
 ASP623  PHE694  ASN695  SER759  ASP760  ASP761  ALA762  ILE779  LEU786  VAL792 
 PHE793  MET794  SER795  GLU796  ALA797  LYS798  CYS799  TRP800  GLU811  SER814 

> <Gold.Protein.RotatedAtoms>
  151.5805  135.1058  160.0015 H   0  0  0  0  0  0  0  0  0  0  0  0  # atno 6907 bound_to 6896
  152.4356  133.7351  159.6620 H   0  0  0  0  0  0  0  0  0  0  0  0  # atno 6908 bound_to 6896
  150.8254  133.8111  159.3144 H   0  0  0  0  0  0  0  0  0  0  0  0  # atno 6909 bound_to 6896
  144.7530  139.8375  143.6359 H   0  0  0  0  0  0  0  0  0  0  0  0  # atno 7974 bound_to 7965
  156.2433  140.2920  156.0507 H   0  0  0  0  0  0  0  0  0  0  0  0  # atno 8008 bound_to 7997
  155.1885  140.0406  157.2913 H   0  0  0  0  0  0  0  0  0  0  0  0  # atno 8009 bound_to 7997
  154.6211  140.2476  155.7556 H   0  0  0  0  0  0  0  0  0  0  0  0  # atno 8010 bound_to 7997
  139.6501  144.0099  152.2155 H   0  0  0  0  0  0  0  0  0  0  0  0  # atno 10167 bound_to 10162
  157.6316  131.0989  150.7097 H   0  0  0  0  0  0  0  0  0  0  0  0  # atno 10718 bound_to 10713
  153.2778  135.4180  155.1050 H   0  0  0  0  0  0  0  0  0  0  0  0  # atno 10763 bound_to 10752
  154.8479  135.3488  154.6154 H   0  0  0  0  0  0  0  0  0  0  0  0  # atno 10764 bound_to 10752
  153.6574  135.7050  153.5246 H   0  0  0  0  0  0  0  0  0  0  0  0  # atno 10765 bound_to 10752
  141.0293  134.0006  157.3167 H   0  0  0  0  0  0  0  0  0  0  0  0  # atno 11005 bound_to 11000
  146.1506  139.4588  143.0051 LP  0  0  0  0  0  0  0  0  0  0  0  0  # atno 17320 bound_to 7965
  145.6875  141.0173  143.1573 LP  0  0  0  0  0  0  0  0  0  0  0  0  # atno 17321 bound_to 7965
  139.9811  144.6427  150.7900 LP  0  0  0  0  0  0  0  0  0  0  0  0  # atno 17342 bound_to 10162
  140.7534  143.3007  151.3088 LP  0  0  0  0  0  0  0  0  0  0  0  0  # atno 17343 bound_to 10162
  156.7435  130.4746  149.5472 LP  0  0  0  0  0  0  0  0  0  0  0  0  # atno 17370 bound_to 10713
  156.1524  130.6319  151.0613 LP  0  0  0  0  0  0  0  0  0  0  0  0  # atno 17371 bound_to 10713
  139.9197  135.0199  156.8016 LP  0  0  0  0  0  0  0  0  0  0  0  0  # atno 17394 bound_to 11000
  140.6436  133.9796  155.7719 LP  0  0  0  0  0  0  0  0  0  0  0  0  # atno 17395 bound_to 11000

$$$$
