AV-unprocessed.smi:1536|AV-procd|sdf|6188|dock1
  -GOLD-   22720 6353D 1   1.00000     0.00000
 Structure written by MMmdl.
 48 49  0  0  0  0  0  0  0  0  2 V2000
  152.0560  144.2397  160.6896 C   0  0  0  0  0  0  0  0  0  0  0  0
  151.5675  144.8912  159.3838 C   0  0  2  0  0  0  0  0  0  0  0  0
  150.0347  144.8482  159.2353 C   0  0  0  0  0  0  0  0  0  0  0  0
  149.5220  143.4373  158.8965 C   0  0  0  0  0  0  0  0  0  0  0  0
  150.1945  142.9098  157.6797 N   0  3  2  0  0  0  0  0  0  0  0  0
  149.5635  141.6891  157.0838 C   0  0  2  0  0  0  0  0  0  0  0  0
  149.5241  140.4612  158.0434 C   0  0  0  0  0  0  0  0  0  0  0  0
  148.9481  139.2528  157.4595 N   0  0  0  0  0  0  0  0  0  0  0  0
  148.6324  138.1420  158.1426 C   0  0  0  0  0  0  0  0  0  0  0  0
  148.8372  138.0177  159.3508 O   0  0  0  0  0  0  0  0  0  0  0  0
  148.0143  137.0060  157.3192 C   0  0  0  0  0  0  0  0  0  0  0  0
  148.5126  135.6977  157.7054 N   0  0  0  0  0  0  0  0  0  0  0  0
  147.8695  134.5776  158.0420 C   0  0  0  0  0  0  0  0  0  0  0  0
  148.7123  133.5951  158.3207 N   0  0  0  0  0  0  0  0  0  0  0  0
  149.9526  134.1823  158.1343 N   0  0  0  0  0  0  0  0  0  0  0  0
  149.8405  135.4300  157.7689 N   0  0  0  0  0  0  0  0  0  0  0  0
  150.2387  141.3589  155.7204 C   0  0  0  0  0  0  0  0  0  0  0  0
  149.2579  140.6864  154.7386 C   0  0  0  0  0  0  0  0  0  0  0  0
  151.4838  140.4635  155.8683 C   0  0  0  0  0  0  0  0  0  0  0  0
  151.6753  142.8770  157.8152 C   0  0  0  0  0  0  0  0  0  0  0  0
  152.2235  144.2793  158.1316 C   0  0  0  0  0  0  0  0  0  0  0  0
  151.7985  143.1823  160.7457 H   0  0  0  0  0  0  0  0  0  0  0  0
  151.6168  144.7315  161.5578 H   0  0  0  0  0  0  0  0  0  0  0  0
  153.1393  144.3201  160.7840 H   0  0  0  0  0  0  0  0  0  0  0  0
  151.8647  145.9396  159.4318 H   0  0  0  0  0  0  0  0  0  0  0  0
  149.5564  145.2119  160.1454 H   0  0  0  0  0  0  0  0  0  0  0  0
  149.7333  145.5336  158.4420 H   0  0  0  0  0  0  0  0  0  0  0  0
  149.6851  142.7748  159.7440 H   0  0  0  0  0  0  0  0  0  0  0  0
  148.4444  143.4835  158.7352 H   0  0  0  0  0  0  0  0  0  0  0  0
  148.5298  141.9437  156.8455 H   0  0  0  0  0  0  0  0  0  0  0  0
  150.5276  140.2088  158.3858 H   0  0  0  0  0  0  0  0  0  0  0  0
  148.9589  140.7022  158.9439 H   0  0  0  0  0  0  0  0  0  0  0  0
  148.7455  139.2743  156.4703 H   0  0  0  0  0  0  0  0  0  0  0  0
  146.9285  137.0174  157.4273 H   0  0  0  0  0  0  0  0  0  0  0  0
  148.2368  137.1648  156.2633 H   0  0  0  0  0  0  0  0  0  0  0  0
  146.7944  134.4823  158.0792 H   0  0  0  0  0  0  0  0  0  0  0  0
  150.5692  142.2910  155.2615 H   0  0  0  0  0  0  0  0  0  0  0  0
  148.8524  139.7629  155.1533 H   0  0  0  0  0  0  0  0  0  0  0  0
  149.7525  140.4353  153.7997 H   0  0  0  0  0  0  0  0  0  0  0  0
  148.4202  141.3364  154.4856 H   0  0  0  0  0  0  0  0  0  0  0  0
  151.2541  139.5505  156.4187 H   0  0  0  0  0  0  0  0  0  0  0  0
  152.2964  140.9745  156.3836 H   0  0  0  0  0  0  0  0  0  0  0  0
  151.8748  140.1699  154.8935 H   0  0  0  0  0  0  0  0  0  0  0  0
  151.9711  142.1791  158.5981 H   0  0  0  0  0  0  0  0  0  0  0  0
  152.1251  142.5200  156.8888 H   0  0  0  0  0  0  0  0  0  0  0  0
  152.0389  144.9317  157.2768 H   0  0  0  0  0  0  0  0  0  0  0  0
  153.3067  144.2400  158.2525 H   0  0  0  0  0  0  0  0  0  0  0  0
  150.0174  143.6231  156.9867 H   0  0  0  0  0  0  0  0  0  0  0  0
  1  2  1  0  0  0  0
  1 22  1  0  0  0  0
  1 23  1  0  0  0  0
  1 24  1  0  0  0  0
  2 21  1  0  0  0  0
  2  3  1  0  0  0  0
  2 25  1  0  0  0  0
  3  4  1  0  0  0  0
  3 26  1  0  0  0  0
  3 27  1  0  0  0  0
  4  5  1  0  0  0  0
  4 28  1  0  0  0  0
  4 29  1  0  0  0  0
  5  6  1  0  0  0  0
  5 20  1  0  0  0  0
  5 48  1  0  0  0  0
  6  7  1  0  0  0  0
  6 17  1  0  0  0  0
  6 30  1  0  0  0  0
  7  8  1  0  0  0  0
  7 31  1  0  0  0  0
  7 32  1  0  0  0  0
  8  9  1  0  0  0  0
  8 33  1  0  0  0  0
  9 10  2  0  0  0  0
  9 11  1  0  0  0  0
 11 12  1  0  0  0  0
 11 34  1  0  0  0  0
 11 35  1  0  0  0  0
 12 16  1  0  0  0  0
 12 13  1  0  0  0  0
 13 14  2  0  0  0  0
 13 36  1  0  0  0  0
 14 15  1  0  0  0  0
 15 16  2  0  0  0  0
 17 18  1  0  0  0  0
 17 19  1  0  0  0  0
 17 37  1  0  0  0  0
 18 38  1  0  0  0  0
 18 39  1  0  0  0  0
 18 40  1  0  0  0  0
 19 41  1  0  0  0  0
 19 42  1  0  0  0  0
 19 43  1  0  0  0  0
 20 21  1  0  0  0  0
 20 44  1  0  0  0  0
 20 45  1  0  0  0  0
 21 46  1  0  0  0  0
 21 47  1  0  0  0  0
M  CHG  1   5   1
M  END
> <s_m_source_file>
AV-unprocessed.smi

> <i_m_source_file_index>
1536

> <i_lp_mmshare_version>
43012

> <i_f3d_flags>
0

> <s_epik_input>
W0NIM11bQ0hdMVtDSDJdW0NIMl1OKFtDSDJdW0NIMl0xKVtDQEBIXShbQ0hdKFtDSDNdKVtDSDNdKVtDSDJdW05IXUMoPU8pW0NIMl1uMltjSF1ubm4y

> <s_epik_cmdline>
J2VwaWtfcHl0aG9uJywgJy1waCcsICc3LjAnLCAnLXRuJywgJzgnLCAnLW1hJywgJzIwMCcsICctbWV0YWxfYmluZGluZycsICctaW1hZScsICc8aW5maWxlLm1hZT4nLCAnLW9tYWUnLCAnPG91dGZpbGUubWFlPic=

> <r_lp_tautomer_probability>
1

> <r_epik_Ionization_Penalty>
0.00109671

> <r_epik_Ionization_Penalty_Charging>
0.00109273

> <r_epik_Ionization_Penalty_Neutral>
3.97951e-06

> <r_epik_State_Penalty>
0.000716588

> <r_epik_Charging_Adjusted_Penalty>
0.00180932

> <i_epik_Tot_Q>
1

> <i_epik_Tot_abs_Q>
1

> <r_epik_Metal_State_Penalty>
-0

> <b_epik_Metal_Only>
0

> <s_lp_Force_Field>
OPLS_2005

> <r_lp_Energy>
37.5817

> <b_lp_Chiralities_Consistent>
1

> <s_lp_Variant>
AV-unprocessed.smi:1536-3

> <Gold.Version>
5.8.1

> <Gold.Id.Protein>
6NUR|6NUR_protein|mol2

> <Gold.PLP.Fitness>
41.2586

> <Gold.PLP.PLP>
-33.9197

> <Gold.PLP.part.hbond>
-4.5554

> <Gold.PLP.part.metal>
0.0000

> <Gold.PLP.part.buried>
-3.3603

> <Gold.PLP.part.nonpolar>
-26.8328

> <Gold.PLP.part.repulsive>
0.1061

> <Gold.PLP.ligand.clash>
0.0000

> <Gold.PLP.ligand.torsion>
1.0366

> <Gold.PLP.Chemscore.Hbond>
2.8800

> <Gold.PLP.Chemscore.CHOScore>
0.0000

> <Gold.PLP.Chemscore.Metal>
0.0000

> <Gold.Chemscore.Hbonds>
donor molecule, donor type, donor heavy atom, donor atom, acceptor molecule, acceptor atom, score
      L1  H     5    48       P1  8028  1.92
      P1  H  6896  6909       L1    15  0.73

> <Gold.PLP.Chemscore.Internal.Correction>
0.7720

> <Gold.Rescore>
     Score         DG    S(hbond)    S(metal)    S(lipo)     H(rot)  DE(clash)    DE(int)     intcor
     13.95     -15.07       1.91        0.00      88.06       2.77       0.08       1.04       ----

> <Gold.Chemscore.Fitness>
13.9490

> <Gold.Chemscore.DG>
-15.0672

> <Gold.Chemscore.ZeroCoef>
-5.4800

> <Gold.Chemscore.Hbond>
1.9093

> <Gold.Chemscore.Metal>
0.0000

> <Gold.Chemscore.Lipo>
88.0640

> <Gold.Chemscore.Internal_Hbond>
0.0000

> <Gold.Chemscore.DEClash>
0.0765

> <Gold.Chemscore.DEInternal>
1.0417

> <Gold.Chemscore.Rot>
2.7709

> <Gold.Chemscore.Internal.Correction>
   9.000000E+99

> <Gold.Chemscore.Hbonds>
donor molecule, donor type, donor heavy atom, donor atom, acceptor molecule, acceptor atom, score
      L1  H     5    48       P1  8028  0.88
      P1  H  6896  6909       L1    15  0.46

> <Gold.Chemscore.Hbond.Weighted>
-6.3772

> <Gold.Chemscore.Metal.Weighted>
-0.0000

> <Gold.Chemscore.Lipo.Weighted>
-10.3035

> <Gold.Chemscore.Internal_Hbond.Weighted>
0.0000

> <Gold.Chemscore.DEClash.Weighted>
0.0765

> <Gold.Chemscore.DEInternal.Weighted>
1.0417

> <Gold.Chemscore.Rot.Weighted>
7.0935

> <Gold.Chemscore.Internal.Correction.Weighted>
   9.000000E+99

> <Gold.Protein.RotatedTorsions>
[ 6907 6896 6895 6894 ] final   -3.38 input  -60.11 | X-H torsion
[ 7974 7965 7964 7962 ] final  129.42 input  175.53 | X-H torsion
[ 8008 7997 7996 7995 ] final -138.87 input   59.86 | X-H torsion
[ 10167 10162 10161 10158 ] final  -15.98 input  -65.29 | X-H torsion
[ 10718 10713 10712 10709 ] final -122.18 input   66.30 | X-H torsion
[ 10763 10752 10751 10750 ] final -165.07 input  -60.55 | X-H torsion
[ 11005 11000 10999 10996 ] final  -46.71 input  -57.11 | X-H torsion

> <Gold.Protein.ActiveResidues>
 VAL166  LYS551  ARG553  GLY616  TRP617  ASP618  TYR619  PRO620  LYS621  CYS622 
 ASP623  PHE694  ASN695  SER759  ASP760  ASP761  ALA762  ILE779  LEU786  VAL792 
 PHE793  MET794  SER795  GLU796  ALA797  LYS798  CYS799  TRP800  GLU811  SER814 

> <Gold.Protein.RotatedAtoms>
  151.5147  135.1066  159.9862 H   0  0  0  0  0  0  0  0  0  0  0  0  # atno 6907 bound_to 6896
  152.4646  133.7892  159.6903 H   0  0  0  0  0  0  0  0  0  0  0  0  # atno 6908 bound_to 6896
  150.8624  133.7560  159.3013 H   0  0  0  0  0  0  0  0  0  0  0  0  # atno 6909 bound_to 6896
  145.0289  139.4064  143.5160 H   0  0  0  0  0  0  0  0  0  0  0  0  # atno 7974 bound_to 7965
  155.4355  140.0528  157.3015 H   0  0  0  0  0  0  0  0  0  0  0  0  # atno 8008 bound_to 7997
  154.4841  140.2093  155.9654 H   0  0  0  0  0  0  0  0  0  0  0  0  # atno 8009 bound_to 7997
  156.1249  140.3182  155.8267 H   0  0  0  0  0  0  0  0  0  0  0  0  # atno 8010 bound_to 7997
  140.7227  143.5162  150.9689 H   0  0  0  0  0  0  0  0  0  0  0  0  # atno 10167 bound_to 10162
  156.1397  130.6457  150.9752 H   0  0  0  0  0  0  0  0  0  0  0  0  # atno 10718 bound_to 10713
  154.6968  135.2980  154.9400 H   0  0  0  0  0  0  0  0  0  0  0  0  # atno 10763 bound_to 10752
  154.0345  135.6665  153.4788 H   0  0  0  0  0  0  0  0  0  0  0  0  # atno 10764 bound_to 10752
  153.0651  135.5093  154.8089 H   0  0  0  0  0  0  0  0  0  0  0  0  # atno 10765 bound_to 10752
  141.0596  133.6714  156.3194 H   0  0  0  0  0  0  0  0  0  0  0  0  # atno 11005 bound_to 11000
  146.3496  139.9828  142.8694 LP  0  0  0  0  0  0  0  0  0  0  0  0  # atno 17320 bound_to 7965
  145.1797  140.9761  143.4273 LP  0  0  0  0  0  0  0  0  0  0  0  0  # atno 17321 bound_to 7965
  139.8878  143.6991  152.3149 LP  0  0  0  0  0  0  0  0  0  0  0  0  # atno 17342 bound_to 10162
  139.7296  144.7585  151.0823 LP  0  0  0  0  0  0  0  0  0  0  0  0  # atno 17343 bound_to 10162
  157.6564  131.0888  150.7937 LP  0  0  0  0  0  0  0  0  0  0  0  0  # atno 17370 bound_to 10713
  156.8013  130.4922  149.5369 LP  0  0  0  0  0  0  0  0  0  0  0  0  # atno 17371 bound_to 10713
  140.5895  134.5664  157.5496 LP  0  0  0  0  0  0  0  0  0  0  0  0  # atno 17394 bound_to 11000
  139.9420  134.7769  156.0654 LP  0  0  0  0  0  0  0  0  0  0  0  0  # atno 17395 bound_to 11000

$$$$
