AV-unprocessed.smi:2788|AV-procd|sdf|10761|dock5
  -GOLD-   2272015193D 1   1.00000     0.00000
 Structure written by MMmdl.
 47 48  0  0  0  0  0  0  0  0  1 V2000
  147.2288  137.0875  157.6965 C   0  0  0  0  0  0  0  0  0  0  0  0
  148.1373  135.8988  157.5675 C   0  0  0  0  0  0  0  0  0  0  0  0
  148.4156  135.1715  158.6363 N   0  0  0  0  0  0  0  0  0  0  0  0
  149.2524  134.1433  158.1928 O   0  0  0  0  0  0  0  0  0  0  0  0
  149.4460  134.2922  156.8583 C   0  0  0  0  0  0  0  0  0  0  0  0
  150.2977  133.2648  156.1930 C   0  0  0  0  0  0  0  0  0  0  0  0
  148.7701  135.3894  156.3975 C   0  0  0  0  0  0  0  0  0  0  0  0
  148.6809  135.9230  154.9900 C   0  0  0  0  0  0  0  0  0  0  0  0
  147.2117  136.0050  154.5806 C   0  0  0  0  0  0  0  0  0  0  0  0
  146.3328  135.7157  155.3914 O   0  0  0  0  0  0  0  0  0  0  0  0
  146.9776  136.3718  153.3070 N   0  0  0  0  0  0  0  0  0  0  0  0
  145.6984  136.4291  152.5826 C   0  0  2  0  0  0  0  0  0  0  0  0
  145.9998  137.1118  151.2280 C   0  0  0  0  0  0  0  0  0  0  0  0
  144.6825  137.3060  153.3718 C   0  0  0  0  0  0  0  0  0  0  0  0
  145.1369  138.6351  153.5461 O   0  0  0  0  0  0  0  0  0  0  0  0
  145.1419  134.9738  152.3704 C   0  0  0  0  0  0  0  0  0  0  0  0
  146.0688  134.0533  151.5291 C   0  0  0  0  0  0  0  0  0  0  0  0
  145.5392  132.6126  151.4634 C   0  0  0  0  0  0  0  0  0  0  0  0
  144.1114  132.5707  150.9027 C   0  0  0  0  0  0  0  0  0  0  0  0
  143.1761  133.4717  151.7205 C   0  0  0  0  0  0  0  0  0  0  0  0
  143.7053  134.9138  151.7909 C   0  0  0  0  0  0  0  0  0  0  0  0
  146.2186  136.8398  157.3708 H   0  0  0  0  0  0  0  0  0  0  0  0
  147.5799  137.9193  157.0859 H   0  0  0  0  0  0  0  0  0  0  0  0
  147.1701  137.4386  158.7271 H   0  0  0  0  0  0  0  0  0  0  0  0
  150.5419  133.5564  155.1718 H   0  0  0  0  0  0  0  0  0  0  0  0
  149.7806  132.3059  156.1541 H   0  0  0  0  0  0  0  0  0  0  0  0
  151.2321  133.1250  156.7364 H   0  0  0  0  0  0  0  0  0  0  0  0
  149.1326  136.9122  154.9079 H   0  0  0  0  0  0  0  0  0  0  0  0
  149.2152  135.2880  154.2826 H   0  0  0  0  0  0  0  0  0  0  0  0
  147.7918  136.5932  152.7533 H   0  0  0  0  0  0  0  0  0  0  0  0
  145.0981  137.2551  150.6334 H   0  0  0  0  0  0  0  0  0  0  0  0
  146.7062  136.5394  150.6276 H   0  0  0  0  0  0  0  0  0  0  0  0
  146.4421  138.0984  151.3703 H   0  0  0  0  0  0  0  0  0  0  0  0
  143.7289  137.3626  152.8484 H   0  0  0  0  0  0  0  0  0  0  0  0
  144.4687  136.8822  154.3529 H   0  0  0  0  0  0  0  0  0  0  0  0
  144.5978  139.2075  153.0222 H   0  0  0  0  0  0  0  0  0  0  0  0
  145.0778  134.5173  153.3588 H   0  0  0  0  0  0  0  0  0  0  0  0
  146.1642  134.4383  150.5142 H   0  0  0  0  0  0  0  0  0  0  0  0
  147.0768  134.0235  151.9404 H   0  0  0  0  0  0  0  0  0  0  0  0
  146.1986  132.0033  150.8446 H   0  0  0  0  0  0  0  0  0  0  0  0
  145.5565  132.1708  152.4605 H   0  0  0  0  0  0  0  0  0  0  0  0
  144.1165  132.8956  149.8615 H   0  0  0  0  0  0  0  0  0  0  0  0
  143.7392  131.5458  150.9064 H   0  0  0  0  0  0  0  0  0  0  0  0
  142.1781  133.4638  151.2815 H   0  0  0  0  0  0  0  0  0  0  0  0
  143.0721  133.0708  152.7296 H   0  0  0  0  0  0  0  0  0  0  0  0
  143.0151  135.4979  152.3977 H   0  0  0  0  0  0  0  0  0  0  0  0
  143.6814  135.3458  150.7904 H   0  0  0  0  0  0  0  0  0  0  0  0
  1  2  1  0  0  0  0
  1 22  1  0  0  0  0
  1 23  1  0  0  0  0
  1 24  1  0  0  0  0
  2  7  1  0  0  0  0
  2  3  2  0  0  0  0
  3  4  1  0  0  0  0
  4  5  1  0  0  0  0
  5  6  1  0  0  0  0
  5  7  2  0  0  0  0
  6 25  1  0  0  0  0
  6 26  1  0  0  0  0
  6 27  1  0  0  0  0
  7  8  1  0  0  0  0
  8  9  1  0  0  0  0
  8 28  1  0  0  0  0
  8 29  1  0  0  0  0
  9 10  2  0  0  0  0
  9 11  1  0  0  0  0
 11 12  1  0  0  0  0
 11 30  1  0  0  0  0
 12 13  1  0  0  0  0
 12 14  1  0  0  0  0
 12 16  1  0  0  0  0
 13 31  1  0  0  0  0
 13 32  1  0  0  0  0
 13 33  1  0  0  0  0
 14 15  1  0  0  0  0
 14 34  1  0  0  0  0
 14 35  1  0  0  0  0
 15 36  1  0  0  0  0
 16 21  1  0  0  0  0
 16 17  1  0  0  0  0
 16 37  1  0  0  0  0
 17 18  1  0  0  0  0
 17 38  1  0  0  0  0
 17 39  1  0  0  0  0
 18 19  1  0  0  0  0
 18 40  1  0  0  0  0
 18 41  1  0  0  0  0
 19 20  1  0  0  0  0
 19 42  1  0  0  0  0
 19 43  1  0  0  0  0
 20 21  1  0  0  0  0
 20 44  1  0  0  0  0
 20 45  1  0  0  0  0
 21 46  1  0  0  0  0
 21 47  1  0  0  0  0
M  END
> <s_m_source_file>
AV-unprocessed.smi

> <i_m_source_file_index>
2788

> <i_lp_mmshare_version>
43012

> <i_f3d_flags>
0

> <s_epik_input>
W0NIM11jMW5vYyhbQ0gzXSljMVtDSDJdQyg9TylbTkhdW0NAQF0oW0NIM10pKFtDSDJdW09IXSlbQ0hdMltDSDJdW0NIMl1bQ0gyXVtDSDJdW0NIMl0y

> <s_epik_cmdline>
J2VwaWtfcHl0aG9uJywgJy1waCcsICc3LjAnLCAnLXRuJywgJzgnLCAnLW1hJywgJzIwMCcsICctbWV0YWxfYmluZGluZycsICctaW1hZScsICc8aW5maWxlLm1hZT4nLCAnLW9tYWUnLCAnPG91dGZpbGUubWFlPic=

> <r_lp_tautomer_probability>
1

> <r_epik_Ionization_Penalty>
1.3408e-07

> <r_epik_Ionization_Penalty_Charging>
0

> <r_epik_Ionization_Penalty_Neutral>
1.3408e-07

> <r_epik_State_Penalty>
-0

> <r_epik_Charging_Adjusted_Penalty>
0

> <i_epik_Tot_Q>
0

> <i_epik_Tot_abs_Q>
0

> <r_epik_Metal_State_Penalty>
-0

> <b_epik_Metal_Only>
0

> <s_lp_Force_Field>
OPLS_2005

> <r_lp_Energy>
14.1961

> <b_lp_Chiralities_Consistent>
1

> <s_lp_Variant>
AV-unprocessed.smi:2788-2

> <Gold.Version>
5.8.1

> <Gold.Id.Protein>
6NUR|6NUR_protein|mol2

> <Gold.PLP.Fitness>
32.1835

> <Gold.PLP.PLP>
-23.5076

> <Gold.PLP.part.hbond>
-3.0000

> <Gold.PLP.part.metal>
0.0000

> <Gold.PLP.part.buried>
-1.6070

> <Gold.PLP.part.nonpolar>
-19.1422

> <Gold.PLP.part.repulsive>
0.0229

> <Gold.PLP.ligand.clash>
0.0000

> <Gold.PLP.ligand.torsion>
0.1953

> <Gold.PLP.Chemscore.Hbond>
3.0000

> <Gold.PLP.Chemscore.CHOScore>
0.0000

> <Gold.PLP.Chemscore.Metal>
0.0000

> <Gold.Chemscore.Hbonds>
donor molecule, donor type, donor heavy atom, donor atom, acceptor molecule, acceptor atom, score
      L1  H    11    30       P1  7948  0.94
      L1  H    15    36       P1 10175  1.00
      P1  H  6896  6909       L1     4  1.00

> <Gold.PLP.Chemscore.Internal.Correction>
0.0665

> <Gold.Rescore>
     Score         DG    S(hbond)    S(metal)    S(lipo)     H(rot)  DE(clash)    DE(int)     intcor
     13.59     -16.09       2.77        0.00      60.52       2.24       0.58       1.91       ----

> <Gold.Chemscore.Fitness>
13.5941

> <Gold.Chemscore.DG>
-16.0871

> <Gold.Chemscore.ZeroCoef>
-5.4800

> <Gold.Chemscore.Hbond>
2.7694

> <Gold.Chemscore.Metal>
0.0000

> <Gold.Chemscore.Lipo>
60.5191

> <Gold.Chemscore.Internal_Hbond>
0.0000

> <Gold.Chemscore.DEClash>
0.5819

> <Gold.Chemscore.DEInternal>
1.9111

> <Gold.Chemscore.Rot>
2.2357

> <Gold.Chemscore.Internal.Correction>
   9.000000E+99

> <Gold.Chemscore.Hbonds>
donor molecule, donor type, donor heavy atom, donor atom, acceptor molecule, acceptor atom, score
      L1  H    11    30       P1  7948  0.87
      L1  H    15    36       P1 10175  1.00
      P1  H  6896  6909       L1     4  0.54

> <Gold.Chemscore.Hbond.Weighted>
-9.2499

> <Gold.Chemscore.Metal.Weighted>
-0.0000

> <Gold.Chemscore.Lipo.Weighted>
-7.0807

> <Gold.Chemscore.Internal_Hbond.Weighted>
0.0000

> <Gold.Chemscore.DEClash.Weighted>
0.5819

> <Gold.Chemscore.DEInternal.Weighted>
1.9111

> <Gold.Chemscore.Rot.Weighted>
5.7235

> <Gold.Chemscore.Internal.Correction.Weighted>
   9.000000E+99

> <Gold.Protein.RotatedTorsions>
[ 6907 6896 6895 6894 ] final   19.58 input  -60.11 | X-H torsion
[ 7974 7965 7964 7962 ] final -147.86 input  175.53 | X-H torsion
[ 8008 7997 7996 7995 ] final  -72.95 input   59.86 | X-H torsion
[ 10167 10162 10161 10158 ] final   42.39 input  -65.29 | X-H torsion
[ 10718 10713 10712 10709 ] final   90.24 input   66.30 | X-H torsion
[ 10763 10752 10751 10750 ] final   18.97 input  -60.55 | X-H torsion
[ 11005 11000 10999 10996 ] final -166.88 input  -57.11 | X-H torsion

> <Gold.Protein.ActiveResidues>
 VAL166  LYS551  ARG553  GLY616  TRP617  ASP618  TYR619  PRO620  LYS621  CYS622 
 ASP623  PHE694  ASN695  SER759  ASP760  ASP761  ALA762  ILE779  LEU786  VAL792 
 PHE793  MET794  SER795  GLU796  ALA797  LYS798  CYS799  TRP800  GLU811  SER814 

> <Gold.Protein.RotatedAtoms>
  151.8831  135.0445  160.0490 H   0  0  0  0  0  0  0  0  0  0  0  0  # atno 6907 bound_to 6896
  152.2496  133.5199  159.5326 H   0  0  0  0  0  0  0  0  0  0  0  0  # atno 6908 bound_to 6896
  150.7079  134.0894  159.3969 H   0  0  0  0  0  0  0  0  0  0  0  0  # atno 6909 bound_to 6896
  144.8066  140.5272  143.5671 H   0  0  0  0  0  0  0  0  0  0  0  0  # atno 7974 bound_to 7965
  154.5208  140.0788  156.8167 H   0  0  0  0  0  0  0  0  0  0  0  0  # atno 8008 bound_to 7997
  155.3581  140.3416  155.4222 H   0  0  0  0  0  0  0  0  0  0  0  0  # atno 8009 bound_to 7997
  156.1678  140.1610  156.8487 H   0  0  0  0  0  0  0  0  0  0  0  0  # atno 8010 bound_to 7997
  140.3548  144.2304  150.6142 H   0  0  0  0  0  0  0  0  0  0  0  0  # atno 10167 bound_to 10162
  157.6958  131.0363  150.3548 H   0  0  0  0  0  0  0  0  0  0  0  0  # atno 10718 bound_to 10713
  153.1203  135.6717  153.9348 H   0  0  0  0  0  0  0  0  0  0  0  0  # atno 10763 bound_to 10752
  153.8865  135.3052  155.3448 H   0  0  0  0  0  0  0  0  0  0  0  0  # atno 10764 bound_to 10752
  154.7615  135.4986  153.9552 H   0  0  0  0  0  0  0  0  0  0  0  0  # atno 10765 bound_to 10752
  140.5595  134.5347  157.5140 H   0  0  0  0  0  0  0  0  0  0  0  0  # atno 11005 bound_to 11000
  145.5423  139.1475  143.3440 LP  0  0  0  0  0  0  0  0  0  0  0  0  # atno 17320 bound_to 7965
  146.2359  140.5562  142.8955 LP  0  0  0  0  0  0  0  0  0  0  0  0  # atno 17321 bound_to 7965
  140.5184  143.2272  151.8427 LP  0  0  0  0  0  0  0  0  0  0  0  0  # atno 17342 bound_to 10162
  139.4821  144.4866  151.9238 LP  0  0  0  0  0  0  0  0  0  0  0  0  # atno 17343 bound_to 10162
  156.3991  130.3912  149.6972 LP  0  0  0  0  0  0  0  0  0  0  0  0  # atno 17370 bound_to 10713
  156.4296  130.7808  151.2828 LP  0  0  0  0  0  0  0  0  0  0  0  0  # atno 17371 bound_to 10713
  139.9415  134.7779  156.0667 LP  0  0  0  0  0  0  0  0  0  0  0  0  # atno 17394 bound_to 11000
  141.1123  133.6639  156.3009 LP  0  0  0  0  0  0  0  0  0  0  0  0  # atno 17395 bound_to 11000

$$$$
