AV-unprocessed.smi:1007|AV-procd|sdf|4409|dock9
  -GOLD-   22720 2353D 1   1.00000     0.00000
 Structure written by MMmdl.
 57 59  0  0  0  0  0  0  0  0  3 V2000
  141.6540  135.0264  153.4172 C   0  0  0  0  0  0  0  0  0  0  0  0
  141.6601  136.4239  153.6516 O   0  0  0  0  0  0  0  0  0  0  0  0
  142.6852  137.0910  152.9344 C   0  0  0  0  0  0  0  0  0  0  0  0
  143.9505  137.1330  153.8049 C   0  0  0  0  0  0  0  0  0  0  0  0
  145.1030  136.4492  153.1594 N   0  3  2  0  0  0  0  0  0  0  0  0
  146.1903  136.0475  154.0906 C   0  0  0  0  0  0  0  0  0  0  0  0
  147.0694  137.2428  154.5141 C   0  0  0  0  0  0  0  0  0  0  0  0
  147.5960  137.9774  153.3337 N   0  3  2  0  0  0  0  0  0  0  0  0
  148.4926  139.1077  153.6913 C   0  0  0  0  0  0  0  0  0  0  0  0
  149.5913  138.6969  154.6910 C   0  0  1  0  0  0  0  0  0  0  0  0
  150.2674  137.5631  154.1807 O   0  0  0  0  0  0  0  0  0  0  0  0
  150.6022  139.8348  154.9319 C   0  0  0  0  0  0  0  0  0  0  0  0
  151.2800  139.7152  156.2104 N   0  0  0  0  0  0  0  0  0  0  0  0
  151.7710  138.5899  156.7641 C   0  0  0  0  0  0  0  0  0  0  0  0
  152.3616  138.7019  157.9499 N   0  0  0  0  0  0  0  0  0  0  0  0
  152.2365  140.0581  158.1971 C   0  0  0  0  0  0  0  0  0  0  0  0
  152.6604  140.8319  159.2996 C   0  0  0  0  0  0  0  0  0  0  0  0
  152.4234  142.2243  159.3417 C   0  0  0  0  0  0  0  0  0  0  0  0
  152.8968  143.0180  160.5466 C   0  0  0  0  0  0  0  0  0  0  0  0
  151.7522  142.8637  158.2685 C   0  0  0  0  0  0  0  0  0  0  0  0
  151.4852  144.3585  158.2934 C   0  0  0  0  0  0  0  0  0  0  0  0
  151.3225  142.1058  157.1591 C   0  0  0  0  0  0  0  0  0  0  0  0
  151.5638  140.7208  157.1287 C   0  0  0  0  0  0  0  0  0  0  0  0
  146.4996  138.3927  152.4236 C   0  0  0  0  0  0  0  0  0  0  0  0
  145.6489  137.1838  151.9913 C   0  0  0  0  0  0  0  0  0  0  0  0
  140.8505  134.5624  153.9891 H   0  0  0  0  0  0  0  0  0  0  0  0
  142.5945  134.5704  153.7288 H   0  0  0  0  0  0  0  0  0  0  0  0
  141.4885  134.8031  152.3625 H   0  0  0  0  0  0  0  0  0  0  0  0
  142.8993  136.5446  152.0143 H   0  0  0  0  0  0  0  0  0  0  0  0
  142.3641  138.0916  152.6442 H   0  0  0  0  0  0  0  0  0  0  0  0
  144.1975  138.1804  153.9840 H   0  0  0  0  0  0  0  0  0  0  0  0
  143.7487  136.7000  154.7843 H   0  0  0  0  0  0  0  0  0  0  0  0
  145.7867  135.5434  154.9680 H   0  0  0  0  0  0  0  0  0  0  0  0
  146.8127  135.3097  153.5824 H   0  0  0  0  0  0  0  0  0  0  0  0
  146.5016  137.9267  155.1462 H   0  0  0  0  0  0  0  0  0  0  0  0
  147.8918  136.8723  155.1247 H   0  0  0  0  0  0  0  0  0  0  0  0
  148.9733  139.4984  152.7927 H   0  0  0  0  0  0  0  0  0  0  0  0
  147.8947  139.9271  154.0933 H   0  0  0  0  0  0  0  0  0  0  0  0
  149.1491  138.4228  155.6482 H   0  0  0  0  0  0  0  0  0  0  0  0
  149.7684  137.2094  153.4595 H   0  0  0  0  0  0  0  0  0  0  0  0
  151.3508  139.8595  154.1389 H   0  0  0  0  0  0  0  0  0  0  0  0
  150.0940  140.7998  154.9076 H   0  0  0  0  0  0  0  0  0  0  0  0
  151.6924  137.6338  156.2672 H   0  0  0  0  0  0  0  0  0  0  0  0
  153.1719  140.3443  160.1165 H   0  0  0  0  0  0  0  0  0  0  0  0
  152.0565  143.5159  161.0305 H   0  0  0  0  0  0  0  0  0  0  0  0
  153.6220  143.7743  160.2454 H   0  0  0  0  0  0  0  0  0  0  0  0
  153.3736  142.3735  161.2856 H   0  0  0  0  0  0  0  0  0  0  0  0
  150.9714  144.6861  157.3890 H   0  0  0  0  0  0  0  0  0  0  0  0
  152.4207  144.9136  158.3665 H   0  0  0  0  0  0  0  0  0  0  0  0
  150.8589  144.6203  159.1465 H   0  0  0  0  0  0  0  0  0  0  0  0
  150.8110  142.5816  156.3359 H   0  0  0  0  0  0  0  0  0  0  0  0
  145.8769  139.1409  152.9166 H   0  0  0  0  0  0  0  0  0  0  0  0
  146.9203  138.8675  151.5363 H   0  0  0  0  0  0  0  0  0  0  0  0
  146.2661  136.4958  151.4117 H   0  0  0  0  0  0  0  0  0  0  0  0
  144.8427  137.4974  151.3272 H   0  0  0  0  0  0  0  0  0  0  0  0
  148.1646  137.3268  152.8094 H   0  0  0  0  0  0  0  0  0  0  0  0
  144.7149  135.5943  152.7846 H   0  0  0  0  0  0  0  0  0  0  0  0
  1  2  1  0  0  0  0
  1 26  1  0  0  0  0
  1 27  1  0  0  0  0
  1 28  1  0  0  0  0
  2  3  1  0  0  0  0
  3  4  1  0  0  0  0
  3 29  1  0  0  0  0
  3 30  1  0  0  0  0
  4  5  1  0  0  0  0
  4 31  1  0  0  0  0
  4 32  1  0  0  0  0
  5 25  1  0  0  0  0
  5  6  1  0  0  0  0
  5 57  1  0  0  0  0
  6  7  1  0  0  0  0
  6 33  1  0  0  0  0
  6 34  1  0  0  0  0
  7  8  1  0  0  0  0
  7 35  1  0  0  0  0
  7 36  1  0  0  0  0
  8  9  1  0  0  0  0
  8 24  1  0  0  0  0
  8 56  1  0  0  0  0
  9 10  1  0  0  0  0
  9 37  1  0  0  0  0
  9 38  1  0  0  0  0
 10 11  1  0  0  0  0
 10 12  1  0  0  0  0
 10 39  1  0  0  0  0
 11 40  1  0  0  0  0
 12 13  1  0  0  0  0
 12 41  1  0  0  0  0
 12 42  1  0  0  0  0
 13 23  1  0  0  0  0
 13 14  1  0  0  0  0
 14 15  2  0  0  0  0
 14 43  1  0  0  0  0
 15 16  1  0  0  0  0
 16 23  2  0  0  0  0
 16 17  1  0  0  0  0
 17 18  2  0  0  0  0
 17 44  1  0  0  0  0
 18 19  1  0  0  0  0
 18 20  1  0  0  0  0
 19 45  1  0  0  0  0
 19 46  1  0  0  0  0
 19 47  1  0  0  0  0
 20 21  1  0  0  0  0
 20 22  2  0  0  0  0
 21 48  1  0  0  0  0
 21 49  1  0  0  0  0
 21 50  1  0  0  0  0
 22 23  1  0  0  0  0
 22 51  1  0  0  0  0
 24 25  1  0  0  0  0
 24 52  1  0  0  0  0
 24 53  1  0  0  0  0
 25 54  1  0  0  0  0
 25 55  1  0  0  0  0
M  CHG  1   5   1
M  CHG  1   8   1
M  END
> <s_m_source_file>
AV-unprocessed.smi

> <i_m_source_file_index>
1007

> <i_lp_mmshare_version>
43012

> <i_f3d_flags>
0

> <s_epik_input>
W0NIM11PW0NIMl1bQ0gyXU4xW0NIMl1bQ0gyXU4oW0NIMl1bQ0gyXTEpW0NIMl1bQ0BIXShbT0hdKVtDSDJdbihbY0hdbjIpYyhjMjMpW2NIXWMoW0NIM10pYyhbY0hdMylbQ0gzXQ==

> <s_epik_cmdline>
J2VwaWtfcHl0aG9uJywgJy1waCcsICc3LjAnLCAnLXRuJywgJzgnLCAnLW1hJywgJzIwMCcsICctbWV0YWxfYmluZGluZycsICctaW1hZScsICc8aW5maWxlLm1hZT4nLCAnLW9tYWUnLCAnPG91dGZpbGUubWFlPic=

> <r_epik_Ionization_Penalty>
3.88944

> <r_epik_Ionization_Penalty_Charging>
3.80608

> <r_epik_Ionization_Penalty_Neutral>
0.0833653

> <r_epik_State_Penalty>
2.70739

> <r_epik_Charging_Adjusted_Penalty>
6.51347

> <i_epik_Tot_Q>
2

> <i_epik_Tot_abs_Q>
2

> <r_epik_Metal_State_Penalty>
2.62239

> <b_epik_Metal_Only>
0

> <s_lp_Force_Field>
OPLS_2005

> <r_lp_Energy>
30.9183

> <b_lp_Chiralities_Consistent>
1

> <s_lp_Variant>
AV-unprocessed.smi:1007-12

> <Gold.Version>
5.8.1

> <Gold.Id.Protein>
6NUR|6NUR_protein|mol2

> <Gold.PLP.Fitness>
50.4460

> <Gold.PLP.PLP>
-43.7306

> <Gold.PLP.part.hbond>
-2.1601

> <Gold.PLP.part.metal>
0.0000

> <Gold.PLP.part.buried>
-2.4137

> <Gold.PLP.part.nonpolar>
-39.8616

> <Gold.PLP.part.repulsive>
0.1317

> <Gold.PLP.ligand.clash>
0.0000

> <Gold.PLP.ligand.torsion>
1.2259

> <Gold.PLP.Chemscore.Hbond>
3.0000

> <Gold.PLP.Chemscore.CHOScore>
0.0000

> <Gold.PLP.Chemscore.Metal>
0.0000

> <Gold.Chemscore.Hbonds>
donor molecule, donor type, donor heavy atom, donor atom, acceptor molecule, acceptor atom, score
      L1  H     8    56       P1  7948  2.00
      L1  H    11    40       P1  7948  1.00

> <Gold.PLP.Chemscore.Internal.Correction>
0.1672

> <Gold.Rescore>
     Score         DG    S(hbond)    S(metal)    S(lipo)     H(rot)  DE(clash)    DE(int)     intcor
     17.43     -18.86       1.87        0.00     118.45       2.63       0.30       1.13       ----

> <Gold.Chemscore.Fitness>
17.4343

> <Gold.Chemscore.DG>
-18.8562

> <Gold.Chemscore.ZeroCoef>
-5.4800

> <Gold.Chemscore.Hbond>
1.8749

> <Gold.Chemscore.Metal>
0.0000

> <Gold.Chemscore.Lipo>
118.4514

> <Gold.Chemscore.Internal_Hbond>
0.0000

> <Gold.Chemscore.DEClash>
0.2966

> <Gold.Chemscore.DEInternal>
1.1254

> <Gold.Chemscore.Rot>
2.6347

> <Gold.Chemscore.Internal.Correction>
   9.000000E+99

> <Gold.Chemscore.Hbonds>
donor molecule, donor type, donor heavy atom, donor atom, acceptor molecule, acceptor atom, score
      L1  H     8    56       P1  7948  1.00
      L1  H    11    40       P1  7948  0.58

> <Gold.Chemscore.Hbond.Weighted>
-6.2622

> <Gold.Chemscore.Metal.Weighted>
-0.0000

> <Gold.Chemscore.Lipo.Weighted>
-13.8588

> <Gold.Chemscore.Internal_Hbond.Weighted>
0.0000

> <Gold.Chemscore.DEClash.Weighted>
0.2966

> <Gold.Chemscore.DEInternal.Weighted>
1.1254

> <Gold.Chemscore.Rot.Weighted>
6.7448

> <Gold.Chemscore.Internal.Correction.Weighted>
   9.000000E+99

> <Gold.Protein.RotatedTorsions>
[ 6907 6896 6895 6894 ] final -105.45 input  -60.11 | X-H torsion
[ 7974 7965 7964 7962 ] final  -27.25 input  175.53 | X-H torsion
[ 8008 7997 7996 7995 ] final   87.09 input   59.86 | X-H torsion
[ 10167 10162 10161 10158 ] final   -4.57 input  -65.29 | X-H torsion
[ 10718 10713 10712 10709 ] final  -54.28 input   66.30 | X-H torsion
[ 10763 10752 10751 10750 ] final   46.29 input  -60.55 | X-H torsion
[ 11005 11000 10999 10996 ] final  128.66 input  -57.11 | X-H torsion

> <Gold.Protein.ActiveResidues>
 VAL166  LYS551  ARG553  GLY616  TRP617  ASP618  TYR619  PRO620  LYS621  CYS622 
 ASP623  PHE694  ASN695  SER759  ASP760  ASP761  ALA762  ILE779  LEU786  VAL792 
 PHE793  MET794  SER795  GLU796  ALA797  LYS798  CYS799  TRP800  GLU811  SER814 

> <Gold.Protein.RotatedAtoms>
  150.7338  134.0124  159.3673 H   0  0  0  0  0  0  0  0  0  0  0  0  # atno 6907 bound_to 6896
  151.8084  135.0686  160.0419 H   0  0  0  0  0  0  0  0  0  0  0  0  # atno 6908 bound_to 6896
  152.3090  133.5697  159.5704 H   0  0  0  0  0  0  0  0  0  0  0  0  # atno 6909 bound_to 6896
  146.1371  140.5127  142.8668 H   0  0  0  0  0  0  0  0  0  0  0  0  # atno 7974 bound_to 7965
  155.9710  140.3385  155.6576 H   0  0  0  0  0  0  0  0  0  0  0  0  # atno 8008 bound_to 7997
  155.6674  140.0723  157.2550 H   0  0  0  0  0  0  0  0  0  0  0  0  # atno 8009 bound_to 7997
  154.4166  140.1697  156.1830 H   0  0  0  0  0  0  0  0  0  0  0  0  # atno 8010 bound_to 7997
  140.6932  143.6408  150.8437 H   0  0  0  0  0  0  0  0  0  0  0  0  # atno 10167 bound_to 10162
  156.1464  130.4152  150.0017 H   0  0  0  0  0  0  0  0  0  0  0  0  # atno 10718 bound_to 10713
  152.9812  135.6012  154.3576 H   0  0  0  0  0  0  0  0  0  0  0  0  # atno 10763 bound_to 10752
  154.3260  135.2769  155.2497 H   0  0  0  0  0  0  0  0  0  0  0  0  # atno 10764 bound_to 10752
  154.4643  135.5958  153.6332 H   0  0  0  0  0  0  0  0  0  0  0  0  # atno 10765 bound_to 10752
  139.9573  134.9610  156.9035 H   0  0  0  0  0  0  0  0  0  0  0  0  # atno 11005 bound_to 11000
  144.7751  140.5722  143.6643 LP  0  0  0  0  0  0  0  0  0  0  0  0  # atno 17320 bound_to 7965
  145.5132  139.1478  143.3593 LP  0  0  0  0  0  0  0  0  0  0  0  0  # atno 17321 bound_to 7965
  140.0124  143.5629  152.2834 LP  0  0  0  0  0  0  0  0  0  0  0  0  # atno 17342 bound_to 10162
  139.6357  144.7649  151.2442 LP  0  0  0  0  0  0  0  0  0  0  0  0  # atno 17343 bound_to 10162
  156.7887  130.9248  151.3646 LP  0  0  0  0  0  0  0  0  0  0  0  0  # atno 17370 bound_to 10713
  157.6620  130.8974  149.9851 LP  0  0  0  0  0  0  0  0  0  0  0  0  # atno 17371 bound_to 10713
  140.5580  134.0562  155.7390 LP  0  0  0  0  0  0  0  0  0  0  0  0  # atno 17394 bound_to 11000
  141.1246  133.9404  157.2661 LP  0  0  0  0  0  0  0  0  0  0  0  0  # atno 17395 bound_to 11000

$$$$
