AV-unprocessed.smi:2044|AV-procd|sdf|8299|dock9
  -GOLD-   2272010563D 1   1.00000     0.00000
 Structure written by MMmdl.
 39 40  0  0  0  0  0  0  0  0  1 V2000
  143.8035  132.7090  150.3542 C   0  0  0  0  0  0  0  0  0  0  0  0
  144.3588  133.8373  151.1544 C   0  0  0  0  0  0  0  0  0  0  0  0
  145.6312  134.2881  151.3686 C   0  0  0  0  0  0  0  0  0  0  0  0
  145.4359  135.3993  152.2316 C   0  0  0  0  0  0  0  0  0  0  0  0
  146.5371  136.1610  152.7001 N   0  0  0  0  0  0  0  0  0  0  0  0
  146.5130  137.1885  153.5663 C   0  0  0  0  0  0  0  0  0  0  0  0
  145.5015  137.6392  154.1053 O   0  0  0  0  0  0  0  0  0  0  0  0
  147.7441  137.6749  153.7807 N   0  0  0  0  0  0  0  0  0  0  0  0
  148.0624  138.7884  154.6710 C   0  0  0  0  0  0  0  0  0  0  0  0
  148.8423  139.9394  153.9709 C   0  0  1  0  0  0  0  0  0  0  0  0
  148.0602  141.2633  154.1657 C   0  0  0  0  0  0  0  0  0  0  0  0
  150.2557  140.0403  154.4055 N   0  0  0  0  0  0  0  0  0  0  0  0
  150.9200  138.7325  154.4600 C   0  0  0  0  0  0  0  0  0  0  0  0
  152.3786  138.8192  154.9425 C   0  0  0  0  0  0  0  0  0  0  0  0
  152.4250  139.4430  156.2179 O   0  0  0  0  0  0  0  0  0  0  0  0
  151.8626  140.7472  156.1935 C   0  0  0  0  0  0  0  0  0  0  0  0
  150.4001  140.6742  155.7213 C   0  0  0  0  0  0  0  0  0  0  0  0
  144.1598  135.6084  152.5171 N   0  0  0  0  0  0  0  0  0  0  0  0
  143.4632  134.6090  151.8278 O   0  0  0  0  0  0  0  0  0  0  0  0
  144.5758  131.9725  150.1314 H   0  0  0  0  0  0  0  0  0  0  0  0
  143.3972  133.0696  149.4091 H   0  0  0  0  0  0  0  0  0  0  0  0
  143.0032  132.2047  150.8964 H   0  0  0  0  0  0  0  0  0  0  0  0
  146.5506  133.8848  150.9708 H   0  0  0  0  0  0  0  0  0  0  0  0
  147.4397  135.8957  152.3351 H   0  0  0  0  0  0  0  0  0  0  0  0
  148.5188  137.2436  153.2982 H   0  0  0  0  0  0  0  0  0  0  0  0
  147.1280  139.1710  155.0823 H   0  0  0  0  0  0  0  0  0  0  0  0
  148.6165  138.3680  155.5090 H   0  0  0  0  0  0  0  0  0  0  0  0
  148.8388  139.7245  152.9011 H   0  0  0  0  0  0  0  0  0  0  0  0
  147.0090  141.1694  153.8959 H   0  0  0  0  0  0  0  0  0  0  0  0
  148.4423  142.0652  153.5356 H   0  0  0  0  0  0  0  0  0  0  0  0
  148.1037  141.5983  155.2027 H   0  0  0  0  0  0  0  0  0  0  0  0
  150.3620  138.0622  155.1157 H   0  0  0  0  0  0  0  0  0  0  0  0
  150.9381  138.2697  153.4749 H   0  0  0  0  0  0  0  0  0  0  0  0
  152.8109  137.8217  155.0203 H   0  0  0  0  0  0  0  0  0  0  0  0
  152.9888  139.3784  154.2315 H   0  0  0  0  0  0  0  0  0  0  0  0
  151.9153  141.1753  157.1946 H   0  0  0  0  0  0  0  0  0  0  0  0
  152.4486  141.3935  155.5380 H   0  0  0  0  0  0  0  0  0  0  0  0
  150.0263  141.6956  155.7015 H   0  0  0  0  0  0  0  0  0  0  0  0
  149.8077  140.1324  156.4603 H   0  0  0  0  0  0  0  0  0  0  0  0
  1  2  1  0  0  0  0
  1 20  1  0  0  0  0
  1 21  1  0  0  0  0
  1 22  1  0  0  0  0
  2 19  1  0  0  0  0
  2  3  2  0  0  0  0
  3  4  1  0  0  0  0
  3 23  1  0  0  0  0
  4  5  1  0  0  0  0
  4 18  2  0  0  0  0
  5  6  1  0  0  0  0
  5 24  1  0  0  0  0
  6  7  2  0  0  0  0
  6  8  1  0  0  0  0
  8  9  1  0  0  0  0
  8 25  1  0  0  0  0
  9 10  1  0  0  0  0
  9 26  1  0  0  0  0
  9 27  1  0  0  0  0
 10 11  1  0  0  0  0
 10 12  1  0  0  0  0
 10 28  1  0  0  0  0
 11 29  1  0  0  0  0
 11 30  1  0  0  0  0
 11 31  1  0  0  0  0
 12 17  1  0  0  0  0
 12 13  1  0  0  0  0
 13 14  1  0  0  0  0
 13 32  1  0  0  0  0
 13 33  1  0  0  0  0
 14 15  1  0  0  0  0
 14 34  1  0  0  0  0
 14 35  1  0  0  0  0
 15 16  1  0  0  0  0
 16 17  1  0  0  0  0
 16 36  1  0  0  0  0
 16 37  1  0  0  0  0
 17 38  1  0  0  0  0
 17 39  1  0  0  0  0
 18 19  1  0  0  0  0
M  END
> <s_m_source_file>
AV-unprocessed.smi

> <i_m_source_file_index>
2044

> <i_lp_mmshare_version>
43012

> <i_f3d_flags>
0

> <s_epik_input>
W0NIM11jMVtjSF1jKG5vMSlbTkhdQyg9TylbTkhdW0NIMl1bQ0BIXShbQ0gzXSlOMltDSDJdW0NIMl1PW0NIMl1bQ0gyXTI=

> <s_epik_cmdline>
J2VwaWtfcHl0aG9uJywgJy1waCcsICc3LjAnLCAnLXRuJywgJzgnLCAnLW1hJywgJzIwMCcsICctbWV0YWxfYmluZGluZycsICctaW1hZScsICc8aW5maWxlLm1hZT4nLCAnLW9tYWUnLCAnPG91dGZpbGUubWFlPic=

> <r_epik_Ionization_Penalty>
0.214073

> <r_epik_Ionization_Penalty_Charging>
0

> <r_epik_Ionization_Penalty_Neutral>
0.214073

> <r_epik_State_Penalty>
0.204211

> <r_epik_Charging_Adjusted_Penalty>
0.204211

> <i_epik_Tot_Q>
0

> <i_epik_Tot_abs_Q>
0

> <r_epik_Metal_State_Penalty>
0.217151

> <b_epik_Metal_Only>
0

> <s_lp_Force_Field>
OPLS_2005

> <r_lp_Energy>
26.3951

> <b_lp_Chiralities_Consistent>
1

> <s_lp_Variant>
AV-unprocessed.smi:2044-2

> <Gold.Version>
5.8.1

> <Gold.Id.Protein>
6NUR|6NUR_protein|mol2

> <Gold.PLP.Fitness>
38.2161

> <Gold.PLP.PLP>
-29.8605

> <Gold.PLP.part.hbond>
-3.9938

> <Gold.PLP.part.metal>
0.0000

> <Gold.PLP.part.buried>
-3.8718

> <Gold.PLP.part.nonpolar>
-23.0266

> <Gold.PLP.part.repulsive>
0.5303

> <Gold.PLP.ligand.clash>
0.0000

> <Gold.PLP.ligand.torsion>
0.9303

> <Gold.PLP.Chemscore.Hbond>
3.3960

> <Gold.PLP.Chemscore.CHOScore>
0.0000

> <Gold.PLP.Chemscore.Metal>
0.0000

> <Gold.Chemscore.Hbonds>
donor molecule, donor type, donor heavy atom, donor atom, acceptor molecule, acceptor atom, score
      L1  H     5    24       P1  7948  1.00
      L1  H     8    25       P1  7948  0.88
      P1  H  7989  7998       L1    12  0.75
      P1  H  7997  8009       L1    15  0.69

> <Gold.PLP.Chemscore.Internal.Correction>
0.0282

> <Gold.Rescore>
     Score         DG    S(hbond)    S(metal)    S(lipo)     H(rot)  DE(clash)    DE(int)     intcor
     13.69     -16.07       2.13        0.00      64.16       1.58       0.19       2.19       ----

> <Gold.Chemscore.Fitness>
13.6924

> <Gold.Chemscore.DG>
-16.0735

> <Gold.Chemscore.ZeroCoef>
-5.4800

> <Gold.Chemscore.Hbond>
2.1318

> <Gold.Chemscore.Metal>
0.0000

> <Gold.Chemscore.Lipo>
64.1561

> <Gold.Chemscore.Internal_Hbond>
0.0000

> <Gold.Chemscore.DEClash>
0.1925

> <Gold.Chemscore.DEInternal>
2.1887

> <Gold.Chemscore.Rot>
1.5753

> <Gold.Chemscore.Internal.Correction>
   9.000000E+99

> <Gold.Chemscore.Hbonds>
donor molecule, donor type, donor heavy atom, donor atom, acceptor molecule, acceptor atom, score
      L1  H     5    24       P1  7948  0.96
      L1  H     8    25       P1  7948  0.87
      P1  H  7989  7998       L1    12  0.02
      P1  H  7997  8009       L1    15  0.03

> <Gold.Chemscore.Hbond.Weighted>
-7.1201

> <Gold.Chemscore.Metal.Weighted>
-0.0000

> <Gold.Chemscore.Lipo.Weighted>
-7.5063

> <Gold.Chemscore.Internal_Hbond.Weighted>
0.0000

> <Gold.Chemscore.DEClash.Weighted>
0.1925

> <Gold.Chemscore.DEInternal.Weighted>
2.1887

> <Gold.Chemscore.Rot.Weighted>
4.0329

> <Gold.Chemscore.Internal.Correction.Weighted>
   9.000000E+99

> <Gold.Protein.RotatedTorsions>
[ 6907 6896 6895 6894 ] final -162.66 input  -60.11 | X-H torsion
[ 7974 7965 7964 7962 ] final  -69.96 input  175.53 | X-H torsion
[ 8008 7997 7996 7995 ] final -167.80 input   59.86 | X-H torsion
[ 10167 10162 10161 10158 ] final -142.20 input  -65.29 | X-H torsion
[ 10718 10713 10712 10709 ] final  110.39 input   66.30 | X-H torsion
[ 10763 10752 10751 10750 ] final  -42.96 input  -60.55 | X-H torsion
[ 11005 11000 10999 10996 ] final  109.28 input  -57.11 | X-H torsion

> <Gold.Protein.ActiveResidues>
 VAL166  LYS551  ARG553  GLY616  TRP617  ASP618  TYR619  PRO620  LYS621  CYS622 
 ASP623  PHE694  ASN695  SER759  ASP760  ASP761  ALA762  ILE779  LEU786  VAL792 
 PHE793  MET794  SER795  GLU796  ALA797  LYS798  CYS799  TRP800  GLU811  SER814 

> <Gold.Protein.RotatedAtoms>
  151.3838  133.3812  159.2712 H   0  0  0  0  0  0  0  0  0  0  0  0  # atno 6907 bound_to 6896
  150.9557  134.8953  159.7710 H   0  0  0  0  0  0  0  0  0  0  0  0  # atno 6908 bound_to 6896
  152.5130  134.3795  159.9398 H   0  0  0  0  0  0  0  0  0  0  0  0  # atno 6909 bound_to 6896
  145.6971  140.9131  143.0751 H   0  0  0  0  0  0  0  0  0  0  0  0  # atno 7974 bound_to 7965
  155.8827  140.1011  157.1474 H   0  0  0  0  0  0  0  0  0  0  0  0  # atno 8008 bound_to 7997
  154.4007  140.1326  156.4280 H   0  0  0  0  0  0  0  0  0  0  0  0  # atno 8009 bound_to 7997
  155.7624  140.3463  155.5207 H   0  0  0  0  0  0  0  0  0  0  0  0  # atno 8010 bound_to 7997
  139.8111  143.7702  152.2663 H   0  0  0  0  0  0  0  0  0  0  0  0  # atno 10167 bound_to 10162
  157.6496  131.0932  150.6595 H   0  0  0  0  0  0  0  0  0  0  0  0  # atno 10718 bound_to 10713
  153.9877  135.6709  153.4752 H   0  0  0  0  0  0  0  0  0  0  0  0  # atno 10763 bound_to 10752
  153.0719  135.4969  154.8319 H   0  0  0  0  0  0  0  0  0  0  0  0  # atno 10764 bound_to 10752
  154.7127  135.3100  154.9134 H   0  0  0  0  0  0  0  0  0  0  0  0  # atno 10765 bound_to 10752
  139.8859  134.9454  156.6102 H   0  0  0  0  0  0  0  0  0  0  0  0  # atno 11005 bound_to 11000
  144.6979  139.8898  143.7452 LP  0  0  0  0  0  0  0  0  0  0  0  0  # atno 17320 bound_to 7965
  146.0831  139.3819  143.0452 LP  0  0  0  0  0  0  0  0  0  0  0  0  # atno 17321 bound_to 7965
  139.7851  144.7430  151.0033 LP  0  0  0  0  0  0  0  0  0  0  0  0  # atno 17342 bound_to 10162
  140.7817  143.4501  151.0425 LP  0  0  0  0  0  0  0  0  0  0  0  0  # atno 17343 bound_to 10162
  156.6907  130.4594  149.5600 LP  0  0  0  0  0  0  0  0  0  0  0  0  # atno 17370 bound_to 10713
  156.1863  130.6531  151.1010 LP  0  0  0  0  0  0  0  0  0  0  0  0  # atno 17371 bound_to 10713
  140.7817  133.8654  155.8573 LP  0  0  0  0  0  0  0  0  0  0  0  0  # atno 17394 bound_to 11000
  140.9754  134.1475  157.4540 LP  0  0  0  0  0  0  0  0  0  0  0  0  # atno 17395 bound_to 11000

$$$$
