#       Name:                AV-unprocessed.smi:1203
#       Creating user name   scv26
#       Creation time:       Fri Mar 27 04:05:52 2020


#       File generated by GOLD software.
#

@<TRIPOS>MOLECULE
AV-unprocessed.smi:1203
    43    44     1
SMALL
NO_CHARGES


@<TRIPOS>ATOM
      1 ****        -1.7192   2.4152  -0.8411 C.3            1 S1                 0.0000
      2 ****        -1.5450   1.0233  -2.0287 S.o2           1 S1                 0.0000
      3 ****        -2.8281   0.8069  -2.7142 O.2            1 S1                 0.0000
      4 ****        -0.3208   1.2434  -2.8137 O.2            1 S1                 0.0000
      5 ****        -1.2641  -0.3322  -0.9899 N.3            1 S1                 0.0000
      6 ****        -2.3155  -0.7281  -0.0413 C.3            1 S1                 0.0000
      7 ****        -2.1285  -2.2273   0.1816 C.3            1 S1                 0.0000
      8 ****        -1.5286  -2.6926  -1.1376 C.3            1 S1                 0.0000
      9 ****        -0.6043  -1.5300  -1.5437 C.3            1 S1                 0.0000
     10 ****         0.8481  -1.6832  -1.0576 C.2            1 S1                 0.0000
     11 ****         1.2633  -2.7515  -0.6076 O.2            1 S1                 0.0000
     12 ****         1.6120  -0.5829  -1.1370 N.am           1 S1                 0.0000
     13 ****         2.9648  -0.4521  -0.6086 C.3            1 S1                 0.0000
     14 ****         2.9889  -0.3493   0.9299 C.3            1 S1                 0.0000
     15 ****         1.9948   0.6568   1.4870 C.ar           1 S1                 0.0000
     16 ****         0.7886   0.2313   2.0820 C.ar           1 S1                 0.0000
     17 ****        -0.1042   1.2016   2.5755 C.ar           1 S1                 0.0000
     18 ****         0.2488   2.5601   2.4544 C.ar           1 S1                 0.0000
     19 ****         1.3982   2.9795   1.8828 N.ar           1 S1                 0.0000
     20 ****         2.2494   2.0424   1.4126 C.ar           1 S1                 0.0000
     21 ****        -1.8959   3.3396  -1.3904 H              1 S1                 0.0000
     22 ****        -0.8024   2.5111  -0.2608 H              1 S1                 0.0000
     23 ****        -2.5576   2.2272  -0.1712 H              1 S1                 0.0000
     24 ****        -2.2393  -0.1566   0.8835 H              1 S1                 0.0000
     25 ****        -3.2949  -0.5360  -0.4807 H              1 S1                 0.0000
     26 ****        -1.4219  -2.3996   0.9947 H              1 S1                 0.0000
     27 ****        -3.0598  -2.7377   0.4278 H              1 S1                 0.0000
     28 ****        -1.0352  -3.6611  -1.0520 H              1 S1                 0.0000
     29 ****        -2.3189  -2.8044  -1.8814 H              1 S1                 0.0000
     30 ****        -0.5756  -1.4653  -2.6322 H              1 S1                 0.0000
     31 ****         1.1960   0.2486  -1.5324 H              1 S1                 0.0000
     32 ****         3.5911  -1.2776  -0.9498 H              1 S1                 0.0000
     33 ****         3.3892   0.4558  -1.0379 H              1 S1                 0.0000
     34 ****         2.7802  -1.3275   1.3650 H              1 S1                 0.0000
     35 ****         3.9911  -0.0803   1.2650 H              1 S1                 0.0000
     36 ****         0.5460  -0.8188   2.1533 H              1 S1                 0.0000
     37 ****        -1.0376   0.9113   3.0345 H              1 S1                 0.0000
     38 ****        -0.4132   3.3309   2.8206 H              1 S1                 0.0000
     39 ****         3.1588   2.4092   0.9599 H              1 S1                 0.0000
     40 ****        -0.5690   0.1492  -0.4560 LP             1 S1                 0.0000
     41 ****         0.6530  -3.5417  -0.5524 LP             1 S1                 0.0000
     42 ****         2.2108  -2.8289  -0.2973 LP             1 S1                 0.0000
     43 ****         1.6124   3.9536   1.8100 LP             1 S1                 0.0000
@<TRIPOS>BOND
    1    1    2 1     
    2    1   21 1     
    3    1   22 1     
    4    1   23 1     
    5    2    3 2     
    6    2    4 2     
    7    2    5 1     
    8    5    9 1     
    9    5    6 1     
   10    6    7 1     
   11    6   24 1     
   12    6   25 1     
   13    7    8 1     
   14    7   26 1     
   15    7   27 1     
   16    8    9 1     
   17    8   28 1     
   18    8   29 1     
   19    9   10 1     
   20    9   30 1     
   21   10   11 2     
   22   10   12 am    
   23   12   13 1     
   24   12   31 1     
   25   13   14 1     
   26   13   32 1     
   27   13   33 1     
   28   14   15 1     
   29   14   34 1     
   30   14   35 1     
   31   15   20 ar    
   32   15   16 ar    
   33   16   17 ar    
   34   16   36 1     
   35   17   18 ar    
   36   17   37 1     
   37   18   19 ar    
   38   18   38 1     
   39   19   20 ar    
   40   20   39 1     
   41    5   40 1     
   42   11   41 1     
   43   11   42 1     
   44   19   43 1     
@<TRIPOS>SUBSTRUCTURE
      1 S1             1
@<TRIPOS>SET
LONE_PAIRS      STATIC     ATOMS    <user>   **** ""
6 3 4 40 41 42 43
DONOR_HYDROGENS      STATIC     ATOMS    <user>   **** ""
1 31
ATOM$BLUE        STATIC     ATOMS    COLORGROUP SYSTEM
6 3 4 40 41 42 43
ATOM$RED        STATIC     ATOMS    COLORGROUP SYSTEM
1 31
