#       Name:                AV-unprocessed.smi:1585
#       Creating user name   scv26
#       Creation time:       Fri Mar 27 07:00:01 2020


#       File generated by GOLD software.
#

@<TRIPOS>MOLECULE
AV-unprocessed.smi:1585
    50    51     1
SMALL
NO_CHARGES


@<TRIPOS>ATOM
      1 ****        -4.4472   5.8637   3.5346 C.3            1 S1                 0.0000
      2 ****        -3.6734   5.0939   2.5197 C.2            1 S1                 0.0000
      3 ****        -3.9975   4.0512   1.6988 C.2            1 S1                 0.0000
      4 ****        -2.7880   3.8047   0.9937 C.2            1 S1                 0.0000
      5 ****        -2.5999   2.8677   0.0514 N.pl3          1 S1                -1.0000
      6 ****        -2.2806   1.6022   0.4046 C.2            1 S1                 0.0000
      7 ****        -2.1453   1.1756   1.5535 O.2            1 S1                 0.0000
      8 ****        -2.1003   0.7816  -0.6393 N.am           1 S1                 0.0000
      9 ****        -1.7204  -0.6251  -0.5666 C.3            1 S1                 0.0000
     10 ****        -0.1969  -0.7985  -0.3920 C.3            1 S1                 0.0000
     11 ****         0.1001  -0.7932   0.9909 O.3            1 S1                 0.0000
     12 ****         0.2904  -2.1506  -0.9493 C.3            1 S1                 0.0000
     13 ****         1.7651  -2.3021  -0.8542 N.4            1 S1                 1.0000
     14 ****         2.1833  -3.7251  -0.7640 C.3            1 S1                 0.0000
     15 ****         3.6967  -3.8457  -0.5176 C.3            1 S1                 0.0000
     16 ****         4.4915  -3.1122  -1.6055 C.3            1 S1                 0.0000
     17 ****         4.0213  -1.6551  -1.7039 C.3            1 S1                 0.0000
     18 ****         2.5014  -1.5798  -1.9265 C.3            1 S1                 0.0000
     19 ****        -1.8205   4.6361   1.3428 N.2            1 S1                 0.0000
     20 ****        -2.3787   5.4627   2.3252 O.3            1 S1                 0.0000
     21 ****        -4.9241   6.7312   3.0781 H              1 S1                 0.0000
     22 ****        -3.7972   6.2159   4.3363 H              1 S1                 0.0000
     23 ****        -5.2257   5.2437   3.9796 H              1 S1                 0.0000
     24 ****        -4.9464   3.5426   1.6175 H              1 S1                 0.0000
     25 ****        -2.2286   1.1737  -1.5609 H              1 S1                 0.0000
     26 ****        -2.2836  -1.1536   0.2049 H              1 S1                 0.0000
     27 ****        -2.0306  -1.0620  -1.5161 H              1 S1                 0.0000
     28 ****         0.3251   0.0256  -0.8785 H              1 S1                 0.0000
     29 ****        -0.2705  -0.0088   1.3704 H              1 S1                 0.0000
     30 ****        -0.2039  -2.9499  -0.3942 H              1 S1                 0.0000
     31 ****        -0.0149  -2.2728  -1.9897 H              1 S1                 0.0000
     32 ****         1.6508  -4.2144   0.0527 H              1 S1                 0.0000
     33 ****         1.9066  -4.2462  -1.6819 H              1 S1                 0.0000
     34 ****         3.9431  -3.4288   0.4599 H              1 S1                 0.0000
     35 ****         3.9874  -4.8963  -0.4879 H              1 S1                 0.0000
     36 ****         5.5585  -3.1507  -1.3846 H              1 S1                 0.0000
     37 ****         4.3522  -3.6118  -2.5653 H              1 S1                 0.0000
     38 ****         4.2843  -1.1218  -0.7894 H              1 S1                 0.0000
     39 ****         4.5429  -1.1500  -2.5175 H              1 S1                 0.0000
     40 ****         2.2451  -2.0080  -2.8968 H              1 S1                 0.0000
     41 ****         2.2006  -0.5330  -1.9563 H              1 S1                 0.0000
     42 ****         2.0286  -1.8766   0.0237 H              1 S1                 0.0000
     43 ****        -2.6962   3.1062  -0.9150 LP             1 S1                 0.0000
     44 ****        -2.2745   1.7886   2.3329 LP             1 S1                 0.0000
     45 ****        -1.9064   0.2166   1.7059 LP             1 S1                 0.0000
     46 ****         1.0911  -0.7980   1.1242 LP             1 S1                 0.0000
     47 ****        -0.2987  -1.6006   1.4258 LP             1 S1                 0.0000
     48 ****        -0.8885   4.6676   0.9818 LP             1 S1                 0.0000
     49 ****        -1.8682   5.3627   3.1792 LP             1 S1                 0.0000
     50 ****        -2.3416   6.4156   2.0243 LP             1 S1                 0.0000
@<TRIPOS>BOND
    1    1    2 1     
    2    1   21 1     
    3    1   22 1     
    4    1   23 1     
    5    2   20 1     
    6    2    3 2     
    7    3    4 1     
    8    3   24 1     
    9    4    5 1     
   10    4   19 2     
   11    5    6 1     
   12    6    7 2     
   13    6    8 am    
   14    8    9 1     
   15    8   25 1     
   16    9   10 1     
   17    9   26 1     
   18    9   27 1     
   19   10   11 1     
   20   10   12 1     
   21   10   28 1     
   22   11   29 1     
   23   12   13 1     
   24   12   30 1     
   25   12   31 1     
   26   13   18 1     
   27   13   14 1     
   28   13   42 1     
   29   14   15 1     
   30   14   32 1     
   31   14   33 1     
   32   15   16 1     
   33   15   34 1     
   34   15   35 1     
   35   16   17 1     
   36   16   36 1     
   37   16   37 1     
   38   17   18 1     
   39   17   38 1     
   40   17   39 1     
   41   18   40 1     
   42   18   41 1     
   43   19   20 1     
   44    5   43 1     
   45    7   44 1     
   46    7   45 1     
   47   11   46 1     
   48   11   47 1     
   49   19   48 1     
   50   20   49 1     
   51   20   50 1     
@<TRIPOS>SUBSTRUCTURE
      1 S1             1
@<TRIPOS>SET
LONE_PAIRS      STATIC     ATOMS    <user>   **** ""
8 43 44 45 46 47 48 49 50
DONOR_HYDROGENS      STATIC     ATOMS    <user>   **** ""
3 25 29 42
ATOM$BLUE        STATIC     ATOMS    COLORGROUP SYSTEM
8 43 44 45 46 47 48 49 50
ATOM$RED        STATIC     ATOMS    COLORGROUP SYSTEM
3 25 29 42
