#       Name:                AV-unprocessed.smi:1180
#       Creating user name   scv26
#       Creation time:       Fri Mar 27 03:55:53 2020


#       File generated by GOLD software.
#

@<TRIPOS>MOLECULE
AV-unprocessed.smi:1180
    45    46     1
SMALL
NO_CHARGES


@<TRIPOS>ATOM
      1 ****        -5.8075  -0.3995   1.1649 C.3            1 S1                 0.0000
      2 ****        -4.3382  -0.0712   1.3234 C.2            1 S1                 0.0000
      3 ****        -3.9491   1.1389   1.1858 N.2            1 S1                 0.0000
      4 ****        -2.5862   1.4486   1.3319 C.2            1 S1                 0.0000
      5 ****        -2.2156   2.9106   1.1543 C.3            1 S1                 0.0000
      6 ****        -1.6692   0.4801   1.6169 C.2            1 S1                 0.0000
      7 ****        -0.1767   0.7636   1.7864 C.3            1 S1                 0.0000
      8 ****         0.6317   0.8401   0.4905 C.2            1 S1                 0.0000
      9 ****         1.2517   1.8659   0.2108 O.2            1 S1                 0.0000
     10 ****         0.6243  -0.2560  -0.2839 N.am           1 S1                 0.0000
     11 ****         1.3140  -0.3997  -1.5614 C.3            1 S1                 0.0000
     12 ****         2.6829  -1.0875  -1.4021 C.3            1 S1                 0.0000
     13 ****         3.4085  -1.3141  -2.7125 C.3            1 S1                 0.0000
     14 ****         4.8413  -1.5522  -2.2445 C.3            1 S1                 0.0000
     15 ****         4.9954  -0.7845  -1.0541 O.3            1 S1                 0.0000
     16 ****         3.7311  -0.2849  -0.6282 C.3            1 S1                 0.0000
     17 ****        -2.1576  -0.9036   1.7586 C.2            1 S1                 0.0000
     18 ****        -1.3689  -1.8187   1.9930 O.2            1 S1                 0.0000
     19 ****        -3.4952  -1.1215   1.6092 N.pl3          1 S1                -1.0000
     20 ****        -6.4035   0.5071   1.0504 H              1 S1                 0.0000
     21 ****        -6.1727  -0.9386   2.0397 H              1 S1                 0.0000
     22 ****        -5.9609  -1.0238   0.2842 H              1 S1                 0.0000
     23 ****        -1.4682   3.0253   0.3693 H              1 S1                 0.0000
     24 ****        -1.8128   3.3181   2.0814 H              1 S1                 0.0000
     25 ****        -3.0850   3.5073   0.8762 H              1 S1                 0.0000
     26 ****        -0.0599   1.7072   2.3197 H              1 S1                 0.0000
     27 ****         0.2857   0.0232   2.4398 H              1 S1                 0.0000
     28 ****         0.0838  -1.0489   0.0330 H              1 S1                 0.0000
     29 ****         0.6784  -1.0023  -2.2105 H              1 S1                 0.0000
     30 ****         1.4219   0.5674  -2.0555 H              1 S1                 0.0000
     31 ****         2.5485  -2.0535  -0.9122 H              1 S1                 0.0000
     32 ****         3.0061  -2.1488  -3.2875 H              1 S1                 0.0000
     33 ****         3.3625  -0.4178  -3.3332 H              1 S1                 0.0000
     34 ****         4.9919  -2.6041  -1.9990 H              1 S1                 0.0000
     35 ****         5.5768  -1.2720  -2.9990 H              1 S1                 0.0000
     36 ****         3.6776   0.7732  -0.8885 H              1 S1                 0.0000
     37 ****         3.6123  -0.3733   0.4519 H              1 S1                 0.0000
     38 ****        -4.6097   1.8596   0.9758 LP             1 S1                 0.0000
     39 ****         1.2270   2.6499   0.8311 LP             1 S1                 0.0000
     40 ****         1.7802   1.9153  -0.6367 LP             1 S1                 0.0000
     41 ****         5.6115  -0.0172  -1.2325 LP             1 S1                 0.0000
     42 ****         5.3821  -1.3623  -0.3353 LP             1 S1                 0.0000
     43 ****        -0.3924  -1.6251   2.0881 LP             1 S1                 0.0000
     44 ****        -1.7044  -2.7559   2.0884 LP             1 S1                 0.0000
     45 ****        -3.8645  -2.0456   1.7074 LP             1 S1                 0.0000
@<TRIPOS>BOND
    1    1    2 1     
    2    1   20 1     
    3    1   21 1     
    4    1   22 1     
    5    2   19 1     
    6    2    3 2     
    7    3    4 1     
    8    4    5 1     
    9    4    6 2     
   10    5   23 1     
   11    5   24 1     
   12    5   25 1     
   13    6    7 1     
   14    6   17 1     
   15    7    8 1     
   16    7   26 1     
   17    7   27 1     
   18    8    9 2     
   19    8   10 am    
   20   10   11 1     
   21   10   28 1     
   22   11   12 1     
   23   11   29 1     
   24   11   30 1     
   25   12   16 1     
   26   12   13 1     
   27   12   31 1     
   28   13   14 1     
   29   13   32 1     
   30   13   33 1     
   31   14   15 1     
   32   14   34 1     
   33   14   35 1     
   34   15   16 1     
   35   16   36 1     
   36   16   37 1     
   37   17   18 2     
   38   17   19 1     
   39    3   38 1     
   40    9   39 1     
   41    9   40 1     
   42   15   41 1     
   43   15   42 1     
   44   18   43 1     
   45   18   44 1     
   46   19   45 1     
@<TRIPOS>SUBSTRUCTURE
      1 S1             1
@<TRIPOS>SET
LONE_PAIRS      STATIC     ATOMS    <user>   **** ""
8 38 39 40 41 42 43 44 45
DONOR_HYDROGENS      STATIC     ATOMS    <user>   **** ""
1 28
ATOM$BLUE        STATIC     ATOMS    COLORGROUP SYSTEM
8 38 39 40 41 42 43 44 45
ATOM$RED        STATIC     ATOMS    COLORGROUP SYSTEM
1 28
