#       Name:                AV-unprocessed.smi:1457
#       Creating user name   scv26
#       Creation time:       Fri Mar 27 06:00:35 2020


#       File generated by GOLD software.
#

@<TRIPOS>MOLECULE
AV-unprocessed.smi:1457
    39    40     1
SMALL
NO_CHARGES


@<TRIPOS>ATOM
      1 ****        -2.2340  -4.1380  -0.0291 C.3            1 S1                 0.0000
      2 ****        -2.4330  -2.6725  -0.0244 N.4            1 S1                 1.0000
      3 ****        -1.8914  -2.0251  -1.2452 C.3            1 S1                 0.0000
      4 ****        -2.2291  -0.5231  -1.2730 C.3            1 S1                 0.0000
      5 ****        -1.7490   0.2013  -0.0027 C.3            1 S1                 0.0000
      6 ****        -0.2892   0.3059   0.0142 N.am           1 S1                 0.0000
      7 ****         0.4200   1.4425  -0.0458 C.2            1 S1                 0.0000
      8 ****        -0.0874   2.5604  -0.1298 O.2            1 S1                 0.0000
      9 ****         1.7399   1.1897  -0.0248 N.am           1 S1                 0.0000
     10 ****         2.8168   2.1171  -0.0208 C.ar           1 S1                 0.0000
     11 ****         2.7076   3.4613   0.4115 C.ar           1 S1                 0.0000
     12 ****         3.8556   4.2764   0.3933 C.ar           1 S1                 0.0000
     13 ****         5.0703   3.7183  -0.0497 C.ar           1 S1                 0.0000
     14 ****         5.1918   2.4360  -0.4532 N.ar           1 S1                 0.0000
     15 ****         4.0872   1.6600  -0.4316 C.ar           1 S1                 0.0000
     16 ****        -2.2582  -0.5348   1.2498 C.3            1 S1                 0.0000
     17 ****        -1.9234  -2.0372   1.2164 C.3            1 S1                 0.0000
     18 ****        -1.1727  -4.3899  -0.0173 H              1 S1                 0.0000
     19 ****        -2.6816  -4.5847  -0.9176 H              1 S1                 0.0000
     20 ****        -2.7033  -4.5932   0.8437 H              1 S1                 0.0000
     21 ****        -0.8111  -2.1727  -1.2907 H              1 S1                 0.0000
     22 ****        -2.3121  -2.5058  -2.1294 H              1 S1                 0.0000
     23 ****        -1.7982  -0.0571  -2.1601 H              1 S1                 0.0000
     24 ****        -3.3096  -0.4042  -1.3640 H              1 S1                 0.0000
     25 ****        -2.1863   1.2011  -0.0006 H              1 S1                 0.0000
     26 ****         0.2249  -0.5606   0.0749 H              1 S1                 0.0000
     27 ****         2.0089   0.2172  -0.0546 H              1 S1                 0.0000
     28 ****         1.7785   3.8765   0.7697 H              1 S1                 0.0000
     29 ****         3.8069   5.3055   0.7174 H              1 S1                 0.0000
     30 ****         5.9694   4.3161  -0.0739 H              1 S1                 0.0000
     31 ****         4.2232   0.6387  -0.7566 H              1 S1                 0.0000
     32 ****        -1.8468  -0.0779   2.1509 H              1 S1                 0.0000
     33 ****        -3.3403  -0.4143   1.3177 H              1 S1                 0.0000
     34 ****        -2.3683  -2.5254   2.0843 H              1 S1                 0.0000
     35 ****        -0.8450  -2.1869   1.2888 H              1 S1                 0.0000
     36 ****        -3.4318  -2.5207  -0.0370 H              1 S1                 0.0000
     37 ****        -1.0823   2.6572  -0.1568 LP             1 S1                 0.0000
     38 ****         0.4952   3.3721  -0.1711 LP             1 S1                 0.0000
     39 ****         6.0719   2.0723  -0.7584 LP             1 S1                 0.0000
@<TRIPOS>BOND
    1    1    2 1     
    2    1   18 1     
    3    1   19 1     
    4    1   20 1     
    5    2   17 1     
    6    2    3 1     
    7    2   36 1     
    8    3    4 1     
    9    3   21 1     
   10    3   22 1     
   11    4    5 1     
   12    4   23 1     
   13    4   24 1     
   14    5    6 1     
   15    5   16 1     
   16    5   25 1     
   17    6    7 am    
   18    6   26 1     
   19    7    8 2     
   20    7    9 am    
   21    9   10 1     
   22    9   27 1     
   23   10   15 ar    
   24   10   11 ar    
   25   11   12 ar    
   26   11   28 1     
   27   12   13 ar    
   28   12   29 1     
   29   13   14 ar    
   30   13   30 1     
   31   14   15 ar    
   32   15   31 1     
   33   16   17 1     
   34   16   32 1     
   35   16   33 1     
   36   17   34 1     
   37   17   35 1     
   38    8   37 1     
   39    8   38 1     
   40   14   39 1     
@<TRIPOS>SUBSTRUCTURE
      1 S1             1
@<TRIPOS>SET
LONE_PAIRS      STATIC     ATOMS    <user>   **** ""
3 37 38 39
DONOR_HYDROGENS      STATIC     ATOMS    <user>   **** ""
3 36 26 27
ATOM$BLUE        STATIC     ATOMS    COLORGROUP SYSTEM
3 37 38 39
ATOM$RED        STATIC     ATOMS    COLORGROUP SYSTEM
3 36 26 27
