#       Name:                AV-unprocessed.smi:1137
#       Creating user name   scv26
#       Creation time:       Fri Mar 27 03:43:48 2020


#       File generated by GOLD software.
#

@<TRIPOS>MOLECULE
AV-unprocessed.smi:1137
    24    24     1
SMALL
NO_CHARGES


@<TRIPOS>ATOM
      1 ****        -2.6320   1.6996   0.8331 O.co2          1 S1                 0.0000
      2 ****        -2.0020   0.7869   1.4110 C.2            1 S1                 0.0000
      3 ****        -2.5150  -0.2318   1.9266 O.co2          1 S1                -1.0000
      4 ****        -0.4734   0.9230   1.4479 C.3            1 S1                 0.0000
      5 ****         0.0500   0.3990   2.6553 O.3            1 S1                 0.0000
      6 ****         0.0627   0.2176   0.2102 C.ar           1 S1                 0.0000
      7 ****         0.3759   0.9574  -0.9524 C.ar           1 S1                 0.0000
      8 ****         0.8585   0.2850  -2.0944 C.ar           1 S1                 0.0000
      9 ****         1.0146  -1.1154  -2.0516 C.ar           1 S1                 0.0000
     10 ****         0.7023  -1.7923  -0.9250 N.pl3          1 S1                 1.0000
     11 ****         0.2395  -1.1851   0.1894 C.ar           1 S1                 0.0000
     12 ****        -0.2098   1.9810   1.4077 H              1 S1                 0.0000
     13 ****         0.9800   0.5620   2.6756 H              1 S1                 0.0000
     14 ****         0.2423   2.0294  -0.9715 H              1 S1                 0.0000
     15 ****         1.1009   0.8362  -2.9911 H              1 S1                 0.0000
     16 ****         1.3731  -1.7104  -2.8788 H              1 S1                 0.0000
     17 ****         0.0159  -1.8353   1.0230 H              1 S1                 0.0000
     18 ****         0.8163  -2.8061  -0.9153 H              1 S1                 0.0000
     19 ****        -3.6277   1.6484   0.7558 LP             1 S1                 0.0000
     20 ****        -2.1401   2.4806   0.4483 LP             1 S1                 0.0000
     21 ****        -3.5058  -0.3634   1.8948 LP             1 S1                 0.0000
     22 ****        -1.9340  -0.9142   2.3704 LP             1 S1                 0.0000
     23 ****        -0.1206  -0.5855   2.6975 LP             1 S1                 0.0000
     24 ****        -0.3878   0.8468   3.4349 LP             1 S1                 0.0000
@<TRIPOS>BOND
    1    1    2 ar    
    2    2    3 ar    
    3    2    4 1     
    4    4    5 1     
    5    4    6 1     
    6    4   12 1     
    7    5   13 1     
    8    6   11 ar    
    9    6    7 ar    
   10    7    8 ar    
   11    7   14 1     
   12    8    9 ar    
   13    8   15 1     
   14    9   10 ar    
   15    9   16 1     
   16   10   11 ar    
   17   10   18 1     
   18   11   17 1     
   19    1   19 1     
   20    1   20 1     
   21    3   21 1     
   22    3   22 1     
   23    5   23 1     
   24    5   24 1     
@<TRIPOS>SUBSTRUCTURE
      1 S1             1
@<TRIPOS>SET
LONE_PAIRS      STATIC     ATOMS    <user>   **** ""
6 19 20 21 22 23 24
DONOR_HYDROGENS      STATIC     ATOMS    <user>   **** ""
2 13 18
ATOM$BLUE        STATIC     ATOMS    COLORGROUP SYSTEM
6 19 20 21 22 23 24
ATOM$RED        STATIC     ATOMS    COLORGROUP SYSTEM
2 13 18
