AV-unprocessed.smi:703|AV-procd|sdf|3435|dock1
  -GOLD-   22720 0423D 1   1.00000     0.00000
 Structure written by MMmdl.
 37 38  0  0  0  0  0  0  0  0  3 V2000
  147.2116  133.0469  151.0169 C   0  0  0  0  0  0  0  0  0  0  0  0
  146.5929  133.5718  152.3191 C   0  0  0  0  0  0  0  0  0  0  0  0
  147.6150  134.1260  153.2395 N   0  3  2  0  0  0  0  0  0  0  0  0
  148.6330  133.1550  153.7081 C   0  0  0  0  0  0  0  0  0  0  0  0
  149.0661  133.6396  155.0997 C   0  0  1  0  0  0  0  0  0  0  0  0
  150.2366  134.6481  154.9907 C   0  0  0  0  0  0  0  0  0  0  0  0
  147.7392  134.1936  155.6566 C   0  0  1  0  0  0  0  0  0  0  0  0
  147.9274  135.1398  156.7464 N   0  5  0  0  0  0  0  0  0  0  0  0
  147.7799  134.6432  158.2843 S   0  0  0  0  0  0  0  0  0  0  0  0
  146.4814  134.0020  158.5507 O   0  0  0  0  0  0  0  0  0  0  0  0
  148.9843  133.9397  158.7532 O   0  0  0  0  0  0  0  0  0  0  0  0
  147.7585  136.2631  159.1702 C   0  0  0  0  0  0  0  0  0  0  0  0
  147.4032  136.0646  160.6188 C   0  0  0  0  0  0  0  0  0  0  0  0
  147.2998  134.8452  161.3449 C   0  0  0  0  0  0  0  0  0  0  0  0
  146.9572  135.2499  162.6023 C   0  0  0  0  0  0  0  0  0  0  0  0
  146.8473  136.6011  162.6531 O   0  0  0  0  0  0  0  0  0  0  0  0
  147.1300  137.1122  161.3812 N   0  0  0  0  0  0  0  0  0  0  0  0
  147.0601  134.8173  154.4281 C   0  0  0  0  0  0  0  0  0  0  0  0
  146.4360  132.6924  150.3377 H   0  0  0  0  0  0  0  0  0  0  0  0
  147.8915  132.2147  151.2005 H   0  0  0  0  0  0  0  0  0  0  0  0
  147.7690  133.8305  150.5028 H   0  0  0  0  0  0  0  0  0  0  0  0
  145.8808  134.3601  152.0722 H   0  0  0  0  0  0  0  0  0  0  0  0
  146.0284  132.7840  152.8199 H   0  0  0  0  0  0  0  0  0  0  0  0
  148.1982  132.1534  153.7719 H   0  0  0  0  0  0  0  0  0  0  0  0
  149.4659  133.0919  153.0065 H   0  0  0  0  0  0  0  0  0  0  0  0
  149.4038  132.7958  155.7031 H   0  0  0  0  0  0  0  0  0  0  0  0
  149.9783  135.5308  154.4026 H   0  0  0  0  0  0  0  0  0  0  0  0
  151.0969  134.1826  154.5091 H   0  0  0  0  0  0  0  0  0  0  0  0
  150.5763  134.9875  155.9708 H   0  0  0  0  0  0  0  0  0  0  0  0
  147.1389  133.3384  155.9708 H   0  0  0  0  0  0  0  0  0  0  0  0
  148.7503  136.7049  159.0728 H   0  0  0  0  0  0  0  0  0  0  0  0
  147.0551  136.9279  158.6696 H   0  0  0  0  0  0  0  0  0  0  0  0
  147.4604  133.8355  160.9969 H   0  0  0  0  0  0  0  0  0  0  0  0
  146.7644  134.7230  163.5250 H   0  0  0  0  0  0  0  0  0  0  0  0
  147.2984  135.8781  154.3348 H   0  0  0  0  0  0  0  0  0  0  0  0
  145.9745  134.7306  154.4953 H   0  0  0  0  0  0  0  0  0  0  0  0
  148.1148  134.8395  152.7285 H   0  0  0  0  0  0  0  0  0  0  0  0
  1  2  1  0  0  0  0
  1 19  1  0  0  0  0
  1 20  1  0  0  0  0
  1 21  1  0  0  0  0
  2  3  1  0  0  0  0
  2 22  1  0  0  0  0
  2 23  1  0  0  0  0
  3 18  1  0  0  0  0
  3  4  1  0  0  0  0
  3 37  1  0  0  0  0
  4  5  1  0  0  0  0
  4 24  1  0  0  0  0
  4 25  1  0  0  0  0
  5  6  1  0  0  0  0
  5  7  1  0  0  0  0
  5 26  1  0  0  0  0
  6 27  1  0  0  0  0
  6 28  1  0  0  0  0
  6 29  1  0  0  0  0
  7  8  1  0  0  0  0
  7 18  1  0  0  0  0
  7 30  1  0  0  0  0
  8  9  1  0  0  0  0
  9 10  2  0  0  0  0
  9 11  2  0  0  0  0
  9 12  1  0  0  0  0
 12 13  1  0  0  0  0
 12 31  1  0  0  0  0
 12 32  1  0  0  0  0
 13 17  2  0  0  0  0
 13 14  1  0  0  0  0
 14 15  2  0  0  0  0
 14 33  1  0  0  0  0
 15 16  1  0  0  0  0
 15 34  1  0  0  0  0
 16 17  1  0  0  0  0
 18 35  1  0  0  0  0
 18 36  1  0  0  0  0
M  CHG  1   3   1
M  CHG  1   8  -1
M  END
> <s_m_source_file>
AV-unprocessed.smi

> <i_m_source_file_index>
703

> <i_lp_mmshare_version>
43012

> <i_f3d_flags>
0

> <s_epik_input>
W0NIM11bQ0gyXU4xW0NIMl1bQ0BASF0oW0NIM10pW0NASF0oW0NIMl0xKVtOSF1TKD1PKSg9TylbQ0gyXWMyW2NIXVtjSF1vbjI=

> <s_epik_cmdline>
J2VwaWtfcHl0aG9uJywgJy1waCcsICc3LjAnLCAnLXRuJywgJzgnLCAnLW1hJywgJzIwMCcsICctbWV0YWxfYmluZGluZycsICctaW1hZScsICc8aW5maWxlLm1hZT4nLCAnLW9tYWUnLCAnPG91dGZpbGUubWFlPic=

> <r_epik_Ionization_Penalty>
3.62494

> <r_epik_Ionization_Penalty_Charging>
3.62494

> <r_epik_Ionization_Penalty_Neutral>
2.0321e-10

> <r_epik_State_Penalty>
3.62558

> <r_epik_Charging_Adjusted_Penalty>
7.25052

> <i_epik_Tot_Q>
0

> <i_epik_Tot_abs_Q>
2

> <r_epik_Metal_State_Penalty>
0.530836

> <b_epik_Metal_Only>
1

> <s_lp_Force_Field>
OPLS_2005

> <r_lp_Energy>
19.7921

> <b_lp_Chiralities_Consistent>
1

> <s_lp_Variant>
AV-unprocessed.smi:703-10

> <Gold.Version>
5.8.1

> <Gold.Id.Protein>
6NUR|6NUR_protein|mol2

> <Gold.PLP.Fitness>
41.2155

> <Gold.PLP.PLP>
-28.1871

> <Gold.PLP.part.hbond>
-4.0730

> <Gold.PLP.part.metal>
0.0000

> <Gold.PLP.part.buried>
-4.3797

> <Gold.PLP.part.nonpolar>
-20.0272

> <Gold.PLP.part.repulsive>
0.0000

> <Gold.PLP.ligand.clash>
0.0000

> <Gold.PLP.ligand.torsion>
1.2040

> <Gold.PLP.Chemscore.Hbond>
4.7840

> <Gold.PLP.Chemscore.CHOScore>
0.0000

> <Gold.PLP.Chemscore.Metal>
0.0000

> <Gold.Chemscore.Hbonds>
donor molecule, donor type, donor heavy atom, donor atom, acceptor molecule, acceptor atom, score
      L1  H     3    37       P1  7948  2.00
      P1  H  6896  6907       L1    11  0.99
      P1  H  6931  6943       L1    17  0.30
      P1  H  6934  6947       L1    17  1.00

> <Gold.PLP.Chemscore.Internal.Correction>
1.0843

> <Gold.Rescore>
     Score         DG    S(hbond)    S(metal)    S(lipo)     H(rot)  DE(clash)    DE(int)     intcor
     17.22     -18.33       3.11        0.00      56.84       1.63       0.00       1.12       ----

> <Gold.Chemscore.Fitness>
17.2161

> <Gold.Chemscore.DG>
-18.3332

> <Gold.Chemscore.ZeroCoef>
-5.4800

> <Gold.Chemscore.Hbond>
3.1092

> <Gold.Chemscore.Metal>
0.0000

> <Gold.Chemscore.Lipo>
56.8446

> <Gold.Chemscore.Internal_Hbond>
0.0000

> <Gold.Chemscore.DEClash>
0.0000

> <Gold.Chemscore.DEInternal>
1.1171

> <Gold.Chemscore.Rot>
1.6338

> <Gold.Chemscore.Internal.Correction>
   9.000000E+99

> <Gold.Chemscore.Hbonds>
donor molecule, donor type, donor heavy atom, donor atom, acceptor molecule, acceptor atom, score
      L1  H     3    37       P1  7948  0.78
      P1  H  6896  6907       L1    11  0.93
      P1  H  6931  6943       L1    17  0.05
      P1  H  6934  6947       L1    17  0.95

> <Gold.Chemscore.Hbond.Weighted>
-10.3849

> <Gold.Chemscore.Metal.Weighted>
-0.0000

> <Gold.Chemscore.Lipo.Weighted>
-6.6508

> <Gold.Chemscore.Internal_Hbond.Weighted>
0.0000

> <Gold.Chemscore.DEClash.Weighted>
0.0000

> <Gold.Chemscore.DEInternal.Weighted>
1.1171

> <Gold.Chemscore.Rot.Weighted>
4.1825

> <Gold.Chemscore.Internal.Correction.Weighted>
   9.000000E+99

> <Gold.Protein.RotatedTorsions>
[ 6907 6896 6895 6894 ] final -117.91 input  -60.11 | X-H torsion
[ 7974 7965 7964 7962 ] final -113.23 input  175.53 | X-H torsion
[ 8008 7997 7996 7995 ] final   26.03 input   59.86 | X-H torsion
[ 10167 10162 10161 10158 ] final  133.32 input  -65.29 | X-H torsion
[ 10718 10713 10712 10709 ] final -132.10 input   66.30 | X-H torsion
[ 10763 10752 10751 10750 ] final -128.57 input  -60.55 | X-H torsion
[ 11005 11000 10999 10996 ] final  174.22 input  -57.11 | X-H torsion

> <Gold.Protein.ActiveResidues>
 VAL166  LYS551  ARG553  GLY616  TRP617  ASP618  TYR619  PRO620  LYS621  CYS622 
 ASP623  PHE694  ASN695  SER759  ASP760  ASP761  ALA762  ILE779  LEU786  VAL792 
 PHE793  MET794  SER795  GLU796  ALA797  LYS798  CYS799  TRP800  GLU811  SER814 

> <Gold.Protein.RotatedAtoms>
  150.8176  133.8310  159.3153 H   0  0  0  0  0  0  0  0  0  0  0  0  # atno 6907 bound_to 6896
  151.6077  135.1041  160.0084 H   0  0  0  0  0  0  0  0  0  0  0  0  # atno 6908 bound_to 6896
  152.4267  133.7166  159.6566 H   0  0  0  0  0  0  0  0  0  0  0  0  # atno 6909 bound_to 6896
  145.1345  140.8743  143.3738 H   0  0  0  0  0  0  0  0  0  0  0  0  # atno 7974 bound_to 7965
  155.0209  140.3147  155.4794 H   0  0  0  0  0  0  0  0  0  0  0  0  # atno 8008 bound_to 7997
  156.2892  140.2197  156.5269 H   0  0  0  0  0  0  0  0  0  0  0  0  # atno 8009 bound_to 7997
  154.7453  140.0470  157.0834 H   0  0  0  0  0  0  0  0  0  0  0  0  # atno 8010 bound_to 7997
  139.5302  144.6621  151.4978 H   0  0  0  0  0  0  0  0  0  0  0  0  # atno 10167 bound_to 10162
  156.2311  130.7038  151.0860 H   0  0  0  0  0  0  0  0  0  0  0  0  # atno 10718 bound_to 10713
  154.8756  135.3924  154.3778 H   0  0  0  0  0  0  0  0  0  0  0  0  # atno 10763 bound_to 10752
  153.4529  135.7028  153.6103 H   0  0  0  0  0  0  0  0  0  0  0  0  # atno 10764 bound_to 10752
  153.4635  135.3806  155.2320 H   0  0  0  0  0  0  0  0  0  0  0  0  # atno 10765 bound_to 10752
  140.3489  134.7212  157.4254 H   0  0  0  0  0  0  0  0  0  0  0  0  # atno 11005 bound_to 11000
  145.0599  139.3113  143.5885 LP  0  0  0  0  0  0  0  0  0  0  0  0  # atno 17320 bound_to 7965
  146.3511  140.0038  142.8673 LP  0  0  0  0  0  0  0  0  0  0  0  0  # atno 17321 bound_to 7965
  140.6475  143.8765  150.6752 LP  0  0  0  0  0  0  0  0  0  0  0  0  # atno 17342 bound_to 10162
  140.2119  143.3877  152.1711 LP  0  0  0  0  0  0  0  0  0  0  0  0  # atno 17343 bound_to 10162
  157.7133  131.0723  150.6419 LP  0  0  0  0  0  0  0  0  0  0  0  0  # atno 17370 bound_to 10713
  156.6487  130.4479  149.5727 LP  0  0  0  0  0  0  0  0  0  0  0  0  # atno 17371 bound_to 10713
  140.0719  134.5851  155.8633 LP  0  0  0  0  0  0  0  0  0  0  0  0  # atno 17394 bound_to 11000
  141.2017  133.6620  156.5968 LP  0  0  0  0  0  0  0  0  0  0  0  0  # atno 17395 bound_to 11000

$$$$
