AV-unprocessed.smi:2222|AV-procd|sdf|8986|dock10
  -GOLD-   2272012203D 1   1.00000     0.00000
 Structure written by MMmdl.
 34 35  0  0  0  0  0  0  0  0  1 V2000
  147.0720  141.7309  154.1782 C   0  0  0  0  0  0  0  0  0  0  0  0
  148.0444  141.7137  155.2130 O   0  0  0  0  0  0  0  0  0  0  0  0
  149.1163  140.8513  155.0886 C   0  0  0  0  0  0  0  0  0  0  0  0
  149.0507  139.6118  154.4023 C   0  0  0  0  0  0  0  0  0  0  0  0
  150.1961  138.8002  154.3306 C   0  0  0  0  0  0  0  0  0  0  0  0
  151.3735  139.2567  154.9490 C   0  0  0  0  0  0  0  0  0  0  0  0
  152.6435  138.4334  154.9150 C   0  0  0  0  0  0  0  0  0  0  0  0
  151.4481  140.4326  155.6039 N   0  0  0  0  0  0  0  0  0  0  0  0
  150.3507  141.2257  155.6799 C   0  0  0  0  0  0  0  0  0  0  0  0
  150.3488  142.4784  156.3525 N   0  0  0  0  0  0  0  0  0  0  0  0
  151.2201  142.9455  157.2688 C   0  0  0  0  0  0  0  0  0  0  0  0
  152.2258  142.3477  157.6479 O   0  0  0  0  0  0  0  0  0  0  0  0
  150.9286  144.1741  157.7321 N   0  0  0  0  0  0  0  0  0  0  0  0
  151.6494  144.9439  158.7031 C   0  0  1  0  0  0  0  0  0  0  0  0
  150.9116  145.3128  159.9718 C   0  0  0  0  0  0  0  0  0  0  0  0
  152.0252  144.3007  160.0254 C   0  0  1  0  0  0  0  0  0  0  0  0
  151.7326  142.8433  160.3246 C   0  0  0  0  0  0  0  0  0  0  0  0
  146.2951  142.4531  154.4281 H   0  0  0  0  0  0  0  0  0  0  0  0
  146.5928  140.7575  154.0652 H   0  0  0  0  0  0  0  0  0  0  0  0
  147.5081  142.0331  153.2251 H   0  0  0  0  0  0  0  0  0  0  0  0
  148.1445  139.2658  153.9291 H   0  0  0  0  0  0  0  0  0  0  0  0
  150.1668  137.8521  153.8138 H   0  0  0  0  0  0  0  0  0  0  0  0
  152.5372  137.5690  154.2591 H   0  0  0  0  0  0  0  0  0  0  0  0
  152.8878  138.0750  155.9154 H   0  0  0  0  0  0  0  0  0  0  0  0
  153.4776  139.0344  154.5518 H   0  0  0  0  0  0  0  0  0  0  0  0
  149.5820  143.0907  156.1162 H   0  0  0  0  0  0  0  0  0  0  0  0
  150.1424  144.6398  157.3023 H   0  0  0  0  0  0  0  0  0  0  0  0
  152.3226  145.7150  158.3314 H   0  0  0  0  0  0  0  0  0  0  0  0
  151.1069  146.2942  160.3992 H   0  0  0  0  0  0  0  0  0  0  0  0
  149.8912  144.9519  160.0887 H   0  0  0  0  0  0  0  0  0  0  0  0
  152.9621  144.6462  160.4584 H   0  0  0  0  0  0  0  0  0  0  0  0
  150.7526  142.5519  159.9459 H   0  0  0  0  0  0  0  0  0  0  0  0
  151.7485  142.6739  161.4013 H   0  0  0  0  0  0  0  0  0  0  0  0
  152.4879  142.2080  159.8617 H   0  0  0  0  0  0  0  0  0  0  0  0
  1  2  1  0  0  0  0
  1 18  1  0  0  0  0
  1 19  1  0  0  0  0
  1 20  1  0  0  0  0
  2  3  1  0  0  0  0
  3  9  1  0  0  0  0
  3  4  2  0  0  0  0
  4  5  1  0  0  0  0
  4 21  1  0  0  0  0
  5  6  2  0  0  0  0
  5 22  1  0  0  0  0
  6  7  1  0  0  0  0
  6  8  1  0  0  0  0
  7 23  1  0  0  0  0
  7 24  1  0  0  0  0
  7 25  1  0  0  0  0
  8  9  2  0  0  0  0
  9 10  1  0  0  0  0
 10 11  1  0  0  0  0
 10 26  1  0  0  0  0
 11 12  2  0  0  0  0
 11 13  1  0  0  0  0
 13 14  1  0  0  0  0
 13 27  1  0  0  0  0
 14 16  1  0  0  0  0
 14 15  1  0  0  0  0
 14 28  1  0  0  0  0
 15 16  1  0  0  0  0
 15 29  1  0  0  0  0
 15 30  1  0  0  0  0
 16 17  1  0  0  0  0
 16 31  1  0  0  0  0
 17 32  1  0  0  0  0
 17 33  1  0  0  0  0
 17 34  1  0  0  0  0
M  END
> <s_m_source_file>
AV-unprocessed.smi

> <i_m_source_file_index>
2222

> <i_lp_mmshare_version>
43012

> <i_f3d_flags>
0

> <s_epik_input>
W0NIM11PYzFbY0hdW2NIXWMoW0NIM10pbmMxW05IXUMoPU8pW05IXVtDQEBIXTJbQ0gyXVtDQEhdMltDSDNd

> <s_epik_cmdline>
J2VwaWtfcHl0aG9uJywgJy1waCcsICc3LjAnLCAnLXRuJywgJzgnLCAnLW1hJywgJzIwMCcsICctbWV0YWxfYmluZGluZycsICctaW1hZScsICc8aW5maWxlLm1hZT4nLCAnLW9tYWUnLCAnPG91dGZpbGUubWFlPic=

> <r_lp_tautomer_probability>
1

> <r_epik_Ionization_Penalty>
6.59103e-05

> <r_epik_Ionization_Penalty_Charging>
0

> <r_epik_Ionization_Penalty_Neutral>
6.59103e-05

> <r_epik_State_Penalty>
-0

> <r_epik_Charging_Adjusted_Penalty>
0

> <i_epik_Tot_Q>
0

> <i_epik_Tot_abs_Q>
0

> <r_epik_Metal_State_Penalty>
-0

> <b_epik_Metal_Only>
0

> <s_lp_Force_Field>
OPLS_2005

> <r_lp_Energy>
34.1661

> <b_lp_Chiralities_Consistent>
1

> <s_lp_Variant>
AV-unprocessed.smi:2222-2

> <Gold.Version>
5.8.1

> <Gold.Id.Protein>
6NUR|6NUR_protein|mol2

> <Gold.PLP.Fitness>
42.5667

> <Gold.PLP.PLP>
-37.6369

> <Gold.PLP.part.hbond>
-3.0000

> <Gold.PLP.part.metal>
0.0000

> <Gold.PLP.part.buried>
0.2406

> <Gold.PLP.part.nonpolar>
-35.1852

> <Gold.PLP.part.repulsive>
0.3795

> <Gold.PLP.ligand.clash>
0.0000

> <Gold.PLP.ligand.torsion>
0.4939

> <Gold.PLP.Chemscore.Hbond>
1.9600

> <Gold.PLP.Chemscore.CHOScore>
0.0000

> <Gold.PLP.Chemscore.Metal>
0.0000

> <Gold.Chemscore.Hbonds>
donor molecule, donor type, donor heavy atom, donor atom, acceptor molecule, acceptor atom, score
      L1  H    10    26       P1  8028  1.00
      L1  H    13    27       P1  8028  0.94

> <Gold.PLP.Chemscore.Internal.Correction>
0.0376

> <Gold.Rescore>
     Score         DG    S(hbond)    S(metal)    S(lipo)     H(rot)  DE(clash)    DE(int)     intcor
     12.80     -17.37       1.44        0.00      87.20       1.22       1.51       3.06       ----

> <Gold.Chemscore.Fitness>
12.7969

> <Gold.Chemscore.DG>
-17.3654

> <Gold.Chemscore.ZeroCoef>
-5.4800

> <Gold.Chemscore.Hbond>
1.4364

> <Gold.Chemscore.Metal>
0.0000

> <Gold.Chemscore.Lipo>
87.2043

> <Gold.Chemscore.Internal_Hbond>
0.0000

> <Gold.Chemscore.DEClash>
1.5079

> <Gold.Chemscore.DEInternal>
3.0606

> <Gold.Chemscore.Rot>
1.2168

> <Gold.Chemscore.Internal.Correction>
   9.000000E+99

> <Gold.Chemscore.Hbonds>
donor molecule, donor type, donor heavy atom, donor atom, acceptor molecule, acceptor atom, score
      L1  H    10    26       P1  8028  0.96
      L1  H    13    27       P1  8028  0.25

> <Gold.Chemscore.Hbond.Weighted>
-4.7975

> <Gold.Chemscore.Metal.Weighted>
-0.0000

> <Gold.Chemscore.Lipo.Weighted>
-10.2029

> <Gold.Chemscore.Internal_Hbond.Weighted>
0.0000

> <Gold.Chemscore.DEClash.Weighted>
1.5079

> <Gold.Chemscore.DEInternal.Weighted>
3.0606

> <Gold.Chemscore.Rot.Weighted>
3.1150

> <Gold.Chemscore.Internal.Correction.Weighted>
   9.000000E+99

> <Gold.Protein.RotatedTorsions>
[ 6907 6896 6895 6894 ] final   77.55 input  -60.11 | X-H torsion
[ 7974 7965 7964 7962 ] final   29.97 input  175.53 | X-H torsion
[ 8008 7997 7996 7995 ] final  -41.55 input   59.86 | X-H torsion
[ 10167 10162 10161 10158 ] final  -31.32 input  -65.29 | X-H torsion
[ 10718 10713 10712 10709 ] final -154.87 input   66.30 | X-H torsion
[ 10763 10752 10751 10750 ] final  -76.83 input  -60.55 | X-H torsion
[ 11005 11000 10999 10996 ] final  -25.85 input  -57.11 | X-H torsion

> <Gold.Protein.ActiveResidues>
 VAL166  LYS551  ARG553  GLY616  TRP617  ASP618  TYR619  PRO620  LYS621  CYS622 
 ASP623  PHE694  ASN695  SER759  ASP760  ASP761  ALA762  ILE779  LEU786  VAL792 
 PHE793  MET794  SER795  GLU796  ALA797  LYS798  CYS799  TRP800  GLU811  SER814 

> <Gold.Protein.RotatedAtoms>
  152.5122  134.3799  159.9347 H   0  0  0  0  0  0  0  0  0  0  0  0  # atno 6907 bound_to 6896
  151.3755  133.3833  159.2712 H   0  0  0  0  0  0  0  0  0  0  0  0  # atno 6908 bound_to 6896
  150.9544  134.8960  159.7751 H   0  0  0  0  0  0  0  0  0  0  0  0  # atno 6909 bound_to 6896
  146.1640  139.6850  142.9014 H   0  0  0  0  0  0  0  0  0  0  0  0  # atno 7974 bound_to 7965
  154.4003  140.1496  156.3209 H   0  0  0  0  0  0  0  0  0  0  0  0  # atno 8008 bound_to 7997
  155.8531  140.3457  155.5685 H   0  0  0  0  0  0  0  0  0  0  0  0  # atno 8009 bound_to 7997
  155.7963  140.0864  157.1972 H   0  0  0  0  0  0  0  0  0  0  0  0  # atno 8010 bound_to 7997
  140.7238  143.3780  151.1653 H   0  0  0  0  0  0  0  0  0  0  0  0  # atno 10167 bound_to 10162
  156.5052  130.8409  151.2625 H   0  0  0  0  0  0  0  0  0  0  0  0  # atno 10718 bound_to 10713
  154.5049  135.5784  153.6560 H   0  0  0  0  0  0  0  0  0  0  0  0  # atno 10763 bound_to 10752
  152.9886  135.6145  154.2954 H   0  0  0  0  0  0  0  0  0  0  0  0  # atno 10764 bound_to 10752
  154.2864  135.2849  155.2654 H   0  0  0  0  0  0  0  0  0  0  0  0  # atno 10765 bound_to 10752
  140.8976  133.7546  156.0501 H   0  0  0  0  0  0  0  0  0  0  0  0  # atno 11005 bound_to 11000
  145.4516  141.0428  143.2801 LP  0  0  0  0  0  0  0  0  0  0  0  0  # atno 17320 bound_to 7965
  144.8066  139.6040  143.7048 LP  0  0  0  0  0  0  0  0  0  0  0  0  # atno 17321 bound_to 7965
  139.7364  143.8992  152.3036 LP  0  0  0  0  0  0  0  0  0  0  0  0  # atno 17342 bound_to 10162
  139.8799  144.7023  150.8890 LP  0  0  0  0  0  0  0  0  0  0  0  0  # atno 17343 bound_to 10162
  157.7458  130.9968  150.2794 LP  0  0  0  0  0  0  0  0  0  0  0  0  # atno 17370 bound_to 10713
  156.3294  130.3798  149.7504 LP  0  0  0  0  0  0  0  0  0  0  0  0  # atno 17371 bound_to 10713
  140.8270  134.3223  157.5362 LP  0  0  0  0  0  0  0  0  0  0  0  0  # atno 17394 bound_to 11000
  139.8737  134.9342  156.3600 LP  0  0  0  0  0  0  0  0  0  0  0  0  # atno 17395 bound_to 11000

$$$$
