AV-unprocessed.smi:2079|AV-procd|sdf|8480|dock1
  -GOLD-   2272011183D 1   1.00000     0.00000
 Structure written by MMmdl.
 41 42  0  0  0  0  0  0  0  0  3 V2000
  153.6388  137.5620  157.1974 C   0  0  0  0  0  0  0  0  0  0  0  0
  152.6536  138.1171  156.2263 C   0  0  0  0  0  0  0  0  0  0  0  0
  151.5664  137.5783  155.5991 C   0  0  0  0  0  0  0  0  0  0  0  0
  151.0779  138.6565  154.8121 C   0  0  0  0  0  0  0  0  0  0  0  0
  150.0149  138.6151  153.9939 N   0  5  0  0  0  0  0  0  0  0  0  0
  148.7725  138.4440  154.5000 C   0  0  0  0  0  0  0  0  0  0  0  0
  148.2729  139.0611  155.4434 O   0  0  0  0  0  0  0  0  0  0  0  0
  148.0645  137.4934  153.8765 N   0  0  0  0  0  0  0  0  0  0  0  0
  146.7096  137.0920  154.2276 C   0  0  0  0  0  0  0  0  0  0  0  0
  145.8962  136.7975  152.9568 C   0  0  0  0  0  0  0  0  0  0  0  0
  146.2721  135.5198  152.2932 N   0  3  1  0  0  0  0  0  0  0  0  0
  146.4858  134.4277  153.2814 C   0  0  0  0  0  0  0  0  0  0  0  0
  147.0753  133.1731  152.6181 C   0  0  0  0  0  0  0  0  0  0  0  0
  146.1894  132.6941  151.4638 C   0  0  0  0  0  0  0  0  0  0  0  0
  145.9738  133.8394  150.4658 C   0  0  0  0  0  0  0  0  0  0  0  0
  145.4078  135.1068  151.1416 C   0  0  1  0  0  0  0  0  0  0  0  0
  143.9165  134.9544  151.5100 C   0  0  0  0  0  0  0  0  0  0  0  0
  151.8130  139.7486  154.9380 N   0  0  0  0  0  0  0  0  0  0  0  0
  152.8217  139.4131  155.8491 O   0  0  0  0  0  0  0  0  0  0  0  0
  154.1427  136.6910  156.7787 H   0  0  0  0  0  0  0  0  0  0  0  0
  153.1415  137.2552  158.1174 H   0  0  0  0  0  0  0  0  0  0  0  0
  154.3987  138.3006  157.4541 H   0  0  0  0  0  0  0  0  0  0  0  0
  151.1801  136.5742  155.6896 H   0  0  0  0  0  0  0  0  0  0  0  0
  148.5068  137.0134  153.1063 H   0  0  0  0  0  0  0  0  0  0  0  0
  146.7692  136.2080  154.8629 H   0  0  0  0  0  0  0  0  0  0  0  0
  146.2374  137.8854  154.8086 H   0  0  0  0  0  0  0  0  0  0  0  0
  144.8432  136.7393  153.2371 H   0  0  0  0  0  0  0  0  0  0  0  0
  145.9720  137.6259  152.2516 H   0  0  0  0  0  0  0  0  0  0  0  0
  147.1716  134.7675  154.0586 H   0  0  0  0  0  0  0  0  0  0  0  0
  145.5470  134.1872  153.7814 H   0  0  0  0  0  0  0  0  0  0  0  0
  148.0769  133.3924  152.2453 H   0  0  0  0  0  0  0  0  0  0  0  0
  147.1874  132.3783  153.3563 H   0  0  0  0  0  0  0  0  0  0  0  0
  146.6521  131.8427  150.9641 H   0  0  0  0  0  0  0  0  0  0  0  0
  145.2311  132.3441  151.8494 H   0  0  0  0  0  0  0  0  0  0  0  0
  146.9277  134.0818  149.9953 H   0  0  0  0  0  0  0  0  0  0  0  0
  145.3159  133.5132  149.6595 H   0  0  0  0  0  0  0  0  0  0  0  0
  145.4682  135.8881  150.3850 H   0  0  0  0  0  0  0  0  0  0  0  0
  143.3385  134.6307  150.6443 H   0  0  0  0  0  0  0  0  0  0  0  0
  143.4828  135.8987  151.8386 H   0  0  0  0  0  0  0  0  0  0  0  0
  143.7566  134.2205  152.2989 H   0  0  0  0  0  0  0  0  0  0  0  0
  147.1827  135.6917  151.8911 H   0  0  0  0  0  0  0  0  0  0  0  0
  1  2  1  0  0  0  0
  1 20  1  0  0  0  0
  1 21  1  0  0  0  0
  1 22  1  0  0  0  0
  2 19  1  0  0  0  0
  2  3  2  0  0  0  0
  3  4  1  0  0  0  0
  3 23  1  0  0  0  0
  4  5  1  0  0  0  0
  4 18  2  0  0  0  0
  5  6  1  0  0  0  0
  6  7  2  0  0  0  0
  6  8  1  0  0  0  0
  8  9  1  0  0  0  0
  8 24  1  0  0  0  0
  9 10  1  0  0  0  0
  9 25  1  0  0  0  0
  9 26  1  0  0  0  0
 10 11  1  0  0  0  0
 10 27  1  0  0  0  0
 10 28  1  0  0  0  0
 11 16  1  0  0  0  0
 11 12  1  0  0  0  0
 11 41  1  0  0  0  0
 12 13  1  0  0  0  0
 12 29  1  0  0  0  0
 12 30  1  0  0  0  0
 13 14  1  0  0  0  0
 13 31  1  0  0  0  0
 13 32  1  0  0  0  0
 14 15  1  0  0  0  0
 14 33  1  0  0  0  0
 14 34  1  0  0  0  0
 15 16  1  0  0  0  0
 15 35  1  0  0  0  0
 15 36  1  0  0  0  0
 16 17  1  0  0  0  0
 16 37  1  0  0  0  0
 17 38  1  0  0  0  0
 17 39  1  0  0  0  0
 17 40  1  0  0  0  0
 18 19  1  0  0  0  0
M  CHG  1   5  -1
M  CHG  1  11   1
M  END
> <s_m_source_file>
AV-unprocessed.smi

> <i_m_source_file_index>
2079

> <i_lp_mmshare_version>
43012

> <i_f3d_flags>
0

> <s_epik_input>
W0NIM11jMVtjSF1jKG5vMSlbTkhdQyg9TylbTkhdW0NIMl1bQ0gyXU4yW0NIMl1bQ0gyXVtDSDJdW0NIMl1bQ0BIXTJbQ0gzXQ==

> <s_epik_cmdline>
J2VwaWtfcHl0aG9uJywgJy1waCcsICc3LjAnLCAnLXRuJywgJzgnLCAnLW1hJywgJzIwMCcsICctbWV0YWxfYmluZGluZycsICctaW1hZScsICc8aW5maWxlLm1hZT4nLCAnLW9tYWUnLCAnPG91dGZpbGUubWFlPic=

> <r_epik_Ionization_Penalty>
6.22371

> <r_epik_Ionization_Penalty_Charging>
6.22362

> <r_epik_Ionization_Penalty_Neutral>
9.40454e-05

> <r_epik_State_Penalty>
6.22363

> <r_epik_Charging_Adjusted_Penalty>
12.4472

> <i_epik_Tot_Q>
0

> <i_epik_Tot_abs_Q>
2

> <r_epik_Metal_State_Penalty>
2.16675

> <b_epik_Metal_Only>
1

> <s_lp_Force_Field>
OPLS_2005

> <r_lp_Energy>
9.70106

> <b_lp_Chiralities_Consistent>
1

> <s_lp_Variant>
AV-unprocessed.smi:2079-6

> <Gold.Version>
5.8.1

> <Gold.Id.Protein>
6NUR|6NUR_protein|mol2

> <Gold.PLP.Fitness>
39.8155

> <Gold.PLP.PLP>
-27.4164

> <Gold.PLP.part.hbond>
-3.8949

> <Gold.PLP.part.metal>
0.0000

> <Gold.PLP.part.buried>
-4.2090

> <Gold.PLP.part.nonpolar>
-19.5674

> <Gold.PLP.part.repulsive>
1.0853

> <Gold.PLP.ligand.clash>
0.0000

> <Gold.PLP.ligand.torsion>
1.3298

> <Gold.PLP.Chemscore.Hbond>
4.9913

> <Gold.PLP.Chemscore.CHOScore>
0.0000

> <Gold.PLP.Chemscore.Metal>
0.0000

> <Gold.Chemscore.Hbonds>
donor molecule, donor type, donor heavy atom, donor atom, acceptor molecule, acceptor atom, score
      L1  H     8    24       P1  7948  0.99
      L1  H    11    41       P1  7948  2.00
      P1  H  7989  7998       L1    18  1.00
      P1  H  7997  8009       L1    19  1.00

> <Gold.PLP.Chemscore.Internal.Correction>
0.0849

> <Gold.Rescore>
     Score         DG    S(hbond)    S(metal)    S(lipo)     H(rot)  DE(clash)    DE(int)     intcor
     18.88     -20.18       3.75        0.00      52.25       1.54       0.08       1.22       ----

> <Gold.Chemscore.Fitness>
18.8795

> <Gold.Chemscore.DG>
-20.1765

> <Gold.Chemscore.ZeroCoef>
-5.4800

> <Gold.Chemscore.Hbond>
3.7507

> <Gold.Chemscore.Metal>
0.0000

> <Gold.Chemscore.Lipo>
52.2540

> <Gold.Chemscore.Internal_Hbond>
0.0000

> <Gold.Chemscore.DEClash>
0.0765

> <Gold.Chemscore.DEInternal>
1.2204

> <Gold.Chemscore.Rot>
1.5409

> <Gold.Chemscore.Internal.Correction>
   9.000000E+99

> <Gold.Chemscore.Hbonds>
donor molecule, donor type, donor heavy atom, donor atom, acceptor molecule, acceptor atom, score
      L1  H     8    24       P1  7948  0.93
      L1  H    11    41       P1  7948  0.99
      P1  H  7989  7998       L1    18  0.81
      P1  H  7997  8009       L1    19  0.85

> <Gold.Chemscore.Hbond.Weighted>
-12.5274

> <Gold.Chemscore.Metal.Weighted>
-0.0000

> <Gold.Chemscore.Lipo.Weighted>
-6.1137

> <Gold.Chemscore.Internal_Hbond.Weighted>
0.0000

> <Gold.Chemscore.DEClash.Weighted>
0.0765

> <Gold.Chemscore.DEInternal.Weighted>
1.2204

> <Gold.Chemscore.Rot.Weighted>
3.9446

> <Gold.Chemscore.Internal.Correction.Weighted>
   9.000000E+99

> <Gold.Protein.RotatedTorsions>
[ 6907 6896 6895 6894 ] final   56.48 input  -60.11 | X-H torsion
[ 7974 7965 7964 7962 ] final -164.63 input  175.53 | X-H torsion
[ 8008 7997 7996 7995 ] final -169.60 input   59.86 | X-H torsion
[ 10167 10162 10161 10158 ] final   -0.39 input  -65.29 | X-H torsion
[ 10718 10713 10712 10709 ] final  -91.98 input   66.30 | X-H torsion
[ 10763 10752 10751 10750 ] final   97.53 input  -60.55 | X-H torsion
[ 11005 11000 10999 10996 ] final -105.11 input  -57.11 | X-H torsion

> <Gold.Protein.ActiveResidues>
 VAL166  LYS551  ARG553  GLY616  TRP617  ASP618  TYR619  PRO620  LYS621  CYS622 
 ASP623  PHE694  ASN695  SER759  ASP760  ASP761  ALA762  ILE779  LEU786  VAL792 
 PHE793  MET794  SER795  GLU796  ALA797  LYS798  CYS799  TRP800  GLU811  SER814 

> <Gold.Protein.RotatedAtoms>
  152.3640  134.6831  160.0197 H   0  0  0  0  0  0  0  0  0  0  0  0  # atno 6907 bound_to 6896
  151.7145  133.3307  159.3307 H   0  0  0  0  0  0  0  0  0  0  0  0  # atno 6908 bound_to 6896
  150.7625  134.6437  159.6295 H   0  0  0  0  0  0  0  0  0  0  0  0  # atno 6909 bound_to 6896
  144.7291  140.2932  143.6217 H   0  0  0  0  0  0  0  0  0  0  0  0  # atno 7974 bound_to 7965
  155.9072  140.1051  157.1307 H   0  0  0  0  0  0  0  0  0  0  0  0  # atno 8008 bound_to 7997
  154.4034  140.1281  156.4575 H   0  0  0  0  0  0  0  0  0  0  0  0  # atno 8009 bound_to 7997
  155.7354  140.3468  155.5081 H   0  0  0  0  0  0  0  0  0  0  0  0  # atno 8010 bound_to 7997
  140.6765  143.6900  150.8035 H   0  0  0  0  0  0  0  0  0  0  0  0  # atno 10167 bound_to 10162
  155.9998  130.4969  150.5556 H   0  0  0  0  0  0  0  0  0  0  0  0  # atno 10718 bound_to 10713
  153.2781  135.4180  155.1052 H   0  0  0  0  0  0  0  0  0  0  0  0  # atno 10763 bound_to 10752
  154.8480  135.3488  154.6151 H   0  0  0  0  0  0  0  0  0  0  0  0  # atno 10764 bound_to 10752
  153.6571  135.7050  153.5247 H   0  0  0  0  0  0  0  0  0  0  0  0  # atno 10765 bound_to 10752
  141.1069  133.8780  157.1693 H   0  0  0  0  0  0  0  0  0  0  0  0  # atno 11005 bound_to 11000
  145.7834  139.1900  143.2144 LP  0  0  0  0  0  0  0  0  0  0  0  0  # atno 17320 bound_to 7965
  146.0815  140.7758  142.9639 LP  0  0  0  0  0  0  0  0  0  0  0  0  # atno 17321 bound_to 7965
  140.0594  143.5170  152.2635 LP  0  0  0  0  0  0  0  0  0  0  0  0  # atno 17342 bound_to 10162
  139.6061  144.7596  151.3059 LP  0  0  0  0  0  0  0  0  0  0  0  0  # atno 17343 bound_to 10162
  157.3472  131.0727  151.1741 LP  0  0  0  0  0  0  0  0  0  0  0  0  # atno 17370 bound_to 10713
  157.2570  130.6641  149.5957 LP  0  0  0  0  0  0  0  0  0  0  0  0  # atno 17371 bound_to 10713
  139.9943  135.0052  157.0048 LP  0  0  0  0  0  0  0  0  0  0  0  0  # atno 17394 bound_to 11000
  140.4878  134.1223  155.7227 LP  0  0  0  0  0  0  0  0  0  0  0  0  # atno 17395 bound_to 11000

$$$$
