#       Name:                AV-unprocessed.smi:3303
#       Creating user name   scv26
#       Creation time:       Fri Mar 27 19:02:59 2020


#       File generated by GOLD software.
#

@<TRIPOS>MOLECULE
AV-unprocessed.smi:3303
    46    47     1
SMALL
NO_CHARGES


@<TRIPOS>ATOM
      1 ****        -0.2316  -1.8284   1.6232 C.3            1 S1                 0.0000
      2 ****        -0.9549  -0.6345   0.9656 C.3            1 S1                 0.0000
      3 ****        -2.4849  -0.7780   1.0700 C.3            1 S1                 0.0000
      4 ****        -3.0113  -1.8601   0.1953 N.4            1 S1                 1.0000
      5 ****        -4.4596  -2.0720   0.4341 C.3            1 S1                 0.0000
      6 ****        -2.6562  -1.6505  -1.2416 C.3            1 S1                 0.0000
      7 ****        -3.1593  -2.7898  -2.1493 C.3            1 S1                 0.0000
      8 ****        -1.1292  -1.4981  -1.4066 C.3            1 S1                 0.0000
      9 ****        -0.5673  -0.3827  -0.5118 C.3            1 S1                 0.0000
     10 ****         0.8738  -0.2857  -0.7204 N.3            1 S1                 0.0000
     11 ****         1.4185   0.9581  -0.1948 C.3            1 S1                 0.0000
     12 ****         2.9107   1.0556  -0.5392 C.3            1 S1                 0.0000
     13 ****         3.5296   2.3395  -0.0198 C.ar           1 S1                 0.0000
     14 ****         4.2932   2.3441   1.1669 C.ar           1 S1                 0.0000
     15 ****         4.8370   3.5654   1.6099 C.ar           1 S1                 0.0000
     16 ****         4.5964   4.7290   0.8544 C.ar           1 S1                 0.0000
     17 ****         3.8195   4.6191  -0.3160 C.ar           1 S1                 0.0000
     18 ****         3.2935   3.4531  -0.7497 N.ar           1 S1                 0.0000
     19 ****        -0.4561  -2.7709   1.1241 H              1 S1                 0.0000
     20 ****        -0.5284  -1.9340   2.6668 H              1 S1                 0.0000
     21 ****         0.8506  -1.6967   1.6114 H              1 S1                 0.0000
     22 ****        -0.6885   0.2496   1.5451 H              1 S1                 0.0000
     23 ****        -2.7602  -0.9728   2.1077 H              1 S1                 0.0000
     24 ****        -2.9629   0.1641   0.7959 H              1 S1                 0.0000
     25 ****        -5.0466  -1.2409   0.0409 H              1 S1                 0.0000
     26 ****        -4.6675  -2.1574   1.5012 H              1 S1                 0.0000
     27 ****        -4.8118  -2.9951  -0.0253 H              1 S1                 0.0000
     28 ****        -3.1287  -0.7235  -1.5714 H              1 S1                 0.0000
     29 ****        -2.8062  -2.6558  -3.1723 H              1 S1                 0.0000
     30 ****        -4.2473  -2.8247  -2.2006 H              1 S1                 0.0000
     31 ****        -2.8039  -3.7611  -1.8035 H              1 S1                 0.0000
     32 ****        -0.6368  -2.4459  -1.1842 H              1 S1                 0.0000
     33 ****        -0.8976  -1.2765  -2.4496 H              1 S1                 0.0000
     34 ****        -1.0189   0.5555  -0.8387 H              1 S1                 0.0000
     35 ****         1.0692  -0.3288  -1.7108 H              1 S1                 0.0000
     36 ****         0.8829   1.8052  -0.6252 H              1 S1                 0.0000
     37 ****         1.2903   1.0012   0.8865 H              1 S1                 0.0000
     38 ****         3.4487   0.2035  -0.1211 H              1 S1                 0.0000
     39 ****         3.0525   1.0089  -1.6202 H              1 S1                 0.0000
     40 ****         4.4579   1.4353   1.7272 H              1 S1                 0.0000
     41 ****         5.4263   3.6093   2.5137 H              1 S1                 0.0000
     42 ****         4.9962   5.6833   1.1642 H              1 S1                 0.0000
     43 ****         3.6143   5.4909  -0.9193 H              1 S1                 0.0000
     44 ****        -2.5471  -2.7086   0.4864 H              1 S1                 0.0000
     45 ****         1.3029  -1.0468  -0.2339 LP             1 S1                 0.0000
     46 ****         2.7459   3.4145  -1.5855 LP             1 S1                 0.0000
@<TRIPOS>BOND
    1    1    2 1     
    2    1   19 1     
    3    1   20 1     
    4    1   21 1     
    5    2    9 1     
    6    2    3 1     
    7    2   22 1     
    8    3    4 1     
    9    3   23 1     
   10    3   24 1     
   11    4    5 1     
   12    4    6 1     
   13    4   44 1     
   14    5   25 1     
   15    5   26 1     
   16    5   27 1     
   17    6    7 1     
   18    6    8 1     
   19    6   28 1     
   20    7   29 1     
   21    7   30 1     
   22    7   31 1     
   23    8    9 1     
   24    8   32 1     
   25    8   33 1     
   26    9   10 1     
   27    9   34 1     
   28   10   11 1     
   29   10   35 1     
   30   11   12 1     
   31   11   36 1     
   32   11   37 1     
   33   12   13 1     
   34   12   38 1     
   35   12   39 1     
   36   13   18 ar    
   37   13   14 ar    
   38   14   15 ar    
   39   14   40 1     
   40   15   16 ar    
   41   15   41 1     
   42   16   17 ar    
   43   16   42 1     
   44   17   18 ar    
   45   17   43 1     
   46   10   45 1     
   47   18   46 1     
@<TRIPOS>SUBSTRUCTURE
      1 S1             1
@<TRIPOS>SET
LONE_PAIRS      STATIC     ATOMS    <user>   **** ""
2 45 46
DONOR_HYDROGENS      STATIC     ATOMS    <user>   **** ""
2 44 35
ATOM$BLUE        STATIC     ATOMS    COLORGROUP SYSTEM
2 45 46
ATOM$RED        STATIC     ATOMS    COLORGROUP SYSTEM
2 44 35
