#       Name:                AV-unprocessed.smi:1758
#       Creating user name   scv26
#       Creation time:       Fri Mar 27 08:30:21 2020


#       File generated by GOLD software.
#

@<TRIPOS>MOLECULE
AV-unprocessed.smi:1758
    47    49     1
SMALL
NO_CHARGES


@<TRIPOS>ATOM
      1 ****        -5.8473   1.1525   4.0290 C.3            1 S1                 0.0000
      2 ****        -5.1808  -0.1220   3.4979 C.3            1 S1                 0.0000
      3 ****        -3.7383   0.0098   3.4403 N.pl3          1 S1                 0.0000
      4 ****        -2.9442   0.2231   2.3312 C.2            1 S1                 0.0000
      5 ****        -1.6620   0.2764   2.8003 C.2            1 S1                 0.0000
      6 ****        -0.4523   0.4807   2.0904 N.am           1 S1                 0.0000
      7 ****        -0.3029   0.6417   0.7658 C.2            1 S1                 0.0000
      8 ****        -1.2169   0.6215  -0.0586 O.2            1 S1                 0.0000
      9 ****         0.9846   0.8212   0.4395 N.am           1 S1                 0.0000
     10 ****         1.4887   1.0047  -0.9182 C.3            1 S1                 0.0000
     11 ****         2.7852   1.8320  -0.9701 C.3            1 S1                 0.0000
     12 ****         3.6380   1.1861  -2.0804 C.3            1 S1                 0.0000
     13 ****         2.7937   0.1202  -2.6533 N.4            1 S1                 1.0000
     14 ****         3.4871  -1.0049  -3.3176 C.3            1 S1                 0.0000
     15 ****         2.4399  -1.9630  -3.9202 C.3            1 S1                 0.0000
     16 ****         1.4025  -2.4103  -2.8702 C.3            1 S1                 0.0000
     17 ****         0.7828  -1.1983  -2.1480 C.3            1 S1                 0.0000
     18 ****         1.9027  -0.3177  -1.5682 C.3            1 S1                 0.0000
     19 ****        -1.7545   0.0868   4.2036 C.2            1 S1                 0.0000
     20 ****        -3.0128  -0.0754   4.5829 N.2            1 S1                 0.0000
     21 ****        -6.9306   1.0381   4.0623 H              1 S1                 0.0000
     22 ****        -5.6218   2.0085   3.3925 H              1 S1                 0.0000
     23 ****        -5.5071   1.3860   5.0383 H              1 S1                 0.0000
     24 ****        -5.4303  -0.9746   4.1307 H              1 S1                 0.0000
     25 ****        -5.5509  -0.3509   2.4981 H              1 S1                 0.0000
     26 ****        -3.3590   0.3173   1.3384 H              1 S1                 0.0000
     27 ****         0.3863   0.5070   2.6520 H              1 S1                 0.0000
     28 ****         1.6658   0.8247   1.1847 H              1 S1                 0.0000
     29 ****         0.7420   1.4999  -1.5430 H              1 S1                 0.0000
     30 ****         2.5735   2.8816  -1.1781 H              1 S1                 0.0000
     31 ****         3.3234   1.7892  -0.0219 H              1 S1                 0.0000
     32 ****         3.9307   1.9009  -2.8499 H              1 S1                 0.0000
     33 ****         4.5456   0.7578  -1.6524 H              1 S1                 0.0000
     34 ****         4.1419  -0.6211  -4.1007 H              1 S1                 0.0000
     35 ****         4.1170  -1.5306  -2.5982 H              1 S1                 0.0000
     36 ****         1.9251  -1.4633  -4.7420 H              1 S1                 0.0000
     37 ****         2.9344  -2.8337  -4.3519 H              1 S1                 0.0000
     38 ****         0.6212  -3.0061  -3.3430 H              1 S1                 0.0000
     39 ****         1.8853  -3.0593  -2.1383 H              1 S1                 0.0000
     40 ****         0.1719  -0.6215  -2.8438 H              1 S1                 0.0000
     41 ****         0.1175  -1.5405  -1.3550 H              1 S1                 0.0000
     42 ****         2.4877  -0.8997  -0.8521 H              1 S1                 0.0000
     43 ****        -0.9686   0.0619   4.9440 H              1 S1                 0.0000
     44 ****         2.2044   0.5615  -3.3449 H              1 S1                 0.0000
     45 ****        -2.1592   0.4763   0.2430 LP             1 S1                 0.0000
     46 ****        -1.0170   0.7504  -1.0300 LP             1 S1                 0.0000
     47 ****        -3.3540  -0.2276   5.5104 LP             1 S1                 0.0000
@<TRIPOS>BOND
    1    1    2 1     
    2    1   21 1     
    3    1   22 1     
    4    1   23 1     
    5    2    3 1     
    6    2   24 1     
    7    2   25 1     
    8    3   20 1     
    9    3    4 1     
   10    4    5 2     
   11    4   26 1     
   12    5    6 1     
   13    5   19 1     
   14    6    7 am    
   15    6   27 1     
   16    7    8 2     
   17    7    9 am    
   18    9   10 1     
   19    9   28 1     
   20   10   18 1     
   21   10   11 1     
   22   10   29 1     
   23   11   12 1     
   24   11   30 1     
   25   11   31 1     
   26   12   13 1     
   27   12   32 1     
   28   12   33 1     
   29   13   18 1     
   30   13   14 1     
   31   13   44 1     
   32   14   15 1     
   33   14   34 1     
   34   14   35 1     
   35   15   16 1     
   36   15   36 1     
   37   15   37 1     
   38   16   17 1     
   39   16   38 1     
   40   16   39 1     
   41   17   18 1     
   42   17   40 1     
   43   17   41 1     
   44   18   42 1     
   45   19   20 2     
   46   19   43 1     
   47    8   45 1     
   48    8   46 1     
   49   20   47 1     
@<TRIPOS>SUBSTRUCTURE
      1 S1             1
@<TRIPOS>SET
LONE_PAIRS      STATIC     ATOMS    <user>   **** ""
3 45 46 47
DONOR_HYDROGENS      STATIC     ATOMS    <user>   **** ""
3 27 28 44
ATOM$BLUE        STATIC     ATOMS    COLORGROUP SYSTEM
3 45 46 47
ATOM$RED        STATIC     ATOMS    COLORGROUP SYSTEM
3 27 28 44
