#       Name:                AV-unprocessed.smi:276
#       Creating user name   scv26
#       Creation time:       Thu Mar 26 21:33:49 2020


#       File generated by GOLD software.
#

@<TRIPOS>MOLECULE
AV-unprocessed.smi:276
    67    71     1
SMALL
NO_CHARGES


@<TRIPOS>ATOM
      1 ****        -4.3792   0.3434   4.2654 C.3            1 S1                 0.0000
      2 ****        -3.2774  -0.1868   3.5500 O.3            1 S1                 0.0000
      3 ****        -3.6430  -1.2466   2.6769 C.3            1 S1                 0.0000
      4 ****        -4.1480  -0.7479   1.3137 C.3            1 S1                 0.0000
      5 ****        -2.7013  -0.8107   0.7844 C.3            1 S1                 0.0000
      6 ****        -2.0323   0.4936   0.8929 N.3            1 S1                 0.0000
      7 ****        -2.5437   1.5492   0.0246 C.3            1 S1                 0.0000
      8 ****        -0.6836   0.4634   0.8299 C.ar           1 S1                 0.0000
      9 ****        -0.0048   1.1061   1.8123 N.ar           1 S1                 0.0000
     10 ****         1.3316   1.1044   1.8111 C.ar           1 S1                 0.0000
     11 ****         2.1655   0.5421   0.9334 N.ar           1 S1                 0.0000
     12 ****         1.4832  -0.0882  -0.0653 C.ar           1 S1                 0.0000
     13 ****         0.0690  -0.1759  -0.1956 C.ar           1 S1                 0.0000
     14 ****        -0.2582  -0.8920  -1.3409 N.2            1 S1                 0.0000
     15 ****         0.8970  -1.2087  -1.8587 C.2            1 S1                 0.0000
     16 ****         1.9953  -0.7586  -1.1616 N.pl3          1 S1                 0.0000
     17 ****         3.3896  -0.9554  -1.5142 C.3            1 S1                 0.0000
     18 ****         4.1132   0.3510  -1.9080 C.3            1 S1                 0.0000
     19 ****         5.4356   0.0001  -2.2644 O.3            1 S1                 0.0000
     20 ****         3.4629   1.1271  -3.0770 C.3            1 S1                 0.0000
     21 ****         4.2670   2.3452  -3.5438 C.3            1 S1                 0.0000
     22 ****         3.1940   3.2310  -4.1320 C.3            1 S1                 0.0000
     23 ****         2.0526   3.0083  -3.1495 C.3            1 S1                 0.0000
     24 ****         2.1948   1.6654  -2.6991 O.3            1 S1                 0.0000
     25 ****        -2.4203  -1.8140   1.9353 C.3            1 S1                 0.0000
     26 ****        -2.3957  -3.3226   1.6320 C.3            1 S1                 0.0000
     27 ****        -1.4569  -3.4972   2.8281 C.3            1 S1                 0.0000
     28 ****        -1.0683  -2.0294   2.6463 C.3            1 S1                 0.0000
     29 ****        -4.0388   1.1519   4.9121 H              1 S1                 0.0000
     30 ****        -4.8408  -0.4186   4.8945 H              1 S1                 0.0000
     31 ****        -5.1359   0.7477   3.5928 H              1 S1                 0.0000
     32 ****        -4.2669  -2.0081   3.1477 H              1 S1                 0.0000
     33 ****        -4.7960  -1.4764   0.8241 H              1 S1                 0.0000
     34 ****        -4.6172   0.2352   1.3286 H              1 S1                 0.0000
     35 ****        -2.6440  -1.2584  -0.2080 H              1 S1                 0.0000
     36 ****        -1.8527   2.3908  -0.0484 H              1 S1                 0.0000
     37 ****        -3.4848   1.9390   0.4107 H              1 S1                 0.0000
     38 ****        -2.7197   1.1680  -0.9819 H              1 S1                 0.0000
     39 ****         1.7995   1.6298   2.6304 H              1 S1                 0.0000
     40 ****         0.9790  -1.7739  -2.7756 H              1 S1                 0.0000
     41 ****         3.8889  -1.4203  -0.6630 H              1 S1                 0.0000
     42 ****         3.4376  -1.6740  -2.3336 H              1 S1                 0.0000
     43 ****         4.1755   1.0063  -1.0386 H              1 S1                 0.0000
     44 ****         5.4022  -0.5654  -3.0207 H              1 S1                 0.0000
     45 ****         3.3002   0.4622  -3.9268 H              1 S1                 0.0000
     46 ****         4.7344   2.8462  -2.6947 H              1 S1                 0.0000
     47 ****         5.0481   2.0899  -4.2605 H              1 S1                 0.0000
     48 ****         3.4927   4.2767  -4.2097 H              1 S1                 0.0000
     49 ****         2.9142   2.8766  -5.1251 H              1 S1                 0.0000
     50 ****         2.1533   3.6736  -2.2909 H              1 S1                 0.0000
     51 ****         1.0738   3.1777  -3.5984 H              1 S1                 0.0000
     52 ****        -3.3557  -3.8308   1.7267 H              1 S1                 0.0000
     53 ****        -1.9123  -3.5533   0.6810 H              1 S1                 0.0000
     54 ****        -1.9889  -3.6809   3.7631 H              1 S1                 0.0000
     55 ****        -0.6450  -4.2085   2.6744 H              1 S1                 0.0000
     56 ****        -0.2031  -1.9289   1.9908 H              1 S1                 0.0000
     57 ****        -0.9352  -1.4727   3.5740 H              1 S1                 0.0000
     58 ****        -2.6067  -0.5314   4.2067 LP             1 S1                 0.0000
     59 ****        -2.8667   0.5461   3.0076 LP             1 S1                 0.0000
     60 ****        -2.2850   0.7376   1.8292 LP             1 S1                 0.0000
     61 ****        -0.5039   1.5810   2.5371 LP             1 S1                 0.0000
     62 ****         3.1626   0.5784   0.9996 LP             1 S1                 0.0000
     63 ****        -1.1694  -1.1136  -1.6883 LP             1 S1                 0.0000
     64 ****         5.8740  -0.4790  -1.5040 LP             1 S1                 0.0000
     65 ****         5.9563   0.8254  -2.4830 LP             1 S1                 0.0000
     66 ****         2.1154   1.6452  -1.7025 LP             1 S1                 0.0000
     67 ****         1.4698   1.1072  -3.1026 LP             1 S1                 0.0000
@<TRIPOS>BOND
    1    1    2 1     
    2    1   29 1     
    3    1   30 1     
    4    1   31 1     
    5    2    3 1     
    6    3   25 1     
    7    3    4 1     
    8    3   32 1     
    9    4    5 1     
   10    4   33 1     
   11    4   34 1     
   12    5    6 1     
   13    5   25 1     
   14    5   35 1     
   15    6    7 1     
   16    6    8 1     
   17    7   36 1     
   18    7   37 1     
   19    7   38 1     
   20    8   13 ar    
   21    8    9 ar    
   22    9   10 ar    
   23   10   11 ar    
   24   10   39 1     
   25   11   12 ar    
   26   12   16 1     
   27   12   13 ar    
   28   13   14 1     
   29   14   15 2     
   30   15   16 1     
   31   15   40 1     
   32   16   17 1     
   33   17   18 1     
   34   17   41 1     
   35   17   42 1     
   36   18   19 1     
   37   18   20 1     
   38   18   43 1     
   39   19   44 1     
   40   20   24 1     
   41   20   21 1     
   42   20   45 1     
   43   21   22 1     
   44   21   46 1     
   45   21   47 1     
   46   22   23 1     
   47   22   48 1     
   48   22   49 1     
   49   23   24 1     
   50   23   50 1     
   51   23   51 1     
   52   25   28 1     
   53   25   26 1     
   54   26   27 1     
   55   26   52 1     
   56   26   53 1     
   57   27   28 1     
   58   27   54 1     
   59   27   55 1     
   60   28   56 1     
   61   28   57 1     
   62    2   58 1     
   63    2   59 1     
   64    6   60 1     
   65    9   61 1     
   66   11   62 1     
   67   14   63 1     
   68   19   64 1     
   69   19   65 1     
   70   24   66 1     
   71   24   67 1     
@<TRIPOS>SUBSTRUCTURE
      1 S1             1
@<TRIPOS>SET
LONE_PAIRS      STATIC     ATOMS    <user>   **** ""
10 58 59 60 61 62 63 64 65 66 67
DONOR_HYDROGENS      STATIC     ATOMS    <user>   **** ""
1 44
ATOM$BLUE        STATIC     ATOMS    COLORGROUP SYSTEM
10 58 59 60 61 62 63 64 65 66 67
ATOM$RED        STATIC     ATOMS    COLORGROUP SYSTEM
1 44
