AV-unprocessed.smi:649|AV-procd|sdf|3180|dock4
  -GOLD-   22720 0103D 1   1.00000     0.00000
 Structure written by MMmdl.
 34 35  0  0  0  0  0  0  0  0  2 V2000
  153.9566  140.1500  161.0039 C   0  0  0  0  0  0  0  0  0  0  0  0
  153.2910  141.2414  160.1919 C   0  0  0  0  0  0  0  0  0  0  0  0
  153.6923  142.5817  160.3359 C   0  0  0  0  0  0  0  0  0  0  0  0
  153.0549  143.5887  159.5895 C   0  0  0  0  0  0  0  0  0  0  0  0
  152.0092  143.2747  158.6943 C   0  0  0  0  0  0  0  0  0  0  0  0
  151.3553  144.4194  157.9375 C   0  0  0  0  0  0  0  0  0  0  0  0
  151.6021  141.9194  158.5399 C   0  0  0  0  0  0  0  0  0  0  0  0
  150.4628  141.4752  157.6161 C   0  0  2  0  0  0  0  0  0  0  0  0
  150.1733  140.0946  157.6925 O   0  0  0  0  0  0  0  0  0  0  0  0
  150.6408  141.8885  156.1353 C   0  0  0  0  0  0  0  0  0  0  0  0
  149.6039  141.3175  155.2606 N   0  0  0  0  0  0  0  0  0  0  0  0
  148.3649  141.9788  155.2285 C   0  0  0  0  0  0  0  0  0  0  0  0
  147.3533  141.5678  154.4401 C   0  0  0  0  0  0  0  0  0  0  0  0
  145.8443  142.4086  154.4162 Cl  0  0  0  0  0  0  0  0  0  0  0  0
  147.5724  140.3910  153.6020 C   0  0  0  0  0  0  0  0  0  0  0  0
  146.6703  139.9900  152.8679 O   0  0  0  0  0  0  0  0  0  0  0  0
  148.7908  139.7797  153.6739 N   0  5  0  0  0  0  0  0  0  0  0  0
  149.8087  140.2143  154.4791 C   0  0  0  0  0  0  0  0  0  0  0  0
  150.9012  139.6481  154.5165 O   0  0  0  0  0  0  0  0  0  0  0  0
  152.2545  140.9187  159.2961 C   0  0  0  0  0  0  0  0  0  0  0  0
  154.9244  140.4770  161.3855 H   0  0  0  0  0  0  0  0  0  0  0  0
  154.1162  139.2605  160.3938 H   0  0  0  0  0  0  0  0  0  0  0  0
  153.3271  139.8779  161.8514 H   0  0  0  0  0  0  0  0  0  0  0  0
  154.4841  142.8440  161.0221 H   0  0  0  0  0  0  0  0  0  0  0  0
  153.3709  144.6137  159.7160 H   0  0  0  0  0  0  0  0  0  0  0  0
  151.6313  144.3900  156.8838 H   0  0  0  0  0  0  0  0  0  0  0  0
  151.6718  145.3844  158.3335 H   0  0  0  0  0  0  0  0  0  0  0  0
  150.2709  144.3810  158.0186 H   0  0  0  0  0  0  0  0  0  0  0  0
  149.5553  141.9623  157.9756 H   0  0  0  0  0  0  0  0  0  0  0  0
  150.2185  139.8315  158.5989 H   0  0  0  0  0  0  0  0  0  0  0  0
  150.6725  142.9734  156.0426 H   0  0  0  0  0  0  0  0  0  0  0  0
  151.6201  141.5604  155.7834 H   0  0  0  0  0  0  0  0  0  0  0  0
  148.2938  142.8407  155.8759 H   0  0  0  0  0  0  0  0  0  0  0  0
  151.9455  139.8878  159.2022 H   0  0  0  0  0  0  0  0  0  0  0  0
  1  2  1  0  0  0  0
  1 21  1  0  0  0  0
  1 22  1  0  0  0  0
  1 23  1  0  0  0  0
  2 20  1  0  0  0  0
  2  3  2  0  0  0  0
  3  4  1  0  0  0  0
  3 24  1  0  0  0  0
  4  5  2  0  0  0  0
  4 25  1  0  0  0  0
  5  6  1  0  0  0  0
  5  7  1  0  0  0  0
  6 26  1  0  0  0  0
  6 27  1  0  0  0  0
  6 28  1  0  0  0  0
  7  8  1  0  0  0  0
  7 20  2  0  0  0  0
  8  9  1  0  0  0  0
  8 10  1  0  0  0  0
  8 29  1  0  0  0  0
  9 30  1  0  0  0  0
 10 11  1  0  0  0  0
 10 31  1  0  0  0  0
 10 32  1  0  0  0  0
 11 18  1  0  0  0  0
 11 12  1  0  0  0  0
 12 13  2  0  0  0  0
 12 33  1  0  0  0  0
 13 14  1  0  0  0  0
 13 15  1  0  0  0  0
 15 16  2  0  0  0  0
 15 17  1  0  0  0  0
 17 18  1  0  0  0  0
 18 19  2  0  0  0  0
 20 34  1  0  0  0  0
M  CHG  1  17  -1
M  END
> <s_m_source_file>
AV-unprocessed.smi

> <i_m_source_file_index>
649

> <i_lp_mmshare_version>
43012

> <i_f3d_flags>
0

> <s_epik_input>
W0NIM11jMVtjSF1bY0hdYyhbQ0gzXSljKFtjSF0xKVtDQEhdKFtPSF0pW0NIMl1uMltjSF1jKENsKWMoPU8pW25IXWMyPU8=

> <s_epik_cmdline>
J2VwaWtfcHl0aG9uJywgJy1waCcsICc3LjAnLCAnLXRuJywgJzgnLCAnLW1hJywgJzIwMCcsICctbWV0YWxfYmluZGluZycsICctaW1hZScsICc8aW5maWxlLm1hZT4nLCAnLW9tYWUnLCAnPG91dGZpbGUubWFlPic=

> <r_epik_Ionization_Penalty>
1.7979

> <r_epik_Ionization_Penalty_Charging>
3.23819e-08

> <r_epik_Ionization_Penalty_Neutral>
1.7979

> <r_epik_State_Penalty>
1.91135

> <r_epik_Charging_Adjusted_Penalty>
1.91135

> <i_epik_Tot_Q>
-1

> <i_epik_Tot_abs_Q>
1

> <r_epik_Metal_State_Penalty>
0.014155

> <b_epik_Metal_Only>
0

> <s_lp_Force_Field>
OPLS_2005

> <r_lp_Energy>
21.5696

> <b_lp_Chiralities_Consistent>
1

> <s_lp_Variant>
AV-unprocessed.smi:649-3

> <Gold.Version>
5.8.1

> <Gold.Id.Protein>
6NUR|6NUR_protein|mol2

> <Gold.PLP.Fitness>
44.1761

> <Gold.PLP.PLP>
-39.9143

> <Gold.PLP.part.hbond>
-1.0000

> <Gold.PLP.part.metal>
0.0000

> <Gold.PLP.part.buried>
-3.3830

> <Gold.PLP.part.nonpolar>
-39.6236

> <Gold.PLP.part.repulsive>
3.7757

> <Gold.PLP.ligand.clash>
0.0000

> <Gold.PLP.ligand.torsion>
0.3829

> <Gold.PLP.Chemscore.Hbond>
0.6500

> <Gold.PLP.Chemscore.CHOScore>
1.0000

> <Gold.PLP.Chemscore.Metal>
0.0000

> <Gold.Chemscore.Hbonds>
donor molecule, donor type, donor heavy atom, donor atom, acceptor molecule, acceptor atom, score
      P1  H  7989  7998       L1    19  0.60
      L1  C    12    33       P1  8028  0.85

> <Gold.PLP.Chemscore.Internal.Correction>
0.0777

> <Gold.Rescore>
     Score         DG    S(hbond)    S(metal)    S(lipo)     H(rot)  DE(clash)    DE(int)     intcor
     12.20     -13.66       0.03        0.00     114.71       2.09       1.02       0.43       ----

> <Gold.Chemscore.Fitness>
12.2023

> <Gold.Chemscore.DG>
-13.6562

> <Gold.Chemscore.ZeroCoef>
-5.4800

> <Gold.Chemscore.Hbond>
0.0291

> <Gold.Chemscore.Metal>
0.0000

> <Gold.Chemscore.Lipo>
114.7106

> <Gold.Chemscore.Internal_Hbond>
0.0000

> <Gold.Chemscore.DEClash>
1.0247

> <Gold.Chemscore.DEInternal>
0.4292

> <Gold.Chemscore.Rot>
2.0868

> <Gold.Chemscore.Internal.Correction>
   9.000000E+99

> <Gold.Chemscore.Hbonds>
donor molecule, donor type, donor heavy atom, donor atom, acceptor molecule, acceptor atom, score
      P1  H  7989  7998       L1    19  0.04

> <Gold.Chemscore.Hbond.Weighted>
-0.0973

> <Gold.Chemscore.Metal.Weighted>
-0.0000

> <Gold.Chemscore.Lipo.Weighted>
-13.4211

> <Gold.Chemscore.Internal_Hbond.Weighted>
0.0000

> <Gold.Chemscore.DEClash.Weighted>
1.0247

> <Gold.Chemscore.DEInternal.Weighted>
0.4292

> <Gold.Chemscore.Rot.Weighted>
5.3423

> <Gold.Chemscore.Internal.Correction.Weighted>
   9.000000E+99

> <Gold.Protein.RotatedTorsions>
[ 6907 6896 6895 6894 ] final  150.55 input  -60.11 | X-H torsion
[ 7974 7965 7964 7962 ] final   90.54 input  175.53 | X-H torsion
[ 8008 7997 7996 7995 ] final  -86.74 input   59.86 | X-H torsion
[ 10167 10162 10161 10158 ] final    2.05 input  -65.29 | X-H torsion
[ 10718 10713 10712 10709 ] final -151.71 input   66.30 | X-H torsion
[ 10763 10752 10751 10750 ] final -142.00 input  -60.55 | X-H torsion
[ 11005 11000 10999 10996 ] final  134.36 input  -57.11 | X-H torsion

> <Gold.Protein.ActiveResidues>
 VAL166  LYS551  ARG553  GLY616  TRP617  ASP618  TYR619  PRO620  LYS621  CYS622 
 ASP623  PHE694  ASN695  SER759  ASP760  ASP761  ALA762  ILE779  LEU786  VAL792 
 PHE793  MET794  SER795  GLU796  ALA797  LYS798  CYS799  TRP800  GLU811  SER814 

> <Gold.Protein.RotatedAtoms>
  152.1129  133.4310  159.4639 H   0  0  0  0  0  0  0  0  0  0  0  0  # atno 6907 bound_to 6896
  150.6868  134.2626  159.4565 H   0  0  0  0  0  0  0  0  0  0  0  0  # atno 6908 bound_to 6896
  152.0497  134.9661  160.0625 H   0  0  0  0  0  0  0  0  0  0  0  0  # atno 6909 bound_to 6896
  145.5177  139.2278  143.2689 H   0  0  0  0  0  0  0  0  0  0  0  0  # atno 7974 bound_to 7965
  154.6553  140.0574  157.0001 H   0  0  0  0  0  0  0  0  0  0  0  0  # atno 8008 bound_to 7997
  155.1310  140.3256  155.4455 H   0  0  0  0  0  0  0  0  0  0  0  0  # atno 8009 bound_to 7997
  156.2594  140.1981  156.6429 H   0  0  0  0  0  0  0  0  0  0  0  0  # atno 8010 bound_to 7997
  140.6654  143.7194  150.7816 H   0  0  0  0  0  0  0  0  0  0  0  0  # atno 10167 bound_to 10162
  156.4628  130.8221  151.2452 H   0  0  0  0  0  0  0  0  0  0  0  0  # atno 10718 bound_to 10713
  154.8525  135.3508  154.5958 H   0  0  0  0  0  0  0  0  0  0  0  0  # atno 10763 bound_to 10752
  153.6567  135.6991  153.5195 H   0  0  0  0  0  0  0  0  0  0  0  0  # atno 10764 bound_to 10752
  153.2850  135.4252  155.1072 H   0  0  0  0  0  0  0  0  0  0  0  0  # atno 10765 bound_to 10752
  139.9910  134.9515  156.9855 H   0  0  0  0  0  0  0  0  0  0  0  0  # atno 11005 bound_to 11000
  146.2126  140.5987  142.9052 LP  0  0  0  0  0  0  0  0  0  0  0  0  # atno 17320 bound_to 7965
  144.7693  140.5601  143.6681 LP  0  0  0  0  0  0  0  0  0  0  0  0  # atno 17321 bound_to 7965
  140.0870  143.4914  152.2499 LP  0  0  0  0  0  0  0  0  0  0  0  0  # atno 17342 bound_to 10162
  139.5901  144.7546  151.3423 LP  0  0  0  0  0  0  0  0  0  0  0  0  # atno 17343 bound_to 10162
  157.7497  131.0101  150.3295 LP  0  0  0  0  0  0  0  0  0  0  0  0  # atno 17370 bound_to 10713
  156.3699  130.3861  149.7184 LP  0  0  0  0  0  0  0  0  0  0  0  0  # atno 17371 bound_to 10713
  140.4909  134.1194  155.7232 LP  0  0  0  0  0  0  0  0  0  0  0  0  # atno 17394 bound_to 11000
  141.1565  133.8872  157.1962 LP  0  0  0  0  0  0  0  0  0  0  0  0  # atno 17395 bound_to 11000

$$$$
