AV-unprocessed.smi:849|AV-procd|sdf|3943|dock6
  -GOLD-   22720 1413D 1   1.00000     0.00000
 Structure written by MMmdl.
 36 38  0  0  0  0  0  0  0  0  1 V2000
  152.4399  137.9419  155.9752 O   0  0  0  0  0  0  0  0  0  0  0  0
  152.4248  139.1967  155.3283 C   0  0  0  0  0  0  0  0  0  0  0  0
  151.1289  139.9342  155.5145 C   0  0  0  0  0  0  0  0  0  0  0  0
  150.3586  140.2381  154.4683 N   0  0  0  0  0  0  0  0  0  0  0  0
  149.2820  140.8736  155.0516 C   0  0  0  0  0  0  0  0  0  0  0  0
  148.1213  141.4319  154.4696 C   0  0  0  0  0  0  0  0  0  0  0  0
  147.1349  142.0321  155.2791 C   0  0  0  0  0  0  0  0  0  0  0  0
  147.2941  142.0805  156.6789 C   0  0  0  0  0  0  0  0  0  0  0  0
  148.4436  141.5299  157.2778 C   0  0  0  0  0  0  0  0  0  0  0  0
  149.4284  140.9353  156.4654 C   0  0  0  0  0  0  0  0  0  0  0  0
  150.6502  140.3195  156.7288 N   0  0  0  0  0  0  0  0  0  0  0  0
  151.2405  140.1347  158.0527 C   0  0  0  0  0  0  0  0  0  0  0  0
  152.5464  140.9341  158.2770 C   0  0  2  0  0  0  0  0  0  0  0  0
  153.5287  140.0981  158.8584 O   0  0  0  0  0  0  0  0  0  0  0  0
  152.3298  142.2323  159.0553 C   0  0  0  0  0  0  0  0  0  0  0  0
  151.6516  143.3160  158.4486 C   0  0  0  0  0  0  0  0  0  0  0  0
  151.4499  144.5203  159.1484 C   0  0  0  0  0  0  0  0  0  0  0  0
  151.9269  144.6571  160.4641 C   0  0  0  0  0  0  0  0  0  0  0  0
  152.6091  143.5896  161.0758 C   0  0  0  0  0  0  0  0  0  0  0  0
  152.8140  142.3813  160.3799 C   0  0  0  0  0  0  0  0  0  0  0  0
  153.6780  141.1119  161.1748 Cl  0  0  0  0  0  0  0  0  0  0  0  0
  153.2802  137.8286  156.3913 H   0  0  0  0  0  0  0  0  0  0  0  0
  153.2328  139.8071  155.7311 H   0  0  0  0  0  0  0  0  0  0  0  0
  152.6499  139.0312  154.2783 H   0  0  0  0  0  0  0  0  0  0  0  0
  147.9895  141.3966  153.3984 H   0  0  0  0  0  0  0  0  0  0  0  0
  146.2513  142.4554  154.8243 H   0  0  0  0  0  0  0  0  0  0  0  0
  146.5340  142.5409  157.2930 H   0  0  0  0  0  0  0  0  0  0  0  0
  148.5685  141.5679  158.3497 H   0  0  0  0  0  0  0  0  0  0  0  0
  150.5006  140.4449  158.7916 H   0  0  0  0  0  0  0  0  0  0  0  0
  151.3954  139.0740  158.2424 H   0  0  0  0  0  0  0  0  0  0  0  0
  152.9532  141.1920  157.2994 H   0  0  0  0  0  0  0  0  0  0  0  0
  153.1897  139.2165  158.8925 H   0  0  0  0  0  0  0  0  0  0  0  0
  151.2887  143.2369  157.4342 H   0  0  0  0  0  0  0  0  0  0  0  0
  150.9334  145.3409  158.6727 H   0  0  0  0  0  0  0  0  0  0  0  0
  151.7746  145.5815  161.0015 H   0  0  0  0  0  0  0  0  0  0  0  0
  152.9802  143.7008  162.0840 H   0  0  0  0  0  0  0  0  0  0  0  0
  1  2  1  0  0  0  0
  1 22  1  0  0  0  0
  2  3  1  0  0  0  0
  2 23  1  0  0  0  0
  2 24  1  0  0  0  0
  3 11  1  0  0  0  0
  3  4  2  0  0  0  0
  4  5  1  0  0  0  0
  5 10  2  0  0  0  0
  5  6  1  0  0  0  0
  6  7  2  0  0  0  0
  6 25  1  0  0  0  0
  7  8  1  0  0  0  0
  7 26  1  0  0  0  0
  8  9  2  0  0  0  0
  8 27  1  0  0  0  0
  9 10  1  0  0  0  0
  9 28  1  0  0  0  0
 10 11  1  0  0  0  0
 11 12  1  0  0  0  0
 12 13  1  0  0  0  0
 12 29  1  0  0  0  0
 12 30  1  0  0  0  0
 13 14  1  0  0  0  0
 13 15  1  0  0  0  0
 13 31  1  0  0  0  0
 14 32  1  0  0  0  0
 15 20  1  0  0  0  0
 15 16  2  0  0  0  0
 16 17  1  0  0  0  0
 16 33  1  0  0  0  0
 17 18  2  0  0  0  0
 17 34  1  0  0  0  0
 18 19  1  0  0  0  0
 18 35  1  0  0  0  0
 19 20  2  0  0  0  0
 19 36  1  0  0  0  0
 20 21  1  0  0  0  0
M  END
> <s_m_source_file>
AV-unprocessed.smi

> <i_m_source_file_index>
849

> <i_lp_mmshare_version>
43012

> <i_f3d_flags>
0

> <s_epik_input>
W2NIXTFbY0hdW2NIXVtjSF1jKGMxMiluKGMobjIpW0NIMl1bT0hdKVtDSDJdW0NASF0oW09IXSljM1tjSF1bY0hdW2NIXVtjSF1jM0Ns

> <s_epik_cmdline>
J2VwaWtfcHl0aG9uJywgJy1waCcsICc3LjAnLCAnLXRuJywgJzgnLCAnLW1hJywgJzIwMCcsICctbWV0YWxfYmluZGluZycsICctaW1hZScsICc8aW5maWxlLm1hZT4nLCAnLW9tYWUnLCAnPG91dGZpbGUubWFlPic=

> <r_epik_Ionization_Penalty>
0.0634742

> <r_epik_Ionization_Penalty_Charging>
0

> <r_epik_Ionization_Penalty_Neutral>
0.0634742

> <r_epik_State_Penalty>
0.0551572

> <r_epik_Charging_Adjusted_Penalty>
0.0551572

> <i_epik_Tot_Q>
0

> <i_epik_Tot_abs_Q>
0

> <r_epik_Metal_State_Penalty>
5.78034e-05

> <b_epik_Metal_Only>
0

> <s_lp_Force_Field>
OPLS_2005

> <r_lp_Energy>
13.6996

> <b_lp_Chiralities_Consistent>
1

> <s_lp_Variant>
AV-unprocessed.smi:849-1

> <Gold.Version>
5.8.1

> <Gold.Id.Protein>
6NUR|6NUR_protein|mol2

> <Gold.PLP.Fitness>
50.2836

> <Gold.PLP.PLP>
-46.7851

> <Gold.PLP.part.hbond>
-2.0000

> <Gold.PLP.part.metal>
0.0000

> <Gold.PLP.part.buried>
-4.3058

> <Gold.PLP.part.nonpolar>
-39.9847

> <Gold.PLP.part.repulsive>
0.1046

> <Gold.PLP.ligand.clash>
0.0000

> <Gold.PLP.ligand.torsion>
0.9446

> <Gold.PLP.Chemscore.Hbond>
1.7704

> <Gold.PLP.Chemscore.CHOScore>
0.0000

> <Gold.PLP.Chemscore.Metal>
0.0000

> <Gold.Chemscore.Hbonds>
donor molecule, donor type, donor heavy atom, donor atom, acceptor molecule, acceptor atom, score
      P1  H  7989  7998       L1     4  0.80
      P1  H  7997  8008       L1    14  0.74

> <Gold.PLP.Chemscore.Internal.Correction>
0.0766

> <Gold.Rescore>
     Score         DG    S(hbond)    S(metal)    S(lipo)     H(rot)  DE(clash)    DE(int)     intcor
     13.95     -16.42       0.69        0.00     131.18       2.62       0.11       2.37       ----

> <Gold.Chemscore.Fitness>
13.9516

> <Gold.Chemscore.DG>
-16.4232

> <Gold.Chemscore.ZeroCoef>
-5.4800

> <Gold.Chemscore.Hbond>
0.6918

> <Gold.Chemscore.Metal>
0.0000

> <Gold.Chemscore.Lipo>
131.1802

> <Gold.Chemscore.Internal_Hbond>
0.0000

> <Gold.Chemscore.DEClash>
0.1058

> <Gold.Chemscore.DEInternal>
2.3658

> <Gold.Chemscore.Rot>
2.6232

> <Gold.Chemscore.Internal.Correction>
   9.000000E+99

> <Gold.Chemscore.Hbonds>
donor molecule, donor type, donor heavy atom, donor atom, acceptor molecule, acceptor atom, score
      P1  H  7989  7998       L1     4  0.12
      P1  H  7997  8008       L1    14  0.07

> <Gold.Chemscore.Hbond.Weighted>
-2.3106

> <Gold.Chemscore.Metal.Weighted>
-0.0000

> <Gold.Chemscore.Lipo.Weighted>
-15.3481

> <Gold.Chemscore.Internal_Hbond.Weighted>
0.0000

> <Gold.Chemscore.DEClash.Weighted>
0.1058

> <Gold.Chemscore.DEInternal.Weighted>
2.3658

> <Gold.Chemscore.Rot.Weighted>
6.7154

> <Gold.Chemscore.Internal.Correction.Weighted>
   9.000000E+99

> <Gold.Protein.RotatedTorsions>
[ 6907 6896 6895 6894 ] final -165.65 input  -60.11 | X-H torsion
[ 7974 7965 7964 7962 ] final   -6.29 input  175.53 | X-H torsion
[ 8008 7997 7996 7995 ] final -107.44 input   59.86 | X-H torsion
[ 10167 10162 10161 10158 ] final   81.43 input  -65.29 | X-H torsion
[ 10718 10713 10712 10709 ] final  -32.34 input   66.30 | X-H torsion
[ 10763 10752 10751 10750 ] final   82.53 input  -60.55 | X-H torsion
[ 11005 11000 10999 10996 ] final   87.87 input  -57.11 | X-H torsion

> <Gold.Protein.ActiveResidues>
 VAL166  LYS551  ARG553  GLY616  TRP617  ASP618  TYR619  PRO620  LYS621  CYS622 
 ASP623  PHE694  ASN695  SER759  ASP760  ASP761  ALA762  ILE779  LEU786  VAL792 
 PHE793  MET794  SER795  GLU796  ALA797  LYS798  CYS799  TRP800  GLU811  SER814 

> <Gold.Protein.RotatedAtoms>
  151.4311  133.3670  159.2768 H   0  0  0  0  0  0  0  0  0  0  0  0  # atno 6907 bound_to 6896
  150.9224  134.8643  159.7508 H   0  0  0  0  0  0  0  0  0  0  0  0  # atno 6908 bound_to 6896
  152.4988  134.4250  159.9545 H   0  0  0  0  0  0  0  0  0  0  0  0  # atno 6909 bound_to 6896
  146.2334  140.2148  142.8336 H   0  0  0  0  0  0  0  0  0  0  0  0  # atno 7974 bound_to 7965
  154.9294  140.0405  157.2040 H   0  0  0  0  0  0  0  0  0  0  0  0  # atno 8008 bound_to 7997
  154.8175  140.2878  155.5788 H   0  0  0  0  0  0  0  0  0  0  0  0  # atno 8009 bound_to 7997
  156.2977  140.2525  156.3076 H   0  0  0  0  0  0  0  0  0  0  0  0  # atno 8010 bound_to 7997
  139.9393  144.6100  150.8268 H   0  0  0  0  0  0  0  0  0  0  0  0  # atno 10167 bound_to 10162
  156.3761  130.4348  149.7506 H   0  0  0  0  0  0  0  0  0  0  0  0  # atno 10718 bound_to 10713
  153.1210  135.4725  154.9196 H   0  0  0  0  0  0  0  0  0  0  0  0  # atno 10763 bound_to 10752
  154.7576  135.3122  154.8443 H   0  0  0  0  0  0  0  0  0  0  0  0  # atno 10764 bound_to 10752
  153.9007  135.6875  153.4809 H   0  0  0  0  0  0  0  0  0  0  0  0  # atno 10765 bound_to 10752
  139.8909  134.8451  156.2920 H   0  0  0  0  0  0  0  0  0  0  0  0  # atno 11005 bound_to 11000
  144.9678  140.8339  143.5474 LP  0  0  0  0  0  0  0  0  0  0  0  0  # atno 17320 bound_to 7965
  145.2126  139.2197  143.5135 LP  0  0  0  0  0  0  0  0  0  0  0  0  # atno 17321 bound_to 7965
  140.7615  143.3177  151.2695 LP  0  0  0  0  0  0  0  0  0  0  0  0  # atno 17342 bound_to 10162
  139.6718  144.0007  152.2757 LP  0  0  0  0  0  0  0  0  0  0  0  0  # atno 17343 bound_to 10162
  156.4615  130.7954  151.2974 LP  0  0  0  0  0  0  0  0  0  0  0  0  # atno 17370 bound_to 10713
  157.7488  131.0064  150.3151 LP  0  0  0  0  0  0  0  0  0  0  0  0  # atno 17371 bound_to 10713
  140.9970  133.7174  156.0900 LP  0  0  0  0  0  0  0  0  0  0  0  0  # atno 17394 bound_to 11000
  140.7549  134.4003  157.5535 LP  0  0  0  0  0  0  0  0  0  0  0  0  # atno 17395 bound_to 11000

$$$$
