#       Name:                AV-unprocessed.smi:934
#       Creating user name   scv26
#       Creation time:       Fri Mar 27 02:11:20 2020


#       File generated by GOLD software.
#

@<TRIPOS>MOLECULE
AV-unprocessed.smi:934
    48    49     1
SMALL
NO_CHARGES


@<TRIPOS>ATOM
      1 ****        -2.2365  -2.3828  -1.0744 C.3            1 S1                 0.0000
      2 ****        -1.5286  -1.8140   0.1024 N.4            1 S1                 1.0000
      3 ****        -2.2092  -2.2220   1.3591 C.3            1 S1                 0.0000
      4 ****        -0.0235  -1.9490   0.0717 C.3            1 S1                 0.0000
      5 ****         0.5321  -1.0639  -1.0926 C.3            1 S1                 0.0000
      6 ****        -0.0202   0.2912  -1.1173 N.am           1 S1                 0.0000
      7 ****         0.5730   1.3833  -0.6148 C.2            1 S1                 0.0000
      8 ****         1.6663   1.3612  -0.0517 O.2            1 S1                 0.0000
      9 ****        -0.1752   2.4801  -0.8224 N.am           1 S1                 0.0000
     10 ****         0.0866   3.8208  -0.4294 C.ar           1 S1                 0.0000
     11 ****        -0.6282   4.8483  -1.0790 C.ar           1 S1                 0.0000
     12 ****        -0.4045   6.1859  -0.7019 C.ar           1 S1                 0.0000
     13 ****         0.5254   6.4457   0.3230 C.ar           1 S1                 0.0000
     14 ****         1.2079   5.4749   0.9655 N.ar           1 S1                 0.0000
     15 ****         0.9900   4.1937   0.5974 C.ar           1 S1                 0.0000
     16 ****         0.6121  -1.5044   1.4250 C.3            1 S1                 0.0000
     17 ****         2.1222  -1.7924   1.5096 C.3            1 S1                 0.0000
     18 ****         2.3488  -3.1811   1.3074 O.3            1 S1                 0.0000
     19 ****         1.9271  -3.6334   0.0273 C.3            1 S1                 0.0000
     20 ****         0.4090  -3.4259  -0.1420 C.3            1 S1                 0.0000
     21 ****        -2.1991  -3.4726  -1.0752 H              1 S1                 0.0000
     22 ****        -1.8340  -2.0233  -2.0195 H              1 S1                 0.0000
     23 ****        -3.2875  -2.0924  -1.0577 H              1 S1                 0.0000
     24 ****        -1.9713  -3.2497   1.6333 H              1 S1                 0.0000
     25 ****        -3.2922  -2.1526   1.2518 H              1 S1                 0.0000
     26 ****        -1.9507  -1.5641   2.1882 H              1 S1                 0.0000
     27 ****         1.6200  -1.0185  -1.0929 H              1 S1                 0.0000
     28 ****         0.2949  -1.5159  -2.0549 H              1 S1                 0.0000
     29 ****        -0.9094   0.4108  -1.5802 H              1 S1                 0.0000
     30 ****        -1.0117   2.3502  -1.3722 H              1 S1                 0.0000
     31 ****        -1.3383   4.6178  -1.8597 H              1 S1                 0.0000
     32 ****        -0.9338   6.9933  -1.1861 H              1 S1                 0.0000
     33 ****         0.7221   7.4596   0.6388 H              1 S1                 0.0000
     34 ****         1.5463   3.4647   1.1651 H              1 S1                 0.0000
     35 ****         0.4149  -0.4520   1.6267 H              1 S1                 0.0000
     36 ****         0.1772  -2.0565   2.2570 H              1 S1                 0.0000
     37 ****         2.7012  -1.2015   0.8006 H              1 S1                 0.0000
     38 ****         2.4907  -1.5258   2.5002 H              1 S1                 0.0000
     39 ****         2.4915  -3.1260  -0.7555 H              1 S1                 0.0000
     40 ****         2.1659  -4.6934  -0.0592 H              1 S1                 0.0000
     41 ****        -0.1006  -4.0725   0.5724 H              1 S1                 0.0000
     42 ****         0.1179  -3.7788  -1.1316 H              1 S1                 0.0000
     43 ****        -1.6899  -0.8185   0.0465 H              1 S1                 0.0000
     44 ****         2.1591   0.4970   0.0497 LP             1 S1                 0.0000
     45 ****         2.0624   2.2075   0.3047 LP             1 S1                 0.0000
     46 ****         1.8565   5.6977   1.6934 LP             1 S1                 0.0000
     47 ****         1.8471  -3.6907   2.0064 LP             1 S1                 0.0000
     48 ****         3.3279  -3.3611   1.4021 LP             1 S1                 0.0000
@<TRIPOS>BOND
    1    1    2 1     
    2    1   21 1     
    3    1   22 1     
    4    1   23 1     
    5    2    3 1     
    6    2    4 1     
    7    2   43 1     
    8    3   24 1     
    9    3   25 1     
   10    3   26 1     
   11    4   20 1     
   12    4    5 1     
   13    4   16 1     
   14    5    6 1     
   15    5   27 1     
   16    5   28 1     
   17    6    7 am    
   18    6   29 1     
   19    7    8 2     
   20    7    9 am    
   21    9   10 1     
   22    9   30 1     
   23   10   15 ar    
   24   10   11 ar    
   25   11   12 ar    
   26   11   31 1     
   27   12   13 ar    
   28   12   32 1     
   29   13   14 ar    
   30   13   33 1     
   31   14   15 ar    
   32   15   34 1     
   33   16   17 1     
   34   16   35 1     
   35   16   36 1     
   36   17   18 1     
   37   17   37 1     
   38   17   38 1     
   39   18   19 1     
   40   19   20 1     
   41   19   39 1     
   42   19   40 1     
   43   20   41 1     
   44   20   42 1     
   45    8   44 1     
   46    8   45 1     
   47   14   46 1     
   48   18   47 1     
   49   18   48 1     
@<TRIPOS>SUBSTRUCTURE
      1 S1             1
@<TRIPOS>SET
LONE_PAIRS      STATIC     ATOMS    <user>   **** ""
5 44 45 46 47 48
DONOR_HYDROGENS      STATIC     ATOMS    <user>   **** ""
3 43 29 30
ATOM$BLUE        STATIC     ATOMS    COLORGROUP SYSTEM
5 44 45 46 47 48
ATOM$RED        STATIC     ATOMS    COLORGROUP SYSTEM
3 43 29 30
