#       Name:                AV-unprocessed.smi:1493
#       Creating user name   scv26
#       Creation time:       Fri Mar 27 06:16:33 2020


#       File generated by GOLD software.
#

@<TRIPOS>MOLECULE
AV-unprocessed.smi:1493
    40    40     1
SMALL
NO_CHARGES


@<TRIPOS>ATOM
      1 ****        -4.3301  -0.4967   1.3154 C.3            1 S1                 0.0000
      2 ****        -2.8007  -0.4804   1.2180 C.3            1 S1                 0.0000
      3 ****        -2.2011  -1.8939   1.1167 C.3            1 S1                 0.0000
      4 ****        -0.6605  -1.9164   1.0905 C.3            1 S1                 0.0000
      5 ****        -0.1140  -3.3509   1.0934 C.3            1 S1                 0.0000
      6 ****        -0.1586  -1.2125  -0.0883 N.am           1 S1                 0.0000
      7 ****         0.6779  -0.1626  -0.0870 C.2            1 S1                 0.0000
      8 ****         1.1325   0.3392   0.9425 O.2            1 S1                 0.0000
      9 ****         1.0396   0.3920  -1.4741 C.3            1 S1                 0.0000
     10 ****         1.9575   1.5398  -1.4451 N.am           1 S1                 0.0000
     11 ****         1.2936   2.8293  -1.6158 N.pl3          1 S1                -1.0000
     12 ****         2.0378   3.9665  -1.5855 C.2            1 S1                 0.0000
     13 ****         1.5478   5.0870  -1.7054 O.2            1 S1                 0.0000
     14 ****         3.4747   3.8396  -1.4078 C.2            1 S1                 0.0000
     15 ****         4.0633   2.6346  -1.2739 C.2            1 S1                 0.0000
     16 ****         3.3044   1.3899  -1.2935 C.2            1 S1                 0.0000
     17 ****         3.8363   0.2855  -1.1780 O.2            1 S1                 0.0000
     18 ****        -4.7249   0.5171   1.3841 H              1 S1                 0.0000
     19 ****        -4.6630  -1.0436   2.1978 H              1 S1                 0.0000
     20 ****        -4.7756  -0.9687   0.4394 H              1 S1                 0.0000
     21 ****        -2.5090   0.1134   0.3511 H              1 S1                 0.0000
     22 ****        -2.3911   0.0293   2.0909 H              1 S1                 0.0000
     23 ****        -2.5468  -2.4825   1.9675 H              1 S1                 0.0000
     24 ****        -2.5902  -2.3906   0.2267 H              1 S1                 0.0000
     25 ****        -0.3057  -1.4300   2.0006 H              1 S1                 0.0000
     26 ****        -0.4578  -3.8991   1.9708 H              1 S1                 0.0000
     27 ****         0.9764  -3.3552   1.1099 H              1 S1                 0.0000
     28 ****        -0.4367  -3.9020   0.2093 H              1 S1                 0.0000
     29 ****        -0.4791  -1.5486  -0.9847 H              1 S1                 0.0000
     30 ****         1.4728  -0.4120  -2.0716 H              1 S1                 0.0000
     31 ****         0.1141   0.6653  -1.9846 H              1 S1                 0.0000
     32 ****         4.0835   4.7314  -1.3848 H              1 S1                 0.0000
     33 ****         5.1342   2.5873  -1.1450 H              1 S1                 0.0000
     34 ****         0.8811  -0.0360   1.8348 LP             1 S1                 0.0000
     35 ****         1.7527   1.1215   0.8857 LP             1 S1                 0.0000
     36 ****         0.3041   2.8751  -1.7532 LP             1 S1                 0.0000
     37 ****         0.5612   5.1903  -1.8317 LP             1 S1                 0.0000
     38 ****         2.1356   5.8954  -1.6767 LP             1 S1                 0.0000
     39 ****         3.2766  -0.5431  -1.1936 LP             1 S1                 0.0000
     40 ****         4.8279   0.2171  -1.0686 LP             1 S1                 0.0000
@<TRIPOS>BOND
    1    1    2 1     
    2    1   18 1     
    3    1   19 1     
    4    1   20 1     
    5    2    3 1     
    6    2   21 1     
    7    2   22 1     
    8    3    4 1     
    9    3   23 1     
   10    3   24 1     
   11    4    5 1     
   12    4    6 1     
   13    4   25 1     
   14    5   26 1     
   15    5   27 1     
   16    5   28 1     
   17    6    7 am    
   18    6   29 1     
   19    7    8 2     
   20    7    9 1     
   21    9   30 1     
   22    9   31 1     
   23    9   10 1     
   24   10   11 1     
   25   10   16 am    
   26   11   12 1     
   27   12   13 2     
   28   12   14 1     
   29   14   32 1     
   30   14   15 2     
   31   15   33 1     
   32   15   16 1     
   33   16   17 2     
   34    8   34 1     
   35    8   35 1     
   36   11   36 1     
   37   13   37 1     
   38   13   38 1     
   39   17   39 1     
   40   17   40 1     
@<TRIPOS>SUBSTRUCTURE
      1 S1             1
@<TRIPOS>SET
LONE_PAIRS      STATIC     ATOMS    <user>   **** ""
7 34 35 36 37 38 39 40
DONOR_HYDROGENS      STATIC     ATOMS    <user>   **** ""
1 29
ATOM$BLUE        STATIC     ATOMS    COLORGROUP SYSTEM
7 34 35 36 37 38 39 40
ATOM$RED        STATIC     ATOMS    COLORGROUP SYSTEM
1 29
