AV-unprocessed.smi:3325|AV-procd|sdf|12784|dock3
  -GOLD-   2272019133D 1   1.00000     0.00000
 Structure written by MMmdl.
 44 45  0  0  0  0  0  0  0  0  2 V2000
  144.8345  145.1807  152.6592 C   0  0  0  0  0  0  0  0  0  0  0  0
  144.2653  144.4180  153.8648 C   0  0  0  0  0  0  0  0  0  0  0  0
  143.7737  145.3474  154.9842 C   0  0  0  0  0  0  0  0  0  0  0  0
  145.2288  143.3934  154.3810 C   0  0  0  0  0  0  0  0  0  0  0  0
  145.2371  143.0380  155.6606 N   0  0  0  0  0  0  0  0  0  0  0  0
  146.2746  142.0978  155.7319 O   0  0  0  0  0  0  0  0  0  0  0  0
  146.7591  141.9873  154.4725 C   0  0  0  0  0  0  0  0  0  0  0  0
  147.9315  141.0962  154.2253 C   0  0  0  0  0  0  0  0  0  0  0  0
  149.2668  141.7331  154.6389 C   0  0  0  0  0  0  0  0  0  0  0  0
  149.3349  141.9579  156.0975 N   0  3  0  0  0  0  0  0  0  0  0  0
  150.5829  141.4798  156.7247 C   0  0  0  0  0  0  0  0  0  0  0  0
  150.9594  142.3260  157.9548 C   0  0  0  0  0  0  0  0  0  0  0  0
  151.3894  143.7576  157.5647 C   0  0  0  0  0  0  0  0  0  0  0  0
  151.7798  144.5900  158.7968 C   0  0  0  0  0  0  0  0  0  0  0  0
  152.8841  143.8985  159.6100 C   0  0  0  0  0  0  0  0  0  0  0  0
  152.4687  142.4738  160.0048 C   0  0  0  0  0  0  0  0  0  0  0  0
  152.0784  141.6453  158.7697 C   0  0  0  0  0  0  0  0  0  0  0  0
  146.1633  142.7890  153.5939 N   0  0  0  0  0  0  0  0  0  0  0  0
  145.1076  144.4966  151.8550 H   0  0  0  0  0  0  0  0  0  0  0  0
  145.7250  145.7480  152.9315 H   0  0  0  0  0  0  0  0  0  0  0  0
  144.1034  145.8838  152.2599 H   0  0  0  0  0  0  0  0  0  0  0  0
  143.3865  143.8826  153.5009 H   0  0  0  0  0  0  0  0  0  0  0  0
  143.3058  144.7786  155.7884 H   0  0  0  0  0  0  0  0  0  0  0  0
  143.0350  146.0564  154.6093 H   0  0  0  0  0  0  0  0  0  0  0  0
  144.5950  145.9208  155.4149 H   0  0  0  0  0  0  0  0  0  0  0  0
  147.7805  140.1677  154.7770 H   0  0  0  0  0  0  0  0  0  0  0  0
  147.9527  140.8271  153.1684 H   0  0  0  0  0  0  0  0  0  0  0  0
  150.0953  141.0943  154.3293 H   0  0  0  0  0  0  0  0  0  0  0  0
  149.3901  142.6887  154.1281 H   0  0  0  0  0  0  0  0  0  0  0  0
  149.2468  142.9486  156.2748 H   0  0  0  0  0  0  0  0  0  0  0  0
  150.4396  140.4397  157.0213 H   0  0  0  0  0  0  0  0  0  0  0  0
  151.3918  141.4938  155.9929 H   0  0  0  0  0  0  0  0  0  0  0  0
  150.0804  142.3960  158.5982 H   0  0  0  0  0  0  0  0  0  0  0  0
  152.2342  143.7144  156.8754 H   0  0  0  0  0  0  0  0  0  0  0  0
  150.5845  144.2650  157.0324 H   0  0  0  0  0  0  0  0  0  0  0  0
  152.1140  145.5802  158.4854 H   0  0  0  0  0  0  0  0  0  0  0  0
  150.9031  144.7443  159.4272 H   0  0  0  0  0  0  0  0  0  0  0  0
  153.8029  143.8620  159.0231 H   0  0  0  0  0  0  0  0  0  0  0  0
  153.1100  144.4817  160.5032 H   0  0  0  0  0  0  0  0  0  0  0  0
  153.2836  141.9843  160.5391 H   0  0  0  0  0  0  0  0  0  0  0  0
  151.6275  142.5168  160.6978 H   0  0  0  0  0  0  0  0  0  0  0  0
  151.7588  140.6524  159.0876 H   0  0  0  0  0  0  0  0  0  0  0  0
  152.9568  141.4984  158.1397 H   0  0  0  0  0  0  0  0  0  0  0  0
  148.5563  141.4834  156.5329 H   0  0  0  0  0  0  0  0  0  0  0  0
  1  2  1  0  0  0  0
  1 19  1  0  0  0  0
  1 20  1  0  0  0  0
  1 21  1  0  0  0  0
  2  3  1  0  0  0  0
  2  4  1  0  0  0  0
  2 22  1  0  0  0  0
  3 23  1  0  0  0  0
  3 24  1  0  0  0  0
  3 25  1  0  0  0  0
  4 18  1  0  0  0  0
  4  5  2  0  0  0  0
  5  6  1  0  0  0  0
  6  7  1  0  0  0  0
  7  8  1  0  0  0  0
  7 18  2  0  0  0  0
  8  9  1  0  0  0  0
  8 26  1  0  0  0  0
  8 27  1  0  0  0  0
  9 10  1  0  0  0  0
  9 28  1  0  0  0  0
  9 29  1  0  0  0  0
 10 11  1  0  0  0  0
 10 30  1  0  0  0  0
 10 44  1  0  0  0  0
 11 12  1  0  0  0  0
 11 31  1  0  0  0  0
 11 32  1  0  0  0  0
 12 17  1  0  0  0  0
 12 13  1  0  0  0  0
 12 33  1  0  0  0  0
 13 14  1  0  0  0  0
 13 34  1  0  0  0  0
 13 35  1  0  0  0  0
 14 15  1  0  0  0  0
 14 36  1  0  0  0  0
 14 37  1  0  0  0  0
 15 16  1  0  0  0  0
 15 38  1  0  0  0  0
 15 39  1  0  0  0  0
 16 17  1  0  0  0  0
 16 40  1  0  0  0  0
 16 41  1  0  0  0  0
 17 42  1  0  0  0  0
 17 43  1  0  0  0  0
M  CHG  1  10   1
M  END
> <s_m_source_file>
AV-unprocessed.smi

> <i_m_source_file_index>
3325

> <i_lp_mmshare_version>
43012

> <i_f3d_flags>
0

> <s_epik_input>
W0NIM11bQ0hdKFtDSDNdKWMxbm9jKG4xKVtDSDJdW0NIMl1bTkhdW0NIMl1bQ0hdMltDSDJdW0NIMl1bQ0gyXVtDSDJdW0NIMl0y

> <s_epik_cmdline>
J2VwaWtfcHl0aG9uJywgJy1waCcsICc3LjAnLCAnLXRuJywgJzgnLCAnLW1hJywgJzIwMCcsICctbWV0YWxfYmluZGluZycsICctaW1hZScsICc8aW5maWxlLm1hZT4nLCAnLW9tYWUnLCAnPG91dGZpbGUubWFlPic=

> <r_lp_tautomer_probability>
1

> <r_epik_Ionization_Penalty>
0.00142412

> <r_epik_Ionization_Penalty_Charging>
0.00142412

> <r_epik_Ionization_Penalty_Neutral>
2.66011e-13

> <r_epik_State_Penalty>
0.000950746

> <r_epik_Charging_Adjusted_Penalty>
0.00237487

> <i_epik_Tot_Q>
1

> <i_epik_Tot_abs_Q>
1

> <r_epik_Metal_State_Penalty>
-0

> <b_epik_Metal_Only>
0

> <s_lp_Force_Field>
OPLS_2005

> <r_lp_Energy>
7.21373

> <b_lp_Chiralities_Consistent>
1

> <s_lp_Variant>
AV-unprocessed.smi:3325-1

> <Gold.Version>
5.8.1

> <Gold.Id.Protein>
6NUR|6NUR_protein|mol2

> <Gold.PLP.Fitness>
45.4658

> <Gold.PLP.PLP>
-42.4960

> <Gold.PLP.part.hbond>
-1.0000

> <Gold.PLP.part.metal>
0.0000

> <Gold.PLP.part.buried>
-3.1054

> <Gold.PLP.part.nonpolar>
-39.5394

> <Gold.PLP.part.repulsive>
0.5760

> <Gold.PLP.ligand.clash>
0.0000

> <Gold.PLP.ligand.torsion>
1.5976

> <Gold.PLP.Chemscore.Hbond>
2.0000

> <Gold.PLP.Chemscore.CHOScore>
0.0000

> <Gold.PLP.Chemscore.Metal>
0.0000

> <Gold.Chemscore.Hbonds>
donor molecule, donor type, donor heavy atom, donor atom, acceptor molecule, acceptor atom, score
      L1  H    10    30       P1  8028  2.00

> <Gold.PLP.Chemscore.Internal.Correction>
0.1650

> <Gold.Rescore>
     Score         DG    S(hbond)    S(metal)    S(lipo)     H(rot)  DE(clash)    DE(int)     intcor
     15.63     -17.23       0.96        0.00     113.69       1.86       0.11       1.49       ----

> <Gold.Chemscore.Fitness>
15.6259

> <Gold.Chemscore.DG>
-17.2280

> <Gold.Chemscore.ZeroCoef>
-5.4800

> <Gold.Chemscore.Hbond>
0.9604

> <Gold.Chemscore.Metal>
0.0000

> <Gold.Chemscore.Lipo>
113.6858

> <Gold.Chemscore.Internal_Hbond>
0.0000

> <Gold.Chemscore.DEClash>
0.1094

> <Gold.Chemscore.DEInternal>
1.4927

> <Gold.Chemscore.Rot>
1.8597

> <Gold.Chemscore.Internal.Correction>
   9.000000E+99

> <Gold.Chemscore.Hbonds>
donor molecule, donor type, donor heavy atom, donor atom, acceptor molecule, acceptor atom, score
      L1  H    10    30       P1  8028  0.95

> <Gold.Chemscore.Hbond.Weighted>
-3.2077

> <Gold.Chemscore.Metal.Weighted>
-0.0000

> <Gold.Chemscore.Lipo.Weighted>
-13.3012

> <Gold.Chemscore.Internal_Hbond.Weighted>
0.0000

> <Gold.Chemscore.DEClash.Weighted>
0.1094

> <Gold.Chemscore.DEInternal.Weighted>
1.4927

> <Gold.Chemscore.Rot.Weighted>
4.7610

> <Gold.Chemscore.Internal.Correction.Weighted>
   9.000000E+99

> <Gold.Protein.RotatedTorsions>
[ 6907 6896 6895 6894 ] final   32.69 input  -60.11 | X-H torsion
[ 7974 7965 7964 7962 ] final -156.53 input  175.53 | X-H torsion
[ 8008 7997 7996 7995 ] final   57.81 input   59.86 | X-H torsion
[ 10167 10162 10161 10158 ] final  154.14 input  -65.29 | X-H torsion
[ 10718 10713 10712 10709 ] final  -37.56 input   66.30 | X-H torsion
[ 10763 10752 10751 10750 ] final  -57.36 input  -60.55 | X-H torsion
[ 11005 11000 10999 10996 ] final   97.44 input  -57.11 | X-H torsion

> <Gold.Protein.ActiveResidues>
 VAL166  LYS551  ARG553  GLY616  TRP617  ASP618  TYR619  PRO620  LYS621  CYS622 
 ASP623  PHE694  ASN695  SER759  ASP760  ASP761  ALA762  ILE779  LEU786  VAL792 
 PHE793  MET794  SER795  GLU796  ALA797  LYS798  CYS799  TRP800  GLU811  SER814 

> <Gold.Protein.RotatedAtoms>
  152.0780  134.9490  160.0573 H   0  0  0  0  0  0  0  0  0  0  0  0  # atno 6907 bound_to 6896
  152.0790  133.4138  159.4501 H   0  0  0  0  0  0  0  0  0  0  0  0  # atno 6908 bound_to 6896
  150.6836  134.2924  159.4715 H   0  0  0  0  0  0  0  0  0  0  0  0  # atno 6909 bound_to 6896
  144.7589  140.4097  143.5991 H   0  0  0  0  0  0  0  0  0  0  0  0  # atno 7974 bound_to 7965
  155.5397  140.3484  155.4444 H   0  0  0  0  0  0  0  0  0  0  0  0  # atno 8008 bound_to 7997
  156.0660  140.1351  156.9912 H   0  0  0  0  0  0  0  0  0  0  0  0  # atno 8009 bound_to 7997
  154.4503  140.0975  156.6572 H   0  0  0  0  0  0  0  0  0  0  0  0  # atno 8010 bound_to 7997
  139.4824  144.5212  151.7872 H   0  0  0  0  0  0  0  0  0  0  0  0  # atno 10167 bound_to 10162
  156.3138  130.4256  149.8024 H   0  0  0  0  0  0  0  0  0  0  0  0  # atno 10718 bound_to 10713
  154.2213  135.6377  153.5145 H   0  0  0  0  0  0  0  0  0  0  0  0  # atno 10763 bound_to 10752
  152.9968  135.5497  154.6111 H   0  0  0  0  0  0  0  0  0  0  0  0  # atno 10764 bound_to 10752
  154.5572  135.2906  155.0927 H   0  0  0  0  0  0  0  0  0  0  0  0  # atno 10765 bound_to 10752
  139.8776  134.9000  156.4307 H   0  0  0  0  0  0  0  0  0  0  0  0  # atno 11005 bound_to 11000
  145.6685  139.1594  143.2768 LP  0  0  0  0  0  0  0  0  0  0  0  0  # atno 17320 bound_to 7965
  146.1631  140.6759  142.9268 LP  0  0  0  0  0  0  0  0  0  0  0  0  # atno 17321 bound_to 7965
  140.4727  144.1564  150.5920 LP  0  0  0  0  0  0  0  0  0  0  0  0  # atno 17342 bound_to 10162
  140.4365  143.2545  151.9529 LP  0  0  0  0  0  0  0  0  0  0  0  0  # atno 17343 bound_to 10162
  156.5358  130.8278  151.3252 LP  0  0  0  0  0  0  0  0  0  0  0  0  # atno 17370 bound_to 10713
  157.7397  130.9836  150.2330 LP  0  0  0  0  0  0  0  0  0  0  0  0  # atno 17371 bound_to 10713
  140.9069  133.7739  155.9745 LP  0  0  0  0  0  0  0  0  0  0  0  0  # atno 17394 bound_to 11000
  140.8590  134.2864  157.5243 LP  0  0  0  0  0  0  0  0  0  0  0  0  # atno 17395 bound_to 11000

$$$$
