#       Name:                AV-unprocessed.smi:2145
#       Creating user name   scv26
#       Creation time:       Fri Mar 27 11:50:38 2020


#       File generated by GOLD software.
#

@<TRIPOS>MOLECULE
AV-unprocessed.smi:2145
    51    53     1
SMALL
NO_CHARGES


@<TRIPOS>ATOM
      1 ****        -7.6761   0.9628   0.1469 C.3            1 S1                 0.0000
      2 ****        -6.7189   2.1233   0.4131 C.2            1 S1                 0.0000
      3 ****        -7.1893   3.2405   0.6248 O.2            1 S1                 0.0000
      4 ****        -5.2564   1.8352   0.4038 C.ar           1 S1                 0.0000
      5 ****        -4.3417   2.8755   0.6811 C.ar           1 S1                 0.0000
      6 ****        -2.9553   2.6311   0.6741 C.ar           1 S1                 0.0000
      7 ****        -2.4488   1.3485   0.3868 C.ar           1 S1                 0.0000
      8 ****        -1.0786   1.1998   0.3956 O.3            1 S1                 0.0000
      9 ****        -0.5357  -0.0637   0.0351 C.3            1 S1                 0.0000
     10 ****         0.9972   0.0301   0.0752 C.3            1 S1                 0.0000
     11 ****         1.4345   0.6689  -1.1083 O.3            1 S1                 0.0000
     12 ****         1.6564  -1.3610   0.1698 C.3            1 S1                 0.0000
     13 ****         3.1084  -1.2914   0.2677 N.pl3          1 S1                 0.0000
     14 ****         3.8614  -1.1577   1.3869 C.2            1 S1                 0.0000
     15 ****         3.2448  -1.0671   2.7467 C.3            1 S1                 0.0000
     16 ****         5.1806  -1.1172   1.2002 N.2            1 S1                 0.0000
     17 ****         5.2956  -1.2387  -0.1714 C.ar           1 S1                 0.0000
     18 ****         6.4419  -1.2649  -0.9977 C.ar           1 S1                 0.0000
     19 ****         6.3115  -1.4011  -2.3954 C.ar           1 S1                 0.0000
     20 ****         5.0360  -1.5120  -2.9857 C.ar           1 S1                 0.0000
     21 ****         3.8808  -1.4877  -2.1807 C.ar           1 S1                 0.0000
     22 ****         4.0160  -1.3521  -0.7859 C.ar           1 S1                 0.0000
     23 ****        -3.3638   0.3030   0.1106 C.ar           1 S1                 0.0000
     24 ****        -4.7514   0.5450   0.1199 C.ar           1 S1                 0.0000
     25 ****        -7.5496   0.1840   0.8990 H              1 S1                 0.0000
     26 ****        -7.4934   0.5336  -0.8382 H              1 S1                 0.0000
     27 ****        -8.7102   1.3063   0.1825 H              1 S1                 0.0000
     28 ****        -4.6926   3.8734   0.9020 H              1 S1                 0.0000
     29 ****        -2.2723   3.4400   0.8885 H              1 S1                 0.0000
     30 ****        -0.8711  -0.8025   0.7647 H              1 S1                 0.0000
     31 ****        -0.8786  -0.3863  -0.9498 H              1 S1                 0.0000
     32 ****         1.3019   0.6312   0.9323 H              1 S1                 0.0000
     33 ****         1.0515   1.5324  -1.1408 H              1 S1                 0.0000
     34 ****         1.2753  -1.9028   1.0356 H              1 S1                 0.0000
     35 ****         1.3944  -1.9642  -0.7005 H              1 S1                 0.0000
     36 ****         4.0103  -0.8870   3.5022 H              1 S1                 0.0000
     37 ****         2.7344  -1.9990   2.9907 H              1 S1                 0.0000
     38 ****         2.5263  -0.2487   2.7866 H              1 S1                 0.0000
     39 ****         7.4233  -1.1801  -0.5551 H              1 S1                 0.0000
     40 ****         7.1944  -1.4198  -3.0173 H              1 S1                 0.0000
     41 ****         4.9445  -1.6143  -4.0571 H              1 S1                 0.0000
     42 ****         2.9022  -1.5681  -2.6299 H              1 S1                 0.0000
     43 ****        -3.0265  -0.6979  -0.1118 H              1 S1                 0.0000
     44 ****        -5.4129  -0.2802  -0.0968 H              1 S1                 0.0000
     45 ****        -8.1802   3.3749   0.6203 LP             1 S1                 0.0000
     46 ****        -6.5807   4.0141   0.8013 LP             1 S1                 0.0000
     47 ****        -0.7646   1.4033   1.3230 LP             1 S1                 0.0000
     48 ****        -0.7034   1.8753  -0.2391 LP             1 S1                 0.0000
     49 ****         1.1426   0.1399  -1.9051 LP             1 S1                 0.0000
     50 ****         2.4318   0.7419  -1.1038 LP             1 S1                 0.0000
     51 ****         5.9057  -1.0225   1.8823 LP             1 S1                 0.0000
@<TRIPOS>BOND
    1    1    2 1     
    2    1   25 1     
    3    1   26 1     
    4    1   27 1     
    5    2    3 2     
    6    2    4 1     
    7    4   24 ar    
    8    4    5 ar    
    9    5    6 ar    
   10    5   28 1     
   11    6    7 ar    
   12    6   29 1     
   13    7    8 1     
   14    7   23 ar    
   15    8    9 1     
   16    9   10 1     
   17    9   30 1     
   18    9   31 1     
   19   10   11 1     
   20   10   12 1     
   21   10   32 1     
   22   11   33 1     
   23   12   13 1     
   24   12   34 1     
   25   12   35 1     
   26   13   22 1     
   27   13   14 1     
   28   14   15 1     
   29   14   16 2     
   30   15   36 1     
   31   15   37 1     
   32   15   38 1     
   33   16   17 1     
   34   17   22 ar    
   35   17   18 ar    
   36   18   19 ar    
   37   18   39 1     
   38   19   20 ar    
   39   19   40 1     
   40   20   21 ar    
   41   20   41 1     
   42   21   22 ar    
   43   21   42 1     
   44   23   24 ar    
   45   23   43 1     
   46   24   44 1     
   47    3   45 1     
   48    3   46 1     
   49    8   47 1     
   50    8   48 1     
   51   11   49 1     
   52   11   50 1     
   53   16   51 1     
@<TRIPOS>SUBSTRUCTURE
      1 S1             1
@<TRIPOS>SET
LONE_PAIRS      STATIC     ATOMS    <user>   **** ""
7 45 46 47 48 49 50 51
DONOR_HYDROGENS      STATIC     ATOMS    <user>   **** ""
1 33
ATOM$BLUE        STATIC     ATOMS    COLORGROUP SYSTEM
7 45 46 47 48 49 50 51
ATOM$RED        STATIC     ATOMS    COLORGROUP SYSTEM
1 33
