AV-unprocessed.smi:334|AV-procd|sdf|2366|dock7
  -GOLD-   2262022283D 1   1.00000     0.00000
 Structure written by MMmdl.
 44 46  0  0  0  0  0  0  0  0  3 V2000
  145.3501  135.8487  152.2755 C   0  0  0  0  0  0  0  0  0  0  0  0
  145.8751  134.4075  152.1646 C   0  0  2  0  0  0  0  0  0  0  0  0
  147.2622  134.3461  152.6108 N   0  0  0  0  0  0  0  0  0  0  0  0
  147.7540  133.5342  153.5615 C   0  0  0  0  0  0  0  0  0  0  0  0
  147.0453  132.7939  154.2422 O   0  0  0  0  0  0  0  0  0  0  0  0
  149.2773  133.5230  153.7753 C   0  0  0  0  0  0  0  0  0  0  0  0
  149.8008  132.2811  154.3748 N   0  0  0  0  0  0  0  0  0  0  0  0
  149.4541  131.0695  153.7447 C   0  0  0  0  0  0  0  0  0  0  0  0
  149.8587  129.8749  154.2186 C   0  0  0  0  0  0  0  0  0  0  0  0
  149.4815  128.6402  153.5668 N   0  3  0  0  0  0  0  0  0  0  0  0
  149.8384  127.5782  154.0663 O   0  0  0  0  0  0  0  0  0  0  0  0
  148.8161  128.6903  152.5366 O   0  5  0  0  0  0  0  0  0  0  0  0
  150.6797  129.8666  155.4138 C   0  0  0  0  0  0  0  0  0  0  0  0
  151.0107  131.0213  156.0241 C   0  0  0  0  0  0  0  0  0  0  0  0
  150.5612  132.3198  155.5123 C   0  0  0  0  0  0  0  0  0  0  0  0
  150.8419  133.3766  156.0774 O   0  0  0  0  0  0  0  0  0  0  0  0
  145.7830  133.8654  150.7188 C   0  0  2  0  0  0  0  0  0  0  0  0
  144.4421  134.1488  150.0061 C   0  0  0  0  0  0  0  0  0  0  0  0
  144.0382  132.7635  149.4670 C   0  0  2  0  0  0  0  0  0  0  0  0
  143.5688  131.8830  150.6402 C   0  0  0  0  0  0  0  0  0  0  0  0
  144.8856  131.5583  151.3683 C   0  0  0  0  0  0  0  0  0  0  0  0
  145.9313  132.3321  150.5399 C   0  0  1  0  0  0  0  0  0  0  0  0
  145.3888  132.1437  149.1274 C   0  0  0  0  0  0  0  0  0  0  0  0
  144.3080  135.9143  151.9627 H   0  0  0  0  0  0  0  0  0  0  0  0
  145.9280  136.5313  151.6517 H   0  0  0  0  0  0  0  0  0  0  0  0
  145.4039  136.2106  153.3027 H   0  0  0  0  0  0  0  0  0  0  0  0
  145.2685  133.7758  152.8156 H   0  0  0  0  0  0  0  0  0  0  0  0
  147.9180  134.9270  152.1092 H   0  0  0  0  0  0  0  0  0  0  0  0
  149.7527  133.7089  152.8114 H   0  0  0  0  0  0  0  0  0  0  0  0
  149.5487  134.3813  154.3926 H   0  0  0  0  0  0  0  0  0  0  0  0
  148.8334  131.1828  152.8674 H   0  0  0  0  0  0  0  0  0  0  0  0
  151.0355  128.9346  155.8279 H   0  0  0  0  0  0  0  0  0  0  0  0
  151.6225  130.9917  156.9138 H   0  0  0  0  0  0  0  0  0  0  0  0
  146.5811  134.3323  150.1383 H   0  0  0  0  0  0  0  0  0  0  0  0
  143.6814  134.5602  150.6709 H   0  0  0  0  0  0  0  0  0  0  0  0
  144.5864  134.8592  149.1911 H   0  0  0  0  0  0  0  0  0  0  0  0
  143.3280  132.8057  148.6409 H   0  0  0  0  0  0  0  0  0  0  0  0
  142.8543  132.3978  151.2835 H   0  0  0  0  0  0  0  0  0  0  0  0
  143.0953  130.9694  150.2787 H   0  0  0  0  0  0  0  0  0  0  0  0
  144.8695  131.8424  152.4199 H   0  0  0  0  0  0  0  0  0  0  0  0
  145.0869  130.4871  151.3272 H   0  0  0  0  0  0  0  0  0  0  0  0
  146.9506  131.9708  150.6801 H   0  0  0  0  0  0  0  0  0  0  0  0
  145.3216  131.0974  148.8238 H   0  0  0  0  0  0  0  0  0  0  0  0
  145.9432  132.7007  148.3700 H   0  0  0  0  0  0  0  0  0  0  0  0
  1  2  1  0  0  0  0
  1 24  1  0  0  0  0
  1 25  1  0  0  0  0
  1 26  1  0  0  0  0
  2  3  1  0  0  0  0
  2 17  1  0  0  0  0
  2 27  1  0  0  0  0
  3  4  1  0  0  0  0
  3 28  1  0  0  0  0
  4  5  2  0  0  0  0
  4  6  1  0  0  0  0
  6  7  1  0  0  0  0
  6 29  1  0  0  0  0
  6 30  1  0  0  0  0
  7 15  1  0  0  0  0
  7  8  1  0  0  0  0
  8  9  2  0  0  0  0
  8 31  1  0  0  0  0
  9 10  1  0  0  0  0
  9 13  1  0  0  0  0
 10 11  2  0  0  0  0
 10 12  1  0  0  0  0
 13 14  2  0  0  0  0
 13 32  1  0  0  0  0
 14 15  1  0  0  0  0
 14 33  1  0  0  0  0
 15 16  2  0  0  0  0
 17 22  1  0  0  0  0
 17 18  1  0  0  0  0
 17 34  1  0  0  0  0
 18 19  1  0  0  0  0
 18 35  1  0  0  0  0
 18 36  1  0  0  0  0
 19 23  1  0  0  0  0
 19 20  1  0  0  0  0
 19 37  1  0  0  0  0
 20 21  1  0  0  0  0
 20 38  1  0  0  0  0
 20 39  1  0  0  0  0
 21 22  1  0  0  0  0
 21 40  1  0  0  0  0
 21 41  1  0  0  0  0
 22 23  1  0  0  0  0
 22 42  1  0  0  0  0
 23 43  1  0  0  0  0
 23 44  1  0  0  0  0
M  CHG  1  10   1
M  CHG  1  12  -1
M  END
> <s_m_source_file>
AV-unprocessed.smi

> <i_m_source_file_index>
334

> <i_lp_mmshare_version>
43012

> <i_f3d_flags>
0

> <s_epik_input>
W0NIMl0xW0NIMl1bQ0BIXShbQ0gyXTIpW0NAQEhdKFtDSDJdW0NAQEhdMTIpW0NASF0oW0NIM10pW05IXUMoPU8pW0NIMl1uM1tjSF1jKFtOK10oPU8pW08tXSlbY0hdW2NIXWMzPU8=

> <s_epik_cmdline>
J2VwaWtfcHl0aG9uJywgJy1waCcsICc3LjAnLCAnLXRuJywgJzgnLCAnLW1hJywgJzIwMCcsICctbWV0YWxfYmluZGluZycsICctaW1hZScsICc8aW5maWxlLm1hZT4nLCAnLW9tYWUnLCAnPG91dGZpbGUubWFlPic=

> <r_lp_tautomer_probability>
1

> <r_epik_Ionization_Penalty>
2.17081e-08

> <r_epik_Ionization_Penalty_Charging>
8.1195e-11

> <r_epik_Ionization_Penalty_Neutral>
2.16269e-08

> <r_epik_State_Penalty>
-0

> <r_epik_Charging_Adjusted_Penalty>
8.1195e-11

> <i_epik_Tot_Q>
0

> <i_epik_Tot_abs_Q>
2

> <r_epik_Metal_State_Penalty>
-0

> <b_epik_Metal_Only>
0

> <s_lp_Force_Field>
OPLS_2005

> <r_lp_Energy>
61.6433

> <b_lp_Chiralities_Consistent>
1

> <s_lp_Variant>
AV-unprocessed.smi:334-5

> <Gold.Version>
5.8.1

> <Gold.Id.Protein>
6NUR|6NUR_protein|mol2

> <Gold.PLP.Fitness>
45.9073

> <Gold.PLP.PLP>
-41.8696

> <Gold.PLP.part.hbond>
-1.0000

> <Gold.PLP.part.metal>
0.0000

> <Gold.PLP.part.buried>
-3.2560

> <Gold.PLP.part.nonpolar>
-36.5656

> <Gold.PLP.part.repulsive>
0.3704

> <Gold.PLP.ligand.clash>
0.0000

> <Gold.PLP.ligand.torsion>
0.6217

> <Gold.PLP.Chemscore.Hbond>
1.0000

> <Gold.PLP.Chemscore.CHOScore>
0.7508

> <Gold.PLP.Chemscore.Metal>
0.0000

> <Gold.Chemscore.Hbonds>
donor molecule, donor type, donor heavy atom, donor atom, acceptor molecule, acceptor atom, score
      L1  H     3    28       P1  7948  1.00
      L1  C     8    31       P1 10747  0.85

> <Gold.PLP.Chemscore.Internal.Correction>
0.0288

> <Gold.Rescore>
     Score         DG    S(hbond)    S(metal)    S(lipo)     H(rot)  DE(clash)    DE(int)     intcor
     14.29     -15.80       0.90        0.00     100.58       1.75       0.03       1.48       ----

> <Gold.Chemscore.Fitness>
14.2883

> <Gold.Chemscore.DG>
-15.7971

> <Gold.Chemscore.ZeroCoef>
-5.4800

> <Gold.Chemscore.Hbond>
0.9049

> <Gold.Chemscore.Metal>
0.0000

> <Gold.Chemscore.Lipo>
100.5822

> <Gold.Chemscore.Internal_Hbond>
0.0000

> <Gold.Chemscore.DEClash>
0.0266

> <Gold.Chemscore.DEInternal>
1.4822

> <Gold.Chemscore.Rot>
1.7474

> <Gold.Chemscore.Internal.Correction>
   9.000000E+99

> <Gold.Chemscore.Hbonds>
donor molecule, donor type, donor heavy atom, donor atom, acceptor molecule, acceptor atom, score
      L1  H     3    28       P1  7948  0.65

> <Gold.Chemscore.Hbond.Weighted>
-3.0224

> <Gold.Chemscore.Metal.Weighted>
-0.0000

> <Gold.Chemscore.Lipo.Weighted>
-11.7681

> <Gold.Chemscore.Internal_Hbond.Weighted>
0.0000

> <Gold.Chemscore.DEClash.Weighted>
0.0266

> <Gold.Chemscore.DEInternal.Weighted>
1.4822

> <Gold.Chemscore.Rot.Weighted>
4.4733

> <Gold.Chemscore.Internal.Correction.Weighted>
   9.000000E+99

> <Gold.Protein.RotatedTorsions>
[ 6907 6896 6895 6894 ] final   27.12 input  -60.11 | X-H torsion
[ 7974 7965 7964 7962 ] final -140.83 input  175.53 | X-H torsion
[ 8008 7997 7996 7995 ] final   81.80 input   59.86 | X-H torsion
[ 10167 10162 10161 10158 ] final  121.80 input  -65.29 | X-H torsion
[ 10718 10713 10712 10709 ] final -141.26 input   66.30 | X-H torsion
[ 10763 10752 10751 10750 ] final    8.77 input  -60.55 | X-H torsion
[ 11005 11000 10999 10996 ] final -132.82 input  -57.11 | X-H torsion

> <Gold.Protein.ActiveResidues>
 VAL166  LYS551  ARG553  GLY616  TRP617  ASP618  TYR619  PRO620  LYS621  CYS622 
 ASP623  PHE694  ASN695  SER759  ASP760  ASP761  ALA762  ILE779  LEU786  VAL792 
 PHE793  MET794  SER795  GLU796  ALA797  LYS798  CYS799  TRP800  GLU811  SER814 

> <Gold.Protein.RotatedAtoms>
  151.9975  134.9946  160.0563 H   0  0  0  0  0  0  0  0  0  0  0  0  # atno 6907 bound_to 6896
  152.1550  133.4541  159.4840 H   0  0  0  0  0  0  0  0  0  0  0  0  # atno 6908 bound_to 6896
  150.6880  134.2060  159.4383 H   0  0  0  0  0  0  0  0  0  0  0  0  # atno 6909 bound_to 6896
  144.8567  140.6153  143.5355 H   0  0  0  0  0  0  0  0  0  0  0  0  # atno 7974 bound_to 7965
  155.9021  140.3432  155.6034 H   0  0  0  0  0  0  0  0  0  0  0  0  # atno 8008 bound_to 7997
  155.7488  140.0817  157.2230 H   0  0  0  0  0  0  0  0  0  0  0  0  # atno 8009 bound_to 7997
  154.4045  140.1557  156.2687 H   0  0  0  0  0  0  0  0  0  0  0  0  # atno 8010 bound_to 7997
  139.5897  144.7020  151.3320 H   0  0  0  0  0  0  0  0  0  0  0  0  # atno 10167 bound_to 10162
  156.3319  130.7590  151.1710 H   0  0  0  0  0  0  0  0  0  0  0  0  # atno 10718 bound_to 10713
  153.2213  135.6881  153.7997 H   0  0  0  0  0  0  0  0  0  0  0  0  # atno 10763 bound_to 10752
  153.7194  135.3269  155.3264 H   0  0  0  0  0  0  0  0  0  0  0  0  # atno 10764 bound_to 10752
  154.8271  135.4609  154.1062 H   0  0  0  0  0  0  0  0  0  0  0  0  # atno 10765 bound_to 10752
  140.9136  134.1536  157.4370 H   0  0  0  0  0  0  0  0  0  0  0  0  # atno 11005 bound_to 11000
  145.4393  139.1538  143.3979 LP  0  0  0  0  0  0  0  0  0  0  0  0  # atno 17320 bound_to 7965
  146.2828  140.4513  142.8769 LP  0  0  0  0  0  0  0  0  0  0  0  0  # atno 17321 bound_to 7965
  140.7162  143.7258  150.7661 LP  0  0  0  0  0  0  0  0  0  0  0  0  # atno 17342 bound_to 10162
  140.0811  143.4967  152.2529 LP  0  0  0  0  0  0  0  0  0  0  0  0  # atno 17343 bound_to 10162
  157.7432  131.0479  150.4967 LP  0  0  0  0  0  0  0  0  0  0  0  0  # atno 17370 bound_to 10713
  156.5134  130.4144  149.6289 LP  0  0  0  0  0  0  0  0  0  0  0  0  # atno 17371 bound_to 10713
  139.8762  134.9945  156.5697 LP  0  0  0  0  0  0  0  0  0  0  0  0  # atno 17394 bound_to 11000
  140.8078  133.8453  155.8783 LP  0  0  0  0  0  0  0  0  0  0  0  0  # atno 17395 bound_to 11000

$$$$
