AV-unprocessed.smi:2923|AV-procd|sdf|11204|dock10
  -GOLD-   2272016 93D 1   1.00000     0.00000
 Structure written by MMmdl.
 47 49  0  0  0  0  0  0  0  0  2 V2000
  143.8384  132.7360  148.9320 C   0  0  0  0  0  0  0  0  0  0  0  0
  144.6406  132.8089  150.1462 N   0  0  0  0  0  0  0  0  0  0  0  0
  145.2951  131.6150  150.6697 C   0  0  0  0  0  0  0  0  0  0  0  0
  144.7383  134.0284  150.8507 C   0  0  0  0  0  0  0  0  0  0  0  0
  145.9481  134.5054  151.4123 C   0  0  0  0  0  0  0  0  0  0  0  0
  145.9644  135.7348  152.1023 C   0  0  0  0  0  0  0  0  0  0  0  0
  144.7787  136.4887  152.2231 C   0  0  0  0  0  0  0  0  0  0  0  0
  144.8418  137.7142  152.9400 N   0  0  0  0  0  0  0  0  0  0  0  0
  145.6460  138.0432  153.9656 C   0  0  0  0  0  0  0  0  0  0  0  0
  146.4571  137.2907  154.5044 O   0  0  0  0  0  0  0  0  0  0  0  0
  145.4494  139.3115  154.3493 N   0  0  0  0  0  0  0  0  0  0  0  0
  146.1741  139.9645  155.4350 C   0  0  2  0  0  0  0  0  0  0  0  0
  145.3633  141.0950  156.0874 C   0  0  1  0  0  0  0  0  0  0  0  0
  144.9251  140.9722  157.5217 C   0  0  0  0  0  0  0  0  0  0  0  0
  146.0228  141.7239  158.2801 C   0  0  0  0  0  0  0  0  0  0  0  0
  147.1426  141.7107  157.3980 O   0  0  0  0  0  0  0  0  0  0  0  0
  146.6491  141.9080  156.0752 C   0  0  1  0  0  0  0  0  0  0  0  0
  147.2353  140.9976  154.9756 C   0  0  0  0  0  0  0  0  0  0  0  0
  148.6977  140.5869  155.1553 C   0  0  0  0  0  0  0  0  0  0  0  0
  147.1065  141.5657  153.5549 C   0  0  0  0  0  0  0  0  0  0  0  0
  143.5930  135.9648  151.6553 C   0  0  0  0  0  0  0  0  0  0  0  0
  143.6222  134.7819  151.0043 N   0  3  0  0  0  0  0  0  0  0  0  0
  142.7985  132.9870  149.1437 H   0  0  0  0  0  0  0  0  0  0  0  0
  143.8589  131.7341  148.5030 H   0  0  0  0  0  0  0  0  0  0  0  0
  144.2185  133.4275  148.1793 H   0  0  0  0  0  0  0  0  0  0  0  0
  146.3726  131.7686  150.7406 H   0  0  0  0  0  0  0  0  0  0  0  0
  145.1229  130.7526  150.0252 H   0  0  0  0  0  0  0  0  0  0  0  0
  144.9123  131.3720  151.6618 H   0  0  0  0  0  0  0  0  0  0  0  0
  146.8685  133.9473  151.3268 H   0  0  0  0  0  0  0  0  0  0  0  0
  146.8877  136.0959  152.5318 H   0  0  0  0  0  0  0  0  0  0  0  0
  144.1729  138.4162  152.6593 H   0  0  0  0  0  0  0  0  0  0  0  0
  144.7610  139.8640  153.8598 H   0  0  0  0  0  0  0  0  0  0  0  0
  146.5690  139.2700  156.1801 H   0  0  0  0  0  0  0  0  0  0  0  0
  144.6153  141.5205  155.4160 H   0  0  0  0  0  0  0  0  0  0  0  0
  143.9426  141.4098  157.7004 H   0  0  0  0  0  0  0  0  0  0  0  0
  144.8872  139.9266  157.8288 H   0  0  0  0  0  0  0  0  0  0  0  0
  145.7252  142.7582  158.4594 H   0  0  0  0  0  0  0  0  0  0  0  0
  146.2622  141.2661  159.2401 H   0  0  0  0  0  0  0  0  0  0  0  0
  146.5105  142.9575  155.8112 H   0  0  0  0  0  0  0  0  0  0  0  0
  149.3674  141.4428  155.0673 H   0  0  0  0  0  0  0  0  0  0  0  0
  149.0005  139.8508  154.4100 H   0  0  0  0  0  0  0  0  0  0  0  0
  148.8725  140.1397  156.1341 H   0  0  0  0  0  0  0  0  0  0  0  0
  147.7529  142.4323  153.4131 H   0  0  0  0  0  0  0  0  0  0  0  0
  146.0879  141.8896  153.3392 H   0  0  0  0  0  0  0  0  0  0  0  0
  147.3801  140.8288  152.7991 H   0  0  0  0  0  0  0  0  0  0  0  0
  142.6201  136.4303  151.7014 H   0  0  0  0  0  0  0  0  0  0  0  0
  142.7493  134.4347  150.6065 H   0  0  0  0  0  0  0  0  0  0  0  0
  1  2  1  0  0  0  0
  1 23  1  0  0  0  0
  1 24  1  0  0  0  0
  1 25  1  0  0  0  0
  2  3  1  0  0  0  0
  2  4  1  0  0  0  0
  3 26  1  0  0  0  0
  3 27  1  0  0  0  0
  3 28  1  0  0  0  0
  4 22  1  0  0  0  0
  4  5  2  0  0  0  0
  5  6  1  0  0  0  0
  5 29  1  0  0  0  0
  6  7  2  0  0  0  0
  6 30  1  0  0  0  0
  7  8  1  0  0  0  0
  7 21  1  0  0  0  0
  8  9  1  0  0  0  0
  8 31  1  0  0  0  0
  9 10  2  0  0  0  0
  9 11  1  0  0  0  0
 11 12  1  0  0  0  0
 11 32  1  0  0  0  0
 12 18  1  0  0  0  0
 12 13  1  0  0  0  0
 12 33  1  0  0  0  0
 13 17  1  0  0  0  0
 13 14  1  0  0  0  0
 13 34  1  0  0  0  0
 14 15  1  0  0  0  0
 14 35  1  0  0  0  0
 14 36  1  0  0  0  0
 15 16  1  0  0  0  0
 15 37  1  0  0  0  0
 15 38  1  0  0  0  0
 16 17  1  0  0  0  0
 17 18  1  0  0  0  0
 17 39  1  0  0  0  0
 18 19  1  0  0  0  0
 18 20  1  0  0  0  0
 19 40  1  0  0  0  0
 19 41  1  0  0  0  0
 19 42  1  0  0  0  0
 20 43  1  0  0  0  0
 20 44  1  0  0  0  0
 20 45  1  0  0  0  0
 21 22  2  0  0  0  0
 21 46  1  0  0  0  0
 22 47  1  0  0  0  0
M  CHG  1  22   1
M  END
> <s_m_source_file>
AV-unprocessed.smi

> <i_m_source_file_index>
2923

> <i_lp_mmshare_version>
43012

> <i_f3d_flags>
0

> <s_epik_input>
W0NIM11OKFtDSDNdKWMxW2NIXVtjSF1jKFtjSF1uMSlbTkhdQyg9TylbTkhdW0NASF0yQyhbQ0gzXSkoW0NIM10pW0NAQEhdKFtDQEhdMjMpT1tDSDJdW0NIMl0z

> <s_epik_cmdline>
J2VwaWtfcHl0aG9uJywgJy1waCcsICc3LjAnLCAnLXRuJywgJzgnLCAnLW1hJywgJzIwMCcsICctbWV0YWxfYmluZGluZycsICctaW1hZScsICc8aW5maWxlLm1hZT4nLCAnLW9tYWUnLCAnPG91dGZpbGUubWFlPic=

> <r_lp_tautomer_probability>
0.999994

> <r_epik_Ionization_Penalty>
0.252205

> <r_epik_Ionization_Penalty_Charging>
0.252185

> <r_epik_Ionization_Penalty_Neutral>
1.99479e-05

> <r_epik_State_Penalty>
0.243573

> <r_epik_Charging_Adjusted_Penalty>
0.495758

> <i_epik_Tot_Q>
1

> <i_epik_Tot_abs_Q>
1

> <r_epik_Metal_State_Penalty>
0.534372

> <b_epik_Metal_Only>
0

> <s_lp_Force_Field>
OPLS_2005

> <r_lp_Energy>
44.365

> <b_lp_Chiralities_Consistent>
1

> <s_lp_Variant>
AV-unprocessed.smi:2923-3

> <Gold.Version>
5.8.1

> <Gold.Id.Protein>
6NUR|6NUR_protein|mol2

> <Gold.PLP.Fitness>
39.6456

> <Gold.PLP.PLP>
-29.9545

> <Gold.PLP.part.hbond>
-3.0000

> <Gold.PLP.part.metal>
0.0000

> <Gold.PLP.part.buried>
-5.2700

> <Gold.PLP.part.nonpolar>
-21.8860

> <Gold.PLP.part.repulsive>
0.1991

> <Gold.PLP.ligand.clash>
0.0000

> <Gold.PLP.ligand.torsion>
1.1591

> <Gold.PLP.Chemscore.Hbond>
3.9440

> <Gold.PLP.Chemscore.CHOScore>
0.0000

> <Gold.PLP.Chemscore.Metal>
0.0000

> <Gold.Chemscore.Hbonds>
donor molecule, donor type, donor heavy atom, donor atom, acceptor molecule, acceptor atom, score
      L1  H     8    31       P1 10175  0.82
      L1  H    11    32       P1 10175  1.00
      L1  H    22    47       P1 10186  2.00

> <Gold.PLP.Chemscore.Internal.Correction>
0.1773

> <Gold.Rescore>
     Score         DG    S(hbond)    S(metal)    S(lipo)     H(rot)  DE(clash)    DE(int)     intcor
     16.32     -18.24       2.39        0.00      62.79       1.00       0.08       1.85       ----

> <Gold.Chemscore.Fitness>
16.3162

> <Gold.Chemscore.DG>
-18.2440

> <Gold.Chemscore.ZeroCoef>
-5.4800

> <Gold.Chemscore.Hbond>
2.3886

> <Gold.Chemscore.Metal>
0.0000

> <Gold.Chemscore.Lipo>
62.7860

> <Gold.Chemscore.Internal_Hbond>
0.0000

> <Gold.Chemscore.DEClash>
0.0774

> <Gold.Chemscore.DEInternal>
1.8505

> <Gold.Chemscore.Rot>
1.0000

> <Gold.Chemscore.Internal.Correction>
   9.000000E+99

> <Gold.Chemscore.Hbonds>
donor molecule, donor type, donor heavy atom, donor atom, acceptor molecule, acceptor atom, score
      L1  H     8    31       P1 10175  0.78
      L1  H    11    32       P1 10175  1.00
      L1  H    22    47       P1 10186  0.42

> <Gold.Chemscore.Hbond.Weighted>
-7.9781

> <Gold.Chemscore.Metal.Weighted>
-0.0000

> <Gold.Chemscore.Lipo.Weighted>
-7.3460

> <Gold.Chemscore.Internal_Hbond.Weighted>
0.0000

> <Gold.Chemscore.DEClash.Weighted>
0.0774

> <Gold.Chemscore.DEInternal.Weighted>
1.8505

> <Gold.Chemscore.Rot.Weighted>
2.5600

> <Gold.Chemscore.Internal.Correction.Weighted>
   9.000000E+99

> <Gold.Protein.RotatedTorsions>
[ 6907 6896 6895 6894 ] final   -9.61 input  -60.11 | X-H torsion
[ 7974 7965 7964 7962 ] final   42.18 input  175.53 | X-H torsion
[ 8008 7997 7996 7995 ] final  -60.51 input   59.86 | X-H torsion
[ 10167 10162 10161 10158 ] final -115.00 input  -65.29 | X-H torsion
[ 10718 10713 10712 10709 ] final -117.73 input   66.30 | X-H torsion
[ 10763 10752 10751 10750 ] final   91.09 input  -60.55 | X-H torsion
[ 11005 11000 10999 10996 ] final -125.12 input  -57.11 | X-H torsion

> <Gold.Protein.ActiveResidues>
 VAL166  LYS551  ARG553  GLY616  TRP617  ASP618  TYR619  PRO620  LYS621  CYS622 
 ASP623  PHE694  ASN695  SER759  ASP760  ASP761  ALA762  ILE779  LEU786  VAL792 
 PHE793  MET794  SER795  GLU796  ALA797  LYS798  CYS799  TRP800  GLU811  SER814 

> <Gold.Protein.RotatedAtoms>
  151.4150  135.0990  159.9596 H   0  0  0  0  0  0  0  0  0  0  0  0  # atno 6907 bound_to 6896
  152.5007  133.8761  159.7333 H   0  0  0  0  0  0  0  0  0  0  0  0  # atno 6908 bound_to 6896
  150.9264  133.6761  159.2848 H   0  0  0  0  0  0  0  0  0  0  0  0  # atno 6909 bound_to 6896
  146.0762  139.5330  142.9566 H   0  0  0  0  0  0  0  0  0  0  0  0  # atno 7974 bound_to 7965
  154.4402  140.1038  156.6284 H   0  0  0  0  0  0  0  0  0  0  0  0  # atno 8008 bound_to 7997
  155.5631  140.3488  155.4477 H   0  0  0  0  0  0  0  0  0  0  0  0  # atno 8009 bound_to 7997
  156.0445  140.1289  157.0108 H   0  0  0  0  0  0  0  0  0  0  0  0  # atno 8010 bound_to 7997
  140.0949  143.4666  152.1847 H   0  0  0  0  0  0  0  0  0  0  0  0  # atno 10167 bound_to 10162
  156.1054  130.6206  150.9201 H   0  0  0  0  0  0  0  0  0  0  0  0  # atno 10718 bound_to 10713
  153.2045  135.4410  155.0307 H   0  0  0  0  0  0  0  0  0  0  0  0  # atno 10763 bound_to 10752
  154.8166  135.3318  154.7161 H   0  0  0  0  0  0  0  0  0  0  0  0  # atno 10764 bound_to 10752
  153.7604  135.6992  153.4982 H   0  0  0  0  0  0  0  0  0  0  0  0  # atno 10765 bound_to 10752
  140.9787  134.0704  157.3790 H   0  0  0  0  0  0  0  0  0  0  0  0  # atno 11005 bound_to 11000
  145.6302  141.0305  143.1867 LP  0  0  0  0  0  0  0  0  0  0  0  0  # atno 17320 bound_to 7965
  144.7263  139.7865  143.7363 LP  0  0  0  0  0  0  0  0  0  0  0  0  # atno 17321 bound_to 7965
  139.5704  144.7459  151.3907 LP  0  0  0  0  0  0  0  0  0  0  0  0  # atno 17342 bound_to 10162
  140.7009  143.7634  150.7401 LP  0  0  0  0  0  0  0  0  0  0  0  0  # atno 17343 bound_to 10162
  157.6231  131.0928  150.8586 LP  0  0  0  0  0  0  0  0  0  0  0  0  # atno 17370 bound_to 10713
  156.8706  130.5144  149.5297 LP  0  0  0  0  0  0  0  0  0  0  0  0  # atno 17371 bound_to 10713
  139.8941  135.0134  156.6933 LP  0  0  0  0  0  0  0  0  0  0  0  0  # atno 17394 bound_to 11000
  140.7220  133.9133  155.8153 LP  0  0  0  0  0  0  0  0  0  0  0  0  # atno 17395 bound_to 11000

$$$$
