AV-unprocessed.smi:1304|AV-procd|sdf|5429|dock3
  -GOLD-   22720 4593D 1   1.00000     0.00000
 Structure written by MMmdl.
 47 48  0  0  0  0  0  0  0  0  1 V2000
  152.0849  140.8142  158.4890 C   0  0  0  0  0  0  0  0  0  0  0  0
  150.8265  140.9590  157.6142 C   0  0  0  0  0  0  0  0  0  0  0  0
  150.5976  139.8259  156.5631 C   0  0  1  0  0  0  0  0  0  0  0  0
  151.8401  139.8396  155.6319 C   0  0  0  0  0  0  0  0  0  0  0  0
  150.5601  138.4488  157.3031 C   0  0  0  0  0  0  0  0  0  0  0  0
  149.2909  138.1744  157.9765 N   0  0  0  0  0  0  0  0  0  0  0  0
  149.0556  137.1619  158.8248 C   0  0  0  0  0  0  0  0  0  0  0  0
  149.9168  136.3527  159.1711 O   0  0  0  0  0  0  0  0  0  0  0  0
  147.6245  137.0542  159.3672 C   0  0  0  0  0  0  0  0  0  0  0  0
  147.5140  136.1077  160.4891 N   0  0  0  0  0  0  0  0  0  0  0  0
  147.6550  134.7372  160.1929 C   0  0  0  0  0  0  0  0  0  0  0  0
  147.5692  133.7930  161.1433 C   0  0  0  0  0  0  0  0  0  0  0  0
  147.3257  134.2131  162.5030 C   0  0  0  0  0  0  0  0  0  0  0  0
  147.1864  135.5211  162.7969 C   0  0  0  0  0  0  0  0  0  0  0  0
  147.2766  136.5564  161.7609 C   0  0  0  0  0  0  0  0  0  0  0  0
  147.1472  137.7535  162.0200 O   0  0  0  0  0  0  0  0  0  0  0  0
  149.3532  140.0717  155.7797 N   0  0  0  0  0  0  0  0  0  0  0  0
  149.2137  141.4262  155.2315 C   0  0  0  0  0  0  0  0  0  0  0  0
  147.8441  141.6395  154.5641 C   0  0  0  0  0  0  0  0  0  0  0  0
  147.6478  140.6643  153.5472 O   0  0  0  0  0  0  0  0  0  0  0  0
  147.7193  139.3348  154.0484 C   0  0  0  0  0  0  0  0  0  0  0  0
  149.0894  139.1038  154.7076 C   0  0  0  0  0  0  0  0  0  0  0  0
  152.1626  141.6508  159.1836 H   0  0  0  0  0  0  0  0  0  0  0  0
  152.9968  140.8030  157.8924 H   0  0  0  0  0  0  0  0  0  0  0  0
  152.0615  139.9020  159.0843 H   0  0  0  0  0  0  0  0  0  0  0  0
  149.9739  141.0175  158.2913 H   0  0  0  0  0  0  0  0  0  0  0  0
  150.8493  141.9313  157.1222 H   0  0  0  0  0  0  0  0  0  0  0  0
  152.7731  139.8985  156.1933 H   0  0  0  0  0  0  0  0  0  0  0  0
  151.8230  140.6900  154.9500 H   0  0  0  0  0  0  0  0  0  0  0  0
  151.9049  138.9372  155.0240 H   0  0  0  0  0  0  0  0  0  0  0  0
  150.7976  137.6318  156.6215 H   0  0  0  0  0  0  0  0  0  0  0  0
  151.3225  138.4140  158.0803 H   0  0  0  0  0  0  0  0  0  0  0  0
  148.5218  138.7901  157.7550 H   0  0  0  0  0  0  0  0  0  0  0  0
  147.3006  138.0516  159.6671 H   0  0  0  0  0  0  0  0  0  0  0  0
  146.9428  136.7603  158.5663 H   0  0  0  0  0  0  0  0  0  0  0  0
  147.8282  134.5056  159.1520 H   0  0  0  0  0  0  0  0  0  0  0  0
  147.6754  132.7467  160.8970 H   0  0  0  0  0  0  0  0  0  0  0  0
  147.2535  133.4750  163.2880 H   0  0  0  0  0  0  0  0  0  0  0  0
  147.0041  135.8167  163.8197 H   0  0  0  0  0  0  0  0  0  0  0  0
  149.3217  142.1765  156.0129 H   0  0  0  0  0  0  0  0  0  0  0  0
  149.9934  141.6196  154.4952 H   0  0  0  0  0  0  0  0  0  0  0  0
  147.0414  141.5754  155.3004 H   0  0  0  0  0  0  0  0  0  0  0  0
  147.7907  142.6330  154.1186 H   0  0  0  0  0  0  0  0  0  0  0  0
  146.9130  139.1621  154.7631 H   0  0  0  0  0  0  0  0  0  0  0  0
  147.5729  138.6356  153.2252 H   0  0  0  0  0  0  0  0  0  0  0  0
  149.8595  139.1698  153.9392 H   0  0  0  0  0  0  0  0  0  0  0  0
  149.1090  138.0839  155.0867 H   0  0  0  0  0  0  0  0  0  0  0  0
  1  2  1  0  0  0  0
  1 23  1  0  0  0  0
  1 24  1  0  0  0  0
  1 25  1  0  0  0  0
  2  3  1  0  0  0  0
  2 26  1  0  0  0  0
  2 27  1  0  0  0  0
  3  4  1  0  0  0  0
  3  5  1  0  0  0  0
  3 17  1  0  0  0  0
  4 28  1  0  0  0  0
  4 29  1  0  0  0  0
  4 30  1  0  0  0  0
  5  6  1  0  0  0  0
  5 31  1  0  0  0  0
  5 32  1  0  0  0  0
  6  7  1  0  0  0  0
  6 33  1  0  0  0  0
  7  8  2  0  0  0  0
  7  9  1  0  0  0  0
  9 10  1  0  0  0  0
  9 34  1  0  0  0  0
  9 35  1  0  0  0  0
 10 15  1  0  0  0  0
 10 11  1  0  0  0  0
 11 12  2  0  0  0  0
 11 36  1  0  0  0  0
 12 13  1  0  0  0  0
 12 37  1  0  0  0  0
 13 14  2  0  0  0  0
 13 38  1  0  0  0  0
 14 15  1  0  0  0  0
 14 39  1  0  0  0  0
 15 16  2  0  0  0  0
 17 22  1  0  0  0  0
 17 18  1  0  0  0  0
 18 19  1  0  0  0  0
 18 40  1  0  0  0  0
 18 41  1  0  0  0  0
 19 20  1  0  0  0  0
 19 42  1  0  0  0  0
 19 43  1  0  0  0  0
 20 21  1  0  0  0  0
 21 22  1  0  0  0  0
 21 44  1  0  0  0  0
 21 45  1  0  0  0  0
 22 46  1  0  0  0  0
 22 47  1  0  0  0  0
M  END
> <s_m_source_file>
AV-unprocessed.smi

> <i_m_source_file_index>
1304

> <i_lp_mmshare_version>
43012

> <i_f3d_flags>
0

> <s_epik_input>
W0NIMl0xW0NIMl1PW0NIMl1bQ0gyXU4xW0NAQF0oW0NIM10pKFtDSDJdW0NIM10pW0NIMl1bTkhdQyg9TylbQ0gyXW4yW2NIXVtjSF1bY0hdW2NIXWMyPU8=

> <s_epik_cmdline>
J2VwaWtfcHl0aG9uJywgJy1waCcsICc3LjAnLCAnLXRuJywgJzgnLCAnLW1hJywgJzIwMCcsICctbWV0YWxfYmluZGluZycsICctaW1hZScsICc8aW5maWxlLm1hZT4nLCAnLW9tYWUnLCAnPG91dGZpbGUubWFlPic=

> <r_lp_tautomer_probability>
1

> <r_epik_Ionization_Penalty>
0.318667

> <r_epik_Ionization_Penalty_Charging>
3.55364e-07

> <r_epik_Ionization_Penalty_Neutral>
0.318667

> <r_epik_State_Penalty>
0.313095

> <r_epik_Charging_Adjusted_Penalty>
0.313095

> <i_epik_Tot_Q>
0

> <i_epik_Tot_abs_Q>
0

> <r_epik_Metal_State_Penalty>
0.313065

> <b_epik_Metal_Only>
0

> <s_lp_Force_Field>
OPLS_2005

> <r_lp_Energy>
51.6355

> <b_lp_Chiralities_Consistent>
1

> <s_lp_Variant>
AV-unprocessed.smi:1304-1

> <Gold.Version>
5.8.1

> <Gold.Id.Protein>
6NUR|6NUR_protein|mol2

> <Gold.PLP.Fitness>
45.8639

> <Gold.PLP.PLP>
-39.4193

> <Gold.PLP.part.hbond>
-3.0000

> <Gold.PLP.part.metal>
0.0000

> <Gold.PLP.part.buried>
-5.4714

> <Gold.PLP.part.nonpolar>
-31.6357

> <Gold.PLP.part.repulsive>
0.9014

> <Gold.PLP.ligand.clash>
0.0000

> <Gold.PLP.ligand.torsion>
0.5246

> <Gold.PLP.Chemscore.Hbond>
2.4500

> <Gold.PLP.Chemscore.CHOScore>
0.0000

> <Gold.PLP.Chemscore.Metal>
0.0000

> <Gold.Chemscore.Hbonds>
donor molecule, donor type, donor heavy atom, donor atom, acceptor molecule, acceptor atom, score
      P1  H  6896  6907       L1     8  1.00
      P1  H  6931  6943       L1    16  0.52
      P1  H  6934  6947       L1    16  0.61

> <Gold.PLP.Chemscore.Internal.Correction>
0.1438

> <Gold.Rescore>
     Score         DG    S(hbond)    S(metal)    S(lipo)     H(rot)  DE(clash)    DE(int)     intcor
     16.97     -18.82       2.60        0.00      82.52       1.95       0.14       1.72       ----

> <Gold.Chemscore.Fitness>
16.9685

> <Gold.Chemscore.DG>
-18.8232

> <Gold.Chemscore.ZeroCoef>
-5.4800

> <Gold.Chemscore.Hbond>
2.6000

> <Gold.Chemscore.Metal>
0.0000

> <Gold.Chemscore.Lipo>
82.5223

> <Gold.Chemscore.Internal_Hbond>
0.0000

> <Gold.Chemscore.DEClash>
0.1363

> <Gold.Chemscore.DEInternal>
1.7184

> <Gold.Chemscore.Rot>
1.9515

> <Gold.Chemscore.Internal.Correction>
   9.000000E+99

> <Gold.Chemscore.Hbonds>
donor molecule, donor type, donor heavy atom, donor atom, acceptor molecule, acceptor atom, score
      P1  H  6896  6907       L1     8  1.00
      P1  H  6931  6943       L1    16  0.12
      P1  H  6934  6947       L1    16  0.60

> <Gold.Chemscore.Hbond.Weighted>
-8.6840

> <Gold.Chemscore.Metal.Weighted>
-0.0000

> <Gold.Chemscore.Lipo.Weighted>
-9.6551

> <Gold.Chemscore.Internal_Hbond.Weighted>
0.0000

> <Gold.Chemscore.DEClash.Weighted>
0.1363

> <Gold.Chemscore.DEInternal.Weighted>
1.7184

> <Gold.Chemscore.Rot.Weighted>
4.9958

> <Gold.Chemscore.Internal.Correction.Weighted>
   9.000000E+99

> <Gold.Protein.RotatedTorsions>
[ 6907 6896 6895 6894 ] final  -51.79 input  -60.11 | X-H torsion
[ 7974 7965 7964 7962 ] final  148.62 input  175.53 | X-H torsion
[ 8008 7997 7996 7995 ] final -159.75 input   59.86 | X-H torsion
[ 10167 10162 10161 10158 ] final  143.97 input  -65.29 | X-H torsion
[ 10718 10713 10712 10709 ] final   71.69 input   66.30 | X-H torsion
[ 10763 10752 10751 10750 ] final  -71.56 input  -60.55 | X-H torsion
[ 11005 11000 10999 10996 ] final -153.66 input  -57.11 | X-H torsion

> <Gold.Protein.ActiveResidues>
 VAL166  LYS551  ARG553  GLY616  TRP617  ASP618  TYR619  PRO620  LYS621  CYS622 
 ASP623  PHE694  ASN695  SER759  ASP760  ASP761  ALA762  ILE779  LEU786  VAL792 
 PHE793  MET794  SER795  GLU796  ALA797  LYS798  CYS799  TRP800  GLU811  SER814 

> <Gold.Protein.RotatedAtoms>
  150.8579  134.7922  159.7059 H   0  0  0  0  0  0  0  0  0  0  0  0  # atno 6907 bound_to 6896
  152.4625  134.5149  159.9775 H   0  0  0  0  0  0  0  0  0  0  0  0  # atno 6908 bound_to 6896
  151.5258  133.3420  159.2945 H   0  0  0  0  0  0  0  0  0  0  0  0  # atno 6909 bound_to 6896
  144.8499  139.6177  143.5978 H   0  0  0  0  0  0  0  0  0  0  0  0  # atno 7974 bound_to 7965
  155.7672  140.0847  157.2126 H   0  0  0  0  0  0  0  0  0  0  0  0  # atno 8008 bound_to 7997
  154.3999  140.1532  156.2957 H   0  0  0  0  0  0  0  0  0  0  0  0  # atno 8009 bound_to 7997
  155.8782  140.3422  155.5872 H   0  0  0  0  0  0  0  0  0  0  0  0  # atno 8010 bound_to 7997
  139.4957  144.6004  151.6493 H   0  0  0  0  0  0  0  0  0  0  0  0  # atno 10167 bound_to 10162
  157.6464  130.9541  150.0824 H   0  0  0  0  0  0  0  0  0  0  0  0  # atno 10718 bound_to 10713
  154.4334  135.5958  153.6083 H   0  0  0  0  0  0  0  0  0  0  0  0  # atno 10763 bound_to 10752
  152.9800  135.5980  154.3811 H   0  0  0  0  0  0  0  0  0  0  0  0  # atno 10764 bound_to 10752
  154.3652  135.2841  155.2276 H   0  0  0  0  0  0  0  0  0  0  0  0  # atno 10765 bound_to 10752
  140.7057  134.3888  157.5204 H   0  0  0  0  0  0  0  0  0  0  0  0  # atno 11005 bound_to 11000
  146.2776  139.6794  142.9252 LP  0  0  0  0  0  0  0  0  0  0  0  0  # atno 17320 bound_to 7965
  145.4520  141.0429  143.2799 LP  0  0  0  0  0  0  0  0  0  0  0  0  # atno 17321 bound_to 7965
  140.5652  144.0201  150.6189 LP  0  0  0  0  0  0  0  0  0  0  0  0  # atno 17342 bound_to 10162
  140.3300  143.3083  152.0696 LP  0  0  0  0  0  0  0  0  0  0  0  0  # atno 17343 bound_to 10162
  156.1796  130.3649  149.9053 LP  0  0  0  0  0  0  0  0  0  0  0  0  # atno 17370 bound_to 10713
  156.7008  130.8932  151.3599 LP  0  0  0  0  0  0  0  0  0  0  0  0  # atno 17371 bound_to 10713
  139.8885  134.8855  156.2472 LP  0  0  0  0  0  0  0  0  0  0  0  0  # atno 17394 bound_to 11000
  141.0127  133.7086  156.1137 LP  0  0  0  0  0  0  0  0  0  0  0  0  # atno 17395 bound_to 11000

$$$$
