#       Name:                AV-unprocessed.smi:1131
#       Creating user name   scv26
#       Creation time:       Fri Mar 27 03:42:01 2020


#       File generated by GOLD software.
#

@<TRIPOS>MOLECULE
AV-unprocessed.smi:1131
    41    42     1
SMALL
NO_CHARGES


@<TRIPOS>ATOM
      1 ****        -0.2192   1.1779  -0.2571 O.2            1 S1                 0.0000
      2 ****         0.3652   0.1232  -0.5095 C.2            1 S1                 0.0000
      3 ****         1.8885   0.0092  -0.3522 C.3            1 S1                 0.0000
      4 ****         2.5661   1.3139  -0.3312 N.am           1 S1                 0.0000
      5 ****         2.9116   1.9041   0.8764 C.2            1 S1                 0.0000
      6 ****         3.5249   3.1079   0.9698 C.2            1 S1                 0.0000
      7 ****         3.8588   3.8619  -0.2337 C.2            1 S1                 0.0000
      8 ****         4.4144   4.9580  -0.2526 O.2            1 S1                 0.0000
      9 ****         3.4926   3.2366  -1.4286 N.am           1 S1                 0.0000
     10 ****         2.8597   1.9969  -1.5318 C.2            1 S1                 0.0000
     11 ****         2.5767   1.5374  -2.6376 O.2            1 S1                 0.0000
     12 ****        -0.2699  -0.9882  -0.9107 N.am           1 S1                 0.0000
     13 ****        -1.7101  -1.1049  -1.1130 C.3            1 S1                 0.0000
     14 ****        -2.4709  -1.2737   0.2161 C.3            1 S1                 0.0000
     15 ****        -2.1056  -2.5154   1.0055 C.3            1 S1                 0.0000
     16 ****        -3.3025  -2.6546   1.9406 C.3            1 S1                 0.0000
     17 ****        -4.4195  -2.1396   1.2216 O.3            1 S1                 0.0000
     18 ****        -3.9780  -1.4630   0.0479 C.3            1 S1                 0.0000
     19 ****         3.7009   3.7231  -2.2884 H              1 S1                 0.0000
     20 ****         2.0943  -0.5380   0.5692 H              1 S1                 0.0000
     21 ****         2.2952  -0.6125  -1.1526 H              1 S1                 0.0000
     22 ****         2.6792   1.3834   1.7945 H              1 S1                 0.0000
     23 ****         3.7681   3.5159   1.9403 H              1 S1                 0.0000
     24 ****         0.2845  -1.8123  -1.0922 H              1 S1                 0.0000
     25 ****        -2.0809  -0.2317  -1.6528 H              1 S1                 0.0000
     26 ****        -1.8899  -1.9642  -1.7597 H              1 S1                 0.0000
     27 ****        -2.3051  -0.3995   0.8481 H              1 S1                 0.0000
     28 ****        -2.0430  -3.3820   0.3459 H              1 S1                 0.0000
     29 ****        -1.1602  -2.4231   1.5407 H              1 S1                 0.0000
     30 ****        -3.4697  -3.6855   2.2532 H              1 S1                 0.0000
     31 ****        -3.1577  -2.0486   2.8357 H              1 S1                 0.0000
     32 ****        -4.5042  -0.5179  -0.0876 H              1 S1                 0.0000
     33 ****        -4.1957  -2.0960  -0.8134 H              1 S1                 0.0000
     34 ****         0.2989   1.9744   0.0548 LP             1 S1                 0.0000
     35 ****        -1.2116   1.2376  -0.3641 LP             1 S1                 0.0000
     36 ****         4.6744   5.4017   0.6050 LP             1 S1                 0.0000
     37 ****         4.6065   5.4062  -1.1257 LP             1 S1                 0.0000
     38 ****         2.1222   0.6496  -2.7087 LP             1 S1                 0.0000
     39 ****         2.8013   2.0519  -3.4652 LP             1 S1                 0.0000
     40 ****        -4.9205  -1.4991   1.8036 LP             1 S1                 0.0000
     41 ****        -5.0215  -2.8944   0.9613 LP             1 S1                 0.0000
@<TRIPOS>BOND
    1    1    2 2     
    2    2    3 1     
    3    2   12 am    
    4    3    4 1     
    5    3   20 1     
    6    3   21 1     
    7    4   10 1     
    8    4    5 1     
    9    5    6 2     
   10    5   22 1     
   11    6    7 1     
   12    6   23 1     
   13    7    8 2     
   14    7    9 1     
   15    9   19 1     
   16    9   10 1     
   17   10   11 2     
   18   12   13 1     
   19   12   24 1     
   20   13   14 1     
   21   13   25 1     
   22   13   26 1     
   23   14   18 1     
   24   14   15 1     
   25   14   27 1     
   26   15   16 1     
   27   15   28 1     
   28   15   29 1     
   29   16   17 1     
   30   16   30 1     
   31   16   31 1     
   32   17   18 1     
   33   18   32 1     
   34   18   33 1     
   35    1   34 1     
   36    1   35 1     
   37    8   36 1     
   38    8   37 1     
   39   11   38 1     
   40   11   39 1     
   41   17   40 1     
   42   17   41 1     
@<TRIPOS>SUBSTRUCTURE
      1 S1             1
@<TRIPOS>SET
LONE_PAIRS      STATIC     ATOMS    <user>   **** ""
8 34 35 36 37 38 39 40 41
DONOR_HYDROGENS      STATIC     ATOMS    <user>   **** ""
2 19 24
ATOM$BLUE        STATIC     ATOMS    COLORGROUP SYSTEM
8 34 35 36 37 38 39 40 41
ATOM$RED        STATIC     ATOMS    COLORGROUP SYSTEM
2 19 24
