AV-unprocessed.smi:3039|AV-procd|sdf|11593|dock7
  -GOLD-   2272016573D 1   1.00000     0.00000
 Structure written by MMmdl.
 38 39  0  0  0  0  0  0  0  0  1 V2000
  151.3467  140.5444  157.8526 O   0  0  0  0  0  0  0  0  0  0  0  0
  150.6506  141.5389  158.0558 C   0  0  0  0  0  0  0  0  0  0  0  0
  149.2086  141.5828  157.5495 C   0  0  0  0  0  0  0  0  0  0  0  0
  149.1459  141.1223  156.1170 C   0  0  0  0  0  0  0  0  0  0  0  0
  148.5585  141.7804  154.9993 C   0  0  0  0  0  0  0  0  0  0  0  0
  148.7923  140.9220  153.9640 C   0  0  0  0  0  0  0  0  0  0  0  0
  149.4703  139.8291  154.3966 O   0  0  0  0  0  0  0  0  0  0  0  0
  149.6930  139.9667  155.7713 N   0  0  0  0  0  0  0  0  0  0  0  0
  151.0828  142.6260  158.7141 N   0  0  0  0  0  0  0  0  0  0  0  0
  152.4113  142.8093  159.2953 C   0  0  2  0  0  0  0  0  0  0  0  0
  152.8223  141.5028  160.0147 C   0  0  0  0  0  0  0  0  0  0  0  0
  153.9961  141.6164  161.0004 C   0  0  0  0  0  0  0  0  0  0  0  0
  153.5395  142.0080  162.4166 C   0  0  0  0  0  0  0  0  0  0  0  0
  153.1066  143.4731  162.5763 C   0  0  0  0  0  0  0  0  0  0  0  0
  151.9966  143.9373  161.6146 C   0  0  0  0  0  0  0  0  0  0  0  0
  152.4858  144.1036  160.1571 C   0  0  2  0  0  0  0  0  0  0  0  0
  151.8790  145.3533  159.4716 C   0  0  0  0  0  0  0  0  0  0  0  0
  151.9368  146.5118  160.2819 O   0  0  0  0  0  0  0  0  0  0  0  0
  148.5833  140.9494  158.1799 H   0  0  0  0  0  0  0  0  0  0  0  0
  148.8214  142.5978  157.6521 H   0  0  0  0  0  0  0  0  0  0  0  0
  148.0428  142.7288  154.9645 H   0  0  0  0  0  0  0  0  0  0  0  0
  148.5517  140.9459  152.9114 H   0  0  0  0  0  0  0  0  0  0  0  0
  150.4399  143.3981  158.8176 H   0  0  0  0  0  0  0  0  0  0  0  0
  153.1113  142.9627  158.4713 H   0  0  0  0  0  0  0  0  0  0  0  0
  151.9637  141.0739  160.5342 H   0  0  0  0  0  0  0  0  0  0  0  0
  153.0847  140.7688  159.2515 H   0  0  0  0  0  0  0  0  0  0  0  0
  154.4715  140.6374  161.0684 H   0  0  0  0  0  0  0  0  0  0  0  0
  154.7649  142.2935  160.6266 H   0  0  0  0  0  0  0  0  0  0  0  0
  152.7294  141.3513  162.7359 H   0  0  0  0  0  0  0  0  0  0  0  0
  154.3590  141.8193  163.1110 H   0  0  0  0  0  0  0  0  0  0  0  0
  152.7576  143.6116  163.6002 H   0  0  0  0  0  0  0  0  0  0  0  0
  153.9758  144.1242  162.4760 H   0  0  0  0  0  0  0  0  0  0  0  0
  151.1320  143.2744  161.6632 H   0  0  0  0  0  0  0  0  0  0  0  0
  151.6465  144.9023  161.9828 H   0  0  0  0  0  0  0  0  0  0  0  0
  153.5485  144.3422  160.2181 H   0  0  0  0  0  0  0  0  0  0  0  0
  152.4208  145.5673  158.5498 H   0  0  0  0  0  0  0  0  0  0  0  0
  150.8429  145.1673  159.1866 H   0  0  0  0  0  0  0  0  0  0  0  0
  152.7413  146.4913  160.7777 H   0  0  0  0  0  0  0  0  0  0  0  0
  1  2  2  0  0  0  0
  2  3  1  0  0  0  0
  2  9  1  0  0  0  0
  3  4  1  0  0  0  0
  3 19  1  0  0  0  0
  3 20  1  0  0  0  0
  4  8  2  0  0  0  0
  4  5  1  0  0  0  0
  5  6  2  0  0  0  0
  5 21  1  0  0  0  0
  6  7  1  0  0  0  0
  6 22  1  0  0  0  0
  7  8  1  0  0  0  0
  9 10  1  0  0  0  0
  9 23  1  0  0  0  0
 10 16  1  0  0  0  0
 10 11  1  0  0  0  0
 10 24  1  0  0  0  0
 11 12  1  0  0  0  0
 11 25  1  0  0  0  0
 11 26  1  0  0  0  0
 12 13  1  0  0  0  0
 12 27  1  0  0  0  0
 12 28  1  0  0  0  0
 13 14  1  0  0  0  0
 13 29  1  0  0  0  0
 13 30  1  0  0  0  0
 14 15  1  0  0  0  0
 14 31  1  0  0  0  0
 14 32  1  0  0  0  0
 15 16  1  0  0  0  0
 15 33  1  0  0  0  0
 15 34  1  0  0  0  0
 16 17  1  0  0  0  0
 16 35  1  0  0  0  0
 17 18  1  0  0  0  0
 17 36  1  0  0  0  0
 17 37  1  0  0  0  0
 18 38  1  0  0  0  0
M  END
> <s_m_source_file>
AV-unprocessed.smi

> <i_m_source_file_index>
3039

> <i_lp_mmshare_version>
43012

> <i_f3d_flags>
0

> <s_epik_input>
bjFvW2NIXVtjSF1jMVtDSDJdQyg9TylbTkhdW0NAQEhdMltDSDJdW0NIMl1bQ0gyXVtDSDJdW0NIMl1bQ0BIXTJbQ0gyXVtPSF0=

> <s_epik_cmdline>
J2VwaWtfcHl0aG9uJywgJy1waCcsICc3LjAnLCAnLXRuJywgJzgnLCAnLW1hJywgJzIwMCcsICctbWV0YWxfYmluZGluZycsICctaW1hZScsICc8aW5maWxlLm1hZT4nLCAnLW9tYWUnLCAnPG91dGZpbGUubWFlPic=

> <r_lp_tautomer_probability>
1

> <r_epik_Ionization_Penalty>
3.05817e-07

> <r_epik_Ionization_Penalty_Charging>
0

> <r_epik_Ionization_Penalty_Neutral>
3.05817e-07

> <r_epik_State_Penalty>
-0

> <r_epik_Charging_Adjusted_Penalty>
0

> <i_epik_Tot_Q>
0

> <i_epik_Tot_abs_Q>
0

> <r_epik_Metal_State_Penalty>
-0

> <b_epik_Metal_Only>
0

> <s_lp_Force_Field>
OPLS_2005

> <r_lp_Energy>
21.1275

> <b_lp_Chiralities_Consistent>
1

> <s_lp_Variant>
AV-unprocessed.smi:3039-3

> <Gold.Version>
5.8.1

> <Gold.Id.Protein>
6NUR|6NUR_protein|mol2

> <Gold.PLP.Fitness>
44.0761

> <Gold.PLP.PLP>
-41.7944

> <Gold.PLP.part.hbond>
-3.1231

> <Gold.PLP.part.metal>
0.0000

> <Gold.PLP.part.buried>
-3.1243

> <Gold.PLP.part.nonpolar>
-35.7500

> <Gold.PLP.part.repulsive>
0.2106

> <Gold.PLP.ligand.clash>
0.0000

> <Gold.PLP.ligand.torsion>
0.3997

> <Gold.PLP.Chemscore.Hbond>
0.0000

> <Gold.PLP.Chemscore.CHOScore>
1.0000

> <Gold.PLP.Chemscore.Metal>
0.0000

> <Gold.Chemscore.Hbonds>
donor molecule, donor type, donor heavy atom, donor atom, acceptor molecule, acceptor atom, score
      L1  C     6    22       P1  7957  1.00

> <Gold.PLP.Chemscore.Internal.Correction>
0.0811

> <Gold.Rescore>
     Score         DG    S(hbond)    S(metal)    S(lipo)     H(rot)  DE(clash)    DE(int)     intcor
      9.19     -12.58       0.00        0.00     110.13       2.26       0.25       3.14       ----

> <Gold.Chemscore.Fitness>
9.1949

> <Gold.Chemscore.DG>
-12.5761

> <Gold.Chemscore.ZeroCoef>
-5.4800

> <Gold.Chemscore.Hbond>
0.0000

> <Gold.Chemscore.Metal>
0.0000

> <Gold.Chemscore.Lipo>
110.1345

> <Gold.Chemscore.Internal_Hbond>
0.0000

> <Gold.Chemscore.DEClash>
0.2452

> <Gold.Chemscore.DEInternal>
3.1361

> <Gold.Chemscore.Rot>
2.2616

> <Gold.Chemscore.Internal.Correction>
   9.000000E+99

> <Gold.Chemscore.Hbond.Weighted>
-0.0000

> <Gold.Chemscore.Metal.Weighted>
-0.0000

> <Gold.Chemscore.Lipo.Weighted>
-12.8857

> <Gold.Chemscore.Internal_Hbond.Weighted>
0.0000

> <Gold.Chemscore.DEClash.Weighted>
0.2452

> <Gold.Chemscore.DEInternal.Weighted>
3.1361

> <Gold.Chemscore.Rot.Weighted>
5.7896

> <Gold.Chemscore.Internal.Correction.Weighted>
   9.000000E+99

> <Gold.Protein.RotatedTorsions>
[ 6907 6896 6895 6894 ] final  -78.11 input  -60.11 | X-H torsion
[ 7974 7965 7964 7962 ] final -117.23 input  175.53 | X-H torsion
[ 8008 7997 7996 7995 ] final  127.42 input   59.86 | X-H torsion
[ 10167 10162 10161 10158 ] final   19.82 input  -65.29 | X-H torsion
[ 10718 10713 10712 10709 ] final   71.72 input   66.30 | X-H torsion
[ 10763 10752 10751 10750 ] final  168.86 input  -60.55 | X-H torsion
[ 11005 11000 10999 10996 ] final  149.98 input  -57.11 | X-H torsion

> <Gold.Protein.ActiveResidues>
 VAL166  LYS551  ARG553  GLY616  TRP617  ASP618  TYR619  PRO620  LYS621  CYS622 
 ASP623  PHE694  ASN695  SER759  ASP760  ASP761  ALA762  ILE779  LEU786  VAL792 
 PHE793  MET794  SER795  GLU796  ALA797  LYS798  CYS799  TRP800  GLU811  SER814 

> <Gold.Protein.RotatedAtoms>
  150.6981  134.4321  159.5253 H   0  0  0  0  0  0  0  0  0  0  0  0  # atno 6907 bound_to 6896
  152.2046  134.8554  160.0513 H   0  0  0  0  0  0  0  0  0  0  0  0  # atno 6908 bound_to 6896
  151.9462  133.3617  159.4020 H   0  0  0  0  0  0  0  0  0  0  0  0  # atno 6909 bound_to 6896
  145.0877  140.8468  143.4001 H   0  0  0  0  0  0  0  0  0  0  0  0  # atno 7974 bound_to 7965
  156.2890  140.2669  156.2271 H   0  0  0  0  0  0  0  0  0  0  0  0  # atno 8008 bound_to 7997
  155.0110  140.0387  157.2417 H   0  0  0  0  0  0  0  0  0  0  0  0  # atno 8009 bound_to 7997
  154.7518  140.2744  155.6291 H   0  0  0  0  0  0  0  0  0  0  0  0  # atno 8010 bound_to 7997
  140.5550  143.9441  150.6603 H   0  0  0  0  0  0  0  0  0  0  0  0  # atno 10167 bound_to 10162
  157.6465  130.9542  150.0828 H   0  0  0  0  0  0  0  0  0  0  0  0  # atno 10718 bound_to 10713
  154.3748  135.2753  155.2246 H   0  0  0  0  0  0  0  0  0  0  0  0  # atno 10763 bound_to 10752
  154.4378  135.5962  153.6113 H   0  0  0  0  0  0  0  0  0  0  0  0  # atno 10764 bound_to 10752
  152.9837  135.6011  154.3983 H   0  0  0  0  0  0  0  0  0  0  0  0  # atno 10765 bound_to 10752
  140.1092  134.8935  157.1910 H   0  0  0  0  0  0  0  0  0  0  0  0  # atno 11005 bound_to 11000
  145.1103  139.2761  143.5641 LP  0  0  0  0  0  0  0  0  0  0  0  0  # atno 17320 bound_to 7965
  146.3531  140.0697  142.8624 LP  0  0  0  0  0  0  0  0  0  0  0  0  # atno 17321 bound_to 7965
  140.2877  143.3346  152.1092 LP  0  0  0  0  0  0  0  0  0  0  0  0  # atno 17342 bound_to 10162
  139.5044  144.6774  151.6094 LP  0  0  0  0  0  0  0  0  0  0  0  0  # atno 17343 bound_to 10162
  156.1799  130.3649  149.9049 LP  0  0  0  0  0  0  0  0  0  0  0  0  # atno 17370 bound_to 10713
  156.7004  130.8931  151.3598 LP  0  0  0  0  0  0  0  0  0  0  0  0  # atno 17371 bound_to 10713
  140.3115  134.3019  155.7266 LP  0  0  0  0  0  0  0  0  0  0  0  0  # atno 17394 bound_to 11000
  141.2126  133.7653  156.9783 LP  0  0  0  0  0  0  0  0  0  0  0  0  # atno 17395 bound_to 11000

$$$$
