AV-unprocessed.smi:3212|AV-procd|sdf|12281|dock6
  -GOLD-   2272018113D 1   1.00000     0.00000
 Structure written by MMmdl.
 39 39  0  0  0  0  0  0  0  0  1 V2000
  144.3839  138.0118  153.7787 C   0  0  0  0  0  0  0  0  0  0  0  0
  145.8733  137.6485  153.6753 C   0  0  1  0  0  0  0  0  0  0  0  0
  146.1987  137.2809  152.2824 N   0  0  0  0  0  0  0  0  0  0  0  0
  145.4549  136.1582  151.7083 C   0  0  0  0  0  0  0  0  0  0  0  0
  146.2638  134.8457  151.6536 C   0  0  0  0  0  0  0  0  0  0  0  0
  145.4619  133.7121  151.2302 N   0  0  0  0  0  0  0  0  0  0  0  0
  145.8528  132.4004  151.0627 C   0  0  0  0  0  0  0  0  0  0  0  0
  144.7556  131.6991  150.6524 C   0  0  0  0  0  0  0  0  0  0  0  0
  143.7279  132.6816  150.5965 C   0  0  0  0  0  0  0  0  0  0  0  0
  144.1546  133.8862  150.9393 N   0  0  0  0  0  0  0  0  0  0  0  0
  146.7460  138.7856  154.2313 C   0  0  0  0  0  0  0  0  0  0  0  0
  147.7500  138.5215  154.8926 O   0  0  0  0  0  0  0  0  0  0  0  0
  146.3217  140.0362  153.9761 N   0  0  0  0  0  0  0  0  0  0  0  0
  146.9072  141.3077  154.4148 C   0  0  0  0  0  0  0  0  0  0  0  0
  148.3643  141.3204  153.9205 C   0  0  0  0  0  0  0  0  0  0  0  0
  146.8990  141.4157  155.9543 C   0  0  0  0  0  0  0  0  0  0  0  0
  146.1515  142.4944  153.7810 C   0  0  0  0  0  0  0  0  0  0  0  0
  144.1087  138.2727  154.8013 H   0  0  0  0  0  0  0  0  0  0  0  0
  143.7565  137.1719  153.4780 H   0  0  0  0  0  0  0  0  0  0  0  0
  144.1299  138.8583  153.1393 H   0  0  0  0  0  0  0  0  0  0  0  0
  146.0253  136.7679  154.3006 H   0  0  0  0  0  0  0  0  0  0  0  0
  147.1873  137.0987  152.1823 H   0  0  0  0  0  0  0  0  0  0  0  0
  144.5711  136.0050  152.3284 H   0  0  0  0  0  0  0  0  0  0  0  0
  145.0738  136.4105  150.7186 H   0  0  0  0  0  0  0  0  0  0  0  0
  147.0907  134.9567  150.9511 H   0  0  0  0  0  0  0  0  0  0  0  0
  146.7192  134.6172  152.6171 H   0  0  0  0  0  0  0  0  0  0  0  0
  146.8668  132.0791  151.2503 H   0  0  0  0  0  0  0  0  0  0  0  0
  144.6955  130.6447  150.4276 H   0  0  0  0  0  0  0  0  0  0  0  0
  142.6922  132.5566  150.3174 H   0  0  0  0  0  0  0  0  0  0  0  0
  145.4796  140.1169  153.4252 H   0  0  0  0  0  0  0  0  0  0  0  0
  148.8732  142.2420  154.2053 H   0  0  0  0  0  0  0  0  0  0  0  0
  148.4168  141.2405  152.8339 H   0  0  0  0  0  0  0  0  0  0  0  0
  148.9338  140.4896  154.3391 H   0  0  0  0  0  0  0  0  0  0  0  0
  147.3919  140.5590  156.4150 H   0  0  0  0  0  0  0  0  0  0  0  0
  145.8881  141.4710  156.3583 H   0  0  0  0  0  0  0  0  0  0  0  0
  147.4227  142.3127  156.2865 H   0  0  0  0  0  0  0  0  0  0  0  0
  146.6317  143.4419  154.0275 H   0  0  0  0  0  0  0  0  0  0  0  0
  145.1213  142.5580  154.1310 H   0  0  0  0  0  0  0  0  0  0  0  0
  146.1254  142.4131  152.6937 H   0  0  0  0  0  0  0  0  0  0  0  0
  1  2  1  0  0  0  0
  1 18  1  0  0  0  0
  1 19  1  0  0  0  0
  1 20  1  0  0  0  0
  2  3  1  0  0  0  0
  2 11  1  0  0  0  0
  2 21  1  0  0  0  0
  3  4  1  0  0  0  0
  3 22  1  0  0  0  0
  4  5  1  0  0  0  0
  4 23  1  0  0  0  0
  4 24  1  0  0  0  0
  5  6  1  0  0  0  0
  5 25  1  0  0  0  0
  5 26  1  0  0  0  0
  6 10  1  0  0  0  0
  6  7  1  0  0  0  0
  7  8  2  0  0  0  0
  7 27  1  0  0  0  0
  8  9  1  0  0  0  0
  8 28  1  0  0  0  0
  9 10  2  0  0  0  0
  9 29  1  0  0  0  0
 11 12  2  0  0  0  0
 11 13  1  0  0  0  0
 13 14  1  0  0  0  0
 13 30  1  0  0  0  0
 14 15  1  0  0  0  0
 14 16  1  0  0  0  0
 14 17  1  0  0  0  0
 15 31  1  0  0  0  0
 15 32  1  0  0  0  0
 15 33  1  0  0  0  0
 16 34  1  0  0  0  0
 16 35  1  0  0  0  0
 16 36  1  0  0  0  0
 17 37  1  0  0  0  0
 17 38  1  0  0  0  0
 17 39  1  0  0  0  0
M  END
> <s_m_source_file>
AV-unprocessed.smi

> <i_m_source_file_index>
3212

> <i_lp_mmshare_version>
43012

> <i_f3d_flags>
0

> <s_epik_input>
W0NIM11DKFtDSDNdKShbQ0gzXSlbTkhdQyg9TylbQ0BIXShbQ0gzXSlbTkhdW0NIMl1bQ0gyXW4xW2NIXVtjSF1bY0hdbjE=

> <s_epik_cmdline>
J2VwaWtfcHl0aG9uJywgJy1waCcsICc3LjAnLCAnLXRuJywgJzgnLCAnLW1hJywgJzIwMCcsICctbWV0YWxfYmluZGluZycsICctaW1hZScsICc8aW5maWxlLm1hZT4nLCAnLW9tYWUnLCAnPG91dGZpbGUubWFlPic=

> <r_lp_tautomer_probability>
1

> <r_epik_Ionization_Penalty>
0.745735

> <r_epik_Ionization_Penalty_Charging>
0

> <r_epik_Ionization_Penalty_Neutral>
0.745735

> <r_epik_State_Penalty>
0.771152

> <r_epik_Charging_Adjusted_Penalty>
0.771152

> <i_epik_Tot_Q>
0

> <i_epik_Tot_abs_Q>
0

> <r_epik_Metal_State_Penalty>
0.770403

> <b_epik_Metal_Only>
0

> <s_lp_Force_Field>
OPLS_2005

> <r_lp_Energy>
7.05168

> <b_lp_Chiralities_Consistent>
1

> <s_lp_Variant>
AV-unprocessed.smi:3212-4

> <Gold.Version>
5.8.1

> <Gold.Id.Protein>
6NUR|6NUR_protein|mol2

> <Gold.PLP.Fitness>
36.4755

> <Gold.PLP.PLP>
-26.4312

> <Gold.PLP.part.hbond>
-2.0000

> <Gold.PLP.part.metal>
0.0000

> <Gold.PLP.part.buried>
-0.9754

> <Gold.PLP.part.nonpolar>
-24.2778

> <Gold.PLP.part.repulsive>
0.2580

> <Gold.PLP.ligand.clash>
0.0000

> <Gold.PLP.ligand.torsion>
0.9994

> <Gold.PLP.Chemscore.Hbond>
1.9913

> <Gold.PLP.Chemscore.CHOScore>
2.0000

> <Gold.PLP.Chemscore.Metal>
0.0000

> <Gold.Chemscore.Hbonds>
donor molecule, donor type, donor heavy atom, donor atom, acceptor molecule, acceptor atom, score
      L1  H     3    22       P1  7948  1.00
      L1  H    13    30       P1 10175  0.91
      L1  C     7    27       P1 10747  0.76
      L1  C     9    29       P1 10186  0.74

> <Gold.PLP.Chemscore.Internal.Correction>
0.0693

> <Gold.Rescore>
     Score         DG    S(hbond)    S(metal)    S(lipo)     H(rot)  DE(clash)    DE(int)     intcor
     12.52     -15.59       2.00        0.00      72.93       1.99       1.23       1.83       ----

> <Gold.Chemscore.Fitness>
12.5243

> <Gold.Chemscore.DG>
-15.5926

> <Gold.Chemscore.ZeroCoef>
-5.4800

> <Gold.Chemscore.Hbond>
1.9967

> <Gold.Chemscore.Metal>
0.0000

> <Gold.Chemscore.Lipo>
72.9305

> <Gold.Chemscore.Internal_Hbond>
0.0000

> <Gold.Chemscore.DEClash>
1.2336

> <Gold.Chemscore.DEInternal>
1.8347

> <Gold.Chemscore.Rot>
1.9880

> <Gold.Chemscore.Internal.Correction>
   9.000000E+99

> <Gold.Chemscore.Hbonds>
donor molecule, donor type, donor heavy atom, donor atom, acceptor molecule, acceptor atom, score
      L1  H     3    22       P1  7948  0.98
      L1  H    13    30       P1 10175  0.89

> <Gold.Chemscore.Hbond.Weighted>
-6.6691

> <Gold.Chemscore.Metal.Weighted>
-0.0000

> <Gold.Chemscore.Lipo.Weighted>
-8.5329

> <Gold.Chemscore.Internal_Hbond.Weighted>
0.0000

> <Gold.Chemscore.DEClash.Weighted>
1.2336

> <Gold.Chemscore.DEInternal.Weighted>
1.8347

> <Gold.Chemscore.Rot.Weighted>
5.0893

> <Gold.Chemscore.Internal.Correction.Weighted>
   9.000000E+99

> <Gold.Protein.RotatedTorsions>
[ 6907 6896 6895 6894 ] final  103.00 input  -60.11 | X-H torsion
[ 7974 7965 7964 7962 ] final  -74.19 input  175.53 | X-H torsion
[ 8008 7997 7996 7995 ] final  -35.76 input   59.86 | X-H torsion
[ 10167 10162 10161 10158 ] final    2.60 input  -65.29 | X-H torsion
[ 10718 10713 10712 10709 ] final  132.51 input   66.30 | X-H torsion
[ 10763 10752 10751 10750 ] final   -3.34 input  -60.55 | X-H torsion
[ 11005 11000 10999 10996 ] final   54.57 input  -57.11 | X-H torsion

> <Gold.Protein.ActiveResidues>
 VAL166  LYS551  ARG553  GLY616  TRP617  ASP618  TYR619  PRO620  LYS621  CYS622 
 ASP623  PHE694  ASN695  SER759  ASP760  ASP761  ALA762  ILE779  LEU786  VAL792 
 PHE793  MET794  SER795  GLU796  ALA797  LYS798  CYS799  TRP800  GLU811  SER814 

> <Gold.Protein.RotatedAtoms>
  152.5308  133.9891  159.7842 H   0  0  0  0  0  0  0  0  0  0  0  0  # atno 6907 bound_to 6896
  151.0130  133.5939  159.2687 H   0  0  0  0  0  0  0  0  0  0  0  0  # atno 6908 bound_to 6896
  151.3006  135.0774  159.9290 H   0  0  0  0  0  0  0  0  0  0  0  0  # atno 6909 bound_to 6896
  145.6424  140.9307  143.1029 H   0  0  0  0  0  0  0  0  0  0  0  0  # atno 7974 bound_to 7965
  154.4088  140.1648  156.2264 H   0  0  0  0  0  0  0  0  0  0  0  0  # atno 8008 bound_to 7997
  155.9320  140.3414  155.6233 H   0  0  0  0  0  0  0  0  0  0  0  0  # atno 8009 bound_to 7997
  155.7095  140.0755  157.2367 H   0  0  0  0  0  0  0  0  0  0  0  0  # atno 8010 bound_to 7997
  140.6627  143.7262  150.7768 H   0  0  0  0  0  0  0  0  0  0  0  0  # atno 10167 bound_to 10162
  157.4864  131.1088  150.9615 H   0  0  0  0  0  0  0  0  0  0  0  0  # atno 10718 bound_to 10713
  153.3700  135.6994  153.6645 H   0  0  0  0  0  0  0  0  0  0  0  0  # atno 10763 bound_to 10752
  153.5299  135.3594  155.2671 H   0  0  0  0  0  0  0  0  0  0  0  0  # atno 10764 bound_to 10752
  154.8680  135.4178  154.2976 H   0  0  0  0  0  0  0  0  0  0  0  0  # atno 10765 bound_to 10752
  140.0675  134.5515  155.9082 H   0  0  0  0  0  0  0  0  0  0  0  0  # atno 11005 bound_to 11000
  144.7152  139.8221  143.7401 LP  0  0  0  0  0  0  0  0  0  0  0  0  # atno 17320 bound_to 7965
  146.1270  139.4298  143.0192 LP  0  0  0  0  0  0  0  0  0  0  0  0  # atno 17321 bound_to 7965
  140.0933  143.4857  152.2466 LP  0  0  0  0  0  0  0  0  0  0  0  0  # atno 17342 bound_to 10162
  139.5866  144.7533  151.3506 LP  0  0  0  0  0  0  0  0  0  0  0  0  # atno 17343 bound_to 10162
  157.0331  130.5719  149.5346 LP  0  0  0  0  0  0  0  0  0  0  0  0  # atno 17370 bound_to 10713
  156.0149  130.5242  150.8103 LP  0  0  0  0  0  0  0  0  0  0  0  0  # atno 17371 bound_to 10713
  141.1999  133.6609  156.5867 LP  0  0  0  0  0  0  0  0  0  0  0  0  # atno 17394 bound_to 11000
  140.3676  134.7633  157.4577 LP  0  0  0  0  0  0  0  0  0  0  0  0  # atno 17395 bound_to 11000

$$$$
