AV-unprocessed.smi:3132|AV-procd|sdf|11934|dock3
  -GOLD-   2272017323D 1   1.00000     0.00000
 Structure written by MMmdl.
 33 34  0  0  0  0  0  0  0  0  1 V2000
  149.0647  140.7947  157.6498 C   0  0  0  0  0  0  0  0  0  0  0  0
  150.3387  141.0902  156.8472 C   0  0  1  0  0  0  0  0  0  0  0  0
  150.0125  141.8122  155.5223 C   0  0  0  0  0  0  0  0  0  0  0  0
  148.8690  141.2378  154.8367 N   0  0  0  0  0  0  0  0  0  0  0  0
  147.6891  141.8826  154.4890 C   0  0  0  0  0  0  0  0  0  0  0  0
  146.9045  140.9488  153.8508 C   0  0  0  0  0  0  0  0  0  0  0  0
  147.5745  139.7289  153.8005 N   0  0  0  0  0  0  0  0  0  0  0  0
  148.7292  139.9770  154.4049 C   0  0  0  0  0  0  0  0  0  0  0  0
  151.2417  141.8945  157.6699 N   0  0  0  0  0  0  0  0  0  0  0  0
  151.9570  141.4491  158.7151 C   0  0  0  0  0  0  0  0  0  0  0  0
  151.9053  140.2884  159.1239 O   0  0  0  0  0  0  0  0  0  0  0  0
  152.8757  142.4754  159.3950 C   0  0  2  0  0  0  0  0  0  0  0  0
  152.4865  142.7711  160.8572 C   0  0  0  0  0  0  0  0  0  0  0  0
  152.2040  144.2637  160.8778 C   0  0  0  0  0  0  0  0  0  0  0  0
  151.8719  144.5680  159.4243 C   0  0  0  0  0  0  0  0  0  0  0  0
  152.7646  143.7235  158.7123 O   0  0  0  0  0  0  0  0  0  0  0  0
  148.3779  140.1694  157.0791 H   0  0  0  0  0  0  0  0  0  0  0  0
  148.5381  141.7126  157.9133 H   0  0  0  0  0  0  0  0  0  0  0  0
  149.2972  140.2659  158.5749 H   0  0  0  0  0  0  0  0  0  0  0  0
  150.8027  140.1291  156.6177 H   0  0  0  0  0  0  0  0  0  0  0  0
  149.7923  142.8636  155.7125 H   0  0  0  0  0  0  0  0  0  0  0  0
  150.8722  141.7906  154.8508 H   0  0  0  0  0  0  0  0  0  0  0  0
  147.5132  142.9246  154.7115 H   0  0  0  0  0  0  0  0  0  0  0  0
  145.9172  141.0600  153.4279 H   0  0  0  0  0  0  0  0  0  0  0  0
  149.4949  139.2254  154.5305 H   0  0  0  0  0  0  0  0  0  0  0  0
  151.3437  142.8655  157.4125 H   0  0  0  0  0  0  0  0  0  0  0  0
  153.9134  142.1442  159.3357 H   0  0  0  0  0  0  0  0  0  0  0  0
  151.5997  142.2162  161.1682 H   0  0  0  0  0  0  0  0  0  0  0  0
  153.2870  142.5108  161.5500 H   0  0  0  0  0  0  0  0  0  0  0  0
  151.4019  144.5386  161.5634 H   0  0  0  0  0  0  0  0  0  0  0  0
  153.1032  144.8068  161.1712 H   0  0  0  0  0  0  0  0  0  0  0  0
  150.8400  144.2998  159.1941 H   0  0  0  0  0  0  0  0  0  0  0  0
  152.0197  145.6171  159.1681 H   0  0  0  0  0  0  0  0  0  0  0  0
  1  2  1  0  0  0  0
  1 17  1  0  0  0  0
  1 18  1  0  0  0  0
  1 19  1  0  0  0  0
  2  3  1  0  0  0  0
  2  9  1  0  0  0  0
  2 20  1  0  0  0  0
  3  4  1  0  0  0  0
  3 21  1  0  0  0  0
  3 22  1  0  0  0  0
  4  8  1  0  0  0  0
  4  5  1  0  0  0  0
  5  6  2  0  0  0  0
  5 23  1  0  0  0  0
  6  7  1  0  0  0  0
  6 24  1  0  0  0  0
  7  8  2  0  0  0  0
  8 25  1  0  0  0  0
  9 10  1  0  0  0  0
  9 26  1  0  0  0  0
 10 11  2  0  0  0  0
 10 12  1  0  0  0  0
 12 16  1  0  0  0  0
 12 13  1  0  0  0  0
 12 27  1  0  0  0  0
 13 14  1  0  0  0  0
 13 28  1  0  0  0  0
 13 29  1  0  0  0  0
 14 15  1  0  0  0  0
 14 30  1  0  0  0  0
 14 31  1  0  0  0  0
 15 16  1  0  0  0  0
 15 32  1  0  0  0  0
 15 33  1  0  0  0  0
M  END
> <s_m_source_file>
AV-unprocessed.smi

> <i_m_source_file_index>
3132

> <i_lp_mmshare_version>
43012

> <i_f3d_flags>
0

> <s_epik_input>
W2NIXTFuW2NIXVtjSF1uMVtDSDJdW0NAQEhdKFtDSDNdKVtOSF1DKD1PKVtDQEBIXTJbQ0gyXVtDSDJdW0NIMl1PMg==

> <s_epik_cmdline>
J2VwaWtfcHl0aG9uJywgJy1waCcsICc3LjAnLCAnLXRuJywgJzgnLCAnLW1hJywgJzIwMCcsICctbWV0YWxfYmluZGluZycsICctaW1hZScsICc8aW5maWxlLm1hZT4nLCAnLW9tYWUnLCAnPG91dGZpbGUubWFlPic=

> <r_lp_tautomer_probability>
1

> <r_epik_Ionization_Penalty>
0.630322

> <r_epik_Ionization_Penalty_Charging>
0.630322

> <r_epik_Ionization_Penalty_Neutral>
3.82652e-08

> <r_epik_State_Penalty>
0.647117

> <r_epik_Charging_Adjusted_Penalty>
1.27744

> <i_epik_Tot_Q>
0

> <i_epik_Tot_abs_Q>
0

> <r_epik_Metal_State_Penalty>
0.309095

> <b_epik_Metal_Only>
0

> <s_lp_Force_Field>
OPLS_2005

> <r_lp_Energy>
20.2845

> <b_lp_Chiralities_Consistent>
1

> <s_lp_Variant>
AV-unprocessed.smi:3132-6

> <Gold.Version>
5.8.1

> <Gold.Id.Protein>
6NUR|6NUR_protein|mol2

> <Gold.PLP.Fitness>
40.0175

> <Gold.PLP.PLP>
-34.6470

> <Gold.PLP.part.hbond>
0.0000

> <Gold.PLP.part.metal>
0.0000

> <Gold.PLP.part.buried>
-5.8476

> <Gold.PLP.part.nonpolar>
-29.4272

> <Gold.PLP.part.repulsive>
0.2315

> <Gold.PLP.ligand.clash>
0.0000

> <Gold.PLP.ligand.torsion>
0.3252

> <Gold.PLP.Chemscore.Hbond>
0.0000

> <Gold.PLP.Chemscore.CHOScore>
2.0000

> <Gold.PLP.Chemscore.Metal>
0.0000

> <Gold.Chemscore.Hbonds>
donor molecule, donor type, donor heavy atom, donor atom, acceptor molecule, acceptor atom, score
      L1  C     5    23       P1  8028  1.00
      L1  C     6    24       P1 10175  1.00

> <Gold.PLP.Chemscore.Internal.Correction>
0.0209

> <Gold.Rescore>
     Score         DG    S(hbond)    S(metal)    S(lipo)     H(rot)  DE(clash)    DE(int)     intcor
      9.56      -9.82       0.00        0.00      77.86       1.86       0.03       0.23       ----

> <Gold.Chemscore.Fitness>
9.5554

> <Gold.Chemscore.DG>
-9.8185

> <Gold.Chemscore.ZeroCoef>
-5.4800

> <Gold.Chemscore.Hbond>
0.0000

> <Gold.Chemscore.Metal>
0.0000

> <Gold.Chemscore.Lipo>
77.8580

> <Gold.Chemscore.Internal_Hbond>
0.0000

> <Gold.Chemscore.DEClash>
0.0282

> <Gold.Chemscore.DEInternal>
0.2349

> <Gold.Chemscore.Rot>
1.8636

> <Gold.Chemscore.Internal.Correction>
   9.000000E+99

> <Gold.Chemscore.Hbond.Weighted>
-0.0000

> <Gold.Chemscore.Metal.Weighted>
-0.0000

> <Gold.Chemscore.Lipo.Weighted>
-9.1094

> <Gold.Chemscore.Internal_Hbond.Weighted>
0.0000

> <Gold.Chemscore.DEClash.Weighted>
0.0282

> <Gold.Chemscore.DEInternal.Weighted>
0.2349

> <Gold.Chemscore.Rot.Weighted>
4.7709

> <Gold.Chemscore.Internal.Correction.Weighted>
   9.000000E+99

> <Gold.Protein.RotatedTorsions>
[ 6907 6896 6895 6894 ] final   -3.91 input  -60.11 | X-H torsion
[ 7974 7965 7964 7962 ] final -126.02 input  175.53 | X-H torsion
[ 8008 7997 7996 7995 ] final -120.83 input   59.86 | X-H torsion
[ 10167 10162 10161 10158 ] final   34.21 input  -65.29 | X-H torsion
[ 10718 10713 10712 10709 ] final   50.86 input   66.30 | X-H torsion
[ 10763 10752 10751 10750 ] final  147.48 input  -60.55 | X-H torsion
[ 11005 11000 10999 10996 ] final   22.29 input  -57.11 | X-H torsion

> <Gold.Protein.ActiveResidues>
 VAL166  LYS551  ARG553  GLY616  TRP617  ASP618  TYR619  PRO620  LYS621  CYS622 
 ASP623  PHE694  ASN695  SER759  ASP760  ASP761  ALA762  ILE779  LEU786  VAL792 
 PHE793  MET794  SER795  GLU796  ALA797  LYS798  CYS799  TRP800  GLU811  SER814 

> <Gold.Protein.RotatedAtoms>
  151.5062  135.1063  159.9841 H   0  0  0  0  0  0  0  0  0  0  0  0  # atno 6907 bound_to 6896
  152.4681  133.7964  159.6940 H   0  0  0  0  0  0  0  0  0  0  0  0  # atno 6908 bound_to 6896
  150.8675  133.7490  159.2997 H   0  0  0  0  0  0  0  0  0  0  0  0  # atno 6909 bound_to 6896
  144.9916  140.7737  143.4551 H   0  0  0  0  0  0  0  0  0  0  0  0  # atno 7974 bound_to 7965
  155.1382  140.0401  157.2792 H   0  0  0  0  0  0  0  0  0  0  0  0  # atno 8008 bound_to 7997
  154.6493  140.2565  155.7206 H   0  0  0  0  0  0  0  0  0  0  0  0  # atno 8009 bound_to 7997
  156.2569  140.2839  156.0919 H   0  0  0  0  0  0  0  0  0  0  0  0  # atno 8010 bound_to 7997
  140.4336  144.1289  150.6163 H   0  0  0  0  0  0  0  0  0  0  0  0  # atno 10167 bound_to 10162
  157.4925  130.8385  149.8220 H   0  0  0  0  0  0  0  0  0  0  0  0  # atno 10718 bound_to 10713
  154.0390  135.2891  155.3358 H   0  0  0  0  0  0  0  0  0  0  0  0  # atno 10763 bound_to 10752
  154.6941  135.5215  153.8436 H   0  0  0  0  0  0  0  0  0  0  0  0  # atno 10764 bound_to 10752
  153.0608  135.6613  154.0596 H   0  0  0  0  0  0  0  0  0  0  0  0  # atno 10765 bound_to 10752
  140.3822  134.1908  155.7663 H   0  0  0  0  0  0  0  0  0  0  0  0  # atno 11005 bound_to 11000
  145.2278  139.2129  143.5059 LP  0  0  0  0  0  0  0  0  0  0  0  0  # atno 17320 bound_to 7965
  146.3432  140.2149  142.8590 LP  0  0  0  0  0  0  0  0  0  0  0  0  # atno 17321 bound_to 7965
  140.4399  143.2531  151.9486 LP  0  0  0  0  0  0  0  0  0  0  0  0  # atno 17342 bound_to 10162
  139.4786  144.5664  151.8158 LP  0  0  0  0  0  0  0  0  0  0  0  0  # atno 17343 bound_to 10162
  156.0182  130.3805  150.2045 LP  0  0  0  0  0  0  0  0  0  0  0  0  # atno 17370 bound_to 10713
  157.0234  130.9986  151.3333 LP  0  0  0  0  0  0  0  0  0  0  0  0  # atno 17371 bound_to 10713
  141.1919  133.8184  157.0859 LP  0  0  0  0  0  0  0  0  0  0  0  0  # atno 17394 bound_to 11000
  140.0470  134.9825  157.1066 LP  0  0  0  0  0  0  0  0  0  0  0  0  # atno 17395 bound_to 11000

$$$$
