AV-unprocessed.smi:1279|AV-procd|sdf|5355|dock9
  -GOLD-   22720 4493D 1   1.00000     0.00000
 Structure written by MMmdl.
 46 47  0  0  0  0  0  0  0  0  2 V2000
  153.6908  142.1346  160.8658 C   0  0  0  0  0  0  0  0  0  0  0  0
  152.7204  142.6080  159.8243 C   0  0  0  0  0  0  0  0  0  0  0  0
  152.0319  141.8310  158.8476 C   0  0  0  0  0  0  0  0  0  0  0  0
  151.2961  142.7712  158.1794 C   0  0  0  0  0  0  0  0  0  0  0  0
  150.4378  142.6042  157.1383 N   0  0  0  0  0  0  0  0  0  0  0  0
  150.0248  141.4603  156.5651 C   0  0  0  0  0  0  0  0  0  0  0  0
  150.3654  140.3261  156.9022 O   0  0  0  0  0  0  0  0  0  0  0  0
  149.1798  141.7030  155.5527 N   0  0  0  0  0  0  0  0  0  0  0  0
  148.5448  140.6791  154.7307 C   0  0  0  0  0  0  0  0  0  0  0  0
  147.2089  141.1719  154.1409 C   0  0  0  0  0  0  0  0  0  0  0  0
  146.5489  140.1457  153.2949 N   0  3  2  0  0  0  0  0  0  0  0  0
  146.2899  138.8867  154.0407 C   0  0  0  0  0  0  0  0  0  0  0  0
  145.4868  137.8887  153.1896 C   0  0  0  0  0  0  0  0  0  0  0  0
  146.2010  137.5847  151.8624 C   0  0  1  0  0  0  0  0  0  0  0  0
  145.3935  136.6131  150.9902 C   0  0  0  0  0  0  0  0  0  0  0  0
  146.4857  138.9058  151.1290 C   0  0  0  0  0  0  0  0  0  0  0  0
  147.2696  139.8832  152.0206 C   0  0  0  0  0  0  0  0  0  0  0  0
  151.5425  144.0069  158.7354 N   0  0  0  0  0  0  0  0  0  0  0  0
  150.9999  145.3034  158.3788 C   0  0  0  0  0  0  0  0  0  0  0  0
  152.4240  143.9008  159.7529 N   0  0  0  0  0  0  0  0  0  0  0  0
  153.8452  141.0574  160.7997 H   0  0  0  0  0  0  0  0  0  0  0  0
  153.3287  142.3570  161.8700 H   0  0  0  0  0  0  0  0  0  0  0  0
  154.6615  142.6163  160.7459 H   0  0  0  0  0  0  0  0  0  0  0  0
  152.0832  140.7651  158.6845 H   0  0  0  0  0  0  0  0  0  0  0  0
  150.0746  143.4583  156.7416 H   0  0  0  0  0  0  0  0  0  0  0  0
  148.9511  142.6639  155.3429 H   0  0  0  0  0  0  0  0  0  0  0  0
  149.2234  140.3682  153.9344 H   0  0  0  0  0  0  0  0  0  0  0  0
  148.3929  139.8078  155.3664 H   0  0  0  0  0  0  0  0  0  0  0  0
  146.5291  141.4934  154.9317 H   0  0  0  0  0  0  0  0  0  0  0  0
  147.4086  142.0544  153.5315 H   0  0  0  0  0  0  0  0  0  0  0  0
  147.2381  138.4424  154.3481 H   0  0  0  0  0  0  0  0  0  0  0  0
  145.7317  139.1049  154.9518 H   0  0  0  0  0  0  0  0  0  0  0  0
  145.3358  136.9667  153.7522 H   0  0  0  0  0  0  0  0  0  0  0  0
  144.4938  138.2955  152.9921 H   0  0  0  0  0  0  0  0  0  0  0  0
  147.1562  137.1095  152.0910 H   0  0  0  0  0  0  0  0  0  0  0  0
  144.4235  137.0323  150.7210 H   0  0  0  0  0  0  0  0  0  0  0  0
  145.2162  135.6722  151.5117 H   0  0  0  0  0  0  0  0  0  0  0  0
  145.9244  136.3817  150.0661 H   0  0  0  0  0  0  0  0  0  0  0  0
  147.0492  138.7114  150.2156 H   0  0  0  0  0  0  0  0  0  0  0  0
  145.5472  139.3684  150.8196 H   0  0  0  0  0  0  0  0  0  0  0  0
  147.4219  140.8110  151.4708 H   0  0  0  0  0  0  0  0  0  0  0  0
  148.2599  139.4795  152.2376 H   0  0  0  0  0  0  0  0  0  0  0  0
  151.0726  145.4496  157.3008 H   0  0  0  0  0  0  0  0  0  0  0  0
  151.5522  146.1008  158.8786 H   0  0  0  0  0  0  0  0  0  0  0  0
  149.9527  145.3551  158.6769 H   0  0  0  0  0  0  0  0  0  0  0  0
  145.6418  140.5173  153.0510 H   0  0  0  0  0  0  0  0  0  0  0  0
  1  2  1  0  0  0  0
  1 21  1  0  0  0  0
  1 22  1  0  0  0  0
  1 23  1  0  0  0  0
  2 20  2  0  0  0  0
  2  3  1  0  0  0  0
  3  4  2  0  0  0  0
  3 24  1  0  0  0  0
  4  5  1  0  0  0  0
  4 18  1  0  0  0  0
  5  6  1  0  0  0  0
  5 25  1  0  0  0  0
  6  7  2  0  0  0  0
  6  8  1  0  0  0  0
  8  9  1  0  0  0  0
  8 26  1  0  0  0  0
  9 10  1  0  0  0  0
  9 27  1  0  0  0  0
  9 28  1  0  0  0  0
 10 11  1  0  0  0  0
 10 29  1  0  0  0  0
 10 30  1  0  0  0  0
 11 17  1  0  0  0  0
 11 12  1  0  0  0  0
 11 46  1  0  0  0  0
 12 13  1  0  0  0  0
 12 31  1  0  0  0  0
 12 32  1  0  0  0  0
 13 14  1  0  0  0  0
 13 33  1  0  0  0  0
 13 34  1  0  0  0  0
 14 15  1  0  0  0  0
 14 16  1  0  0  0  0
 14 35  1  0  0  0  0
 15 36  1  0  0  0  0
 15 37  1  0  0  0  0
 15 38  1  0  0  0  0
 16 17  1  0  0  0  0
 16 39  1  0  0  0  0
 16 40  1  0  0  0  0
 17 41  1  0  0  0  0
 17 42  1  0  0  0  0
 18 19  1  0  0  0  0
 18 20  1  0  0  0  0
 19 43  1  0  0  0  0
 19 44  1  0  0  0  0
 19 45  1  0  0  0  0
M  CHG  1  11   1
M  END
> <s_m_source_file>
AV-unprocessed.smi

> <i_m_source_file_index>
1279

> <i_lp_mmshare_version>
43012

> <i_f3d_flags>
0

> <s_epik_input>
W0NIM11jMVtjSF1jKG4objEpW0NIM10pW05IXUMoPU8pW05IXVtDSDJdW0NIMl1OMltDSDJdW0NIMl1bQ0hdKFtDSDNdKVtDSDJdW0NIMl0y

> <s_epik_cmdline>
J2VwaWtfcHl0aG9uJywgJy1waCcsICc3LjAnLCAnLXRuJywgJzgnLCAnLW1hJywgJzIwMCcsICctbWV0YWxfYmluZGluZycsICctaW1hZScsICc8aW5maWxlLm1hZT4nLCAnLW9tYWUnLCAnPG91dGZpbGUubWFlPic=

> <r_lp_tautomer_probability>
1

> <r_epik_Ionization_Penalty>
0.00166091

> <r_epik_Ionization_Penalty_Charging>
0.0015841

> <r_epik_Ionization_Penalty_Neutral>
7.68112e-05

> <r_epik_State_Penalty>
0.00106518

> <r_epik_Charging_Adjusted_Penalty>
0.00264928

> <i_epik_Tot_Q>
1

> <i_epik_Tot_abs_Q>
1

> <r_epik_Metal_State_Penalty>
-0

> <b_epik_Metal_Only>
0

> <s_lp_Force_Field>
OPLS_2005

> <r_lp_Energy>
17.7032

> <b_lp_Chiralities_Consistent>
1

> <s_lp_Variant>
AV-unprocessed.smi:1279-1

> <Gold.Version>
5.8.1

> <Gold.Id.Protein>
6NUR|6NUR_protein|mol2

> <Gold.PLP.Fitness>
45.8954

> <Gold.PLP.PLP>
-34.6777

> <Gold.PLP.part.hbond>
-3.0000

> <Gold.PLP.part.metal>
0.0000

> <Gold.PLP.part.buried>
7.1576

> <Gold.PLP.part.nonpolar>
-38.6675

> <Gold.PLP.part.repulsive>
0.1624

> <Gold.PLP.ligand.clash>
0.0000

> <Gold.PLP.ligand.torsion>
0.2112

> <Gold.PLP.Chemscore.Hbond>
3.8675

> <Gold.PLP.Chemscore.CHOScore>
0.0000

> <Gold.PLP.Chemscore.Metal>
0.0000

> <Gold.Chemscore.Hbonds>
donor molecule, donor type, donor heavy atom, donor atom, acceptor molecule, acceptor atom, score
      L1  H     5    25       P1  8028  0.99
      L1  H     8    26       P1  8028  0.89
      L1  H    11    46       P1 10175  1.95

> <Gold.PLP.Chemscore.Internal.Correction>
0.0377

> <Gold.Rescore>
     Score         DG    S(hbond)    S(metal)    S(lipo)     H(rot)  DE(clash)    DE(int)     intcor
     17.18     -22.92       2.77        0.00     102.46       1.48       4.36       1.39       ----

> <Gold.Chemscore.Fitness>
17.1765

> <Gold.Chemscore.DG>
-22.9221

> <Gold.Chemscore.ZeroCoef>
-5.4800

> <Gold.Chemscore.Hbond>
2.7702

> <Gold.Chemscore.Metal>
0.0000

> <Gold.Chemscore.Lipo>
102.4629

> <Gold.Chemscore.Internal_Hbond>
0.0000

> <Gold.Chemscore.DEClash>
4.3592

> <Gold.Chemscore.DEInternal>
1.3864

> <Gold.Chemscore.Rot>
1.4838

> <Gold.Chemscore.Internal.Correction>
   9.000000E+99

> <Gold.Chemscore.Hbonds>
donor molecule, donor type, donor heavy atom, donor atom, acceptor molecule, acceptor atom, score
      L1  H     5    25       P1  8028  0.92
      L1  H     8    26       P1  8028  0.86
      L1  H    11    46       P1 10175  0.78

> <Gold.Chemscore.Hbond.Weighted>
-9.2524

> <Gold.Chemscore.Metal.Weighted>
-0.0000

> <Gold.Chemscore.Lipo.Weighted>
-11.9882

> <Gold.Chemscore.Internal_Hbond.Weighted>
0.0000

> <Gold.Chemscore.DEClash.Weighted>
4.3592

> <Gold.Chemscore.DEInternal.Weighted>
1.3864

> <Gold.Chemscore.Rot.Weighted>
3.7985

> <Gold.Chemscore.Internal.Correction.Weighted>
   9.000000E+99

> <Gold.Protein.RotatedTorsions>
[ 6907 6896 6895 6894 ] final   -9.24 input  -60.11 | X-H torsion
[ 7974 7965 7964 7962 ] final  -87.78 input  175.53 | X-H torsion
[ 8008 7997 7996 7995 ] final  131.60 input   59.86 | X-H torsion
[ 10167 10162 10161 10158 ] final  138.94 input  -65.29 | X-H torsion
[ 10718 10713 10712 10709 ] final -120.90 input   66.30 | X-H torsion
[ 10763 10752 10751 10750 ] final -140.50 input  -60.55 | X-H torsion
[ 11005 11000 10999 10996 ] final   30.55 input  -57.11 | X-H torsion

> <Gold.Protein.ActiveResidues>
 VAL166  LYS551  ARG553  GLY616  TRP617  ASP618  TYR619  PRO620  LYS621  CYS622 
 ASP623  PHE694  ASN695  SER759  ASP760  ASP761  ALA762  ILE779  LEU786  VAL792 
 PHE793  MET794  SER795  GLU796  ALA797  LYS798  CYS799  TRP800  GLU811  SER814 

> <Gold.Protein.RotatedAtoms>
  151.4209  135.0998  159.9613 H   0  0  0  0  0  0  0  0  0  0  0  0  # atno 6907 bound_to 6896
  152.4988  133.8708  159.7307 H   0  0  0  0  0  0  0  0  0  0  0  0  # atno 6908 bound_to 6896
  150.9223  133.6807  159.2857 H   0  0  0  0  0  0  0  0  0  0  0  0  # atno 6909 bound_to 6896
  145.4619  140.9561  143.1965 H   0  0  0  0  0  0  0  0  0  0  0  0  # atno 7974 bound_to 7965
  156.2972  140.2567  156.2952 H   0  0  0  0  0  0  0  0  0  0  0  0  # atno 8008 bound_to 7997
  154.9471  140.0395  157.2144 H   0  0  0  0  0  0  0  0  0  0  0  0  # atno 8009 bound_to 7997
  154.8071  140.2838  155.5884 H   0  0  0  0  0  0  0  0  0  0  0  0  # atno 8010 bound_to 7997
  139.5094  144.6324  151.5784 H   0  0  0  0  0  0  0  0  0  0  0  0  # atno 10167 bound_to 10162
  156.1294  130.6384  150.9596 H   0  0  0  0  0  0  0  0  0  0  0  0  # atno 10718 bound_to 10713
  154.8576  135.3551  154.5717 H   0  0  0  0  0  0  0  0  0  0  0  0  # atno 10763 bound_to 10752
  153.6330  135.7001  153.5273 H   0  0  0  0  0  0  0  0  0  0  0  0  # atno 10764 bound_to 10752
  153.3034  135.4200  155.1232 H   0  0  0  0  0  0  0  0  0  0  0  0  # atno 10765 bound_to 10752
  140.2932  134.2841  155.7771 H   0  0  0  0  0  0  0  0  0  0  0  0  # atno 11005 bound_to 11000
  144.7998  139.6164  143.7077 LP  0  0  0  0  0  0  0  0  0  0  0  0  # atno 17320 bound_to 7965
  146.2446  139.6072  142.9468 LP  0  0  0  0  0  0  0  0  0  0  0  0  # atno 17321 bound_to 7965
  140.6061  143.9521  150.6420 LP  0  0  0  0  0  0  0  0  0  0  0  0  # atno 17342 bound_to 10162
  140.2749  143.3430  152.1204 LP  0  0  0  0  0  0  0  0  0  0  0  0  # atno 17343 bound_to 10162
  157.6473  131.0902  150.8125 LP  0  0  0  0  0  0  0  0  0  0  0  0  # atno 17370 bound_to 10713
  156.8212  130.4984  149.5343 LP  0  0  0  0  0  0  0  0  0  0  0  0  # atno 17371 bound_to 10713
  141.2142  133.7598  156.9656 LP  0  0  0  0  0  0  0  0  0  0  0  0  # atno 17394 bound_to 11000
  140.1176  134.9437  157.2157 LP  0  0  0  0  0  0  0  0  0  0  0  0  # atno 17395 bound_to 11000

$$$$
