AV-unprocessed.smi:1868|AV-procd|sdf|7590|dock9
  -GOLD-   22720 9303D 1   1.00000     0.00000
 Structure written by MMmdl.
 48 50  0  0  0  0  0  0  0  0  3 V2000
  149.2667  133.3014  153.7238 C   0  0  0  0  0  0  0  0  0  0  0  0
  147.9832  133.2071  152.9693 C   0  0  0  0  0  0  0  0  0  0  0  0
  147.8017  132.5770  151.7746 N   0  3  0  0  0  0  0  0  0  0  0  0
  146.4689  132.6931  151.3768 C   0  0  0  0  0  0  0  0  0  0  0  0
  145.8101  132.2198  150.2462 C   0  0  0  0  0  0  0  0  0  0  0  0
  144.4346  132.5143  150.1457 C   0  0  0  0  0  0  0  0  0  0  0  0
  143.7663  133.2517  151.1449 C   0  0  0  0  0  0  0  0  0  0  0  0
  144.4448  133.7267  152.2869 C   0  0  0  0  0  0  0  0  0  0  0  0
  145.8047  133.4314  152.3779 C   0  0  0  0  0  0  0  0  0  0  0  0
  146.7781  133.7300  153.3380 N   0  0  0  0  0  0  0  0  0  0  0  0
  146.3995  134.5050  154.5301 C   0  0  0  0  0  0  0  0  0  0  0  0
  147.0411  135.9072  154.5685 C   0  0  2  0  0  0  0  0  0  0  0  0
  147.0558  136.4432  153.2590 O   0  0  0  0  0  0  0  0  0  0  0  0
  148.4850  135.8481  155.1094 C   0  0  0  0  0  0  0  0  0  0  0  0
  149.3396  136.9680  154.6345 N   0  3  2  0  0  0  0  0  0  0  0  0
  150.7635  136.7794  155.0152 C   0  0  0  0  0  0  0  0  0  0  0  0
  151.6589  137.8734  154.4060 C   0  0  0  0  0  0  0  0  0  0  0  0
  151.1836  139.2897  154.7767 C   0  0  2  0  0  0  0  0  0  0  0  0
  151.4926  139.6593  156.2384 C   0  0  0  0  0  0  0  0  0  0  0  0
  149.6909  139.4334  154.4294 C   0  0  0  0  0  0  0  0  0  0  0  0
  148.8387  138.3080  155.0433 C   0  0  0  0  0  0  0  0  0  0  0  0
  150.0673  132.7954  153.1837 H   0  0  0  0  0  0  0  0  0  0  0  0
  149.1623  132.8360  154.7041 H   0  0  0  0  0  0  0  0  0  0  0  0
  149.5483  134.3453  153.8608 H   0  0  0  0  0  0  0  0  0  0  0  0
  146.3195  131.6538  149.4799 H   0  0  0  0  0  0  0  0  0  0  0  0
  143.8809  132.1667  149.2853 H   0  0  0  0  0  0  0  0  0  0  0  0
  142.7113  133.4563  151.0326 H   0  0  0  0  0  0  0  0  0  0  0  0
  143.9234  134.2894  153.0467 H   0  0  0  0  0  0  0  0  0  0  0  0
  145.3114  134.5726  154.5629 H   0  0  0  0  0  0  0  0  0  0  0  0
  146.6952  133.9287  155.4077 H   0  0  0  0  0  0  0  0  0  0  0  0
  146.4225  136.5517  155.1911 H   0  0  0  0  0  0  0  0  0  0  0  0
  147.7765  136.0653  152.7788 H   0  0  0  0  0  0  0  0  0  0  0  0
  148.4826  135.8435  156.2004 H   0  0  0  0  0  0  0  0  0  0  0  0
  148.9243  134.8967  154.8052 H   0  0  0  0  0  0  0  0  0  0  0  0
  150.8544  136.7708  156.1021 H   0  0  0  0  0  0  0  0  0  0  0  0
  151.1105  135.8065  154.6649 H   0  0  0  0  0  0  0  0  0  0  0  0
  152.6934  137.7278  154.7192 H   0  0  0  0  0  0  0  0  0  0  0  0
  151.6556  137.7678  153.3200 H   0  0  0  0  0  0  0  0  0  0  0  0
  151.7367  139.9967  154.1567 H   0  0  0  0  0  0  0  0  0  0  0  0
  150.9920  138.9990  156.9461 H   0  0  0  0  0  0  0  0  0  0  0  0
  151.1742  140.6790  156.4578 H   0  0  0  0  0  0  0  0  0  0  0  0
  152.5631  139.6031  156.4379 H   0  0  0  0  0  0  0  0  0  0  0  0
  149.3193  140.4055  154.7556 H   0  0  0  0  0  0  0  0  0  0  0  0
  149.5725  139.4146  153.3451 H   0  0  0  0  0  0  0  0  0  0  0  0
  147.8071  138.4433  154.7219 H   0  0  0  0  0  0  0  0  0  0  0  0
  148.8360  138.3828  156.1315 H   0  0  0  0  0  0  0  0  0  0  0  0
  149.3169  136.9381  153.6254 H   0  0  0  0  0  0  0  0  0  0  0  0
  148.5383  132.1003  151.2701 H   0  0  0  0  0  0  0  0  0  0  0  0
  1  2  1  0  0  0  0
  1 22  1  0  0  0  0
  1 23  1  0  0  0  0
  1 24  1  0  0  0  0
  2 10  1  0  0  0  0
  2  3  2  0  0  0  0
  3  4  1  0  0  0  0
  3 48  1  0  0  0  0
  4  9  2  0  0  0  0
  4  5  1  0  0  0  0
  5  6  2  0  0  0  0
  5 25  1  0  0  0  0
  6  7  1  0  0  0  0
  6 26  1  0  0  0  0
  7  8  2  0  0  0  0
  7 27  1  0  0  0  0
  8  9  1  0  0  0  0
  8 28  1  0  0  0  0
  9 10  1  0  0  0  0
 10 11  1  0  0  0  0
 11 12  1  0  0  0  0
 11 29  1  0  0  0  0
 11 30  1  0  0  0  0
 12 13  1  0  0  0  0
 12 14  1  0  0  0  0
 12 31  1  0  0  0  0
 13 32  1  0  0  0  0
 14 15  1  0  0  0  0
 14 33  1  0  0  0  0
 14 34  1  0  0  0  0
 15 21  1  0  0  0  0
 15 16  1  0  0  0  0
 15 47  1  0  0  0  0
 16 17  1  0  0  0  0
 16 35  1  0  0  0  0
 16 36  1  0  0  0  0
 17 18  1  0  0  0  0
 17 37  1  0  0  0  0
 17 38  1  0  0  0  0
 18 19  1  0  0  0  0
 18 20  1  0  0  0  0
 18 39  1  0  0  0  0
 19 40  1  0  0  0  0
 19 41  1  0  0  0  0
 19 42  1  0  0  0  0
 20 21  1  0  0  0  0
 20 43  1  0  0  0  0
 20 44  1  0  0  0  0
 21 45  1  0  0  0  0
 21 46  1  0  0  0  0
M  CHG  1   3   1
M  CHG  1  15   1
M  END
> <s_m_source_file>
AV-unprocessed.smi

> <i_m_source_file_index>
1868

> <i_lp_mmshare_version>
43012

> <i_f3d_flags>
0

> <s_epik_input>
W2NIXTFbY0hdW2NIXVtjSF1jKGMxMiluKGMobjIpW0NIM10pW0NIMl1bQ0BIXShbT0hdKVtDSDJdTjNbQ0gyXVtDSDJdW0NIXShbQ0gzXSlbQ0gyXVtDSDJdMw==

> <s_epik_cmdline>
J2VwaWtfcHl0aG9uJywgJy1waCcsICc3LjAnLCAnLXRuJywgJzgnLCAnLW1hJywgJzIwMCcsICctbWV0YWxfYmluZGluZycsICctaW1hZScsICc8aW5maWxlLm1hZT4nLCAnLW9tYWUnLCAnPG91dGZpbGUubWFlPic=

> <r_epik_Ionization_Penalty>
1.10901

> <r_epik_Ionization_Penalty_Charging>
1.10901

> <r_epik_Ionization_Penalty_Neutral>
6.90208e-07

> <r_epik_State_Penalty>
1.18788

> <r_epik_Charging_Adjusted_Penalty>
2.29689

> <i_epik_Tot_Q>
2

> <i_epik_Tot_abs_Q>
2

> <r_epik_Metal_State_Penalty>
5.19353

> <b_epik_Metal_Only>
0

> <s_lp_Force_Field>
OPLS_2005

> <r_lp_Energy>
32.3741

> <b_lp_Chiralities_Consistent>
1

> <s_lp_Variant>
AV-unprocessed.smi:1868-7

> <Gold.Version>
5.8.1

> <Gold.Id.Protein>
6NUR|6NUR_protein|mol2

> <Gold.PLP.Fitness>
50.8438

> <Gold.PLP.PLP>
-39.9987

> <Gold.PLP.part.hbond>
-2.5330

> <Gold.PLP.part.metal>
0.0000

> <Gold.PLP.part.buried>
-4.9327

> <Gold.PLP.part.nonpolar>
-33.3798

> <Gold.PLP.part.repulsive>
0.0437

> <Gold.PLP.ligand.clash>
0.0000

> <Gold.PLP.ligand.torsion>
0.5823

> <Gold.PLP.Chemscore.Hbond>
3.9913

> <Gold.PLP.Chemscore.CHOScore>
0.0000

> <Gold.PLP.Chemscore.Metal>
0.0000

> <Gold.Chemscore.Hbonds>
donor molecule, donor type, donor heavy atom, donor atom, acceptor molecule, acceptor atom, score
      L1  H     3    48       P1 10747  0.99
      L1  H    13    32       P1  7948  0.91
      L1  H    15    47       P1  7948  2.00

> <Gold.PLP.Chemscore.Internal.Correction>
0.0359

> <Gold.Rescore>
     Score         DG    S(hbond)    S(metal)    S(lipo)     H(rot)  DE(clash)    DE(int)     intcor
     19.92     -20.67       2.91        0.00      90.31       1.99       0.06       0.70       ----

> <Gold.Chemscore.Fitness>
19.9175

> <Gold.Chemscore.DG>
-20.6727

> <Gold.Chemscore.ZeroCoef>
-5.4800

> <Gold.Chemscore.Hbond>
2.9077

> <Gold.Chemscore.Metal>
0.0000

> <Gold.Chemscore.Lipo>
90.3065

> <Gold.Chemscore.Internal_Hbond>
0.0000

> <Gold.Chemscore.DEClash>
0.0562

> <Gold.Chemscore.DEInternal>
0.6989

> <Gold.Chemscore.Rot>
1.9863

> <Gold.Chemscore.Internal.Correction>
   9.000000E+99

> <Gold.Chemscore.Hbonds>
donor molecule, donor type, donor heavy atom, donor atom, acceptor molecule, acceptor atom, score
      L1  H     3    48       P1 10747  0.93
      L1  H    13    32       P1  7948  0.84
      L1  H    15    47       P1  7948  0.96

> <Gold.Chemscore.Hbond.Weighted>
-9.7119

> <Gold.Chemscore.Metal.Weighted>
-0.0000

> <Gold.Chemscore.Lipo.Weighted>
-10.5659

> <Gold.Chemscore.Internal_Hbond.Weighted>
0.0000

> <Gold.Chemscore.DEClash.Weighted>
0.0562

> <Gold.Chemscore.DEInternal.Weighted>
0.6989

> <Gold.Chemscore.Rot.Weighted>
5.0850

> <Gold.Chemscore.Internal.Correction.Weighted>
   9.000000E+99

> <Gold.Protein.RotatedTorsions>
[ 6907 6896 6895 6894 ] final  104.65 input  -60.11 | X-H torsion
[ 7974 7965 7964 7962 ] final  -62.43 input  175.53 | X-H torsion
[ 8008 7997 7996 7995 ] final  152.39 input   59.86 | X-H torsion
[ 10167 10162 10161 10158 ] final   49.69 input  -65.29 | X-H torsion
[ 10718 10713 10712 10709 ] final  -65.89 input   66.30 | X-H torsion
[ 10763 10752 10751 10750 ] final  156.75 input  -60.55 | X-H torsion
[ 11005 11000 10999 10996 ] final -135.13 input  -57.11 | X-H torsion

> <Gold.Protein.ActiveResidues>
 VAL166  LYS551  ARG553  GLY616  TRP617  ASP618  TYR619  PRO620  LYS621  CYS622 
 ASP623  PHE694  ASN695  SER759  ASP760  ASP761  ALA762  ILE779  LEU786  VAL792 
 PHE793  MET794  SER795  GLU796  ALA797  LYS798  CYS799  TRP800  GLU811  SER814 

> <Gold.Protein.RotatedAtoms>
  152.5257  133.9646  159.7732 H   0  0  0  0  0  0  0  0  0  0  0  0  # atno 6907 bound_to 6896
  150.9929  133.6123  159.2712 H   0  0  0  0  0  0  0  0  0  0  0  0  # atno 6908 bound_to 6896
  151.3260  135.0836  159.9375 H   0  0  0  0  0  0  0  0  0  0  0  0  # atno 6909 bound_to 6896
  145.7914  140.8707  143.0278 H   0  0  0  0  0  0  0  0  0  0  0  0  # atno 7974 bound_to 7965
  156.2631  140.2022  156.6325 H   0  0  0  0  0  0  0  0  0  0  0  0  # atno 8008 bound_to 7997
  154.6672  140.0554  157.0150 H   0  0  0  0  0  0  0  0  0  0  0  0  # atno 8009 bound_to 7997
  155.1190  140.3223  155.4505 H   0  0  0  0  0  0  0  0  0  0  0  0  # atno 8010 bound_to 7997
  140.2803  144.3164  150.6266 H   0  0  0  0  0  0  0  0  0  0  0  0  # atno 10167 bound_to 10162
  156.0643  130.4254  150.1630 H   0  0  0  0  0  0  0  0  0  0  0  0  # atno 10718 bound_to 10713
  154.1893  135.2795  155.3027 H   0  0  0  0  0  0  0  0  0  0  0  0  # atno 10763 bound_to 10752
  154.5941  135.5550  153.7312 H   0  0  0  0  0  0  0  0  0  0  0  0  # atno 10764 bound_to 10752
  153.0117  135.6375  154.2031 H   0  0  0  0  0  0  0  0  0  0  0  0  # atno 10765 bound_to 10752
  140.8926  134.1792  157.4517 H   0  0  0  0  0  0  0  0  0  0  0  0  # atno 11005 bound_to 11000
  144.6781  140.0129  143.7484 LP  0  0  0  0  0  0  0  0  0  0  0  0  # atno 17320 bound_to 7965
  145.9972  139.3062  143.0949 LP  0  0  0  0  0  0  0  0  0  0  0  0  # atno 17321 bound_to 7965
  140.5817  143.2172  151.7416 LP  0  0  0  0  0  0  0  0  0  0  0  0  # atno 17342 bound_to 10162
  139.4964  144.4070  152.0121 LP  0  0  0  0  0  0  0  0  0  0  0  0  # atno 17343 bound_to 10162
  156.9693  130.9829  151.3462 LP  0  0  0  0  0  0  0  0  0  0  0  0  # atno 17370 bound_to 10713
  157.5674  130.8287  149.8346 LP  0  0  0  0  0  0  0  0  0  0  0  0  # atno 17371 bound_to 10713
  139.8731  134.9865  156.5326 LP  0  0  0  0  0  0  0  0  0  0  0  0  # atno 17394 bound_to 11000
  140.8328  133.8265  155.9000 LP  0  0  0  0  0  0  0  0  0  0  0  0  # atno 17395 bound_to 11000

$$$$
