AV-unprocessed.smi:2837|AV-procd|sdf|10924|dock8
  -GOLD-   2272015373D 1   1.00000     0.00000
 Structure written by MMmdl.
 33 35  0  0  0  0  0  0  0  0  2 V2000
  153.9125  140.3793  160.4824 F   0  0  0  0  0  0  0  0  0  0  0  0
  153.1732  141.4770  160.7709 C   0  0  0  0  0  0  0  0  0  0  0  0
  153.6633  142.0090  161.9176 F   0  0  0  0  0  0  0  0  0  0  0  0
  153.2671  142.3736  159.7532 O   0  0  0  0  0  0  0  0  0  0  0  0
  152.3449  142.3375  158.7316 C   0  0  0  0  0  0  0  0  0  0  0  0
  152.1940  141.1347  158.0104 C   0  0  0  0  0  0  0  0  0  0  0  0
  151.2716  141.0628  156.9463 C   0  0  0  0  0  0  0  0  0  0  0  0
  150.5101  142.2065  156.6085 C   0  0  0  0  0  0  0  0  0  0  0  0
  149.5677  142.2556  155.5720 N   0  0  0  0  0  0  0  0  0  0  0  0
  149.2946  141.0917  154.7383 C   0  0  2  0  0  0  0  0  0  0  0  0
  148.1388  141.3119  153.7526 C   0  0  0  0  0  0  0  0  0  0  0  0
  147.1906  140.1613  154.1122 C   0  0  1  0  0  0  0  0  0  0  0  0
  147.7617  138.7919  153.7201 C   0  0  0  0  0  0  0  0  0  0  0  0
  148.8551  138.5971  154.7700 C   0  0  0  0  0  0  0  0  0  0  0  0
  148.7669  139.9067  155.5652 C   0  0  2  0  0  0  0  0  0  0  0  0
  147.3667  140.1284  155.5170 O   0  0  0  0  0  0  0  0  0  0  0  0
  150.6893  143.3425  157.3176 N   0  3  0  0  0  0  0  0  0  0  0  0
  151.5620  143.4515  158.3431 C   0  0  0  0  0  0  0  0  0  0  0  0
  152.1442  141.1531  160.9292 H   0  0  0  0  0  0  0  0  0  0  0  0
  152.7832  140.2685  158.2735 H   0  0  0  0  0  0  0  0  0  0  0  0
  151.1652  140.1340  156.4065 H   0  0  0  0  0  0  0  0  0  0  0  0
  149.1543  143.1397  155.3114 H   0  0  0  0  0  0  0  0  0  0  0  0
  150.2116  140.7988  154.2255 H   0  0  0  0  0  0  0  0  0  0  0  0
  147.6431  142.2698  153.9184 H   0  0  0  0  0  0  0  0  0  0  0  0
  148.4605  141.2742  152.7113 H   0  0  0  0  0  0  0  0  0  0  0  0
  146.1604  140.3206  153.7926 H   0  0  0  0  0  0  0  0  0  0  0  0
  147.0035  138.0130  153.8096 H   0  0  0  0  0  0  0  0  0  0  0  0
  148.1457  138.7802  152.6994 H   0  0  0  0  0  0  0  0  0  0  0  0
  148.6231  137.7429  155.4072 H   0  0  0  0  0  0  0  0  0  0  0  0
  149.8412  138.4376  154.3325 H   0  0  0  0  0  0  0  0  0  0  0  0
  149.1819  139.8340  156.5713 H   0  0  0  0  0  0  0  0  0  0  0  0
  151.6055  144.4256  158.8082 H   0  0  0  0  0  0  0  0  0  0  0  0
  150.1401  144.1644  157.0642 H   0  0  0  0  0  0  0  0  0  0  0  0
  1  2  1  0  0  0  0
  2  3  1  0  0  0  0
  2  4  1  0  0  0  0
  2 19  1  0  0  0  0
  4  5  1  0  0  0  0
  5 18  1  0  0  0  0
  5  6  2  0  0  0  0
  6  7  1  0  0  0  0
  6 20  1  0  0  0  0
  7  8  2  0  0  0  0
  7 21  1  0  0  0  0
  8  9  1  0  0  0  0
  8 17  1  0  0  0  0
  9 10  1  0  0  0  0
  9 22  1  0  0  0  0
 10 15  1  0  0  0  0
 10 11  1  0  0  0  0
 10 23  1  0  0  0  0
 11 12  1  0  0  0  0
 11 24  1  0  0  0  0
 11 25  1  0  0  0  0
 12 16  1  0  0  0  0
 12 13  1  0  0  0  0
 12 26  1  0  0  0  0
 13 14  1  0  0  0  0
 13 27  1  0  0  0  0
 13 28  1  0  0  0  0
 14 15  1  0  0  0  0
 14 29  1  0  0  0  0
 14 30  1  0  0  0  0
 15 16  1  0  0  0  0
 15 31  1  0  0  0  0
 17 18  2  0  0  0  0
 17 33  1  0  0  0  0
 18 32  1  0  0  0  0
M  CHG  1  17   1
M  END
> <s_m_source_file>
AV-unprocessed.smi

> <i_m_source_file_index>
2837

> <i_lp_mmshare_version>
43012

> <i_f3d_flags>
0

> <s_epik_input>
RltDSF0oRilPYzFbY0hdW2NIXWMobltjSF0xKVtOSF1bQ0BIXShbQ0gyXVtDQEBIXTIzKVtDQEBIXShPMylbQ0gyXVtDSDJdMg==

> <s_epik_cmdline>
J2VwaWtfcHl0aG9uJywgJy1waCcsICc3LjAnLCAnLXRuJywgJzgnLCAnLW1hJywgJzIwMCcsICctbWV0YWxfYmluZGluZycsICctaW1hZScsICc8aW5maWxlLm1hZT4nLCAnLW9tYWUnLCAnPG91dGZpbGUubWFlPic=

> <r_lp_tautomer_probability>
0.999429

> <r_epik_Ionization_Penalty>
2.29716

> <r_epik_Ionization_Penalty_Charging>
2.29716

> <r_epik_Ionization_Penalty_Neutral>
1.42285e-06

> <r_epik_State_Penalty>
2.44762

> <r_epik_Charging_Adjusted_Penalty>
4.74478

> <i_epik_Tot_Q>
1

> <i_epik_Tot_abs_Q>
1

> <r_epik_Metal_State_Penalty>
6.53078

> <b_epik_Metal_Only>
0

> <s_lp_Force_Field>
OPLS_2005

> <r_lp_Energy>
46.2914

> <b_lp_Chiralities_Consistent>
1

> <s_lp_Variant>
AV-unprocessed.smi:2837-5

> <Gold.Version>
5.8.1

> <Gold.Id.Protein>
6NUR|6NUR_protein|mol2

> <Gold.PLP.Fitness>
44.1933

> <Gold.PLP.PLP>
-34.1153

> <Gold.PLP.part.hbond>
-2.0000

> <Gold.PLP.part.metal>
0.0000

> <Gold.PLP.part.buried>
-4.5252

> <Gold.PLP.part.nonpolar>
-28.1565

> <Gold.PLP.part.repulsive>
0.1820

> <Gold.PLP.ligand.clash>
0.0000

> <Gold.PLP.ligand.torsion>
0.4203

> <Gold.PLP.Chemscore.Hbond>
3.6320

> <Gold.PLP.Chemscore.CHOScore>
0.0000

> <Gold.PLP.Chemscore.Metal>
0.0000

> <Gold.Chemscore.Hbonds>
donor molecule, donor type, donor heavy atom, donor atom, acceptor molecule, acceptor atom, score
      L1  H     9    22       P1  8028  1.98
      L1  H    17    33       P1  8028  1.60

> <Gold.PLP.Chemscore.Internal.Correction>
0.0226

> <Gold.Rescore>
     Score         DG    S(hbond)    S(metal)    S(lipo)     H(rot)  DE(clash)    DE(int)     intcor
     16.38     -16.82       1.74        0.00      76.53       1.34       0.07       0.37       ----

> <Gold.Chemscore.Fitness>
16.3821

> <Gold.Chemscore.DG>
-16.8188

> <Gold.Chemscore.ZeroCoef>
-5.4800

> <Gold.Chemscore.Hbond>
1.7386

> <Gold.Chemscore.Metal>
0.0000

> <Gold.Chemscore.Lipo>
76.5306

> <Gold.Chemscore.Internal_Hbond>
0.0000

> <Gold.Chemscore.DEClash>
0.0659

> <Gold.Chemscore.DEInternal>
0.3707

> <Gold.Chemscore.Rot>
1.3368

> <Gold.Chemscore.Internal.Correction>
   9.000000E+99

> <Gold.Chemscore.Hbonds>
donor molecule, donor type, donor heavy atom, donor atom, acceptor molecule, acceptor atom, score
      L1  H     9    22       P1  8028  0.94
      L1  H    17    33       P1  8028  0.70

> <Gold.Chemscore.Hbond.Weighted>
-5.8070

> <Gold.Chemscore.Metal.Weighted>
-0.0000

> <Gold.Chemscore.Lipo.Weighted>
-8.9541

> <Gold.Chemscore.Internal_Hbond.Weighted>
0.0000

> <Gold.Chemscore.DEClash.Weighted>
0.0659

> <Gold.Chemscore.DEInternal.Weighted>
0.3707

> <Gold.Chemscore.Rot.Weighted>
3.4223

> <Gold.Chemscore.Internal.Correction.Weighted>
   9.000000E+99

> <Gold.Protein.RotatedTorsions>
[ 6907 6896 6895 6894 ] final  -24.57 input  -60.11 | X-H torsion
[ 7974 7965 7964 7962 ] final  -65.51 input  175.53 | X-H torsion
[ 8008 7997 7996 7995 ] final   11.15 input   59.86 | X-H torsion
[ 10167 10162 10161 10158 ] final   72.80 input  -65.29 | X-H torsion
[ 10718 10713 10712 10709 ] final -120.47 input   66.30 | X-H torsion
[ 10763 10752 10751 10750 ] final  170.76 input  -60.55 | X-H torsion
[ 11005 11000 10999 10996 ] final   13.58 input  -57.11 | X-H torsion

> <Gold.Protein.ActiveResidues>
 VAL166  LYS551  ARG553  GLY616  TRP617  ASP618  TYR619  PRO620  LYS621  CYS622 
 ASP623  PHE694  ASN695  SER759  ASP760  ASP761  ALA762  ILE779  LEU786  VAL792 
 PHE793  MET794  SER795  GLU796  ALA797  LYS798  CYS799  TRP800  GLU811  SER814 

> <Gold.Protein.RotatedAtoms>
  151.1876  135.0388  159.8818 H   0  0  0  0  0  0  0  0  0  0  0  0  # atno 6907 bound_to 6896
  152.5441  134.0992  159.8320 H   0  0  0  0  0  0  0  0  0  0  0  0  # atno 6908 bound_to 6896
  151.1116  133.5121  159.2637 H   0  0  0  0  0  0  0  0  0  0  0  0  # atno 6909 bound_to 6896
  145.7534  140.8897  143.0468 H   0  0  0  0  0  0  0  0  0  0  0  0  # atno 7974 bound_to 7965
  154.8031  140.2855  155.5907 H   0  0  0  0  0  0  0  0  0  0  0  0  # atno 8008 bound_to 7997
  156.2979  140.2583  156.2832 H   0  0  0  0  0  0  0  0  0  0  0  0  # atno 8009 bound_to 7997
  154.9535  140.0379  157.2145 H   0  0  0  0  0  0  0  0  0  0  0  0  # atno 8010 bound_to 7997
  140.0314  144.5463  150.7504 H   0  0  0  0  0  0  0  0  0  0  0  0  # atno 10167 bound_to 10162
  156.1260  130.6359  150.9544 H   0  0  0  0  0  0  0  0  0  0  0  0  # atno 10718 bound_to 10713
  154.4022  135.2755  155.2089 H   0  0  0  0  0  0  0  0  0  0  0  0  # atno 10763 bound_to 10752
  154.4111  135.6022  153.5957 H   0  0  0  0  0  0  0  0  0  0  0  0  # atno 10764 bound_to 10752
  152.9831  135.5949  154.4291 H   0  0  0  0  0  0  0  0  0  0  0  0  # atno 10765 bound_to 10752
  140.4792  134.0953  155.7747 H   0  0  0  0  0  0  0  0  0  0  0  0  # atno 11005 bound_to 11000
  144.6845  139.9623  143.7480 LP  0  0  0  0  0  0  0  0  0  0  0  0  # atno 17320 bound_to 7965
  146.0334  139.3356  143.0741 LP  0  0  0  0  0  0  0  0  0  0  0  0  # atno 17321 bound_to 7965
  140.7300  143.2679  151.3984 LP  0  0  0  0  0  0  0  0  0  0  0  0  # atno 17342 bound_to 10162
  139.6074  144.1169  152.2263 LP  0  0  0  0  0  0  0  0  0  0  0  0  # atno 17343 bound_to 10162
  157.6442  131.0906  150.8189 LP  0  0  0  0  0  0  0  0  0  0  0  0  # atno 17370 bound_to 10713
  156.8279  130.5006  149.5335 LP  0  0  0  0  0  0  0  0  0  0  0  0  # atno 17371 bound_to 10713
  141.1540  133.8917  157.2026 LP  0  0  0  0  0  0  0  0  0  0  0  0  # atno 17394 bound_to 11000
  139.9837  135.0089  156.9811 LP  0  0  0  0  0  0  0  0  0  0  0  0  # atno 17395 bound_to 11000

$$$$
