#       Name:                AV-unprocessed.smi:34
#       Creating user name   scv26
#       Creation time:       Thu Mar 26 15:53:25 2020


#       File generated by GOLD software.
#

@<TRIPOS>MOLECULE
AV-unprocessed.smi:34
    66    70     1
SMALL
NO_CHARGES


@<TRIPOS>ATOM
      1 ****        -5.1610   2.7840  -3.2962 O.2            1 S1                 0.0000
      2 ****        -5.1399   1.6273  -2.8743 C.2            1 S1                 0.0000
      3 ****        -3.9015   0.9575  -2.5169 N.am           1 S1                 0.0000
      4 ****        -2.6347   1.4130  -2.6607 C.ar           1 S1                 0.0000
      5 ****        -2.3504   2.5982  -3.2627 N.ar           1 S1                 0.0000
      6 ****        -1.0834   3.0040  -3.3883 C.ar           1 S1                 0.0000
      7 ****         0.0327   2.3895  -2.9899 N.ar           1 S1                 0.0000
      8 ****        -0.2460   1.1986  -2.3859 C.ar           1 S1                 0.0000
      9 ****        -1.5400   0.6432  -2.1877 C.ar           1 S1                 0.0000
     10 ****        -1.4288  -0.5847  -1.5483 N.2            1 S1                 0.0000
     11 ****        -0.1422  -0.7407  -1.3814 C.2            1 S1                 0.0000
     12 ****         0.6425   0.2958  -1.8442 N.pl3          1 S1                 0.0000
     13 ****         2.1329   0.4486  -1.8322 C.3            1 S1                 0.0000
     14 ****         2.6930  -0.7102  -1.2892 O.3            1 S1                 0.0000
     15 ****         2.9151  -0.5086   0.0996 C.3            1 S1                 0.0000
     16 ****         3.9191  -1.5361   0.6338 C.3            1 S1                 0.0000
     17 ****         4.0251  -1.4006   2.0415 O.3            1 S1                 0.0000
     18 ****         4.8516  -2.2048   2.7371 C.2            1 S1                 0.0000
     19 ****         5.5444  -3.0831   2.2192 O.2            1 S1                 0.0000
     20 ****         4.8380  -1.9231   4.2018 C.ar           1 S1                 0.0000
     21 ****         5.6317  -2.7120   5.0668 C.ar           1 S1                 0.0000
     22 ****         5.6376  -2.4709   6.4544 C.ar           1 S1                 0.0000
     23 ****         4.8502  -1.4375   6.9943 C.ar           1 S1                 0.0000
     24 ****         4.0576  -0.6444   6.1443 C.ar           1 S1                 0.0000
     25 ****         4.0500  -0.8842   4.7562 C.ar           1 S1                 0.0000
     26 ****         3.4063   0.9355   0.1361 C.3            1 S1                 0.0000
     27 ****         3.2465   1.4847   1.3408 F              1 S1                 0.0000
     28 ****         2.5352   1.6175  -0.9096 C.3            1 S1                 0.0000
     29 ****         3.2673   2.6148  -1.5914 O.3            1 S1                 0.0000
     30 ****        -6.4039   0.8604  -2.6147 C.ar           1 S1                 0.0000
     31 ****        -7.5990   1.5506  -2.3115 C.ar           1 S1                 0.0000
     32 ****        -8.7947   0.8413  -2.0857 C.ar           1 S1                 0.0000
     33 ****        -8.8072  -0.5638  -2.1684 C.ar           1 S1                 0.0000
     34 ****        -7.6239  -1.2590  -2.4810 C.ar           1 S1                 0.0000
     35 ****        -6.4274  -0.5507  -2.7073 C.ar           1 S1                 0.0000
     36 ****        -3.9971   0.0327  -2.1234 H              1 S1                 0.0000
     37 ****        -0.9453   3.9570  -3.8776 H              1 S1                 0.0000
     38 ****         0.2645  -1.6242  -0.9113 H              1 S1                 0.0000
     39 ****         2.4054   0.5725  -2.8811 H              1 S1                 0.0000
     40 ****         1.9632  -0.5998   0.6258 H              1 S1                 0.0000
     41 ****         3.5774  -2.5441   0.3946 H              1 S1                 0.0000
     42 ****         4.8941  -1.3999   0.1639 H              1 S1                 0.0000
     43 ****         6.2446  -3.5113   4.6758 H              1 S1                 0.0000
     44 ****         6.2479  -3.0799   7.1050 H              1 S1                 0.0000
     45 ****         4.8543  -1.2532   8.0584 H              1 S1                 0.0000
     46 ****         3.4538   0.1499   6.5573 H              1 S1                 0.0000
     47 ****         3.4309  -0.2563   4.1322 H              1 S1                 0.0000
     48 ****         4.4640   0.9884  -0.1279 H              1 S1                 0.0000
     49 ****         1.6493   2.0560  -0.4471 H              1 S1                 0.0000
     50 ****         2.7039   3.0059  -2.2422 H              1 S1                 0.0000
     51 ****        -7.6064   2.6293  -2.2460 H              1 S1                 0.0000
     52 ****        -9.7030   1.3764  -1.8508 H              1 S1                 0.0000
     53 ****        -9.7245  -1.1074  -1.9964 H              1 S1                 0.0000
     54 ****        -7.6345  -2.3368  -2.5509 H              1 S1                 0.0000
     55 ****        -5.5332  -1.1035  -2.9564 H              1 S1                 0.0000
     56 ****        -4.3069   3.2932  -3.4023 LP             1 S1                 0.0000
     57 ****        -6.0323   3.2141  -3.5327 LP             1 S1                 0.0000
     58 ****        -3.0929   3.1690  -3.6132 LP             1 S1                 0.0000
     59 ****         0.9546   2.7552  -3.1178 LP             1 S1                 0.0000
     60 ****        -2.1641  -1.2063  -1.2779 LP             1 S1                 0.0000
     61 ****         3.5622  -0.9070  -1.7428 LP             1 S1                 0.0000
     62 ****         2.0669  -1.4788  -1.4207 LP             1 S1                 0.0000
     63 ****         5.5106  -3.2284   1.2304 LP             1 S1                 0.0000
     64 ****         6.1401  -3.6503   2.7879 LP             1 S1                 0.0000
     65 ****         4.0634   2.2046  -2.0364 LP             1 S1                 0.0000
     66 ****         3.5707   3.3134  -0.9435 LP             1 S1                 0.0000
@<TRIPOS>BOND
    1    1    2 2     
    2    2    3 am    
    3    2   30 1     
    4    3    4 1     
    5    3   36 1     
    6    4    9 ar    
    7    4    5 ar    
    8    5    6 ar    
    9    6    7 ar    
   10    6   37 1     
   11    7    8 ar    
   12    8   12 1     
   13    8    9 ar    
   14    9   10 1     
   15   10   11 2     
   16   11   12 1     
   17   11   38 1     
   18   12   13 1     
   19   13   28 1     
   20   13   14 1     
   21   13   39 1     
   22   14   15 1     
   23   15   16 1     
   24   15   26 1     
   25   15   40 1     
   26   16   17 1     
   27   16   41 1     
   28   16   42 1     
   29   17   18 1     
   30   18   19 2     
   31   18   20 1     
   32   20   25 ar    
   33   20   21 ar    
   34   21   22 ar    
   35   21   43 1     
   36   22   23 ar    
   37   22   44 1     
   38   23   24 ar    
   39   23   45 1     
   40   24   25 ar    
   41   24   46 1     
   42   25   47 1     
   43   26   27 1     
   44   26   28 1     
   45   26   48 1     
   46   28   29 1     
   47   28   49 1     
   48   29   50 1     
   49   30   35 ar    
   50   30   31 ar    
   51   31   32 ar    
   52   31   51 1     
   53   32   33 ar    
   54   32   52 1     
   55   33   34 ar    
   56   33   53 1     
   57   34   35 ar    
   58   34   54 1     
   59   35   55 1     
   60    1   56 1     
   61    1   57 1     
   62    5   58 1     
   63    7   59 1     
   64   10   60 1     
   65   14   61 1     
   66   14   62 1     
   67   19   63 1     
   68   19   64 1     
   69   29   65 1     
   70   29   66 1     
@<TRIPOS>SUBSTRUCTURE
      1 S1             1
@<TRIPOS>SET
LONE_PAIRS      STATIC     ATOMS    <user>   **** ""
11 56 57 58 59 60 61 62 63 64 65 66
DONOR_HYDROGENS      STATIC     ATOMS    <user>   **** ""
2 36 50
ATOM$BLUE        STATIC     ATOMS    COLORGROUP SYSTEM
11 56 57 58 59 60 61 62 63 64 65 66
ATOM$RED        STATIC     ATOMS    COLORGROUP SYSTEM
2 36 50
