AV-unprocessed.smi:968|AV-procd|sdf|4289|dock9
  -GOLD-   22720 2193D 1   1.00000     0.00000
 Structure written by MMmdl.
 20 20  0  0  0  0  0  0  0  0  1 V2000
  153.7811  142.0837  159.5969 C   0  0  0  0  0  0  0  0  0  0  0  0
  152.6152  142.1004  158.7267 N   0  0  0  0  0  0  0  0  0  0  0  0
  152.2911  141.1135  157.8794 C   0  0  0  0  0  0  0  0  0  0  0  0
  152.9633  140.0882  157.7554 O   0  0  0  0  0  0  0  0  0  0  0  0
  151.0168  141.3362  157.0546 C   0  0  0  0  0  0  0  0  0  0  0  0
  150.6314  140.1699  156.2770 N   0  0  0  0  0  0  0  0  0  0  0  0
  150.4014  138.9103  156.6556 C   0  0  0  0  0  0  0  0  0  0  0  0
  150.0653  138.1035  155.6579 N   0  0  0  0  0  0  0  0  0  0  0  0
  150.1108  138.9942  154.6238 C   0  0  0  0  0  0  0  0  0  0  0  0
  149.8202  138.5947  153.3089 N   0  0  0  0  0  0  0  0  0  0  0  0
  150.4457  140.2451  154.9373 N   0  0  0  0  0  0  0  0  0  0  0  0
  153.8457  143.0210  160.1492 H   0  0  0  0  0  0  0  0  0  0  0  0
  154.6986  141.9652  159.0190 H   0  0  0  0  0  0  0  0  0  0  0  0
  153.7151  141.2674  160.3171 H   0  0  0  0  0  0  0  0  0  0  0  0
  152.0152  142.9113  158.7736 H   0  0  0  0  0  0  0  0  0  0  0  0
  150.1953  141.6106  157.7185 H   0  0  0  0  0  0  0  0  0  0  0  0
  151.1711  142.1711  156.3701 H   0  0  0  0  0  0  0  0  0  0  0  0
  150.4793  138.5784  157.6805 H   0  0  0  0  0  0  0  0  0  0  0  0
  149.5721  137.6365  153.1100 H   0  0  0  0  0  0  0  0  0  0  0  0
  149.8880  139.2556  152.5486 H   0  0  0  0  0  0  0  0  0  0  0  0
  1  2  1  0  0  0  0
  1 12  1  0  0  0  0
  1 13  1  0  0  0  0
  1 14  1  0  0  0  0
  2  3  1  0  0  0  0
  2 15  1  0  0  0  0
  3  4  2  0  0  0  0
  3  5  1  0  0  0  0
  5  6  1  0  0  0  0
  5 16  1  0  0  0  0
  5 17  1  0  0  0  0
  6 11  1  0  0  0  0
  6  7  1  0  0  0  0
  7  8  2  0  0  0  0
  7 18  1  0  0  0  0
  8  9  1  0  0  0  0
  9 10  1  0  0  0  0
  9 11  2  0  0  0  0
 10 19  1  0  0  0  0
 10 20  1  0  0  0  0
M  END
> <s_m_source_file>
AV-unprocessed.smi

> <i_m_source_file_index>
968

> <i_lp_mmshare_version>
43012

> <i_f3d_flags>
0

> <s_epik_input>
W0NIM11bTkhdQyg9TylbQ0gyXW4xW2NIXW5jKG4xKVtOSDJd

> <s_epik_cmdline>
J2VwaWtfcHl0aG9uJywgJy1waCcsICc3LjAnLCAnLXRuJywgJzgnLCAnLW1hJywgJzIwMCcsICctbWV0YWxfYmluZGluZycsICctaW1hZScsICc8aW5maWxlLm1hZT4nLCAnLW9tYWUnLCAnPG91dGZpbGUubWFlPic=

> <r_lp_tautomer_probability>
1

> <r_epik_Ionization_Penalty>
0.000377128

> <r_epik_Ionization_Penalty_Charging>
0

> <r_epik_Ionization_Penalty_Neutral>
0.000377128

> <r_epik_State_Penalty>
-0

> <r_epik_Charging_Adjusted_Penalty>
0

> <i_epik_Tot_Q>
0

> <i_epik_Tot_abs_Q>
0

> <r_epik_Metal_State_Penalty>
-0

> <b_epik_Metal_Only>
0

> <s_lp_Force_Field>
OPLS_2005

> <r_lp_Energy>
2.7463

> <b_lp_Chiralities_Consistent>
1

> <s_lp_Variant>
AV-unprocessed.smi:968-1

> <Gold.Version>
5.8.1

> <Gold.Id.Protein>
6NUR|6NUR_protein|mol2

> <Gold.PLP.Fitness>
28.8003

> <Gold.PLP.PLP>
-17.0219

> <Gold.PLP.part.hbond>
-4.0213

> <Gold.PLP.part.metal>
0.0000

> <Gold.PLP.part.buried>
-2.2532

> <Gold.PLP.part.nonpolar>
-10.5204

> <Gold.PLP.part.repulsive>
0.2840

> <Gold.PLP.ligand.clash>
0.0000

> <Gold.PLP.ligand.torsion>
0.0748

> <Gold.PLP.Chemscore.Hbond>
3.9760

> <Gold.PLP.Chemscore.CHOScore>
0.0000

> <Gold.PLP.Chemscore.Metal>
0.0000

> <Gold.Chemscore.Hbonds>
donor molecule, donor type, donor heavy atom, donor atom, acceptor molecule, acceptor atom, score
      L1  H    10    19       P1  7948  1.00
      L1  H    10    20       P1  7957  1.00
      P1  H  7989  7998       L1    11  1.00
      P1  H  7997  8008       L1     4  0.88

> <Gold.PLP.Chemscore.Internal.Correction>
0.0000

> <Gold.Rescore>
     Score         DG    S(hbond)    S(metal)    S(lipo)     H(rot)  DE(clash)    DE(int)     intcor
     14.36     -14.73       3.50        0.00      15.43       1.65       0.01       0.37       ----

> <Gold.Chemscore.Fitness>
14.3554

> <Gold.Chemscore.DG>
-14.7337

> <Gold.Chemscore.ZeroCoef>
-5.4800

> <Gold.Chemscore.Hbond>
3.4973

> <Gold.Chemscore.Metal>
0.0000

> <Gold.Chemscore.Lipo>
15.4305

> <Gold.Chemscore.Internal_Hbond>
0.0000

> <Gold.Chemscore.DEClash>
0.0069

> <Gold.Chemscore.DEInternal>
0.3714

> <Gold.Chemscore.Rot>
1.6534

> <Gold.Chemscore.Internal.Correction>
   9.000000E+99

> <Gold.Chemscore.Hbonds>
donor molecule, donor type, donor heavy atom, donor atom, acceptor molecule, acceptor atom, score
      L1  H    10    19       P1  7948  0.77
      L1  H    10    20       P1  7957  0.87
      P1  H  7989  7998       L1    11  0.54
      P1  H  7997  8008       L1     4  0.86

> <Gold.Chemscore.Hbond.Weighted>
-11.6811

> <Gold.Chemscore.Metal.Weighted>
-0.0000

> <Gold.Chemscore.Lipo.Weighted>
-1.8054

> <Gold.Chemscore.Internal_Hbond.Weighted>
0.0000

> <Gold.Chemscore.DEClash.Weighted>
0.0069

> <Gold.Chemscore.DEInternal.Weighted>
0.3714

> <Gold.Chemscore.Rot.Weighted>
4.2327

> <Gold.Chemscore.Internal.Correction.Weighted>
   9.000000E+99

> <Gold.Protein.RotatedTorsions>
[ 6907 6896 6895 6894 ] final  -50.84 input  -60.11 | X-H torsion
[ 7974 7965 7964 7962 ] final -164.42 input  175.53 | X-H torsion
[ 8008 7997 7996 7995 ] final  -90.25 input   59.86 | X-H torsion
[ 10167 10162 10161 10158 ] final  150.31 input  -65.29 | X-H torsion
[ 10718 10713 10712 10709 ] final  171.76 input   66.30 | X-H torsion
[ 10763 10752 10751 10750 ] final  -38.20 input  -60.55 | X-H torsion
[ 11005 11000 10999 10996 ] final  -29.81 input  -57.11 | X-H torsion

> <Gold.Protein.ActiveResidues>
 VAL166  LYS551  ARG553  GLY616  TRP617  ASP618  TYR619  PRO620  LYS621  CYS622 
 ASP623  PHE694  ASN695  SER759  ASP760  ASP761  ALA762  ILE779  LEU786  VAL792 
 PHE793  MET794  SER795  GLU796  ALA797  LYS798  CYS799  TRP800  GLU811  SER814 

> <Gold.Protein.RotatedAtoms>
  150.8668  134.8033  159.7124 H   0  0  0  0  0  0  0  0  0  0  0  0  # atno 6907 bound_to 6896
  152.4687  134.5010  159.9734 H   0  0  0  0  0  0  0  0  0  0  0  0  # atno 6908 bound_to 6896
  151.5105  133.3447  159.2920 H   0  0  0  0  0  0  0  0  0  0  0  0  # atno 6909 bound_to 6896
  144.7297  140.2963  143.6212 H   0  0  0  0  0  0  0  0  0  0  0  0  # atno 7974 bound_to 7965
  154.6963  140.0532  157.0414 H   0  0  0  0  0  0  0  0  0  0  0  0  # atno 8008 bound_to 7997
  155.0746  140.3203  155.4601 H   0  0  0  0  0  0  0  0  0  0  0  0  # atno 8009 bound_to 7997
  156.2745  140.2076  156.5874 H   0  0  0  0  0  0  0  0  0  0  0  0  # atno 8010 bound_to 7997
  139.4851  144.5532  151.7364 H   0  0  0  0  0  0  0  0  0  0  0  0  # atno 10167 bound_to 10162
  156.9888  131.0141  151.2862 H   0  0  0  0  0  0  0  0  0  0  0  0  # atno 10718 bound_to 10713
  153.9089  135.6794  153.4752 H   0  0  0  0  0  0  0  0  0  0  0  0  # atno 10763 bound_to 10752
  153.1089  135.4792  154.8998 H   0  0  0  0  0  0  0  0  0  0  0  0  # atno 10764 bound_to 10752
  154.7537  135.3191  154.8465 H   0  0  0  0  0  0  0  0  0  0  0  0  # atno 10765 bound_to 10752
  140.9328  133.7327  156.0962 H   0  0  0  0  0  0  0  0  0  0  0  0  # atno 11005 bound_to 11000
  145.7805  139.1889  143.2161 LP  0  0  0  0  0  0  0  0  0  0  0  0  # atno 17320 bound_to 7965
  146.0838  140.7734  142.9628 LP  0  0  0  0  0  0  0  0  0  0  0  0  # atno 17321 bound_to 7965
  140.5089  144.1055  150.5990 LP  0  0  0  0  0  0  0  0  0  0  0  0  # atno 17342 bound_to 10162
  140.3974  143.2721  151.9988 LP  0  0  0  0  0  0  0  0  0  0  0  0  # atno 17343 bound_to 10162
  157.5474  130.8159  149.8102 LP  0  0  0  0  0  0  0  0  0  0  0  0  # atno 17370 bound_to 10713
  156.0215  130.3794  150.1947 LP  0  0  0  0  0  0  0  0  0  0  0  0  # atno 17371 bound_to 10713
  140.7839  134.3694  157.5481 LP  0  0  0  0  0  0  0  0  0  0  0  0  # atno 17394 bound_to 11000
  139.8800  134.9099  156.3000 LP  0  0  0  0  0  0  0  0  0  0  0  0  # atno 17395 bound_to 11000

$$$$
