AV-unprocessed.smi:155|AV-procd|sdf|1273|dock5
  -GOLD-   2262018533D 1   1.00000     0.00000
 Structure written by MMmdl.
 63 66  0  0  0  0  0  0  0  0  2 V2000
  143.7918  132.9060  150.9787 C   0  0  0  0  0  0  0  0  0  0  0  0
  144.8900  133.7894  151.3555 N   0  0  0  0  0  0  0  0  0  0  0  0
  146.0456  133.4526  150.5357 C   0  0  0  0  0  0  0  0  0  0  0  0
  145.2350  133.6381  152.7696 C   0  0  0  0  0  0  0  0  0  0  0  0
  146.2980  134.6648  153.2142 C   0  0  0  0  0  0  0  0  0  0  0  0
  147.2996  134.0637  154.1332 N   0  3  2  0  0  0  0  0  0  0  0  0
  148.0260  132.9034  153.5385 C   0  0  0  0  0  0  0  0  0  0  0  0
  148.9323  132.1426  154.5296 C   0  0  0  0  0  0  0  0  0  0  0  0
  149.9057  133.0430  155.3140 C   0  0  0  0  0  0  0  0  0  0  0  0
  149.2217  134.0978  156.0701 N   0  0  0  0  0  0  0  0  0  0  0  0
  149.7582  135.3497  156.0900 C   0  0  0  0  0  0  0  0  0  0  0  0
  150.3118  135.8227  154.9419 N   0  0  0  0  0  0  0  0  0  0  0  0
  150.8444  137.0462  154.8931 C   0  0  0  0  0  0  0  0  0  0  0  0
  150.9261  137.9574  155.8622 N   0  0  0  0  0  0  0  0  0  0  0  0
  150.3742  137.4964  157.0200 C   0  0  0  0  0  0  0  0  0  0  0  0
  149.7776  136.2181  157.2240 C   0  0  0  0  0  0  0  0  0  0  0  0
  149.3219  136.1272  158.5353 N   0  0  0  0  0  0  0  0  0  0  0  0
  149.6459  137.2690  159.0756 C   0  0  0  0  0  0  0  0  0  0  0  0
  150.2830  138.1512  158.2357 N   0  0  0  0  0  0  0  0  0  0  0  0
  150.7583  139.4840  158.5681 C   0  0  0  0  0  0  0  0  0  0  0  0
  152.2796  139.6748  158.3735 C   0  0  1  0  0  0  0  0  0  0  0  0
  152.6170  139.6406  156.9997 O   0  0  0  0  0  0  0  0  0  0  0  0
  152.8774  140.9328  159.0455 C   0  0  1  0  0  0  0  0  0  0  0  0
  152.1902  142.2646  158.7143 C   0  0  0  0  0  0  0  0  0  0  0  0
  152.3276  143.0806  159.9941 C   0  0  0  0  0  0  0  0  0  0  0  0
  153.1316  142.1815  160.9322 C   0  0  0  0  0  0  0  0  0  0  0  0
  152.8546  140.8728  160.4645 O   0  0  0  0  0  0  0  0  0  0  0  0
  147.8773  133.8457  156.5955 C   0  0  0  0  0  0  0  0  0  0  0  0
  146.7730  133.8188  155.5053 C   0  0  0  0  0  0  0  0  0  0  0  0
  142.8796  133.1455  151.5235 H   0  0  0  0  0  0  0  0  0  0  0  0
  144.0377  131.8601  151.1679 H   0  0  0  0  0  0  0  0  0  0  0  0
  143.5678  133.0128  149.9167 H   0  0  0  0  0  0  0  0  0  0  0  0
  146.8841  134.1117  150.7638 H   0  0  0  0  0  0  0  0  0  0  0  0
  145.8129  133.5734  149.4768 H   0  0  0  0  0  0  0  0  0  0  0  0
  146.3649  132.4224  150.7007 H   0  0  0  0  0  0  0  0  0  0  0  0
  144.3352  133.7394  153.3786 H   0  0  0  0  0  0  0  0  0  0  0  0
  145.6054  132.6300  152.9551 H   0  0  0  0  0  0  0  0  0  0  0  0
  146.7833  135.0871  152.3351 H   0  0  0  0  0  0  0  0  0  0  0  0
  145.8163  135.5072  153.7119 H   0  0  0  0  0  0  0  0  0  0  0  0
  147.3060  132.2013  153.1162 H   0  0  0  0  0  0  0  0  0  0  0  0
  148.6395  133.2575  152.7106 H   0  0  0  0  0  0  0  0  0  0  0  0
  148.3242  131.5575  155.2199 H   0  0  0  0  0  0  0  0  0  0  0  0
  149.5118  131.4040  153.9751 H   0  0  0  0  0  0  0  0  0  0  0  0
  150.4928  132.4408  156.0078 H   0  0  0  0  0  0  0  0  0  0  0  0
  150.6092  133.4752  154.6012 H   0  0  0  0  0  0  0  0  0  0  0  0
  151.2630  137.3373  153.9410 H   0  0  0  0  0  0  0  0  0  0  0  0
  149.4278  137.5008  160.1079 H   0  0  0  0  0  0  0  0  0  0  0  0
  150.2184  140.2053  157.9535 H   0  0  0  0  0  0  0  0  0  0  0  0
  150.4796  139.6983  159.6006 H   0  0  0  0  0  0  0  0  0  0  0  0
  152.7688  138.8081  158.8194 H   0  0  0  0  0  0  0  0  0  0  0  0
  152.3843  140.4706  156.6131 H   0  0  0  0  0  0  0  0  0  0  0  0
  153.9259  141.0097  158.7506 H   0  0  0  0  0  0  0  0  0  0  0  0
  152.6624  142.7519  157.8606 H   0  0  0  0  0  0  0  0  0  0  0  0
  151.1345  142.1336  158.4755 H   0  0  0  0  0  0  0  0  0  0  0  0
  152.8164  144.0414  159.8311 H   0  0  0  0  0  0  0  0  0  0  0  0
  151.3406  143.2742  160.4154 H   0  0  0  0  0  0  0  0  0  0  0  0
  154.2006  142.3793  160.8395 H   0  0  0  0  0  0  0  0  0  0  0  0
  152.8497  142.3025  161.9782 H   0  0  0  0  0  0  0  0  0  0  0  0
  147.8952  132.8835  157.1084 H   0  0  0  0  0  0  0  0  0  0  0  0
  147.6299  134.5662  157.3753 H   0  0  0  0  0  0  0  0  0  0  0  0
  146.0455  134.5875  155.7670 H   0  0  0  0  0  0  0  0  0  0  0  0
  146.2246  132.8762  155.5290 H   0  0  0  0  0  0  0  0  0  0  0  0
  147.9922  134.7879  154.2643 H   0  0  0  0  0  0  0  0  0  0  0  0
  1  2  1  0  0  0  0
  1 30  1  0  0  0  0
  1 31  1  0  0  0  0
  1 32  1  0  0  0  0
  2  3  1  0  0  0  0
  2  4  1  0  0  0  0
  3 33  1  0  0  0  0
  3 34  1  0  0  0  0
  3 35  1  0  0  0  0
  4  5  1  0  0  0  0
  4 36  1  0  0  0  0
  4 37  1  0  0  0  0
  5  6  1  0  0  0  0
  5 38  1  0  0  0  0
  5 39  1  0  0  0  0
  6 29  1  0  0  0  0
  6  7  1  0  0  0  0
  6 63  1  0  0  0  0
  7  8  1  0  0  0  0
  7 40  1  0  0  0  0
  7 41  1  0  0  0  0
  8  9  1  0  0  0  0
  8 42  1  0  0  0  0
  8 43  1  0  0  0  0
  9 10  1  0  0  0  0
  9 44  1  0  0  0  0
  9 45  1  0  0  0  0
 10 11  1  0  0  0  0
 10 28  1  0  0  0  0
 11 16  1  0  0  0  0
 11 12  2  0  0  0  0
 12 13  1  0  0  0  0
 13 14  2  0  0  0  0
 13 46  1  0  0  0  0
 14 15  1  0  0  0  0
 15 19  1  0  0  0  0
 15 16  2  0  0  0  0
 16 17  1  0  0  0  0
 17 18  2  0  0  0  0
 18 19  1  0  0  0  0
 18 47  1  0  0  0  0
 19 20  1  0  0  0  0
 20 21  1  0  0  0  0
 20 48  1  0  0  0  0
 20 49  1  0  0  0  0
 21 22  1  0  0  0  0
 21 23  1  0  0  0  0
 21 50  1  0  0  0  0
 22 51  1  0  0  0  0
 23 27  1  0  0  0  0
 23 24  1  0  0  0  0
 23 52  1  0  0  0  0
 24 25  1  0  0  0  0
 24 53  1  0  0  0  0
 24 54  1  0  0  0  0
 25 26  1  0  0  0  0
 25 55  1  0  0  0  0
 25 56  1  0  0  0  0
 26 27  1  0  0  0  0
 26 57  1  0  0  0  0
 26 58  1  0  0  0  0
 28 29  1  0  0  0  0
 28 59  1  0  0  0  0
 28 60  1  0  0  0  0
 29 61  1  0  0  0  0
 29 62  1  0  0  0  0
M  CHG  1   6   1
M  END
> <s_m_source_file>
AV-unprocessed.smi

> <i_m_source_file_index>
155

> <i_lp_mmshare_version>
43012

> <i_f3d_flags>
0

> <s_epik_input>
W0NIM11OKFtDSDNdKVtDSDJdW0NIMl1OMVtDSDJdW0NIMl1bQ0gyXU4oW0NIMl1bQ0gyXTEpYyhuW2NIXW4yKWMoYzIzKW5bY0hdbjNbQ0gyXVtDQEhdKFtPSF0pW0NAQEhdNFtDSDJdW0NIMl1bQ0gyXU80

> <s_epik_cmdline>
J2VwaWtfcHl0aG9uJywgJy1waCcsICc3LjAnLCAnLXRuJywgJzgnLCAnLW1hJywgJzIwMCcsICctbWV0YWxfYmluZGluZycsICctaW1hZScsICc8aW5maWxlLm1hZT4nLCAnLW9tYWUnLCAnPG91dGZpbGUubWFlPic=

> <r_epik_Ionization_Penalty>
0.0619615

> <r_epik_Ionization_Penalty_Charging>
0.0161638

> <r_epik_Ionization_Penalty_Neutral>
0.0457976

> <r_epik_State_Penalty>
0.403408

> <r_epik_Charging_Adjusted_Penalty>
0.419572

> <i_epik_Tot_Q>
1

> <i_epik_Tot_abs_Q>
1

> <r_epik_Metal_State_Penalty>
0.404222

> <b_epik_Metal_Only>
0

> <s_lp_Force_Field>
OPLS_2005

> <r_lp_Energy>
55.0815

> <b_lp_Chiralities_Consistent>
1

> <s_lp_Variant>
AV-unprocessed.smi:155-7

> <Gold.Version>
5.8.1

> <Gold.Id.Protein>
6NUR|6NUR_protein|mol2

> <Gold.PLP.Fitness>
47.5519

> <Gold.PLP.PLP>
-42.1327

> <Gold.PLP.part.hbond>
-2.0000

> <Gold.PLP.part.metal>
0.0000

> <Gold.PLP.part.buried>
-6.8329

> <Gold.PLP.part.nonpolar>
-32.5578

> <Gold.PLP.part.repulsive>
0.3245

> <Gold.PLP.ligand.clash>
0.0000

> <Gold.PLP.ligand.torsion>
1.2655

> <Gold.PLP.Chemscore.Hbond>
2.0000

> <Gold.PLP.Chemscore.CHOScore>
0.5420

> <Gold.PLP.Chemscore.Metal>
0.0000

> <Gold.Chemscore.Hbonds>
donor molecule, donor type, donor heavy atom, donor atom, acceptor molecule, acceptor atom, score
      P1  H  6896  6908       L1    17  0.39
      P1  H  7997  8009       L1    22  0.45
      L1  C    13    46       P1  7949  0.32

> <Gold.PLP.Chemscore.Internal.Correction>
0.3242

> <Gold.Rescore>
     Score         DG    S(hbond)    S(metal)    S(lipo)     H(rot)  DE(clash)    DE(int)     intcor
     14.07     -15.67       1.61        0.00      98.63       2.63       0.12       1.48       ----

> <Gold.Chemscore.Fitness>
14.0680

> <Gold.Chemscore.DG>
-15.6659

> <Gold.Chemscore.ZeroCoef>
-5.4800

> <Gold.Chemscore.Hbond>
1.6123

> <Gold.Chemscore.Metal>
0.0000

> <Gold.Chemscore.Lipo>
98.6298

> <Gold.Chemscore.Internal_Hbond>
0.0000

> <Gold.Chemscore.DEClash>
0.1153

> <Gold.Chemscore.DEInternal>
1.4826

> <Gold.Chemscore.Rot>
2.6324

> <Gold.Chemscore.Internal.Correction>
   9.000000E+99

> <Gold.Chemscore.Hbonds>
donor molecule, donor type, donor heavy atom, donor atom, acceptor molecule, acceptor atom, score
      P1  H  6896  6908       L1    17  0.09
      P1  H  7997  8009       L1    22  0.01

> <Gold.Chemscore.Hbond.Weighted>
-5.3851

> <Gold.Chemscore.Metal.Weighted>
-0.0000

> <Gold.Chemscore.Lipo.Weighted>
-11.5397

> <Gold.Chemscore.Internal_Hbond.Weighted>
0.0000

> <Gold.Chemscore.DEClash.Weighted>
0.1153

> <Gold.Chemscore.DEInternal.Weighted>
1.4826

> <Gold.Chemscore.Rot.Weighted>
6.7389

> <Gold.Chemscore.Internal.Correction.Weighted>
   9.000000E+99

> <Gold.Protein.RotatedTorsions>
[ 6907 6896 6895 6894 ] final  175.18 input  -60.11 | X-H torsion
[ 7974 7965 7964 7962 ] final   66.21 input  175.53 | X-H torsion
[ 8008 7997 7996 7995 ] final  172.09 input   59.86 | X-H torsion
[ 10167 10162 10161 10158 ] final  -53.14 input  -65.29 | X-H torsion
[ 10718 10713 10712 10709 ] final   72.67 input   66.30 | X-H torsion
[ 10763 10752 10751 10750 ] final  152.39 input  -60.55 | X-H torsion
[ 11005 11000 10999 10996 ] final   84.93 input  -57.11 | X-H torsion

> <Gold.Protein.ActiveResidues>
 VAL166  LYS551  ARG553  GLY616  TRP617  ASP618  TYR619  PRO620  LYS621  CYS622 
 ASP623  PHE694  ASN695  SER759  ASP760  ASP761  ALA762  ILE779  LEU786  VAL792 
 PHE793  MET794  SER795  GLU796  ALA797  LYS798  CYS799  TRP800  GLU811  SER814 

> <Gold.Protein.RotatedAtoms>
  151.7404  133.3322  159.3363 H   0  0  0  0  0  0  0  0  0  0  0  0  # atno 6907 bound_to 6896
  150.7576  134.6283  159.6182 H   0  0  0  0  0  0  0  0  0  0  0  0  # atno 6908 bound_to 6896
  152.3534  134.6976  160.0281 H   0  0  0  0  0  0  0  0  0  0  0  0  # atno 6909 bound_to 6896
  145.8293  139.3130  143.0997 H   0  0  0  0  0  0  0  0  0  0  0  0  # atno 7974 bound_to 7965
  156.1208  140.1495  156.9207 H   0  0  0  0  0  0  0  0  0  0  0  0  # atno 8008 bound_to 7997
  154.4834  140.0872  156.7472 H   0  0  0  0  0  0  0  0  0  0  0  0  # atno 8009 bound_to 7997
  155.4432  140.3432  155.4294 H   0  0  0  0  0  0  0  0  0  0  0  0  # atno 8010 bound_to 7997
  140.6500  143.2560  151.4749 H   0  0  0  0  0  0  0  0  0  0  0  0  # atno 10167 bound_to 10162
  157.6512  130.9590  150.0962 H   0  0  0  0  0  0  0  0  0  0  0  0  # atno 10718 bound_to 10713
  154.1192  135.2834  155.3212 H   0  0  0  0  0  0  0  0  0  0  0  0  # atno 10763 bound_to 10752
  154.6435  135.5394  153.7821 H   0  0  0  0  0  0  0  0  0  0  0  0  # atno 10764 bound_to 10752
  153.0319  135.6492  154.1347 H   0  0  0  0  0  0  0  0  0  0  0  0  # atno 10765 bound_to 10752
  139.8986  134.8251  156.2513 H   0  0  0  0  0  0  0  0  0  0  0  0  # atno 11005 bound_to 11000
  145.9589  140.8851  143.0221 LP  0  0  0  0  0  0  0  0  0  0  0  0  # atno 17320 bound_to 7965
  144.6741  140.1784  143.7408 LP  0  0  0  0  0  0  0  0  0  0  0  0  # atno 17321 bound_to 7965
  139.5714  144.1918  152.1842 LP  0  0  0  0  0  0  0  0  0  0  0  0  # atno 17342 bound_to 10162
  140.1216  144.5368  150.6859 LP  0  0  0  0  0  0  0  0  0  0  0  0  # atno 17343 bound_to 10162
  156.1897  130.3654  149.8926 LP  0  0  0  0  0  0  0  0  0  0  0  0  # atno 17370 bound_to 10713
  156.6857  130.8876  151.3582 LP  0  0  0  0  0  0  0  0  0  0  0  0  # atno 17371 bound_to 10713
  141.0222  133.7035  156.1287 LP  0  0  0  0  0  0  0  0  0  0  0  0  # atno 17394 bound_to 11000
  140.7217  134.4351  157.5574 LP  0  0  0  0  0  0  0  0  0  0  0  0  # atno 17395 bound_to 11000

$$$$
