#       Name:                AV-unprocessed.smi:163
#       Creating user name   scv26
#       Creation time:       Thu Mar 26 19:10:46 2020


#       File generated by GOLD software.
#

@<TRIPOS>MOLECULE
AV-unprocessed.smi:163
    59    62     1
SMALL
NO_CHARGES


@<TRIPOS>ATOM
      1 ****        -6.2877   1.4600  -5.8523 N.1            1 S1                 0.0000
      2 ****        -5.7894   1.2106  -4.8379 C.1            1 S1                 0.0000
      3 ****        -5.1559   0.8902  -3.5477 C.3            1 S1                 0.0000
      4 ****        -4.7403   2.1291  -2.7435 C.2            1 S1                 0.0000
      5 ****        -4.9753   3.2464  -3.2055 O.2            1 S1                 0.0000
      6 ****        -4.1258   1.9522  -1.5505 N.am           1 S1                 0.0000
      7 ****        -3.7515   0.6556  -0.9744 C.3            1 S1                 0.0000
      8 ****        -2.2162   0.5396  -0.9662 C.3            1 S1                 0.0000
      9 ****        -1.6110   1.6863  -0.2841 N.3            1 S1                 0.0000
     10 ****        -0.2916   1.5507   0.0067 C.ar           1 S1                 0.0000
     11 ****         0.6090   2.4279  -0.5128 N.ar           1 S1                 0.0000
     12 ****         1.9109   2.3014  -0.2406 C.ar           1 S1                 0.0000
     13 ****         2.5197   1.3877   0.5168 N.ar           1 S1                 0.0000
     14 ****         1.6232   0.5072   1.0463 C.ar           1 S1                 0.0000
     15 ****         0.2132   0.5181   0.8478 C.ar           1 S1                 0.0000
     16 ****        -0.3709  -0.5187   1.5666 N.2            1 S1                 0.0000
     17 ****         0.6352  -1.1132   2.1467 C.2            1 S1                 0.0000
     18 ****         1.8717  -0.5696   1.8802 N.pl3          1 S1                 0.0000
     19 ****         3.1560  -1.0262   2.3908 C.3            1 S1                 0.0000
     20 ****         3.8657  -2.0496   1.4707 C.3            1 S1                 0.0000
     21 ****         4.1172  -1.4442   0.2158 O.3            1 S1                 0.0000
     22 ****         5.1895  -2.5426   2.0596 C.3            1 S1                 0.0000
     23 ****         4.8894  -3.9803   2.4655 C.3            1 S1                 0.0000
     24 ****         3.9902  -4.4047   1.4572 O.3            1 S1                 0.0000
     25 ****         3.0627  -3.3484   1.2549 C.3            1 S1                 0.0000
     26 ****        -2.0814   3.0057  -0.7182 C.3            1 S1                 0.0000
     27 ****        -3.6201   3.0625  -0.7351 C.3            1 S1                 0.0000
     28 ****        -5.8681   0.2954  -2.9752 H              1 S1                 0.0000
     29 ****        -4.2834   0.2712  -3.7598 H              1 S1                 0.0000
     30 ****        -4.1329   0.5973   0.0462 H              1 S1                 0.0000
     31 ****        -4.1832  -0.1966  -1.4965 H              1 S1                 0.0000
     32 ****        -1.9321  -0.4004  -0.4958 H              1 S1                 0.0000
     33 ****        -1.8406   0.5029  -1.9899 H              1 S1                 0.0000
     34 ****         2.5572   3.0380  -0.6947 H              1 S1                 0.0000
     35 ****         0.4999  -1.9703   2.7901 H              1 S1                 0.0000
     36 ****         3.7920  -0.1534   2.5444 H              1 S1                 0.0000
     37 ****         2.9933  -1.4605   3.3781 H              1 S1                 0.0000
     38 ****         4.5397  -2.0779  -0.3437 H              1 S1                 0.0000
     39 ****         5.9777  -2.5458   1.3047 H              1 S1                 0.0000
     40 ****         5.5444  -1.9414   2.8974 H              1 S1                 0.0000
     41 ****         5.7821  -4.6051   2.5005 H              1 S1                 0.0000
     42 ****         4.3992  -4.0193   3.4397 H              1 S1                 0.0000
     43 ****         2.2787  -3.4564   2.0049 H              1 S1                 0.0000
     44 ****         2.5908  -3.4136   0.2736 H              1 S1                 0.0000
     45 ****        -1.6960   3.7763  -0.0492 H              1 S1                 0.0000
     46 ****        -1.6937   3.2183  -1.7157 H              1 S1                 0.0000
     47 ****        -3.9496   4.0385  -1.0933 H              1 S1                 0.0000
     48 ****        -4.0097   2.9689   0.2796 H              1 S1                 0.0000
     49 ****        -6.7183   1.6755  -6.7288 LP             1 S1                 0.0000
     50 ****        -5.4303   3.3355  -4.0916 LP             1 S1                 0.0000
     51 ****        -4.7112   4.0644  -2.6946 LP             1 S1                 0.0000
     52 ****        -2.0093   1.6576   0.6327 LP             1 S1                 0.0000
     53 ****         0.2946   3.1721  -1.1022 LP             1 S1                 0.0000
     54 ****         3.5063   1.3529   0.6758 LP             1 S1                 0.0000
     55 ****        -1.3409  -0.7549   1.6255 LP             1 S1                 0.0000
     56 ****         4.7137  -0.6509   0.3375 LP             1 S1                 0.0000
     57 ****         3.2543  -1.1522  -0.1968 LP             1 S1                 0.0000
     58 ****         3.5102  -5.2313   1.7511 LP             1 S1                 0.0000
     59 ****         4.4877  -4.5915   0.6101 LP             1 S1                 0.0000
@<TRIPOS>BOND
    1    1    2 3     
    2    2    3 1     
    3    3    4 1     
    4    3   28 1     
    5    3   29 1     
    6    4    5 2     
    7    4    6 am    
    8    6   27 1     
    9    6    7 1     
   10    7    8 1     
   11    7   30 1     
   12    7   31 1     
   13    8    9 1     
   14    8   32 1     
   15    8   33 1     
   16    9   10 1     
   17    9   26 1     
   18   10   15 ar    
   19   10   11 ar    
   20   11   12 ar    
   21   12   13 ar    
   22   12   34 1     
   23   13   14 ar    
   24   14   18 1     
   25   14   15 ar    
   26   15   16 1     
   27   16   17 2     
   28   17   18 1     
   29   17   35 1     
   30   18   19 1     
   31   19   20 1     
   32   19   36 1     
   33   19   37 1     
   34   20   25 1     
   35   20   21 1     
   36   20   22 1     
   37   21   38 1     
   38   22   23 1     
   39   22   39 1     
   40   22   40 1     
   41   23   24 1     
   42   23   41 1     
   43   23   42 1     
   44   24   25 1     
   45   25   43 1     
   46   25   44 1     
   47   26   27 1     
   48   26   45 1     
   49   26   46 1     
   50   27   47 1     
   51   27   48 1     
   52    1   49 1     
   53    5   50 1     
   54    5   51 1     
   55    9   52 1     
   56   11   53 1     
   57   13   54 1     
   58   16   55 1     
   59   21   56 1     
   60   21   57 1     
   61   24   58 1     
   62   24   59 1     
@<TRIPOS>SUBSTRUCTURE
      1 S1             1
@<TRIPOS>SET
LONE_PAIRS      STATIC     ATOMS    <user>   **** ""
11 49 50 51 52 53 54 55 56 57 58 59
DONOR_HYDROGENS      STATIC     ATOMS    <user>   **** ""
1 38
ATOM$BLUE        STATIC     ATOMS    COLORGROUP SYSTEM
11 49 50 51 52 53 54 55 56 57 58 59
ATOM$RED        STATIC     ATOMS    COLORGROUP SYSTEM
1 38
