AV-unprocessed.smi:3044|AV-procd|sdf|11608|dock6
  -GOLD-   2272016583D 1   1.00000     0.00000
 Structure written by MMmdl.
 41 42  0  0  0  0  0  0  0  0  1 V2000
  150.9339  144.8650  158.6598 C   0  0  0  0  0  0  0  0  0  0  0  0
  151.6195  143.9675  159.6753 C   0  0  0  0  0  0  0  0  0  0  0  0
  151.8249  144.5224  160.8907 N   0  0  0  0  0  0  0  0  0  0  0  0
  152.4337  143.7797  161.8379 C   0  0  0  0  0  0  0  0  0  0  0  0
  152.8706  142.4604  161.6189 C   0  0  0  0  0  0  0  0  0  0  0  0
  152.6562  141.8835  160.3532 C   0  0  0  0  0  0  0  0  0  0  0  0
  152.0034  142.6424  159.3506 C   0  0  0  0  0  0  0  0  0  0  0  0
  151.7586  142.1556  158.0349 N   0  0  0  0  0  0  0  0  0  0  0  0
  151.5950  140.8849  157.6222 C   0  0  0  0  0  0  0  0  0  0  0  0
  151.5947  139.9004  158.3602 O   0  0  0  0  0  0  0  0  0  0  0  0
  151.3617  140.6941  156.1255 C   0  0  0  0  0  0  0  0  0  0  0  0
  150.0498  141.1417  155.8176 O   0  0  0  0  0  0  0  0  0  0  0  0
  149.5679  140.7414  154.5395 C   0  0  1  0  0  0  0  0  0  0  0  0
  149.1454  139.2569  154.5335 C   0  0  0  0  0  0  0  0  0  0  0  0
  147.9422  139.0067  155.4560 C   0  0  0  0  0  0  0  0  0  0  0  0
  146.7577  139.9103  155.0805 C   0  0  0  0  0  0  0  0  0  0  0  0
  147.1545  141.3988  155.0963 C   0  0  2  0  0  0  0  0  0  0  0  0
  145.9719  142.2978  154.7082 C   0  0  0  0  0  0  0  0  0  0  0  0
  148.3733  141.6456  154.1825 C   0  0  0  0  0  0  0  0  0  0  0  0
  149.9849  144.4281  158.3484 H   0  0  0  0  0  0  0  0  0  0  0  0
  151.5623  144.9925  157.7781 H   0  0  0  0  0  0  0  0  0  0  0  0
  150.7298  145.8545  159.0712 H   0  0  0  0  0  0  0  0  0  0  0  0
  152.5839  144.2535  162.7966 H   0  0  0  0  0  0  0  0  0  0  0  0
  153.3643  141.9051  162.4025 H   0  0  0  0  0  0  0  0  0  0  0  0
  153.0101  140.8804  160.1745 H   0  0  0  0  0  0  0  0  0  0  0  0
  151.6361  142.8657  157.3276 H   0  0  0  0  0  0  0  0  0  0  0  0
  152.0996  141.2535  155.5477 H   0  0  0  0  0  0  0  0  0  0  0  0
  151.4868  139.6378  155.8883 H   0  0  0  0  0  0  0  0  0  0  0  0
  150.3487  140.9027  153.7944 H   0  0  0  0  0  0  0  0  0  0  0  0
  148.8783  138.9679  153.5163 H   0  0  0  0  0  0  0  0  0  0  0  0
  149.9742  138.6097  154.8167 H   0  0  0  0  0  0  0  0  0  0  0  0
  147.6422  137.9600  155.3988 H   0  0  0  0  0  0  0  0  0  0  0  0
  148.2300  139.1889  156.4922 H   0  0  0  0  0  0  0  0  0  0  0  0
  146.3919  139.6359  154.0901 H   0  0  0  0  0  0  0  0  0  0  0  0
  145.9330  139.7362  155.7725 H   0  0  0  0  0  0  0  0  0  0  0  0
  147.4393  141.6583  156.1170 H   0  0  0  0  0  0  0  0  0  0  0  0
  145.6337  142.0920  153.6920 H   0  0  0  0  0  0  0  0  0  0  0  0
  146.2455  143.3519  154.7611 H   0  0  0  0  0  0  0  0  0  0  0  0
  145.1256  142.1437  155.3782 H   0  0  0  0  0  0  0  0  0  0  0  0
  148.6772  142.6917  154.2384 H   0  0  0  0  0  0  0  0  0  0  0  0
  148.0886  141.4665  153.1448 H   0  0  0  0  0  0  0  0  0  0  0  0
  1  2  1  0  0  0  0
  1 20  1  0  0  0  0
  1 21  1  0  0  0  0
  1 22  1  0  0  0  0
  2  7  1  0  0  0  0
  2  3  2  0  0  0  0
  3  4  1  0  0  0  0
  4  5  2  0  0  0  0
  4 23  1  0  0  0  0
  5  6  1  0  0  0  0
  5 24  1  0  0  0  0
  6  7  2  0  0  0  0
  6 25  1  0  0  0  0
  7  8  1  0  0  0  0
  8  9  1  0  0  0  0
  8 26  1  0  0  0  0
  9 10  2  0  0  0  0
  9 11  1  0  0  0  0
 11 12  1  0  0  0  0
 11 27  1  0  0  0  0
 11 28  1  0  0  0  0
 12 13  1  0  0  0  0
 13 19  1  0  0  0  0
 13 14  1  0  0  0  0
 13 29  1  0  0  0  0
 14 15  1  0  0  0  0
 14 30  1  0  0  0  0
 14 31  1  0  0  0  0
 15 16  1  0  0  0  0
 15 32  1  0  0  0  0
 15 33  1  0  0  0  0
 16 17  1  0  0  0  0
 16 34  1  0  0  0  0
 16 35  1  0  0  0  0
 17 18  1  0  0  0  0
 17 19  1  0  0  0  0
 17 36  1  0  0  0  0
 18 37  1  0  0  0  0
 18 38  1  0  0  0  0
 18 39  1  0  0  0  0
 19 40  1  0  0  0  0
 19 41  1  0  0  0  0
M  END
> <s_m_source_file>
AV-unprocessed.smi

> <i_m_source_file_index>
3044

> <i_lp_mmshare_version>
43012

> <i_f3d_flags>
0

> <s_epik_input>
W0NIM11jMW5bY0hdW2NIXVtjSF1jMVtOSF1DKD1PKVtDSDJdT1tDQEBIXTJbQ0gyXVtDSDJdW0NIMl1bQ0BASF0oW0NIM10pW0NIMl0y

> <s_epik_cmdline>
J2VwaWtfcHl0aG9uJywgJy1waCcsICc3LjAnLCAnLXRuJywgJzgnLCAnLW1hJywgJzIwMCcsICctbWV0YWxfYmluZGluZycsICctaW1hZScsICc8aW5maWxlLm1hZT4nLCAnLW9tYWUnLCAnPG91dGZpbGUubWFlPic=

> <r_epik_Ionization_Penalty>
0.0077122

> <r_epik_Ionization_Penalty_Charging>
0

> <r_epik_Ionization_Penalty_Neutral>
0.0077122

> <r_epik_State_Penalty>
0.00577497

> <r_epik_Charging_Adjusted_Penalty>
0.00577497

> <i_epik_Tot_Q>
0

> <i_epik_Tot_abs_Q>
0

> <r_epik_Metal_State_Penalty>
-0

> <b_epik_Metal_Only>
0

> <s_lp_Force_Field>
OPLS_2005

> <r_lp_Energy>
18.191

> <b_lp_Chiralities_Consistent>
1

> <s_lp_Variant>
AV-unprocessed.smi:3044-4

> <Gold.Version>
5.8.1

> <Gold.Id.Protein>
6NUR|6NUR_protein|mol2

> <Gold.PLP.Fitness>
39.9626

> <Gold.PLP.PLP>
-40.9197

> <Gold.PLP.part.hbond>
0.0000

> <Gold.PLP.part.metal>
0.0000

> <Gold.PLP.part.buried>
-3.9687

> <Gold.PLP.part.nonpolar>
-37.3689

> <Gold.PLP.part.repulsive>
0.2773

> <Gold.PLP.ligand.clash>
0.0000

> <Gold.PLP.ligand.torsion>
0.4868

> <Gold.PLP.Chemscore.Hbond>
0.0000

> <Gold.PLP.Chemscore.CHOScore>
0.0000

> <Gold.PLP.Chemscore.Metal>
0.0000

> <Gold.PLP.Chemscore.Internal.Correction>
0.0165

> <Gold.Rescore>
     Score         DG    S(hbond)    S(metal)    S(lipo)     H(rot)  DE(clash)    DE(int)     intcor
     13.92     -14.57       0.00        0.00     106.24       1.31       0.01       0.63       ----

> <Gold.Chemscore.Fitness>
13.9246

> <Gold.Chemscore.DG>
-14.5662

> <Gold.Chemscore.ZeroCoef>
-5.4800

> <Gold.Chemscore.Hbond>
0.0000

> <Gold.Chemscore.Metal>
0.0000

> <Gold.Chemscore.Lipo>
106.2439

> <Gold.Chemscore.Internal_Hbond>
0.0000

> <Gold.Chemscore.DEClash>
0.0115

> <Gold.Chemscore.DEInternal>
0.6301

> <Gold.Chemscore.Rot>
1.3064

> <Gold.Chemscore.Internal.Correction>
   9.000000E+99

> <Gold.Chemscore.Hbond.Weighted>
-0.0000

> <Gold.Chemscore.Metal.Weighted>
-0.0000

> <Gold.Chemscore.Lipo.Weighted>
-12.4305

> <Gold.Chemscore.Internal_Hbond.Weighted>
0.0000

> <Gold.Chemscore.DEClash.Weighted>
0.0115

> <Gold.Chemscore.DEInternal.Weighted>
0.6301

> <Gold.Chemscore.Rot.Weighted>
3.3443

> <Gold.Chemscore.Internal.Correction.Weighted>
   9.000000E+99

> <Gold.Protein.RotatedTorsions>
[ 6907 6896 6895 6894 ] final  -69.65 input  -60.11 | X-H torsion
[ 7974 7965 7964 7962 ] final  148.67 input  175.53 | X-H torsion
[ 8008 7997 7996 7995 ] final   69.48 input   59.86 | X-H torsion
[ 10167 10162 10161 10158 ] final  -15.37 input  -65.29 | X-H torsion
[ 10718 10713 10712 10709 ] final -151.51 input   66.30 | X-H torsion
[ 10763 10752 10751 10750 ] final  -11.63 input  -60.55 | X-H torsion
[ 11005 11000 10999 10996 ] final   79.56 input  -57.11 | X-H torsion

> <Gold.Protein.ActiveResidues>
 VAL166  LYS551  ARG553  GLY616  TRP617  ASP618  TYR619  PRO620  LYS621  CYS622 
 ASP623  PHE694  ASN695  SER759  ASP760  ASP761  ALA762  ILE779  LEU786  VAL792 
 PHE793  MET794  SER795  GLU796  ALA797  LYS798  CYS799  TRP800  GLU811  SER814 

> <Gold.Protein.RotatedAtoms>
  150.7295  134.5566  159.5821 H   0  0  0  0  0  0  0  0  0  0  0  0  # atno 6907 bound_to 6896
  152.3040  134.7574  160.0360 H   0  0  0  0  0  0  0  0  0  0  0  0  # atno 6908 bound_to 6896
  151.8145  133.3350  159.3602 H   0  0  0  0  0  0  0  0  0  0  0  0  # atno 6909 bound_to 6896
  144.8496  139.6183  143.5980 H   0  0  0  0  0  0  0  0  0  0  0  0  # atno 7974 bound_to 7965
  155.7243  140.3493  155.5030 H   0  0  0  0  0  0  0  0  0  0  0  0  # atno 8008 bound_to 7997
  155.9241  140.1072  157.1206 H   0  0  0  0  0  0  0  0  0  0  0  0  # atno 8009 bound_to 7997
  154.4074  140.1244  156.4704 H   0  0  0  0  0  0  0  0  0  0  0  0  # atno 8010 bound_to 7997
  140.7217  143.5225  150.9616 H   0  0  0  0  0  0  0  0  0  0  0  0  # atno 10167 bound_to 10162
  156.4602  130.8209  151.2440 H   0  0  0  0  0  0  0  0  0  0  0  0  # atno 10718 bound_to 10713
  153.4865  135.7017  153.5908 H   0  0  0  0  0  0  0  0  0  0  0  0  # atno 10763 bound_to 10752
  153.4099  135.3851  155.2043 H   0  0  0  0  0  0  0  0  0  0  0  0  # atno 10764 bound_to 10752
  154.8719  135.3902  154.4321 H   0  0  0  0  0  0  0  0  0  0  0  0  # atno 10765 bound_to 10752
  139.9168  134.7852  156.1794 H   0  0  0  0  0  0  0  0  0  0  0  0  # atno 11005 bound_to 11000
  146.2773  139.6787  142.9253 LP  0  0  0  0  0  0  0  0  0  0  0  0  # atno 17320 bound_to 7965
  145.4527  141.0429  143.2795 LP  0  0  0  0  0  0  0  0  0  0  0  0  # atno 17321 bound_to 7965
  139.8943  143.6914  152.3141 LP  0  0  0  0  0  0  0  0  0  0  0  0  # atno 17342 bound_to 10162
  139.7241  144.7596  151.0907 LP  0  0  0  0  0  0  0  0  0  0  0  0  # atno 17343 bound_to 10162
  157.7498  131.0109  150.3326 LP  0  0  0  0  0  0  0  0  0  0  0  0  # atno 17370 bound_to 10713
  156.3724  130.3866  149.7165 LP  0  0  0  0  0  0  0  0  0  0  0  0  # atno 17371 bound_to 10713
  141.0651  133.6823  156.2029 LP  0  0  0  0  0  0  0  0  0  0  0  0  # atno 17394 bound_to 11000
  140.6598  134.4980  157.5582 LP  0  0  0  0  0  0  0  0  0  0  0  0  # atno 17395 bound_to 11000

$$$$
