AV-unprocessed.smi:2931|AV-procd|sdf|11245|dock7
  -GOLD-   2272016143D 1   1.00000     0.00000
 Structure written by MMmdl.
 42 43  0  0  0  0  0  0  0  0  2 V2000
  141.7852  133.6756  152.5832 C   0  0  0  0  0  0  0  0  0  0  0  0
  142.9154  133.8512  151.6461 N   0  3  2  0  0  0  0  0  0  0  0  0
  143.4903  132.5563  151.2038 C   0  0  0  0  0  0  0  0  0  0  0  0
  144.5726  132.7719  150.1329 C   0  0  0  0  0  0  0  0  0  0  0  0
  145.6691  133.7194  150.6393 C   0  0  0  0  0  0  0  0  0  0  0  0
  145.0450  135.0395  151.1259 C   0  0  2  0  0  0  0  0  0  0  0  0
  146.0663  135.9184  151.6873 N   0  0  0  0  0  0  0  0  0  0  0  0
  145.8191  137.0543  152.3541 C   0  0  0  0  0  0  0  0  0  0  0  0
  144.6901  137.5033  152.5517 O   0  0  0  0  0  0  0  0  0  0  0  0
  146.9479  137.6287  152.7951 N   0  0  0  0  0  0  0  0  0  0  0  0
  147.0166  138.8335  153.6195 C   0  0  0  0  0  0  0  0  0  0  0  0
  148.0456  139.8477  153.0831 C   0  0  0  0  0  0  0  0  0  0  0  0
  149.1411  140.1906  154.0785 C   0  0  0  0  0  0  0  0  0  0  0  0
  149.1705  141.4525  154.7067 C   0  0  0  0  0  0  0  0  0  0  0  0
  150.1907  141.7138  155.6430 C   0  0  0  0  0  0  0  0  0  0  0  0
  151.1474  140.8172  155.9671 N   0  0  0  0  0  0  0  0  0  0  0  0
  151.1170  139.6135  155.3561 C   0  0  0  0  0  0  0  0  0  0  0  0
  150.1390  139.2499  154.4089 C   0  0  0  0  0  0  0  0  0  0  0  0
  143.9544  134.7676  152.1791 C   0  0  0  0  0  0  0  0  0  0  0  0
  142.1136  133.2007  153.5087 H   0  0  0  0  0  0  0  0  0  0  0  0
  141.0076  133.0552  152.1368 H   0  0  0  0  0  0  0  0  0  0  0  0
  141.3388  134.6389  152.8323 H   0  0  0  0  0  0  0  0  0  0  0  0
  143.9107  132.0301  152.0624 H   0  0  0  0  0  0  0  0  0  0  0  0
  142.6994  131.9234  150.7994 H   0  0  0  0  0  0  0  0  0  0  0  0
  145.0103  131.8155  149.8458 H   0  0  0  0  0  0  0  0  0  0  0  0
  144.1183  133.1865  149.2318 H   0  0  0  0  0  0  0  0  0  0  0  0
  146.2166  133.2424  151.4535 H   0  0  0  0  0  0  0  0  0  0  0  0
  146.3922  133.9083  149.8449 H   0  0  0  0  0  0  0  0  0  0  0  0
  144.5718  135.5386  150.2773 H   0  0  0  0  0  0  0  0  0  0  0  0
  147.0285  135.6334  151.5758 H   0  0  0  0  0  0  0  0  0  0  0  0
  147.8259  137.1820  152.5746 H   0  0  0  0  0  0  0  0  0  0  0  0
  146.0277  139.2918  153.6354 H   0  0  0  0  0  0  0  0  0  0  0  0
  147.2478  138.5799  154.6555 H   0  0  0  0  0  0  0  0  0  0  0  0
  148.5006  139.4590  152.1711 H   0  0  0  0  0  0  0  0  0  0  0  0
  147.5362  140.7683  152.7966 H   0  0  0  0  0  0  0  0  0  0  0  0
  148.4226  142.1999  154.4865 H   0  0  0  0  0  0  0  0  0  0  0  0
  150.2382  142.6679  156.1469 H   0  0  0  0  0  0  0  0  0  0  0  0
  151.8938  138.9162  155.6334 H   0  0  0  0  0  0  0  0  0  0  0  0
  150.1545  138.2704  153.9543 H   0  0  0  0  0  0  0  0  0  0  0  0
  143.4878  135.7091  152.4728 H   0  0  0  0  0  0  0  0  0  0  0  0
  144.3929  134.3353  153.0804 H   0  0  0  0  0  0  0  0  0  0  0  0
  142.5371  134.2946  150.8210 H   0  0  0  0  0  0  0  0  0  0  0  0
  1  2  1  0  0  0  0
  1 20  1  0  0  0  0
  1 21  1  0  0  0  0
  1 22  1  0  0  0  0
  2 19  1  0  0  0  0
  2  3  1  0  0  0  0
  2 42  1  0  0  0  0
  3  4  1  0  0  0  0
  3 23  1  0  0  0  0
  3 24  1  0  0  0  0
  4  5  1  0  0  0  0
  4 25  1  0  0  0  0
  4 26  1  0  0  0  0
  5  6  1  0  0  0  0
  5 27  1  0  0  0  0
  5 28  1  0  0  0  0
  6  7  1  0  0  0  0
  6 19  1  0  0  0  0
  6 29  1  0  0  0  0
  7  8  1  0  0  0  0
  7 30  1  0  0  0  0
  8  9  2  0  0  0  0
  8 10  1  0  0  0  0
 10 11  1  0  0  0  0
 10 31  1  0  0  0  0
 11 12  1  0  0  0  0
 11 32  1  0  0  0  0
 11 33  1  0  0  0  0
 12 13  1  0  0  0  0
 12 34  1  0  0  0  0
 12 35  1  0  0  0  0
 13 18  1  0  0  0  0
 13 14  2  0  0  0  0
 14 15  1  0  0  0  0
 14 36  1  0  0  0  0
 15 16  2  0  0  0  0
 15 37  1  0  0  0  0
 16 17  1  0  0  0  0
 17 18  2  0  0  0  0
 17 38  1  0  0  0  0
 18 39  1  0  0  0  0
 19 40  1  0  0  0  0
 19 41  1  0  0  0  0
M  CHG  1   2   1
M  END
> <s_m_source_file>
AV-unprocessed.smi

> <i_m_source_file_index>
2931

> <i_lp_mmshare_version>
43012

> <i_f3d_flags>
0

> <s_epik_input>
W0NIM11OMVtDSDJdW0NIMl1bQ0gyXVtDQEhdKFtDSDJdMSlbTkhdQyg9TylbTkhdW0NIMl1bQ0gyXWMyW2NIXVtjSF1uW2NIXVtjSF0y

> <s_epik_cmdline>
J2VwaWtfcHl0aG9uJywgJy1waCcsICc3LjAnLCAnLXRuJywgJzgnLCAnLW1hJywgJzIwMCcsICctbWV0YWxfYmluZGluZycsICctaW1hZScsICc8aW5maWxlLm1hZT4nLCAnLW9tYWUnLCAnPG91dGZpbGUubWFlPic=

> <r_epik_Ionization_Penalty>
0.0573876

> <r_epik_Ionization_Penalty_Charging>
0.00229982

> <r_epik_Ionization_Penalty_Neutral>
0.0550878

> <r_epik_State_Penalty>
0.0473925

> <r_epik_Charging_Adjusted_Penalty>
0.0496923

> <i_epik_Tot_Q>
1

> <i_epik_Tot_abs_Q>
1

> <r_epik_Metal_State_Penalty>
0.0433388

> <b_epik_Metal_Only>
0

> <s_lp_Force_Field>
OPLS_2005

> <r_lp_Energy>
13.2125

> <b_lp_Chiralities_Consistent>
1

> <s_lp_Variant>
AV-unprocessed.smi:2931-4

> <Gold.Version>
5.8.1

> <Gold.Id.Protein>
6NUR|6NUR_protein|mol2

> <Gold.PLP.Fitness>
46.7087

> <Gold.PLP.PLP>
-33.8542

> <Gold.PLP.part.hbond>
-3.1096

> <Gold.PLP.part.metal>
0.0000

> <Gold.PLP.part.buried>
2.7405

> <Gold.PLP.part.nonpolar>
-34.4235

> <Gold.PLP.part.repulsive>
0.7997

> <Gold.PLP.ligand.clash>
0.0000

> <Gold.PLP.ligand.torsion>
0.6728

> <Gold.PLP.Chemscore.Hbond>
3.7840

> <Gold.PLP.Chemscore.CHOScore>
0.9461

> <Gold.PLP.Chemscore.Metal>
0.0000

> <Gold.Chemscore.Hbonds>
donor molecule, donor type, donor heavy atom, donor atom, acceptor molecule, acceptor atom, score
      L1  H     2    42       P1 10186  1.86
      L1  H     7    30       P1  7948  0.90
      L1  H    10    31       P1  7948  1.00
      L1  C    15    37       P1  8028  0.95

> <Gold.PLP.Chemscore.Internal.Correction>
0.0097

> <Gold.Rescore>
     Score         DG    S(hbond)    S(metal)    S(lipo)     H(rot)  DE(clash)    DE(int)     intcor
     16.16     -20.46       2.39        0.00      93.88       1.56       2.32       1.98       ----

> <Gold.Chemscore.Fitness>
16.1594

> <Gold.Chemscore.DG>
-20.4645

> <Gold.Chemscore.ZeroCoef>
-5.4800

> <Gold.Chemscore.Hbond>
2.3929

> <Gold.Chemscore.Metal>
0.0000

> <Gold.Chemscore.Lipo>
93.8768

> <Gold.Chemscore.Internal_Hbond>
0.0000

> <Gold.Chemscore.DEClash>
2.3241

> <Gold.Chemscore.DEInternal>
1.9809

> <Gold.Chemscore.Rot>
1.5592

> <Gold.Chemscore.Internal.Correction>
   9.000000E+99

> <Gold.Chemscore.Hbonds>
donor molecule, donor type, donor heavy atom, donor atom, acceptor molecule, acceptor atom, score
      L1  H     2    42       P1 10186  0.27
      L1  H     7    30       P1  7948  0.85
      L1  H    10    31       P1  7948  0.99

> <Gold.Chemscore.Hbond.Weighted>
-7.9924

> <Gold.Chemscore.Metal.Weighted>
-0.0000

> <Gold.Chemscore.Lipo.Weighted>
-10.9836

> <Gold.Chemscore.Internal_Hbond.Weighted>
0.0000

> <Gold.Chemscore.DEClash.Weighted>
2.3241

> <Gold.Chemscore.DEInternal.Weighted>
1.9809

> <Gold.Chemscore.Rot.Weighted>
3.9915

> <Gold.Chemscore.Internal.Correction.Weighted>
   9.000000E+99

> <Gold.Protein.RotatedTorsions>
[ 6907 6896 6895 6894 ] final  167.75 input  -60.11 | X-H torsion
[ 7974 7965 7964 7962 ] final  -41.89 input  175.53 | X-H torsion
[ 8008 7997 7996 7995 ] final  165.86 input   59.86 | X-H torsion
[ 10167 10162 10161 10158 ] final -148.59 input  -65.29 | X-H torsion
[ 10718 10713 10712 10709 ] final   37.26 input   66.30 | X-H torsion
[ 10763 10752 10751 10750 ] final  172.70 input  -60.55 | X-H torsion
[ 11005 11000 10999 10996 ] final  -21.97 input  -57.11 | X-H torsion

> <Gold.Protein.ActiveResidues>
 VAL166  LYS551  ARG553  GLY616  TRP617  ASP618  TYR619  PRO620  LYS621  CYS622 
 ASP623  PHE694  ASN695  SER759  ASP760  ASP761  ALA762  ILE779  LEU786  VAL792 
 PHE793  MET794  SER795  GLU796  ALA797  LYS798  CYS799  TRP800  GLU811  SER814 

> <Gold.Protein.RotatedAtoms>
  151.8584  133.3452  159.3695 H   0  0  0  0  0  0  0  0  0  0  0  0  # atno 6907 bound_to 6896
  150.7186  134.5230  159.5672 H   0  0  0  0  0  0  0  0  0  0  0  0  # atno 6908 bound_to 6896
  152.2738  134.7904  160.0460 H   0  0  0  0  0  0  0  0  0  0  0  0  # atno 6909 bound_to 6896
  146.0168  140.6898  142.9197 H   0  0  0  0  0  0  0  0  0  0  0  0  # atno 7974 bound_to 7965
  156.1766  140.1659  156.8351 H   0  0  0  0  0  0  0  0  0  0  0  0  # atno 8008 bound_to 7997
  154.5314  140.0756  156.8385 H   0  0  0  0  0  0  0  0  0  0  0  0  # atno 8009 bound_to 7997
  155.3400  140.3384  155.4241 H   0  0  0  0  0  0  0  0  0  0  0  0  # atno 8010 bound_to 7997
  139.7518  143.8507  152.2588 H   0  0  0  0  0  0  0  0  0  0  0  0  # atno 10167 bound_to 10162
  157.3448  130.7567  149.6937 H   0  0  0  0  0  0  0  0  0  0  0  0  # atno 10718 bound_to 10713
  154.4297  135.2759  155.1920 H   0  0  0  0  0  0  0  0  0  0  0  0  # atno 10763 bound_to 10752
  154.3831  135.6083  153.5805 H   0  0  0  0  0  0  0  0  0  0  0  0  # atno 10764 bound_to 10752
  152.9836  135.5885  154.4607 H   0  0  0  0  0  0  0  0  0  0  0  0  # atno 10765 bound_to 10752
  140.8612  133.7787  156.0077 H   0  0  0  0  0  0  0  0  0  0  0  0  # atno 11005 bound_to 11000
  144.6974  140.3496  143.7184 LP  0  0  0  0  0  0  0  0  0  0  0  0  # atno 17320 bound_to 7965
  145.7256  139.1721  143.2460 LP  0  0  0  0  0  0  0  0  0  0  0  0  # atno 17321 bound_to 7965
  139.8487  144.7175  150.9241 LP  0  0  0  0  0  0  0  0  0  0  0  0  # atno 17342 bound_to 10162
  140.7798  143.3918  151.1297 LP  0  0  0  0  0  0  0  0  0  0  0  0  # atno 17343 bound_to 10162
  155.9713  130.4157  150.4195 LP  0  0  0  0  0  0  0  0  0  0  0  0  # atno 17370 bound_to 10713
  157.2249  131.0491  151.2525 LP  0  0  0  0  0  0  0  0  0  0  0  0  # atno 17371 bound_to 10713
  140.8681  134.2760  157.5204 LP  0  0  0  0  0  0  0  0  0  0  0  0  # atno 17394 bound_to 11000
  139.8707  134.9553  156.4202 LP  0  0  0  0  0  0  0  0  0  0  0  0  # atno 17395 bound_to 11000

$$$$
