AV-unprocessed.smi:655|AV-procd|sdf|3215|dock3
  -GOLD-   22720 0153D 1   1.00000     0.00000
 Structure written by MMmdl.
 35 36  0  0  0  0  0  0  0  0  1 V2000
  151.9143  145.3000  159.5280 C   0  0  0  0  0  0  0  0  0  0  0  0
  151.4123  143.8574  159.3741 C   0  0  2  0  0  0  0  0  0  0  0  0
  152.5111  142.9343  158.8186 C   0  0  0  0  0  0  0  0  0  0  0  0
  152.0153  141.4846  158.6601 C   0  0  0  0  0  0  0  0  0  0  0  0
  150.7406  141.3789  157.7878 C   0  0  2  0  0  0  0  0  0  0  0  0
  150.2070  140.0802  157.9681 O   0  0  0  0  0  0  0  0  0  0  0  0
  150.9643  141.5838  156.2589 C   0  0  0  0  0  0  0  0  0  0  0  0
  149.8661  141.1783  155.4014 N   0  0  0  0  0  0  0  0  0  0  0  0
  148.6682  141.8782  155.3770 C   0  0  0  0  0  0  0  0  0  0  0  0
  147.6217  141.5438  154.5845 C   0  0  0  0  0  0  0  0  0  0  0  0
  146.1628  142.4680  154.6201 Cl  0  0  0  0  0  0  0  0  0  0  0  0
  147.7219  140.3929  153.6893 C   0  0  0  0  0  0  0  0  0  0  0  0
  146.8371  139.9997  152.9316 O   0  0  0  0  0  0  0  0  0  0  0  0
  148.9470  139.7222  153.7362 N   0  0  0  0  0  0  0  0  0  0  0  0
  150.0309  140.0617  154.5462 C   0  0  0  0  0  0  0  0  0  0  0  0
  151.0614  139.3934  154.4849 O   0  0  0  0  0  0  0  0  0  0  0  0
  149.6584  142.3421  158.3318 C   0  0  0  0  0  0  0  0  0  0  0  0
  150.1605  143.7884  158.4818 C   0  0  0  0  0  0  0  0  0  0  0  0
  149.0586  138.9240  153.1279 H   0  0  0  0  0  0  0  0  0  0  0  0
  152.2002  145.7254  158.5655 H   0  0  0  0  0  0  0  0  0  0  0  0
  152.7844  145.3445  160.1836 H   0  0  0  0  0  0  0  0  0  0  0  0
  151.1445  145.9406  159.9590 H   0  0  0  0  0  0  0  0  0  0  0  0
  151.1393  143.4970  160.3670 H   0  0  0  0  0  0  0  0  0  0  0  0
  152.8541  143.3229  157.8617 H   0  0  0  0  0  0  0  0  0  0  0  0
  153.3777  142.9489  159.4803 H   0  0  0  0  0  0  0  0  0  0  0  0
  152.8126  140.8542  158.2673 H   0  0  0  0  0  0  0  0  0  0  0  0
  151.8002  141.0945  159.6564 H   0  0  0  0  0  0  0  0  0  0  0  0
  150.3359  139.5904  157.1705 H   0  0  0  0  0  0  0  0  0  0  0  0
  151.1168  142.6414  156.0350 H   0  0  0  0  0  0  0  0  0  0  0  0
  151.8718  141.0930  155.9054 H   0  0  0  0  0  0  0  0  0  0  0  0
  148.5599  142.7366  156.0248 H   0  0  0  0  0  0  0  0  0  0  0  0
  148.7754  142.3221  157.6918 H   0  0  0  0  0  0  0  0  0  0  0  0
  149.3235  141.9988  159.3122 H   0  0  0  0  0  0  0  0  0  0  0  0
  149.3677  144.4024  158.9103 H   0  0  0  0  0  0  0  0  0  0  0  0
  150.3757  144.2137  157.5011 H   0  0  0  0  0  0  0  0  0  0  0  0
  1  2  1  0  0  0  0
  1 20  1  0  0  0  0
  1 21  1  0  0  0  0
  1 22  1  0  0  0  0
  2 18  1  0  0  0  0
  2  3  1  0  0  0  0
  2 23  1  0  0  0  0
  3  4  1  0  0  0  0
  3 24  1  0  0  0  0
  3 25  1  0  0  0  0
  4  5  1  0  0  0  0
  4 26  1  0  0  0  0
  4 27  1  0  0  0  0
  5  6  1  0  0  0  0
  5  7  1  0  0  0  0
  5 17  1  0  0  0  0
  6 28  1  0  0  0  0
  7  8  1  0  0  0  0
  7 29  1  0  0  0  0
  7 30  1  0  0  0  0
  8 15  1  0  0  0  0
  8  9  1  0  0  0  0
  9 10  2  0  0  0  0
  9 31  1  0  0  0  0
 10 11  1  0  0  0  0
 10 12  1  0  0  0  0
 12 13  2  0  0  0  0
 12 14  1  0  0  0  0
 14 19  1  0  0  0  0
 14 15  1  0  0  0  0
 15 16  2  0  0  0  0
 17 18  1  0  0  0  0
 17 32  1  0  0  0  0
 17 33  1  0  0  0  0
 18 34  1  0  0  0  0
 18 35  1  0  0  0  0
M  END
> <s_m_source_file>
AV-unprocessed.smi

> <i_m_source_file_index>
655

> <i_lp_mmshare_version>
43012

> <i_f3d_flags>
0

> <s_epik_input>
W0NIMl0xW0NIMl1bQ0BIXShbQ0gzXSlbQ0gyXVtDSDJdW0NAQF0xKFtPSF0pW0NIMl1uMltjSF1jKENsKWMoPU8pW25IXWMyPU8=

> <s_epik_cmdline>
J2VwaWtfcHl0aG9uJywgJy1waCcsICc3LjAnLCAnLXRuJywgJzgnLCAnLW1hJywgJzIwMCcsICctbWV0YWxfYmluZGluZycsICctaW1hZScsICc8aW5maWxlLm1hZT4nLCAnLW9tYWUnLCAnPG91dGZpbGUubWFlPic=

> <r_lp_tautomer_probability>
0.999537

> <r_epik_Ionization_Penalty>
0.0114762

> <r_epik_Ionization_Penalty_Charging>
0.0114753

> <r_epik_Ionization_Penalty_Neutral>
8.25878e-07

> <r_epik_State_Penalty>
0.00883314

> <r_epik_Charging_Adjusted_Penalty>
0.0203085

> <i_epik_Tot_Q>
0

> <i_epik_Tot_abs_Q>
0

> <r_epik_Metal_State_Penalty>
1.64347

> <b_epik_Metal_Only>
0

> <s_lp_Force_Field>
OPLS_2005

> <r_lp_Energy>
18.8489

> <b_lp_Chiralities_Consistent>
1

> <s_lp_Variant>
AV-unprocessed.smi:655-2

> <Gold.Version>
5.8.1

> <Gold.Id.Protein>
6NUR|6NUR_protein|mol2

> <Gold.PLP.Fitness>
39.3767

> <Gold.PLP.PLP>
-36.1731

> <Gold.PLP.part.hbond>
-2.0000

> <Gold.PLP.part.metal>
0.0000

> <Gold.PLP.part.buried>
-1.6302

> <Gold.PLP.part.nonpolar>
-33.7140

> <Gold.PLP.part.repulsive>
0.4817

> <Gold.PLP.ligand.clash>
0.0000

> <Gold.PLP.ligand.torsion>
0.1916

> <Gold.PLP.Chemscore.Hbond>
0.2055

> <Gold.PLP.Chemscore.CHOScore>
0.9861

> <Gold.PLP.Chemscore.Metal>
0.0000

> <Gold.Chemscore.Hbonds>
donor molecule, donor type, donor heavy atom, donor atom, acceptor molecule, acceptor atom, score
      P1  H  7989  7998       L1    16  0.10
      L1  C     9    31       P1  8028  1.00

> <Gold.PLP.Chemscore.Internal.Correction>
0.0122

> <Gold.Rescore>
     Score         DG    S(hbond)    S(metal)    S(lipo)     H(rot)  DE(clash)    DE(int)     intcor
     10.69     -11.08       0.00        0.00      88.14       1.84       0.12       0.27       ----

> <Gold.Chemscore.Fitness>
10.6871

> <Gold.Chemscore.DG>
-11.0765

> <Gold.Chemscore.ZeroCoef>
-5.4800

> <Gold.Chemscore.Hbond>
0.0000

> <Gold.Chemscore.Metal>
0.0000

> <Gold.Chemscore.Lipo>
88.1444

> <Gold.Chemscore.Internal_Hbond>
0.0000

> <Gold.Chemscore.DEClash>
0.1224

> <Gold.Chemscore.DEInternal>
0.2670

> <Gold.Chemscore.Rot>
1.8424

> <Gold.Chemscore.Internal.Correction>
   9.000000E+99

> <Gold.Chemscore.Hbonds>
donor molecule, donor type, donor heavy atom, donor atom, acceptor molecule, acceptor atom, score
      L1  H    14    19       P1  7957  0.02

> <Gold.Chemscore.Hbond.Weighted>
-0.0000

> <Gold.Chemscore.Metal.Weighted>
-0.0000

> <Gold.Chemscore.Lipo.Weighted>
-10.3129

> <Gold.Chemscore.Internal_Hbond.Weighted>
0.0000

> <Gold.Chemscore.DEClash.Weighted>
0.1224

> <Gold.Chemscore.DEInternal.Weighted>
0.2670

> <Gold.Chemscore.Rot.Weighted>
4.7164

> <Gold.Chemscore.Internal.Correction.Weighted>
   9.000000E+99

> <Gold.Protein.RotatedTorsions>
[ 6907 6896 6895 6894 ] final -130.21 input  -60.11 | X-H torsion
[ 7974 7965 7964 7962 ] final  128.87 input  175.53 | X-H torsion
[ 8008 7997 7996 7995 ] final -135.15 input   59.86 | X-H torsion
[ 10167 10162 10161 10158 ] final  -62.89 input  -65.29 | X-H torsion
[ 10718 10713 10712 10709 ] final   17.70 input   66.30 | X-H torsion
[ 10763 10752 10751 10750 ] final -100.58 input  -60.55 | X-H torsion
[ 11005 11000 10999 10996 ] final -123.99 input  -57.11 | X-H torsion

> <Gold.Protein.ActiveResidues>
 VAL166  LYS551  ARG553  GLY616  TRP617  ASP618  TYR619  PRO620  LYS621  CYS622 
 ASP623  PHE694  ASN695  SER759  ASP760  ASP761  ALA762  ILE779  LEU786  VAL792 
 PHE793  MET794  SER795  GLU796  ALA797  LYS798  CYS799  TRP800  GLU811  SER814 

> <Gold.Protein.RotatedAtoms>
  150.9372  133.6698  159.2798 H   0  0  0  0  0  0  0  0  0  0  0  0  # atno 6907 bound_to 6896
  151.4100  135.0982  159.9592 H   0  0  0  0  0  0  0  0  0  0  0  0  # atno 6908 bound_to 6896
  152.5053  133.8847  159.7419 H   0  0  0  0  0  0  0  0  0  0  0  0  # atno 6909 bound_to 6896
  145.0348  139.4014  143.5131 H   0  0  0  0  0  0  0  0  0  0  0  0  # atno 7974 bound_to 7965
  155.3738  140.0490  157.3045 H   0  0  0  0  0  0  0  0  0  0  0  0  # atno 8008 bound_to 7997
  154.5116  140.2194  155.9107 H   0  0  0  0  0  0  0  0  0  0  0  0  # atno 8009 bound_to 7997
  156.1589  140.3120  155.8779 H   0  0  0  0  0  0  0  0  0  0  0  0  # atno 8010 bound_to 7997
  140.5908  143.2341  151.6143 H   0  0  0  0  0  0  0  0  0  0  0  0  # atno 10167 bound_to 10162
  157.0858  130.6407  149.5837 H   0  0  0  0  0  0  0  0  0  0  0  0  # atno 10718 bound_to 10713
  154.7591  135.4929  153.9429 H   0  0  0  0  0  0  0  0  0  0  0  0  # atno 10763 bound_to 10752
  153.1230  135.6736  153.9312 H   0  0  0  0  0  0  0  0  0  0  0  0  # atno 10764 bound_to 10752
  153.9038  135.3107  155.3427 H   0  0  0  0  0  0  0  0  0  0  0  0  # atno 10765 bound_to 10752
  140.9876  134.0585  157.3692 H   0  0  0  0  0  0  0  0  0  0  0  0  # atno 11005 bound_to 11000
  146.3503  139.9918  142.8685 LP  0  0  0  0  0  0  0  0  0  0  0  0  # atno 17320 bound_to 7965
  145.1723  140.9727  143.4314 LP  0  0  0  0  0  0  0  0  0  0  0  0  # atno 17321 bound_to 7965
  139.5226  144.3157  152.0954 LP  0  0  0  0  0  0  0  0  0  0  0  0  # atno 17342 bound_to 10162
  140.2321  144.4357  150.6295 LP  0  0  0  0  0  0  0  0  0  0  0  0  # atno 17343 bound_to 10162
  155.9911  130.4965  150.7286 LP  0  0  0  0  0  0  0  0  0  0  0  0  # atno 17370 bound_to 10713
  157.4762  131.0898  151.0587 LP  0  0  0  0  0  0  0  0  0  0  0  0  # atno 17371 bound_to 10713
  139.8977  135.0151  156.7115 LP  0  0  0  0  0  0  0  0  0  0  0  0  # atno 17394 bound_to 11000
  140.7090  133.9240  155.8072 LP  0  0  0  0  0  0  0  0  0  0  0  0  # atno 17395 bound_to 11000

$$$$
