AV-unprocessed.smi:2844|AV-procd|sdf|10941|dock5
  -GOLD-   2272015393D 1   1.00000     0.00000
 Structure written by MMmdl.
 39 41  0  0  0  0  0  0  0  0  2 V2000
  152.2534  145.5431  160.3341 C   0  0  0  0  0  0  0  0  0  0  0  0
  151.8778  144.2444  159.6412 C   0  0  0  0  0  0  0  0  0  0  0  0
  151.3221  144.3092  158.3433 C   0  0  0  0  0  0  0  0  0  0  0  0
  150.9865  143.1048  157.7362 C   0  0  0  0  0  0  0  0  0  0  0  0
  150.4303  142.8340  156.4837 N   0  3  0  0  0  0  0  0  0  0  0  0
  150.2822  141.4885  156.3339 C   0  0  0  0  0  0  0  0  0  0  0  0
  150.7360  140.8972  157.4722 N   0  0  0  0  0  0  0  0  0  0  0  0
  150.8109  139.4752  157.8313 C   0  0  0  0  0  0  0  0  0  0  0  0
  152.2087  139.0598  158.3283 C   0  0  2  0  0  0  0  0  0  0  0  0
  153.1641  139.3197  157.3165 O   0  0  0  0  0  0  0  0  0  0  0  0
  152.2581  137.5735  158.7297 C   0  0  0  0  0  0  0  0  0  0  0  0
  153.0185  137.3529  159.9472 N   0  0  0  0  0  0  0  0  0  0  0  0
  153.4682  138.2947  160.8523 C   0  0  0  0  0  0  0  0  0  0  0  0
  154.1276  137.5896  161.8120 C   0  0  0  0  0  0  0  0  0  0  0  0
  154.9091  138.2300  163.2096 Cl  0  0  0  0  0  0  0  0  0  0  0  0
  154.0445  136.2250  161.4351 C   0  0  0  0  0  0  0  0  0  0  0  0
  153.3713  136.0904  160.3017 N   0  0  0  0  0  0  0  0  0  0  0  0
  151.1866  141.8657  158.3748 C   0  0  0  0  0  0  0  0  0  0  0  0
  151.7356  141.7831  159.6520 C   0  0  0  0  0  0  0  0  0  0  0  0
  152.0827  142.9972  160.2868 C   0  0  0  0  0  0  0  0  0  0  0  0
  152.6812  142.9394  161.6822 C   0  0  0  0  0  0  0  0  0  0  0  0
  152.0093  146.4089  159.7179 H   0  0  0  0  0  0  0  0  0  0  0  0
  153.3237  145.5713  160.5397 H   0  0  0  0  0  0  0  0  0  0  0  0
  151.7159  145.6446  161.2772 H   0  0  0  0  0  0  0  0  0  0  0  0
  151.1647  145.2548  157.8452 H   0  0  0  0  0  0  0  0  0  0  0  0
  149.8826  140.9812  155.4675 H   0  0  0  0  0  0  0  0  0  0  0  0
  150.0482  139.2661  158.5826 H   0  0  0  0  0  0  0  0  0  0  0  0
  150.5374  138.8996  156.9460 H   0  0  0  0  0  0  0  0  0  0  0  0
  152.4734  139.6661  159.1955 H   0  0  0  0  0  0  0  0  0  0  0  0
  153.1397  138.6107  156.6913 H   0  0  0  0  0  0  0  0  0  0  0  0
  151.2474  137.1970  158.8926 H   0  0  0  0  0  0  0  0  0  0  0  0
  152.6878  136.9723  157.9266 H   0  0  0  0  0  0  0  0  0  0  0  0
  153.2854  139.3527  160.7355 H   0  0  0  0  0  0  0  0  0  0  0  0
  154.4389  135.3506  161.9316 H   0  0  0  0  0  0  0  0  0  0  0  0
  151.8910  140.8333  160.1419 H   0  0  0  0  0  0  0  0  0  0  0  0
  152.8061  141.9103  162.0207 H   0  0  0  0  0  0  0  0  0  0  0  0
  152.0345  143.4493  162.3968 H   0  0  0  0  0  0  0  0  0  0  0  0
  153.6616  143.4156  161.7003 H   0  0  0  0  0  0  0  0  0  0  0  0
  150.1715  143.5140  155.7804 H   0  0  0  0  0  0  0  0  0  0  0  0
  1  2  1  0  0  0  0
  1 22  1  0  0  0  0
  1 23  1  0  0  0  0
  1 24  1  0  0  0  0
  2 20  1  0  0  0  0
  2  3  2  0  0  0  0
  3  4  1  0  0  0  0
  3 25  1  0  0  0  0
  4 18  2  0  0  0  0
  4  5  1  0  0  0  0
  5  6  2  0  0  0  0
  5 39  1  0  0  0  0
  6  7  1  0  0  0  0
  6 26  1  0  0  0  0
  7  8  1  0  0  0  0
  7 18  1  0  0  0  0
  8  9  1  0  0  0  0
  8 27  1  0  0  0  0
  8 28  1  0  0  0  0
  9 10  1  0  0  0  0
  9 11  1  0  0  0  0
  9 29  1  0  0  0  0
 10 30  1  0  0  0  0
 11 12  1  0  0  0  0
 11 31  1  0  0  0  0
 11 32  1  0  0  0  0
 12 17  1  0  0  0  0
 12 13  1  0  0  0  0
 13 14  2  0  0  0  0
 13 33  1  0  0  0  0
 14 15  1  0  0  0  0
 14 16  1  0  0  0  0
 16 17  2  0  0  0  0
 16 34  1  0  0  0  0
 18 19  1  0  0  0  0
 19 20  2  0  0  0  0
 19 35  1  0  0  0  0
 20 21  1  0  0  0  0
 21 36  1  0  0  0  0
 21 37  1  0  0  0  0
 21 38  1  0  0  0  0
M  CHG  1   5   1
M  END
> <s_m_source_file>
AV-unprocessed.smi

> <i_m_source_file_index>
2844

> <i_lp_mmshare_version>
43012

> <i_f3d_flags>
0

> <s_epik_input>
W0NIM11jKFtjSF0xKWMoW0NIM10pW2NIXWMoYzEyKW4oW2NIXW4yKVtDSDJdW0NASF0oW09IXSlbQ0gyXW4zW2NIXWMoQ2wpW2NIXW4z

> <s_epik_cmdline>
J2VwaWtfcHl0aG9uJywgJy1waCcsICc3LjAnLCAnLXRuJywgJzgnLCAnLW1hJywgJzIwMCcsICctbWV0YWxfYmluZGluZycsICctaW1hZScsICc8aW5maWxlLm1hZT4nLCAnLW9tYWUnLCAnPG91dGZpbGUubWFlPic=

> <r_lp_tautomer_probability>
1

> <r_epik_Ionization_Penalty>
1.09214

> <r_epik_Ionization_Penalty_Charging>
1.09214

> <r_epik_Ionization_Penalty_Neutral>
2.93683e-06

> <r_epik_State_Penalty>
1.14852

> <r_epik_Charging_Adjusted_Penalty>
2.24066

> <i_epik_Tot_Q>
1

> <i_epik_Tot_abs_Q>
1

> <r_epik_Metal_State_Penalty>
1.23687

> <b_epik_Metal_Only>
0

> <s_lp_Force_Field>
OPLS_2005

> <r_lp_Energy>
16.171

> <b_lp_Chiralities_Consistent>
1

> <s_lp_Variant>
AV-unprocessed.smi:2844-3

> <Gold.Version>
5.8.1

> <Gold.Id.Protein>
6NUR|6NUR_protein|mol2

> <Gold.PLP.Fitness>
53.1110

> <Gold.PLP.PLP>
-44.0437

> <Gold.PLP.part.hbond>
-2.7631

> <Gold.PLP.part.metal>
0.0000

> <Gold.PLP.part.buried>
-6.6433

> <Gold.PLP.part.nonpolar>
-35.6571

> <Gold.PLP.part.repulsive>
0.0688

> <Gold.PLP.ligand.clash>
0.0000

> <Gold.PLP.ligand.torsion>
0.7768

> <Gold.PLP.Chemscore.Hbond>
3.5360

> <Gold.PLP.Chemscore.CHOScore>
0.0000

> <Gold.PLP.Chemscore.Metal>
0.0000

> <Gold.Chemscore.Hbonds>
donor molecule, donor type, donor heavy atom, donor atom, acceptor molecule, acceptor atom, score
      L1  H     5    39       P1  8028  1.38
      P1  H  6896  6909       L1    17  1.00
      P1  H  7997  8008       L1    10  0.96

> <Gold.PLP.Chemscore.Internal.Correction>
0.0129

> <Gold.Rescore>
     Score         DG    S(hbond)    S(metal)    S(lipo)     H(rot)  DE(clash)    DE(int)     intcor
     20.85     -21.85       2.43        0.00     118.97       2.21       0.12       0.87       ----

> <Gold.Chemscore.Fitness>
20.8514

> <Gold.Chemscore.DG>
-21.8467

> <Gold.Chemscore.ZeroCoef>
-5.4800

> <Gold.Chemscore.Hbond>
2.4287

> <Gold.Chemscore.Metal>
0.0000

> <Gold.Chemscore.Lipo>
118.9719

> <Gold.Chemscore.Internal_Hbond>
0.0000

> <Gold.Chemscore.DEClash>
0.1236

> <Gold.Chemscore.DEInternal>
0.8717

> <Gold.Chemscore.Rot>
2.2129

> <Gold.Chemscore.Internal.Correction>
   9.000000E+99

> <Gold.Chemscore.Hbonds>
donor molecule, donor type, donor heavy atom, donor atom, acceptor molecule, acceptor atom, score
      L1  H     5    39       P1  8028  0.70
      P1  H  6896  6909       L1    17  0.78
      P1  H  7997  8008       L1    10  0.41

> <Gold.Chemscore.Hbond.Weighted>
-8.1119

> <Gold.Chemscore.Metal.Weighted>
-0.0000

> <Gold.Chemscore.Lipo.Weighted>
-13.9197

> <Gold.Chemscore.Internal_Hbond.Weighted>
0.0000

> <Gold.Chemscore.DEClash.Weighted>
0.1236

> <Gold.Chemscore.DEInternal.Weighted>
0.8717

> <Gold.Chemscore.Rot.Weighted>
5.6649

> <Gold.Chemscore.Internal.Correction.Weighted>
   9.000000E+99

> <Gold.Protein.RotatedTorsions>
[ 6907 6896 6895 6894 ] final  150.22 input  -60.11 | X-H torsion
[ 7974 7965 7964 7962 ] final   54.03 input  175.53 | X-H torsion
[ 8008 7997 7996 7995 ] final  -91.19 input   59.86 | X-H torsion
[ 10167 10162 10161 10158 ] final  162.98 input  -65.29 | X-H torsion
[ 10718 10713 10712 10709 ] final   23.28 input   66.30 | X-H torsion
[ 10763 10752 10751 10750 ] final -145.55 input  -60.55 | X-H torsion
[ 11005 11000 10999 10996 ] final  105.68 input  -57.11 | X-H torsion

> <Gold.Protein.ActiveResidues>
 VAL166  LYS551  ARG553  GLY616  TRP617  ASP618  TYR619  PRO620  LYS621  CYS622 
 ASP623  PHE694  ASN695  SER759  ASP760  ASP761  ALA762  ILE779  LEU786  VAL792 
 PHE793  MET794  SER795  GLU796  ALA797  LYS798  CYS799  TRP800  GLU811  SER814 

> <Gold.Protein.RotatedAtoms>
  152.1173  133.4334  159.4658 H   0  0  0  0  0  0  0  0  0  0  0  0  # atno 6907 bound_to 6896
  150.6870  134.2577  159.4545 H   0  0  0  0  0  0  0  0  0  0  0  0  # atno 6908 bound_to 6896
  152.0450  134.9688  160.0625 H   0  0  0  0  0  0  0  0  0  0  0  0  # atno 6909 bound_to 6896
  145.9651  139.4095  143.0224 H   0  0  0  0  0  0  0  0  0  0  0  0  # atno 7974 bound_to 7965
  154.7078  140.0522  157.0520 H   0  0  0  0  0  0  0  0  0  0  0  0  # atno 8008 bound_to 7997
  155.0597  140.3188  155.4646 H   0  0  0  0  0  0  0  0  0  0  0  0  # atno 8009 bound_to 7997
  156.2780  140.2101  156.5723 H   0  0  0  0  0  0  0  0  0  0  0  0  # atno 8010 bound_to 7997
  139.4867  144.4383  151.8984 H   0  0  0  0  0  0  0  0  0  0  0  0  # atno 10167 bound_to 10162
  157.1640  130.6729  149.6054 H   0  0  0  0  0  0  0  0  0  0  0  0  # atno 10718 bound_to 10713
  154.8378  135.3410  154.6522 H   0  0  0  0  0  0  0  0  0  0  0  0  # atno 10763 bound_to 10752
  153.7135  135.6962  153.5035 H   0  0  0  0  0  0  0  0  0  0  0  0  # atno 10764 bound_to 10752
  153.2434  135.4377  155.0675 H   0  0  0  0  0  0  0  0  0  0  0  0  # atno 10765 bound_to 10752
  139.8805  134.9344  156.5551 H   0  0  0  0  0  0  0  0  0  0  0  0  # atno 11005 bound_to 11000
  145.7985  140.9782  143.1011 LP  0  0  0  0  0  0  0  0  0  0  0  0  # atno 17320 bound_to 7965
  144.6823  139.9772  143.7483 LP  0  0  0  0  0  0  0  0  0  0  0  0  # atno 17321 bound_to 7965
  140.3833  144.2708  150.5906 LP  0  0  0  0  0  0  0  0  0  0  0  0  # atno 17342 bound_to 10162
  140.5213  143.2265  151.8384 LP  0  0  0  0  0  0  0  0  0  0  0  0  # atno 17343 bound_to 10162
  155.9749  130.4702  150.6421 LP  0  0  0  0  0  0  0  0  0  0  0  0  # atno 17370 bound_to 10713
  157.4106  131.0823  151.1224 LP  0  0  0  0  0  0  0  0  0  0  0  0  # atno 17371 bound_to 10713
  140.8211  133.8353  155.8896 LP  0  0  0  0  0  0  0  0  0  0  0  0  # atno 17394 bound_to 11000
  140.9417  134.1892  157.4792 LP  0  0  0  0  0  0  0  0  0  0  0  0  # atno 17395 bound_to 11000

$$$$
