AV-unprocessed.smi:2032|AV-procd|sdf|8249|dock9
  -GOLD-   2272010523D 1   1.00000     0.00000
 Structure written by MMmdl.
 41 42  0  0  0  0  0  0  0  0  2 V2000
  150.9350  143.4096  158.1369 C   0  0  0  0  0  0  0  0  0  0  0  0
  151.4484  142.2260  158.9639 C   0  0  1  0  0  0  0  0  0  0  0  0
  151.3386  140.8949  158.1987 C   0  0  0  0  0  0  0  0  0  0  0  0
  151.9009  139.7630  158.9410 N   0  0  0  0  0  0  0  0  0  0  0  0
  151.7693  138.4804  158.2096 C   0  0  2  0  0  0  0  0  0  0  0  0
  152.7782  138.3525  157.0393 C   0  0  0  0  0  0  0  0  0  0  0  0
  150.3315  138.2278  157.6665 C   0  0  0  0  0  0  0  0  0  0  0  0
  149.3279  138.0553  158.7145 N   0  0  0  0  0  0  0  0  0  0  0  0
  148.7577  136.8971  159.0760 C   0  0  0  0  0  0  0  0  0  0  0  0
  149.0819  135.8490  158.5126 O   0  0  0  0  0  0  0  0  0  0  0  0
  147.8436  137.0271  160.0643 N   0  5  0  0  0  0  0  0  0  0  0  0
  147.3705  135.9378  160.6912 C   0  0  0  0  0  0  0  0  0  0  0  0
  147.0046  134.8250  160.0447 N   0  0  0  0  0  0  0  0  0  0  0  0
  146.5532  133.8128  160.8935 C   0  0  0  0  0  0  0  0  0  0  0  0
  146.5850  134.1595  162.2183 C   0  0  0  0  0  0  0  0  0  0  0  0
  147.1847  135.7783  162.4404 S   0  0  0  0  0  0  0  0  0  0  0  0
  153.2933  140.0888  159.2699 C   0  0  0  0  0  0  0  0  0  0  0  0
  153.4534  141.4299  160.0132 C   0  0  2  0  0  0  0  0  0  0  0  0
  152.9881  141.3727  161.4787 C   0  0  0  0  0  0  0  0  0  0  0  0
  152.8105  142.4778  159.2914 O   0  0  0  0  0  0  0  0  0  0  0  0
  149.8871  143.2758  157.8672 H   0  0  0  0  0  0  0  0  0  0  0  0
  151.5062  143.5245  157.2151 H   0  0  0  0  0  0  0  0  0  0  0  0
  151.0169  144.3410  158.6975 H   0  0  0  0  0  0  0  0  0  0  0  0
  150.8584  142.1686  159.8788 H   0  0  0  0  0  0  0  0  0  0  0  0
  150.2816  140.7343  157.9961 H   0  0  0  0  0  0  0  0  0  0  0  0
  151.8362  140.9844  157.2316 H   0  0  0  0  0  0  0  0  0  0  0  0
  151.9947  137.6746  158.9096 H   0  0  0  0  0  0  0  0  0  0  0  0
  152.6417  137.4350  156.4682 H   0  0  0  0  0  0  0  0  0  0  0  0
  153.8102  138.3148  157.3849 H   0  0  0  0  0  0  0  0  0  0  0  0
  152.6831  139.1872  156.3443 H   0  0  0  0  0  0  0  0  0  0  0  0
  149.9823  139.0451  157.0371 H   0  0  0  0  0  0  0  0  0  0  0  0
  150.3233  137.3334  157.0431 H   0  0  0  0  0  0  0  0  0  0  0  0
  149.0350  138.8873  159.2050 H   0  0  0  0  0  0  0  0  0  0  0  0
  146.2298  132.8745  160.4679 H   0  0  0  0  0  0  0  0  0  0  0  0
  146.2960  133.5655  163.0722 H   0  0  0  0  0  0  0  0  0  0  0  0
  153.7370  139.3210  159.8998 H   0  0  0  0  0  0  0  0  0  0  0  0
  153.8833  140.1189  158.3524 H   0  0  0  0  0  0  0  0  0  0  0  0
  154.5148  141.6781  160.0283 H   0  0  0  0  0  0  0  0  0  0  0  0
  153.5766  140.6492  162.0434 H   0  0  0  0  0  0  0  0  0  0  0  0
  151.9425  141.0782  161.5670 H   0  0  0  0  0  0  0  0  0  0  0  0
  153.1044  142.3429  161.9622 H   0  0  0  0  0  0  0  0  0  0  0  0
  1  2  1  0  0  0  0
  1 21  1  0  0  0  0
  1 22  1  0  0  0  0
  1 23  1  0  0  0  0
  2 20  1  0  0  0  0
  2  3  1  0  0  0  0
  2 24  1  0  0  0  0
  3  4  1  0  0  0  0
  3 25  1  0  0  0  0
  3 26  1  0  0  0  0
  4  5  1  0  0  0  0
  4 17  1  0  0  0  0
  5  6  1  0  0  0  0
  5  7  1  0  0  0  0
  5 27  1  0  0  0  0
  6 28  1  0  0  0  0
  6 29  1  0  0  0  0
  6 30  1  0  0  0  0
  7  8  1  0  0  0  0
  7 31  1  0  0  0  0
  7 32  1  0  0  0  0
  8  9  1  0  0  0  0
  8 33  1  0  0  0  0
  9 10  2  0  0  0  0
  9 11  1  0  0  0  0
 11 12  1  0  0  0  0
 12 16  1  0  0  0  0
 12 13  2  0  0  0  0
 13 14  1  0  0  0  0
 14 15  2  0  0  0  0
 14 34  1  0  0  0  0
 15 16  1  0  0  0  0
 15 35  1  0  0  0  0
 17 18  1  0  0  0  0
 17 36  1  0  0  0  0
 17 37  1  0  0  0  0
 18 19  1  0  0  0  0
 18 20  1  0  0  0  0
 18 38  1  0  0  0  0
 19 39  1  0  0  0  0
 19 40  1  0  0  0  0
 19 41  1  0  0  0  0
M  CHG  1  11  -1
M  END
> <s_m_source_file>
AV-unprocessed.smi

> <i_m_source_file_index>
2032

> <i_lp_mmshare_version>
43012

> <i_f3d_flags>
0

> <s_epik_input>
W0NIM11bQ0BASF0xW0NIMl1OKFtDSDJdW0NASF0oTzEpW0NIM10pW0NASF0oW0NIM10pW0NIMl1bTkhdQyg9TylbTkhdYzJuW2NIXVtjSF1zMg==

> <s_epik_cmdline>
J2VwaWtfcHl0aG9uJywgJy1waCcsICc3LjAnLCAnLXRuJywgJzgnLCAnLW1hJywgJzIwMCcsICctbWV0YWxfYmluZGluZycsICctaW1hZScsICc8aW5maWxlLm1hZT4nLCAnLW9tYWUnLCAnPG91dGZpbGUubWFlPic=

> <r_lp_tautomer_probability>
0.999

> <r_epik_Ionization_Penalty>
7.22375

> <r_epik_Ionization_Penalty_Charging>
5.82415

> <r_epik_Ionization_Penalty_Neutral>
1.39959

> <r_epik_State_Penalty>
6.03347

> <r_epik_Charging_Adjusted_Penalty>
11.8576

> <i_epik_Tot_Q>
-1

> <i_epik_Tot_abs_Q>
1

> <r_epik_Metal_State_Penalty>
2.01024

> <b_epik_Metal_Only>
1

> <s_lp_Force_Field>
OPLS_2005

> <r_lp_Energy>
25.9518

> <b_lp_Chiralities_Consistent>
1

> <s_lp_Variant>
AV-unprocessed.smi:2032-19

> <Gold.Version>
5.8.1

> <Gold.Id.Protein>
6NUR|6NUR_protein|mol2

> <Gold.PLP.Fitness>
47.3512

> <Gold.PLP.PLP>
-37.6808

> <Gold.PLP.part.hbond>
-3.0000

> <Gold.PLP.part.metal>
0.0000

> <Gold.PLP.part.buried>
-5.2489

> <Gold.PLP.part.nonpolar>
-31.2211

> <Gold.PLP.part.repulsive>
0.2374

> <Gold.PLP.ligand.clash>
0.0000

> <Gold.PLP.ligand.torsion>
0.6800

> <Gold.PLP.Chemscore.Hbond>
3.6526

> <Gold.PLP.Chemscore.CHOScore>
0.0000

> <Gold.PLP.Chemscore.Metal>
0.0000

> <Gold.Chemscore.Hbonds>
donor molecule, donor type, donor heavy atom, donor atom, acceptor molecule, acceptor atom, score
      P1  H  6896  6907       L1    10  0.29
      P1  H  6934  6947       L1    11  0.68

> <Gold.PLP.Chemscore.Internal.Correction>
0.0725

> <Gold.Rescore>
     Score         DG    S(hbond)    S(metal)    S(lipo)     H(rot)  DE(clash)    DE(int)     intcor
     16.67     -18.69       1.80        0.00      95.35       1.54       0.11       1.91       ----

> <Gold.Chemscore.Fitness>
16.6671

> <Gold.Chemscore.DG>
-18.6868

> <Gold.Chemscore.ZeroCoef>
-5.4800

> <Gold.Chemscore.Hbond>
1.7968

> <Gold.Chemscore.Metal>
0.0000

> <Gold.Chemscore.Lipo>
95.3498

> <Gold.Chemscore.Internal_Hbond>
0.0000

> <Gold.Chemscore.DEClash>
0.1085

> <Gold.Chemscore.DEInternal>
1.9112

> <Gold.Chemscore.Rot>
1.5431

> <Gold.Chemscore.Internal.Correction>
   9.000000E+99

> <Gold.Chemscore.Hbonds>
donor molecule, donor type, donor heavy atom, donor atom, acceptor molecule, acceptor atom, score
      P1  H  6896  6907       L1    10  0.28
      P1  H  6934  6947       L1    11  0.32

> <Gold.Chemscore.Hbond.Weighted>
-6.0012

> <Gold.Chemscore.Metal.Weighted>
-0.0000

> <Gold.Chemscore.Lipo.Weighted>
-11.1559

> <Gold.Chemscore.Internal_Hbond.Weighted>
0.0000

> <Gold.Chemscore.DEClash.Weighted>
0.1085

> <Gold.Chemscore.DEInternal.Weighted>
1.9112

> <Gold.Chemscore.Rot.Weighted>
3.9503

> <Gold.Chemscore.Internal.Correction.Weighted>
   9.000000E+99

> <Gold.Protein.RotatedTorsions>
[ 6907 6896 6895 6894 ] final  -79.31 input  -60.11 | X-H torsion
[ 7974 7965 7964 7962 ] final -139.10 input  175.53 | X-H torsion
[ 8008 7997 7996 7995 ] final   -6.35 input   59.86 | X-H torsion
[ 10167 10162 10161 10158 ] final  -21.04 input  -65.29 | X-H torsion
[ 10718 10713 10712 10709 ] final -134.79 input   66.30 | X-H torsion
[ 10763 10752 10751 10750 ] final  -52.82 input  -60.55 | X-H torsion
[ 11005 11000 10999 10996 ] final -176.29 input  -57.11 | X-H torsion

> <Gold.Protein.ActiveResidues>
 VAL166  LYS551  ARG553  GLY616  TRP617  ASP618  TYR619  PRO620  LYS621  CYS622 
 ASP623  PHE694  ASN695  SER759  ASP760  ASP761  ALA762  ILE779  LEU786  VAL792 
 PHE793  MET794  SER795  GLU796  ALA797  LYS798  CYS799  TRP800  GLU811  SER814 

> <Gold.Protein.RotatedAtoms>
  150.6952  134.4140  159.5174 H   0  0  0  0  0  0  0  0  0  0  0  0  # atno 6907 bound_to 6896
  152.1894  134.8683  160.0528 H   0  0  0  0  0  0  0  0  0  0  0  0  # atno 6908 bound_to 6896
  151.9644  133.3670  159.4084 H   0  0  0  0  0  0  0  0  0  0  0  0  # atno 6909 bound_to 6896
  144.8704  140.6358  143.5270 H   0  0  0  0  0  0  0  0  0  0  0  0  # atno 7974 bound_to 7965
  154.5946  140.2435  155.7874 H   0  0  0  0  0  0  0  0  0  0  0  0  # atno 8008 bound_to 7997
  156.2270  140.2979  156.0046 H   0  0  0  0  0  0  0  0  0  0  0  0  # atno 8009 bound_to 7997
  155.2315  140.0404  157.2953 H   0  0  0  0  0  0  0  0  0  0  0  0  # atno 8010 bound_to 7997
  140.7280  143.4665  151.0306 H   0  0  0  0  0  0  0  0  0  0  0  0  # atno 10167 bound_to 10162
  156.2593  130.7200  151.1128 H   0  0  0  0  0  0  0  0  0  0  0  0  # atno 10718 bound_to 10713
  154.1489  135.6493  153.4959 H   0  0  0  0  0  0  0  0  0  0  0  0  # atno 10763 bound_to 10752
  153.0143  135.5333  154.6829 H   0  0  0  0  0  0  0  0  0  0  0  0  # atno 10764 bound_to 10752
  154.6111  135.2954  155.0403 H   0  0  0  0  0  0  0  0  0  0  0  0  # atno 10765 bound_to 10752
  140.4538  134.6319  157.4813 H   0  0  0  0  0  0  0  0  0  0  0  0  # atno 11005 bound_to 11000
  145.4141  139.1575  143.4110 LP  0  0  0  0  0  0  0  0  0  0  0  0  # atno 17320 bound_to 7965
  146.2926  140.4246  142.8733 LP  0  0  0  0  0  0  0  0  0  0  0  0  # atno 17321 bound_to 7965
  139.8354  143.7635  152.3180 LP  0  0  0  0  0  0  0  0  0  0  0  0  # atno 17342 bound_to 10162
  139.7765  144.7459  151.0149 LP  0  0  0  0  0  0  0  0  0  0  0  0  # atno 17343 bound_to 10162
  157.7244  131.0660  150.5995 LP  0  0  0  0  0  0  0  0  0  0  0  0  # atno 17370 bound_to 10713
  156.6082  130.4373  149.5870 LP  0  0  0  0  0  0  0  0  0  0  0  0  # atno 17371 bound_to 10713
  139.9989  134.6867  155.9562 LP  0  0  0  0  0  0  0  0  0  0  0  0  # atno 17394 bound_to 11000
  141.1652  133.6537  156.4455 LP  0  0  0  0  0  0  0  0  0  0  0  0  # atno 17395 bound_to 11000

$$$$
