AV-unprocessed.smi:2561|AV-procd|sdf|10040|dock6
  -GOLD-   2272014 83D 1   1.00000     0.00000
 Structure written by MMmdl.
 32 33  0  0  0  0  0  0  0  0  1 V2000
  146.2444  138.0178  152.0312 C   0  0  0  0  0  0  0  0  0  0  0  0
  147.4531  138.7269  152.4229 N   0  0  0  0  0  0  0  0  0  0  0  0
  147.6769  139.2105  153.6517 C   0  0  0  0  0  0  0  0  0  0  0  0
  146.8722  139.1046  154.5772 O   0  0  0  0  0  0  0  0  0  0  0  0
  148.8686  139.8284  153.7219 N   0  0  0  0  0  0  0  0  0  0  0  0
  149.4672  140.4719  154.8387 C   0  0  0  0  0  0  0  0  0  0  0  0
  150.8565  140.4733  155.1081 C   0  0  0  0  0  0  0  0  0  0  0  0
  151.3292  141.1627  156.2413 C   0  0  0  0  0  0  0  0  0  0  0  0
  150.4046  141.8374  157.0647 C   0  0  0  0  0  0  0  0  0  0  0  0
  150.8792  142.5214  158.1943 N   0  0  0  0  0  0  0  0  0  0  0  0
  151.6596  141.7250  159.1271 C   0  0  0  0  0  0  0  0  0  0  0  0
  152.3716  142.7362  160.0291 C   0  0  0  0  0  0  0  0  0  0  0  0
  152.3975  144.0370  159.2173 C   0  0  0  0  0  0  0  0  0  0  0  0
  151.6839  143.6970  157.9059 C   0  0  0  0  0  0  0  0  0  0  0  0
  149.0753  141.8505  156.8049 N   0  0  0  0  0  0  0  0  0  0  0  0
  148.6284  141.1875  155.7177 C   0  0  0  0  0  0  0  0  0  0  0  0
  146.3062  137.7292  150.9819 H   0  0  0  0  0  0  0  0  0  0  0  0
  145.3642  138.6490  152.1601 H   0  0  0  0  0  0  0  0  0  0  0  0
  146.1148  137.1135  152.6270 H   0  0  0  0  0  0  0  0  0  0  0  0
  148.1607  138.8589  151.7149 H   0  0  0  0  0  0  0  0  0  0  0  0
  149.3823  139.8998  152.8558 H   0  0  0  0  0  0  0  0  0  0  0  0
  151.5665  139.9756  154.4663 H   0  0  0  0  0  0  0  0  0  0  0  0
  152.3852  141.1764  156.4691 H   0  0  0  0  0  0  0  0  0  0  0  0
  151.0201  141.0544  159.7019 H   0  0  0  0  0  0  0  0  0  0  0  0
  152.3940  141.1179  158.5959 H   0  0  0  0  0  0  0  0  0  0  0  0
  151.8063  142.8852  160.9497 H   0  0  0  0  0  0  0  0  0  0  0  0
  153.3706  142.3963  160.3035 H   0  0  0  0  0  0  0  0  0  0  0  0
  151.8575  144.8191  159.7521 H   0  0  0  0  0  0  0  0  0  0  0  0
  153.4118  144.3957  159.0402 H   0  0  0  0  0  0  0  0  0  0  0  0
  152.4160  143.4772  157.1273 H   0  0  0  0  0  0  0  0  0  0  0  0
  151.0628  144.5241  157.5611 H   0  0  0  0  0  0  0  0  0  0  0  0
  147.5622  141.2262  155.5479 H   0  0  0  0  0  0  0  0  0  0  0  0
  1  2  1  0  0  0  0
  1 17  1  0  0  0  0
  1 18  1  0  0  0  0
  1 19  1  0  0  0  0
  2  3  1  0  0  0  0
  2 20  1  0  0  0  0
  3  4  2  0  0  0  0
  3  5  1  0  0  0  0
  5  6  1  0  0  0  0
  5 21  1  0  0  0  0
  6 16  1  0  0  0  0
  6  7  2  0  0  0  0
  7  8  1  0  0  0  0
  7 22  1  0  0  0  0
  8  9  2  0  0  0  0
  8 23  1  0  0  0  0
  9 10  1  0  0  0  0
  9 15  1  0  0  0  0
 10 14  1  0  0  0  0
 10 11  1  0  0  0  0
 11 12  1  0  0  0  0
 11 24  1  0  0  0  0
 11 25  1  0  0  0  0
 12 13  1  0  0  0  0
 12 26  1  0  0  0  0
 12 27  1  0  0  0  0
 13 14  1  0  0  0  0
 13 28  1  0  0  0  0
 13 29  1  0  0  0  0
 14 30  1  0  0  0  0
 14 31  1  0  0  0  0
 15 16  2  0  0  0  0
 16 32  1  0  0  0  0
M  END
> <s_m_source_file>
AV-unprocessed.smi

> <i_m_source_file_index>
2561

> <i_lp_mmshare_version>
43012

> <i_f3d_flags>
0

> <s_epik_input>
W0NIM11bTkhdQyg9TylbTkhdYzFbY0hdW2NIXWMobltjSF0xKU4yW0NIMl1bQ0gyXVtDSDJdW0NIMl0y

> <s_epik_cmdline>
J2VwaWtfcHl0aG9uJywgJy1waCcsICc3LjAnLCAnLXRuJywgJzgnLCAnLW1hJywgJzIwMCcsICctbWV0YWxfYmluZGluZycsICctaW1hZScsICc8aW5maWxlLm1hZT4nLCAnLW9tYWUnLCAnPG91dGZpbGUubWFlPic=

> <r_lp_tautomer_probability>
1

> <r_epik_Ionization_Penalty>
0.281536

> <r_epik_Ionization_Penalty_Charging>
0

> <r_epik_Ionization_Penalty_Neutral>
0.281536

> <r_epik_State_Penalty>
0.27354

> <r_epik_Charging_Adjusted_Penalty>
0.27354

> <i_epik_Tot_Q>
0

> <i_epik_Tot_abs_Q>
0

> <r_epik_Metal_State_Penalty>
0.184484

> <b_epik_Metal_Only>
0

> <s_lp_Force_Field>
OPLS_2005

> <r_lp_Energy>
32.7589

> <b_lp_Chiralities_Consistent>
1

> <s_lp_Variant>
AV-unprocessed.smi:2561-1

> <Gold.Version>
5.8.1

> <Gold.Id.Protein>
6NUR|6NUR_protein|mol2

> <Gold.PLP.Fitness>
36.8401

> <Gold.PLP.PLP>
-31.9159

> <Gold.PLP.part.hbond>
-3.0000

> <Gold.PLP.part.metal>
0.0000

> <Gold.PLP.part.buried>
-1.9886

> <Gold.PLP.part.nonpolar>
-28.5440

> <Gold.PLP.part.repulsive>
1.3813

> <Gold.PLP.ligand.clash>
0.0000

> <Gold.PLP.ligand.torsion>
0.3415

> <Gold.PLP.Chemscore.Hbond>
1.8640

> <Gold.PLP.Chemscore.CHOScore>
0.0000

> <Gold.PLP.Chemscore.Metal>
0.0000

> <Gold.Chemscore.Hbonds>
donor molecule, donor type, donor heavy atom, donor atom, acceptor molecule, acceptor atom, score
      L1  H     2    20       P1  7957  0.90
      L1  H     5    21       P1  7957  1.00

> <Gold.PLP.Chemscore.Internal.Correction>
0.0152

> <Gold.Rescore>
     Score         DG    S(hbond)    S(metal)    S(lipo)     H(rot)  DE(clash)    DE(int)     intcor
     16.23     -18.56       1.95        0.00      77.97       1.00       0.89       1.44       ----

> <Gold.Chemscore.Fitness>
16.2288

> <Gold.Chemscore.DG>
-18.5563

> <Gold.Chemscore.ZeroCoef>
-5.4800

> <Gold.Chemscore.Hbond>
1.9503

> <Gold.Chemscore.Metal>
0.0000

> <Gold.Chemscore.Lipo>
77.9694

> <Gold.Chemscore.Internal_Hbond>
0.0000

> <Gold.Chemscore.DEClash>
0.8879

> <Gold.Chemscore.DEInternal>
1.4396

> <Gold.Chemscore.Rot>
1.0000

> <Gold.Chemscore.Internal.Correction>
   9.000000E+99

> <Gold.Chemscore.Hbonds>
donor molecule, donor type, donor heavy atom, donor atom, acceptor molecule, acceptor atom, score
      L1  H     2    20       P1  7957  0.72
      L1  H     5    21       P1  7957  0.99

> <Gold.Chemscore.Hbond.Weighted>
-6.5139

> <Gold.Chemscore.Metal.Weighted>
-0.0000

> <Gold.Chemscore.Lipo.Weighted>
-9.1224

> <Gold.Chemscore.Internal_Hbond.Weighted>
0.0000

> <Gold.Chemscore.DEClash.Weighted>
0.8879

> <Gold.Chemscore.DEInternal.Weighted>
1.4396

> <Gold.Chemscore.Rot.Weighted>
2.5600

> <Gold.Chemscore.Internal.Correction.Weighted>
   9.000000E+99

> <Gold.Protein.RotatedTorsions>
[ 6907 6896 6895 6894 ] final  176.95 input  -60.11 | X-H torsion
[ 7974 7965 7964 7962 ] final -163.26 input  175.53 | X-H torsion
[ 8008 7997 7996 7995 ] final  121.46 input   59.86 | X-H torsion
[ 10167 10162 10161 10158 ] final  -49.57 input  -65.29 | X-H torsion
[ 10718 10713 10712 10709 ] final    4.29 input   66.30 | X-H torsion
[ 10763 10752 10751 10750 ] final  124.29 input  -60.55 | X-H torsion
[ 11005 11000 10999 10996 ] final  -41.61 input  -57.11 | X-H torsion

> <Gold.Protein.ActiveResidues>
 VAL166  LYS551  ARG553  GLY616  TRP617  ASP618  TYR619  PRO620  LYS621  CYS622 
 ASP623  PHE694  ASN695  SER759  ASP760  ASP761  ALA762  ILE779  LEU786  VAL792 
 PHE793  MET794  SER795  GLU796  ALA797  LYS798  CYS799  TRP800  GLU811  SER814 

> <Gold.Protein.RotatedAtoms>
  151.7118  133.3312  159.3292 H   0  0  0  0  0  0  0  0  0  0  0  0  # atno 6907 bound_to 6896
  150.7690  134.6525  159.6305 H   0  0  0  0  0  0  0  0  0  0  0  0  # atno 6908 bound_to 6896
  152.3706  134.6741  160.0229 H   0  0  0  0  0  0  0  0  0  0  0  0  # atno 6909 bound_to 6896
  144.7331  140.3133  143.6184 H   0  0  0  0  0  0  0  0  0  0  0  0  # atno 7974 bound_to 7965
  156.2687  140.2808  156.1312 H   0  0  0  0  0  0  0  0  0  0  0  0  # atno 8008 bound_to 7997
  155.1052  140.0390  157.2726 H   0  0  0  0  0  0  0  0  0  0  0  0  # atno 8009 bound_to 7997
  154.6784  140.2603  155.6939 H   0  0  0  0  0  0  0  0  0  0  0  0  # atno 8010 bound_to 7997
  140.6679  143.2692  151.4234 H   0  0  0  0  0  0  0  0  0  0  0  0  # atno 10167 bound_to 10162
  156.8905  130.5685  149.5650 H   0  0  0  0  0  0  0  0  0  0  0  0  # atno 10718 bound_to 10713
  153.6591  135.3349  155.3122 H   0  0  0  0  0  0  0  0  0  0  0  0  # atno 10763 bound_to 10752
  154.8519  135.4359  154.1823 H   0  0  0  0  0  0  0  0  0  0  0  0  # atno 10764 bound_to 10752
  153.2785  135.7007  153.7484 H   0  0  0  0  0  0  0  0  0  0  0  0  # atno 10765 bound_to 10752
  141.0258  133.6842  156.2481 H   0  0  0  0  0  0  0  0  0  0  0  0  # atno 11005 bound_to 11000
  145.7642  139.1835  143.2249 LP  0  0  0  0  0  0  0  0  0  0  0  0  # atno 17320 bound_to 7965
  146.0962  140.7598  142.9571 LP  0  0  0  0  0  0  0  0  0  0  0  0  # atno 17321 bound_to 7965
  139.5934  144.1449  152.2116 LP  0  0  0  0  0  0  0  0  0  0  0  0  # atno 17342 bound_to 10162
  140.0810  144.5700  150.7122 LP  0  0  0  0  0  0  0  0  0  0  0  0  # atno 17343 bound_to 10162
  156.0632  130.5680  150.9234 LP  0  0  0  0  0  0  0  0  0  0  0  0  # atno 17370 bound_to 10713
  157.6087  131.0937  150.8834 LP  0  0  0  0  0  0  0  0  0  0  0  0  # atno 17371 bound_to 10713
  140.6494  134.5083  157.5576 LP  0  0  0  0  0  0  0  0  0  0  0  0  # atno 17394 bound_to 11000
  139.9175  134.8217  156.1319 LP  0  0  0  0  0  0  0  0  0  0  0  0  # atno 17395 bound_to 11000

$$$$
