AV-unprocessed.smi:2188|AV-procd|sdf|8883|dock6
  -GOLD-   2272012 83D 1   1.00000     0.00000
 Structure written by MMmdl.
 39 41  0  0  0  0  0  0  0  0  3 V2000
  151.4750  140.1369  156.1520 O   0  0  0  0  0  0  0  0  0  0  0  0
  150.9060  141.1869  156.4792 C   0  0  0  0  0  0  0  0  0  0  0  0
  149.7687  141.6764  155.8940 N   0  5  0  0  0  0  0  0  0  0  0  0
  148.7117  140.8724  155.2824 C   0  0  0  0  0  0  0  0  0  0  0  0
  147.9066  141.7441  154.2984 C   0  0  0  0  0  0  0  0  0  0  0  0
  146.5441  142.1659  154.8307 C   0  0  0  0  0  0  0  0  0  0  0  0
  146.1172  141.7675  156.1192 C   0  0  0  0  0  0  0  0  0  0  0  0
  144.8466  142.1661  156.5834 C   0  0  0  0  0  0  0  0  0  0  0  0
  144.0261  142.9508  155.7479 C   0  0  0  0  0  0  0  0  0  0  0  0
  144.4624  143.3080  154.5202 N   0  3  0  0  0  0  0  0  0  0  0  0
  145.6721  142.9473  154.0388 C   0  0  0  0  0  0  0  0  0  0  0  0
  151.4875  142.0104  157.5595 C   0  0  0  0  0  0  0  0  0  0  0  0
  150.9654  143.2450  157.7882 C   0  0  0  0  0  0  0  0  0  0  0  0
  151.4650  144.1036  158.8327 C   0  0  0  0  0  0  0  0  0  0  0  0
  152.4941  143.6669  159.5656 C   0  0  0  0  0  0  0  0  0  0  0  0
  153.1013  142.4282  159.3673 N   0  0  0  0  0  0  0  0  0  0  0  0
  154.2785  142.1338  160.1772 C   0  0  0  0  0  0  0  0  0  0  0  0
  154.2498  140.6912  160.6475 C   0  0  0  0  0  0  0  0  0  0  0  0
  154.3438  139.6730  159.1320 S   0  0  0  0  0  0  0  0  0  0  0  0
  155.5989  140.0028  158.4385 O   0  0  0  0  0  0  0  0  0  0  0  0
  154.0705  138.2763  159.5030 O   0  0  0  0  0  0  0  0  0  0  0  0
  153.0532  140.2977  158.2665 N   0  0  0  0  0  0  0  0  0  0  0  0
  152.6003  141.5129  158.3984 C   0  0  0  0  0  0  0  0  0  0  0  0
  149.1050  140.0123  154.7387 H   0  0  0  0  0  0  0  0  0  0  0  0
  148.0346  140.4661  156.0344 H   0  0  0  0  0  0  0  0  0  0  0  0
  148.4755  142.6403  154.0461 H   0  0  0  0  0  0  0  0  0  0  0  0
  147.7589  141.2054  153.3610 H   0  0  0  0  0  0  0  0  0  0  0  0
  146.7598  141.1669  156.7468 H   0  0  0  0  0  0  0  0  0  0  0  0
  144.5082  141.8741  157.5668 H   0  0  0  0  0  0  0  0  0  0  0  0
  143.0414  143.3000  156.0222 H   0  0  0  0  0  0  0  0  0  0  0  0
  145.9078  143.2948  153.0433 H   0  0  0  0  0  0  0  0  0  0  0  0
  150.1580  143.6302  157.1817 H   0  0  0  0  0  0  0  0  0  0  0  0
  151.0204  145.0703  159.0170 H   0  0  0  0  0  0  0  0  0  0  0  0
  152.9133  144.2652  160.3615 H   0  0  0  0  0  0  0  0  0  0  0  0
  155.1770  142.3363  159.5935 H   0  0  0  0  0  0  0  0  0  0  0  0
  154.3201  142.7863  161.0498 H   0  0  0  0  0  0  0  0  0  0  0  0
  155.1026  140.4540  161.2829 H   0  0  0  0  0  0  0  0  0  0  0  0
  153.3337  140.4529  161.1889 H   0  0  0  0  0  0  0  0  0  0  0  0
  143.8527  143.8753  153.9309 H   0  0  0  0  0  0  0  0  0  0  0  0
  1  2  2  0  0  0  0
  2  3  1  0  0  0  0
  2 12  1  0  0  0  0
  3  4  1  0  0  0  0
  4  5  1  0  0  0  0
  4 24  1  0  0  0  0
  4 25  1  0  0  0  0
  5  6  1  0  0  0  0
  5 26  1  0  0  0  0
  5 27  1  0  0  0  0
  6 11  1  0  0  0  0
  6  7  2  0  0  0  0
  7  8  1  0  0  0  0
  7 28  1  0  0  0  0
  8  9  2  0  0  0  0
  8 29  1  0  0  0  0
  9 10  1  0  0  0  0
  9 30  1  0  0  0  0
 10 11  2  0  0  0  0
 10 39  1  0  0  0  0
 11 31  1  0  0  0  0
 12 23  1  0  0  0  0
 12 13  2  0  0  0  0
 13 14  1  0  0  0  0
 13 32  1  0  0  0  0
 14 15  2  0  0  0  0
 14 33  1  0  0  0  0
 15 16  1  0  0  0  0
 15 34  1  0  0  0  0
 16 23  1  0  0  0  0
 16 17  1  0  0  0  0
 17 18  1  0  0  0  0
 17 35  1  0  0  0  0
 17 36  1  0  0  0  0
 18 19  1  0  0  0  0
 18 37  1  0  0  0  0
 18 38  1  0  0  0  0
 19 20  2  0  0  0  0
 19 21  2  0  0  0  0
 19 22  1  0  0  0  0
 22 23  2  0  0  0  0
M  CHG  1   3  -1
M  CHG  1  10   1
M  END
> <s_m_source_file>
AV-unprocessed.smi

> <i_m_source_file_index>
2188

> <i_lp_mmshare_version>
43012

> <i_f3d_flags>
0

> <s_epik_input>
W0NIMl0xW0NIMl1TKD1PKSg9TylOPUMoTjEyKUMoPVtDSF1bQ0hdPVtDSF0yKUMoPU8pW05IXVtDSDJdW0NIMl1jM1tjSF1bY0hdW2NIXW5bY0hdMw==

> <s_epik_cmdline>
J2VwaWtfcHl0aG9uJywgJy1waCcsICc3LjAnLCAnLXRuJywgJzgnLCAnLW1hJywgJzIwMCcsICctbWV0YWxfYmluZGluZycsICctaW1hZScsICc8aW5maWxlLm1hZT4nLCAnLW9tYWUnLCAnPG91dGZpbGUubWFlPic=

> <r_epik_Ionization_Penalty>
7.27179

> <r_epik_Ionization_Penalty_Charging>
7.27179

> <r_epik_Ionization_Penalty_Neutral>
0

> <r_epik_State_Penalty>
7.89047

> <r_epik_Charging_Adjusted_Penalty>
15.1623

> <i_epik_Tot_Q>
0

> <i_epik_Tot_abs_Q>
2

> <r_epik_Metal_State_Penalty>
3.9241

> <b_epik_Metal_Only>
1

> <s_lp_Force_Field>
OPLS_2005

> <r_lp_Energy>
37.465

> <b_lp_Chiralities_Consistent>
1

> <s_lp_Variant>
AV-unprocessed.smi:2188-4

> <Gold.Version>
5.8.1

> <Gold.Id.Protein>
6NUR|6NUR_protein|mol2

> <Gold.PLP.Fitness>
48.5972

> <Gold.PLP.PLP>
-47.1946

> <Gold.PLP.part.hbond>
-1.8972

> <Gold.PLP.part.metal>
0.0000

> <Gold.PLP.part.buried>
-6.9544

> <Gold.PLP.part.nonpolar>
-38.9455

> <Gold.PLP.part.repulsive>
0.1915

> <Gold.PLP.ligand.clash>
0.5419

> <Gold.PLP.ligand.torsion>
0.6817

> <Gold.PLP.Chemscore.Hbond>
1.0000

> <Gold.PLP.Chemscore.CHOScore>
0.0000

> <Gold.PLP.Chemscore.Metal>
0.0000

> <Gold.PLP.Chemscore.Internal.Correction>
0.3079

> <Gold.Rescore>
     Score         DG    S(hbond)    S(metal)    S(lipo)     H(rot)  DE(clash)    DE(int)     intcor
     13.79     -16.21       1.00        0.00      96.34       1.51       0.03       2.40       ----

> <Gold.Chemscore.Fitness>
13.7867

> <Gold.Chemscore.DG>
-16.2143

> <Gold.Chemscore.ZeroCoef>
-5.4800

> <Gold.Chemscore.Hbond>
0.9971

> <Gold.Chemscore.Metal>
0.0000

> <Gold.Chemscore.Lipo>
96.3427

> <Gold.Chemscore.Internal_Hbond>
0.0000

> <Gold.Chemscore.DEClash>
0.0318

> <Gold.Chemscore.DEInternal>
2.3957

> <Gold.Chemscore.Rot>
1.5109

> <Gold.Chemscore.Internal.Correction>
   9.000000E+99

> <Gold.Chemscore.Hbonds>
donor molecule, donor type, donor heavy atom, donor atom, acceptor molecule, acceptor atom, score
      P1  H  7997  8009       L1    20  0.02

> <Gold.Chemscore.Hbond.Weighted>
-3.3302

> <Gold.Chemscore.Metal.Weighted>
-0.0000

> <Gold.Chemscore.Lipo.Weighted>
-11.2721

> <Gold.Chemscore.Internal_Hbond.Weighted>
0.0000

> <Gold.Chemscore.DEClash.Weighted>
0.0318

> <Gold.Chemscore.DEInternal.Weighted>
2.3957

> <Gold.Chemscore.Rot.Weighted>
3.8680

> <Gold.Chemscore.Internal.Correction.Weighted>
   9.000000E+99

> <Gold.Protein.RotatedTorsions>
[ 6907 6896 6895 6894 ] final -141.83 input  -60.11 | X-H torsion
[ 7974 7965 7964 7962 ] final -147.58 input  175.53 | X-H torsion
[ 8008 7997 7996 7995 ] final   94.04 input   59.86 | X-H torsion
[ 10167 10162 10161 10158 ] final  -88.44 input  -65.29 | X-H torsion
[ 10718 10713 10712 10709 ] final -128.52 input   66.30 | X-H torsion
[ 10763 10752 10751 10750 ] final  113.47 input  -60.55 | X-H torsion
[ 11005 11000 10999 10996 ] final -108.53 input  -57.11 | X-H torsion

> <Gold.Protein.ActiveResidues>
 VAL166  LYS551  ARG553  GLY616  TRP617  ASP618  TYR619  PRO620  LYS621  CYS622 
 ASP623  PHE694  ASN695  SER759  ASP760  ASP761  ALA762  ILE779  LEU786  VAL792 
 PHE793  MET794  SER795  GLU796  ALA797  LYS798  CYS799  TRP800  GLU811  SER814 

> <Gold.Protein.RotatedAtoms>
  151.0790  133.5405  159.2621 H   0  0  0  0  0  0  0  0  0  0  0  0  # atno 6907 bound_to 6896
  151.2316  135.0556  159.9000 H   0  0  0  0  0  0  0  0  0  0  0  0  # atno 6908 bound_to 6896
  152.5421  134.0578  159.8192 H   0  0  0  0  0  0  0  0  0  0  0  0  # atno 6909 bound_to 6896
  144.8084  140.5309  143.5659 H   0  0  0  0  0  0  0  0  0  0  0  0  # atno 7974 bound_to 7965
  156.0535  140.3305  155.7378 H   0  0  0  0  0  0  0  0  0  0  0  0  # atno 8008 bound_to 7997
  155.5565  140.0615  157.2856 H   0  0  0  0  0  0  0  0  0  0  0  0  # atno 8009 bound_to 7997
  154.4447  140.1885  156.0728 H   0  0  0  0  0  0  0  0  0  0  0  0  # atno 8010 bound_to 7997
  140.3746  143.2777  151.9458 H   0  0  0  0  0  0  0  0  0  0  0  0  # atno 10167 bound_to 10162
  156.1958  130.6825  151.0480 H   0  0  0  0  0  0  0  0  0  0  0  0  # atno 10718 bound_to 10713
  153.4930  135.3654  155.2501 H   0  0  0  0  0  0  0  0  0  0  0  0  # atno 10763 bound_to 10752
  154.8751  135.3982  154.3566 H   0  0  0  0  0  0  0  0  0  0  0  0  # atno 10764 bound_to 10752
  153.4189  135.7080  153.6373 H   0  0  0  0  0  0  0  0  0  0  0  0  # atno 10765 bound_to 10752
  141.0896  133.9077  157.2105 H   0  0  0  0  0  0  0  0  0  0  0  0  # atno 11005 bound_to 11000
  145.5382  139.1475  143.3462 LP  0  0  0  0  0  0  0  0  0  0  0  0  # atno 17320 bound_to 7965
  146.2379  140.5522  142.8946 LP  0  0  0  0  0  0  0  0  0  0  0  0  # atno 17321 bound_to 7965
  139.4800  144.5875  151.7829 LP  0  0  0  0  0  0  0  0  0  0  0  0  # atno 17342 bound_to 10162
  140.4999  144.1185  150.5968 LP  0  0  0  0  0  0  0  0  0  0  0  0  # atno 17343 bound_to 10162
  157.6957  131.0795  150.6976 LP  0  0  0  0  0  0  0  0  0  0  0  0  # atno 17370 bound_to 10713
  156.7033  130.4630  149.5567 LP  0  0  0  0  0  0  0  0  0  0  0  0  # atno 17371 bound_to 10713
  139.9720  135.0125  156.9536 LP  0  0  0  0  0  0  0  0  0  0  0  0  # atno 17394 bound_to 11000
  140.5282  134.0840  155.7309 LP  0  0  0  0  0  0  0  0  0  0  0  0  # atno 17395 bound_to 11000

$$$$
