AV-unprocessed.smi:69|AV-procd|sdf|655|dock2
  -GOLD-   2262016553D 1   1.00000     0.00000
 Structure written by MMmdl.
 32 34  0  0  0  0  0  0  0  0  1 V2000
  152.5960  139.4348  158.7090 N   0  0  0  0  0  0  0  0  0  0  0  0
  152.2240  139.4906  157.4228 C   0  0  0  0  0  0  0  0  0  0  0  0
  152.9936  138.8630  156.5026 N   0  0  0  0  0  0  0  0  0  0  0  0
  152.6441  138.9046  155.2123 C   0  0  0  0  0  0  0  0  0  0  0  0
  151.5905  139.5039  154.6501 N   0  0  0  0  0  0  0  0  0  0  0  0
  150.8173  140.1348  155.5818 C   0  0  0  0  0  0  0  0  0  0  0  0
  151.0637  140.1749  156.9814 C   0  0  0  0  0  0  0  0  0  0  0  0
  150.0679  140.9054  157.6154 N   0  0  0  0  0  0  0  0  0  0  0  0
  149.2799  141.2740  156.6408 C   0  0  0  0  0  0  0  0  0  0  0  0
  149.6541  140.8469  155.3835 N   0  0  0  0  0  0  0  0  0  0  0  0
  148.9837  141.0875  154.0641 C   0  0  2  0  0  0  0  0  0  0  0  0
  148.0090  142.0682  154.2642 O   0  0  0  0  0  0  0  0  0  0  0  0
  146.7123  141.5825  153.9172 C   0  0  2  0  0  0  0  0  0  0  0  0
  145.6268  142.2199  154.8024 C   0  0  0  0  0  0  0  0  0  0  0  0
  144.5785  141.3004  155.0212 O   0  0  0  0  0  0  0  0  0  0  0  0
  146.8271  140.0539  154.0036 C   0  0  2  0  0  0  0  0  0  0  0  0
  146.5915  139.5860  155.3215 O   0  0  0  0  0  0  0  0  0  0  0  0
  148.2620  139.8282  153.5482 C   0  0  2  0  0  0  0  0  0  0  0  0
  148.7979  138.5905  153.9827 O   0  0  0  0  0  0  0  0  0  0  0  0
  149.7772  141.4436  153.4060 H   0  0  0  0  0  0  0  0  0  0  0  0
  146.5350  141.8385  152.8707 H   0  0  0  0  0  0  0  0  0  0  0  0
  146.1143  139.5613  153.3416 H   0  0  0  0  0  0  0  0  0  0  0  0
  148.2945  139.8601  152.4585 H   0  0  0  0  0  0  0  0  0  0  0  0
  152.0379  139.8949  159.4137 H   0  0  0  0  0  0  0  0  0  0  0  0
  153.4333  138.9349  158.9707 H   0  0  0  0  0  0  0  0  0  0  0  0
  153.3026  138.3831  154.5335 H   0  0  0  0  0  0  0  0  0  0  0  0
  148.3976  141.8711  156.8177 H   0  0  0  0  0  0  0  0  0  0  0  0
  146.0409  142.4778  155.7776 H   0  0  0  0  0  0  0  0  0  0  0  0
  145.2383  143.1374  154.3597 H   0  0  0  0  0  0  0  0  0  0  0  0
  144.3203  140.9358  154.1885 H   0  0  0  0  0  0  0  0  0  0  0  0
  145.6740  139.3744  155.4025 H   0  0  0  0  0  0  0  0  0  0  0  0
  148.6694  137.9553  153.2945 H   0  0  0  0  0  0  0  0  0  0  0  0
  1  2  1  0  0  0  0
  1 24  1  0  0  0  0
  1 25  1  0  0  0  0
  2  7  1  0  0  0  0
  2  3  2  0  0  0  0
  3  4  1  0  0  0  0
  4  5  2  0  0  0  0
  4 26  1  0  0  0  0
  5  6  1  0  0  0  0
  6 10  1  0  0  0  0
  6  7  2  0  0  0  0
  7  8  1  0  0  0  0
  8  9  2  0  0  0  0
  9 10  1  0  0  0  0
  9 27  1  0  0  0  0
 10 11  1  0  0  0  0
 11 20  1  0  0  0  0
 11 18  1  0  0  0  0
 11 12  1  0  0  0  0
 12 13  1  0  0  0  0
 13 21  1  0  0  0  0
 13 14  1  0  0  0  0
 13 16  1  0  0  0  0
 14 15  1  0  0  0  0
 14 28  1  0  0  0  0
 14 29  1  0  0  0  0
 15 30  1  0  0  0  0
 16 22  1  0  0  0  0
 16 17  1  0  0  0  0
 16 18  1  0  0  0  0
 17 31  1  0  0  0  0
 18 23  1  0  0  0  0
 18 19  1  0  0  0  0
 19 32  1  0  0  0  0
M  END
> <s_m_source_file>
AV-unprocessed.smi

> <i_m_source_file_index>
69

> <i_lp_mmshare_version>
43012

> <i_f3d_flags>
0

> <s_epik_input>
bjFbY0hdbmMoW05IMl0pYyhjMTIpbltjSF1uMltDQEBIXTNPW0NASF0oW0NIMl1bT0hdKVtDQEBIXShbT0hdKVtDQEhdM1tPSF0=

> <s_epik_cmdline>
J2VwaWtfcHl0aG9uJywgJy1waCcsICc3LjAnLCAnLXRuJywgJzgnLCAnLW1hJywgJzIwMCcsICctbWV0YWxfYmluZGluZycsICctaW1hZScsICc8aW5maWxlLm1hZT4nLCAnLW9tYWUnLCAnPG91dGZpbGUubWFlPic=

> <r_lp_tautomer_probability>
1

> <r_epik_Ionization_Penalty>
0.000428445

> <r_epik_Ionization_Penalty_Charging>
0

> <r_epik_Ionization_Penalty_Neutral>
0.000428445

> <r_epik_State_Penalty>
-0

> <r_epik_Charging_Adjusted_Penalty>
0

> <i_epik_Tot_Q>
0

> <i_epik_Tot_abs_Q>
0

> <r_epik_Metal_State_Penalty>
-0

> <b_epik_Metal_Only>
0

> <s_epik_Chemistry_Notes>
This compound contains an acetal/aminal-like group ( X-CH(R)-Y where X, Y are N, S, or O) that may be acid/base labile, releasing an aldehyde.

> <s_lp_Force_Field>
OPLS_2005

> <r_lp_Energy>
42.2813

> <b_lp_Chiralities_Consistent>
1

> <s_lp_Variant>
AV-unprocessed.smi:69-13

> <Gold.Version>
5.8.1

> <Gold.Id.Protein>
6NUR|6NUR_protein|mol2

> <Gold.PLP.Fitness>
35.8803

> <Gold.PLP.PLP>
-26.2322

> <Gold.PLP.part.hbond>
-4.4520

> <Gold.PLP.part.metal>
0.0000

> <Gold.PLP.part.buried>
0.1379

> <Gold.PLP.part.nonpolar>
-23.4234

> <Gold.PLP.part.repulsive>
0.6251

> <Gold.PLP.ligand.clash>
0.0000

> <Gold.PLP.ligand.torsion>
0.7304

> <Gold.PLP.Chemscore.Hbond>
3.5688

> <Gold.PLP.Chemscore.CHOScore>
0.0000

> <Gold.PLP.Chemscore.Metal>
0.0000

> <Gold.Chemscore.Hbonds>
donor molecule, donor type, donor heavy atom, donor atom, acceptor molecule, acceptor atom, score
      L1  H    15    30       P1 10175  1.00
      L1  H    19    32       P1  7948  0.47
      P1  H  7989  7998       L1     5  0.85
      P1  H  7997  8009       L1     3  0.75

> <Gold.PLP.Chemscore.Internal.Correction>
0.4027

> <Gold.Rescore>
     Score         DG    S(hbond)    S(metal)    S(lipo)     H(rot)  DE(clash)    DE(int)     intcor
      4.54      -7.83       2.80        0.00      28.15       4.03       1.53       1.76       ----

> <Gold.Chemscore.Fitness>
4.5361

> <Gold.Chemscore.DG>
-7.8310

> <Gold.Chemscore.ZeroCoef>
-5.4800

> <Gold.Chemscore.Hbond>
2.8050

> <Gold.Chemscore.Metal>
0.0000

> <Gold.Chemscore.Lipo>
28.1490

> <Gold.Chemscore.Internal_Hbond>
0.0000

> <Gold.Chemscore.DEClash>
1.5299

> <Gold.Chemscore.DEInternal>
1.7649

> <Gold.Chemscore.Rot>
4.0277

> <Gold.Chemscore.Internal.Correction>
   9.000000E+99

> <Gold.Chemscore.Hbonds>
donor molecule, donor type, donor heavy atom, donor atom, acceptor molecule, acceptor atom, score
      L1  H    15    30       P1 10175  0.93
      L1  H    19    32       P1  7948  0.48
      P1  H  7989  7998       L1     5  0.14
      P1  H  7997  8009       L1     3  0.05

> <Gold.Chemscore.Hbond.Weighted>
-9.3685

> <Gold.Chemscore.Metal.Weighted>
-0.0000

> <Gold.Chemscore.Lipo.Weighted>
-3.2934

> <Gold.Chemscore.Internal_Hbond.Weighted>
0.0000

> <Gold.Chemscore.DEClash.Weighted>
1.5299

> <Gold.Chemscore.DEInternal.Weighted>
1.7649

> <Gold.Chemscore.Rot.Weighted>
10.3110

> <Gold.Chemscore.Internal.Correction.Weighted>
   9.000000E+99

> <Gold.Protein.RotatedTorsions>
[ 6907 6896 6895 6894 ] final   59.79 input  -60.11 | X-H torsion
[ 7974 7965 7964 7962 ] final  158.20 input  175.53 | X-H torsion
[ 8008 7997 7996 7995 ] final  178.44 input   59.86 | X-H torsion
[ 10167 10162 10161 10158 ] final -148.72 input  -65.29 | X-H torsion
[ 10718 10713 10712 10709 ] final  108.37 input   66.30 | X-H torsion
[ 10763 10752 10751 10750 ] final  136.26 input  -60.55 | X-H torsion
[ 11005 11000 10999 10996 ] final  -21.08 input  -57.11 | X-H torsion

> <Gold.Protein.ActiveResidues>
 VAL166  LYS551  ARG553  GLY616  TRP617  ASP618  TYR619  PRO620  LYS621  CYS622 
 ASP623  PHE694  ASN695  SER759  ASP760  ASP761  ALA762  ILE779  LEU786  VAL792 
 PHE793  MET794  SER795  GLU796  ALA797  LYS798  CYS799  TRP800  GLU811  SER814 

> <Gold.Protein.RotatedAtoms>
  152.3946  134.6386  160.0093 H   0  0  0  0  0  0  0  0  0  0  0  0  # atno 6907 bound_to 6896
  151.6610  133.3311  159.3182 H   0  0  0  0  0  0  0  0  0  0  0  0  # atno 6908 bound_to 6896
  150.7856  134.6881  159.6526 H   0  0  0  0  0  0  0  0  0  0  0  0  # atno 6909 bound_to 6896
  144.7859  139.7446  143.6241 H   0  0  0  0  0  0  0  0  0  0  0  0  # atno 7974 bound_to 7965
  156.0546  140.1333  157.0011 H   0  0  0  0  0  0  0  0  0  0  0  0  # atno 8008 bound_to 7997
  154.4451  140.1004  156.6497 H   0  0  0  0  0  0  0  0  0  0  0  0  # atno 8009 bound_to 7997
  155.5471  140.3462  155.4462 H   0  0  0  0  0  0  0  0  0  0  0  0  # atno 8010 bound_to 7997
  139.7506  143.8524  152.2585 H   0  0  0  0  0  0  0  0  0  0  0  0  # atno 10167 bound_to 10162
  157.6589  131.0892  150.6295 H   0  0  0  0  0  0  0  0  0  0  0  0  # atno 10718 bound_to 10713
  153.8536  135.3076  155.3434 H   0  0  0  0  0  0  0  0  0  0  0  0  # atno 10763 bound_to 10752
  154.7880  135.4799  153.9992 H   0  0  0  0  0  0  0  0  0  0  0  0  # atno 10764 bound_to 10752
  153.1503  135.6842  153.8985 H   0  0  0  0  0  0  0  0  0  0  0  0  # atno 10765 bound_to 10752
  140.8527  133.7845  155.9984 H   0  0  0  0  0  0  0  0  0  0  0  0  # atno 11005 bound_to 11000
  146.2090  139.5434  142.9693 LP  0  0  0  0  0  0  0  0  0  0  0  0  # atno 17320 bound_to 7965
  145.5923  141.0368  143.2063 LP  0  0  0  0  0  0  0  0  0  0  0  0  # atno 17321 bound_to 7965
  139.8501  144.7168  150.9224 LP  0  0  0  0  0  0  0  0  0  0  0  0  # atno 17342 bound_to 10162
  140.7797  143.3907  151.1316 LP  0  0  0  0  0  0  0  0  0  0  0  0  # atno 17343 bound_to 10162
  156.6599  130.4509  149.5691 LP  0  0  0  0  0  0  0  0  0  0  0  0  # atno 17370 bound_to 10713
  156.2075  130.6658  151.1234 LP  0  0  0  0  0  0  0  0  0  0  0  0  # atno 17371 bound_to 10713
  140.8772  134.2655  157.5162 LP  0  0  0  0  0  0  0  0  0  0  0  0  # atno 17394 bound_to 11000
  139.8704  134.9597  156.4340 LP  0  0  0  0  0  0  0  0  0  0  0  0  # atno 17395 bound_to 11000

$$$$
