AV-unprocessed.smi:21|AV-procd|sdf|139|dock6
  -GOLD-   2262015343D 1   1.00000     0.00000
 Structure written by MMmdl.
 62 65  0  0  0  0  0  0  0  0  2 V2000
  144.2026  135.0845  151.1091 C   0  0  0  0  0  0  0  0  0  0  0  0
  144.3998  133.6807  151.0470 O   0  0  0  0  0  0  0  0  0  0  0  0
  145.6230  133.3013  150.4294 C   0  0  1  0  0  0  0  0  0  0  0  0
  146.7664  133.6587  151.3703 C   0  0  0  0  0  0  0  0  0  0  0  0
  146.8316  132.4678  152.3313 C   0  0  2  0  0  0  0  0  0  0  0  0
  148.2010  132.2918  153.0207 C   0  0  0  0  0  0  0  0  0  0  0  0
  148.0995  132.2712  154.4813 N   0  0  0  0  0  0  0  0  0  0  0  0
  146.8385  132.6799  155.0867 C   0  0  0  0  0  0  0  0  0  0  0  0
  149.2393  132.2789  155.2268 C   0  0  0  0  0  0  0  0  0  0  0  0
  149.4183  133.3023  156.1033 N   0  0  0  0  0  0  0  0  0  0  0  0
  150.5093  133.3620  156.8701 C   0  0  0  0  0  0  0  0  0  0  0  0
  151.5310  132.5089  156.9299 N   0  0  0  0  0  0  0  0  0  0  0  0
  151.3621  131.4702  156.0642 C   0  0  0  0  0  0  0  0  0  0  0  0
  150.2624  131.2828  155.1759 C   0  0  0  0  0  0  0  0  0  0  0  0
  150.4490  130.1091  154.4533 N   0  0  0  0  0  0  0  0  0  0  0  0
  151.5871  129.6386  154.8815 C   0  0  0  0  0  0  0  0  0  0  0  0
  152.1944  130.3805  155.8681 N   0  0  0  0  0  0  0  0  0  0  0  0
  153.4538  130.0715  156.5315 C   0  0  0  0  0  0  0  0  0  0  0  0
  154.2946  128.9682  155.8296 C   0  0  2  0  0  0  0  0  0  0  0  0
  154.7842  127.8799  156.8151 C   0  0  0  0  0  0  0  0  0  0  0  0
  153.6971  127.2718  157.4815 O   0  0  0  0  0  0  0  0  0  0  0  0
  155.4740  129.5604  155.0144 C   0  0  2  0  0  0  0  0  0  0  0  0
  156.4524  130.3897  155.8301 C   0  0  0  0  0  0  0  0  0  0  0  0
  157.1914  131.1719  154.7506 C   0  0  0  0  0  0  0  0  0  0  0  0
  156.2418  131.3799  153.7114 O   0  0  0  0  0  0  0  0  0  0  0  0
  155.0805  130.5916  153.9508 C   0  0  0  0  0  0  0  0  0  0  0  0
  146.4865  131.2943  151.4962 N   0  3  1  0  0  0  0  0  0  0  0  0
  145.8167  130.2005  152.2340 C   0  0  0  0  0  0  0  0  0  0  0  0
  145.7233  131.7716  150.3173 C   0  0  0  0  0  0  0  0  0  0  0  0
  145.7418  133.8012  149.4665 H   0  0  0  0  0  0  0  0  0  0  0  0
  146.0499  132.5943  153.0828 H   0  0  0  0  0  0  0  0  0  0  0  0
  143.2405  135.2961  151.5755 H   0  0  0  0  0  0  0  0  0  0  0  0
  144.2004  135.5392  150.1182 H   0  0  0  0  0  0  0  0  0  0  0  0
  144.9771  135.5624  151.7102 H   0  0  0  0  0  0  0  0  0  0  0  0
  147.6937  133.7307  150.7997 H   0  0  0  0  0  0  0  0  0  0  0  0
  146.6148  134.6115  151.8788 H   0  0  0  0  0  0  0  0  0  0  0  0
  148.6403  131.3429  152.7123 H   0  0  0  0  0  0  0  0  0  0  0  0
  148.9001  133.0532  152.6743 H   0  0  0  0  0  0  0  0  0  0  0  0
  146.7090  132.2207  156.0674 H   0  0  0  0  0  0  0  0  0  0  0  0
  145.9971  132.3708  154.4661 H   0  0  0  0  0  0  0  0  0  0  0  0
  146.7946  133.7639  155.1956 H   0  0  0  0  0  0  0  0  0  0  0  0
  150.5714  134.2127  157.5328 H   0  0  0  0  0  0  0  0  0  0  0  0
  152.0106  128.7220  154.4967 H   0  0  0  0  0  0  0  0  0  0  0  0
  154.0332  130.9935  156.5878 H   0  0  0  0  0  0  0  0  0  0  0  0
  153.2438  129.8018  157.5662 H   0  0  0  0  0  0  0  0  0  0  0  0
  153.6328  128.4743  155.1163 H   0  0  0  0  0  0  0  0  0  0  0  0
  155.3144  127.0877  156.2875 H   0  0  0  0  0  0  0  0  0  0  0  0
  155.4811  128.2884  157.5469 H   0  0  0  0  0  0  0  0  0  0  0  0
  153.4340  126.5073  156.9919 H   0  0  0  0  0  0  0  0  0  0  0  0
  156.0183  128.7573  154.5159 H   0  0  0  0  0  0  0  0  0  0  0  0
  155.9150  131.0774  156.4849 H   0  0  0  0  0  0  0  0  0  0  0  0
  157.1275  129.7980  156.4466 H   0  0  0  0  0  0  0  0  0  0  0  0
  157.5934  132.1152  155.1206 H   0  0  0  0  0  0  0  0  0  0  0  0
  158.0184  130.5820  154.3535 H   0  0  0  0  0  0  0  0  0  0  0  0
  154.7304  130.1286  153.0279 H   0  0  0  0  0  0  0  0  0  0  0  0
  154.2915  131.2480  154.3209 H   0  0  0  0  0  0  0  0  0  0  0  0
  144.8558  130.5274  152.6341 H   0  0  0  0  0  0  0  0  0  0  0  0
  146.4346  129.8574  153.0641 H   0  0  0  0  0  0  0  0  0  0  0  0
  145.6408  129.3498  151.5750 H   0  0  0  0  0  0  0  0  0  0  0  0
  144.7448  131.2971  150.2319 H   0  0  0  0  0  0  0  0  0  0  0  0
  146.2898  131.4991  149.4263 H   0  0  0  0  0  0  0  0  0  0  0  0
  147.3575  130.9287  151.1379 H   0  0  0  0  0  0  0  0  0  0  0  0
  1  2  1  0  0  0  0
  1 32  1  0  0  0  0
  1 33  1  0  0  0  0
  1 34  1  0  0  0  0
  2  3  1  0  0  0  0
  3 30  1  0  0  0  0
  3 29  1  0  0  0  0
  3  4  1  0  0  0  0
  4  5  1  0  0  0  0
  4 35  1  0  0  0  0
  4 36  1  0  0  0  0
  5 31  1  0  0  0  0
  5  6  1  0  0  0  0
  5 27  1  0  0  0  0
  6  7  1  0  0  0  0
  6 37  1  0  0  0  0
  6 38  1  0  0  0  0
  7  8  1  0  0  0  0
  7  9  1  0  0  0  0
  8 39  1  0  0  0  0
  8 40  1  0  0  0  0
  8 41  1  0  0  0  0
  9 14  1  0  0  0  0
  9 10  2  0  0  0  0
 10 11  1  0  0  0  0
 11 12  2  0  0  0  0
 11 42  1  0  0  0  0
 12 13  1  0  0  0  0
 13 17  1  0  0  0  0
 13 14  2  0  0  0  0
 14 15  1  0  0  0  0
 15 16  2  0  0  0  0
 16 17  1  0  0  0  0
 16 43  1  0  0  0  0
 17 18  1  0  0  0  0
 18 19  1  0  0  0  0
 18 44  1  0  0  0  0
 18 45  1  0  0  0  0
 19 20  1  0  0  0  0
 19 22  1  0  0  0  0
 19 46  1  0  0  0  0
 20 21  1  0  0  0  0
 20 47  1  0  0  0  0
 20 48  1  0  0  0  0
 21 49  1  0  0  0  0
 22 26  1  0  0  0  0
 22 23  1  0  0  0  0
 22 50  1  0  0  0  0
 23 24  1  0  0  0  0
 23 51  1  0  0  0  0
 23 52  1  0  0  0  0
 24 25  1  0  0  0  0
 24 53  1  0  0  0  0
 24 54  1  0  0  0  0
 25 26  1  0  0  0  0
 26 55  1  0  0  0  0
 26 56  1  0  0  0  0
 27 28  1  0  0  0  0
 27 29  1  0  0  0  0
 27 62  1  0  0  0  0
 28 57  1  0  0  0  0
 28 58  1  0  0  0  0
 28 59  1  0  0  0  0
 29 60  1  0  0  0  0
 29 61  1  0  0  0  0
M  CHG  1  27   1
M  END
> <s_m_source_file>
AV-unprocessed.smi

> <i_m_source_file_index>
21

> <i_lp_mmshare_version>
43012

> <i_f3d_flags>
0

> <s_epik_input>
W0NIM11PW0NASF0xW0NIMl1bQ0BIXShOKFtDSDNdKVtDSDJdMSlbQ0gyXU4oW0NIM10pYyhuW2NIXW4yKWMoYzIzKW5bY0hdbjNbQ0gyXVtDQEhdKFtDSDJdW09IXSlbQ0BASF00W0NIMl1bQ0gyXU9bQ0gyXTQ=

> <s_epik_cmdline>
J2VwaWtfcHl0aG9uJywgJy1waCcsICc3LjAnLCAnLXRuJywgJzgnLCAnLW1hJywgJzIwMCcsICctbWV0YWxfYmluZGluZycsICctaW1hZScsICc8aW5maWxlLm1hZT4nLCAnLW9tYWUnLCAnPG91dGZpbGUubWFlPic=

> <r_lp_tautomer_probability>
1

> <r_epik_Ionization_Penalty>
0.0157465

> <r_epik_Ionization_Penalty_Charging>
0.015354

> <r_epik_Ionization_Penalty_Neutral>
0.000392529

> <r_epik_State_Penalty>
0.0120612

> <r_epik_Charging_Adjusted_Penalty>
0.0274152

> <i_epik_Tot_Q>
1

> <i_epik_Tot_abs_Q>
1

> <r_epik_Metal_State_Penalty>
0.0121253

> <b_epik_Metal_Only>
0

> <s_lp_Force_Field>
OPLS_2005

> <r_lp_Energy>
57.752

> <b_lp_Chiralities_Consistent>
1

> <s_lp_Variant>
AV-unprocessed.smi:21-19

> <Gold.Version>
5.8.1

> <Gold.Id.Protein>
6NUR|6NUR_protein|mol2

> <Gold.PLP.Fitness>
45.3107

> <Gold.PLP.PLP>
-40.9150

> <Gold.PLP.part.hbond>
-2.0000

> <Gold.PLP.part.metal>
0.0000

> <Gold.PLP.part.buried>
-3.9879

> <Gold.PLP.part.nonpolar>
-36.1216

> <Gold.PLP.part.repulsive>
0.2552

> <Gold.PLP.ligand.clash>
0.0000

> <Gold.PLP.ligand.torsion>
2.5735

> <Gold.PLP.Chemscore.Hbond>
2.0000

> <Gold.PLP.Chemscore.CHOScore>
1.0000

> <Gold.PLP.Chemscore.Metal>
0.0000

> <Gold.Chemscore.Hbonds>
donor molecule, donor type, donor heavy atom, donor atom, acceptor molecule, acceptor atom, score
      L1  H    27    62       P1 10747  1.00
      P1  H 10713 10718       L1    25  0.02
      L1  C    16    43       P1 10737  0.01

> <Gold.PLP.Chemscore.Internal.Correction>
0.5427

> <Gold.Rescore>
     Score         DG    S(hbond)    S(metal)    S(lipo)     H(rot)  DE(clash)    DE(int)     intcor
     12.24     -14.94       1.93        0.00      93.18       3.08       0.18       2.52       ----

> <Gold.Chemscore.Fitness>
12.2392

> <Gold.Chemscore.DG>
-14.9380

> <Gold.Chemscore.ZeroCoef>
-5.4800

> <Gold.Chemscore.Hbond>
1.9250

> <Gold.Chemscore.Metal>
0.0000

> <Gold.Chemscore.Lipo>
93.1835

> <Gold.Chemscore.Internal_Hbond>
0.0000

> <Gold.Chemscore.DEClash>
0.1757

> <Gold.Chemscore.DEInternal>
2.5231

> <Gold.Chemscore.Rot>
3.0758

> <Gold.Chemscore.Internal.Correction>
   9.000000E+99

> <Gold.Chemscore.Hbonds>
donor molecule, donor type, donor heavy atom, donor atom, acceptor molecule, acceptor atom, score
      L1  H    27    62       P1 10747  1.00
      P1  H 10713 10718       L1    25  0.02

> <Gold.Chemscore.Hbond.Weighted>
-6.4297

> <Gold.Chemscore.Metal.Weighted>
-0.0000

> <Gold.Chemscore.Lipo.Weighted>
-10.9025

> <Gold.Chemscore.Internal_Hbond.Weighted>
0.0000

> <Gold.Chemscore.DEClash.Weighted>
0.1757

> <Gold.Chemscore.DEInternal.Weighted>
2.5231

> <Gold.Chemscore.Rot.Weighted>
7.8741

> <Gold.Chemscore.Internal.Correction.Weighted>
   9.000000E+99

> <Gold.Protein.RotatedTorsions>
[ 6907 6896 6895 6894 ] final   -9.45 input  -60.11 | X-H torsion
[ 7974 7965 7964 7962 ] final -149.24 input  175.53 | X-H torsion
[ 8008 7997 7996 7995 ] final   69.07 input   59.86 | X-H torsion
[ 10167 10162 10161 10158 ] final   29.18 input  -65.29 | X-H torsion
[ 10718 10713 10712 10709 ] final -164.29 input   66.30 | X-H torsion
[ 10763 10752 10751 10750 ] final -101.70 input  -60.55 | X-H torsion
[ 11005 11000 10999 10996 ] final  -65.34 input  -57.11 | X-H torsion

> <Gold.Protein.ActiveResidues>
 VAL166  LYS551  ARG553  GLY616  TRP617  ASP618  TYR619  PRO620  LYS621  CYS622 
 ASP623  PHE694  ASN695  SER759  ASP760  ASP761  ALA762  ILE779  LEU786  VAL792 
 PHE793  MET794  SER795  GLU796  ALA797  LYS798  CYS799  TRP800  GLU811  SER814 

> <Gold.Protein.RotatedAtoms>
  151.4176  135.0993  159.9603 H   0  0  0  0  0  0  0  0  0  0  0  0  # atno 6907 bound_to 6896
  152.4999  133.8737  159.7322 H   0  0  0  0  0  0  0  0  0  0  0  0  # atno 6908 bound_to 6896
  150.9246  133.6781  159.2852 H   0  0  0  0  0  0  0  0  0  0  0  0  # atno 6909 bound_to 6896
  144.7979  140.5090  143.5727 H   0  0  0  0  0  0  0  0  0  0  0  0  # atno 7974 bound_to 7965
  155.7180  140.3493  155.5003 H   0  0  0  0  0  0  0  0  0  0  0  0  # atno 8008 bound_to 7997
  155.9296  140.1081  157.1165 H   0  0  0  0  0  0  0  0  0  0  0  0  # atno 8009 bound_to 7997
  154.4083  140.1234  156.4771 H   0  0  0  0  0  0  0  0  0  0  0  0  # atno 8010 bound_to 7997
  140.4788  144.0649  150.6259 H   0  0  0  0  0  0  0  0  0  0  0  0  # atno 10167 bound_to 10162
  156.6369  130.8953  151.2988 H   0  0  0  0  0  0  0  0  0  0  0  0  # atno 10718 bound_to 10713
  154.7677  135.4888  153.9588 H   0  0  0  0  0  0  0  0  0  0  0  0  # atno 10763 bound_to 10752
  153.1329  135.6756  153.9157 H   0  0  0  0  0  0  0  0  0  0  0  0  # atno 10764 bound_to 10752
  153.8855  135.3127  155.3425 H   0  0  0  0  0  0  0  0  0  0  0  0  # atno 10765 bound_to 10752
  141.1451  133.6680  156.5971 H   0  0  0  0  0  0  0  0  0  0  0  0  # atno 11005 bound_to 11000
  145.5626  139.1480  143.3333 LP  0  0  0  0  0  0  0  0  0  0  0  0  # atno 17320 bound_to 7965
  146.2253  140.5762  142.8999 LP  0  0  0  0  0  0  0  0  0  0  0  0  # atno 17321 bound_to 7965
  140.3884  143.2765  152.0088 LP  0  0  0  0  0  0  0  0  0  0  0  0  # atno 17342 bound_to 10162
  139.4830  144.6097  151.7456 LP  0  0  0  0  0  0  0  0  0  0  0  0  # atno 17343 bound_to 10162
  157.7183  130.9525  150.1339 LP  0  0  0  0  0  0  0  0  0  0  0  0  # atno 17370 bound_to 10713
  156.2190  130.3672  149.8579 LP  0  0  0  0  0  0  0  0  0  0  0  0  # atno 17371 bound_to 10713
  140.3718  134.7599  157.4603 LP  0  0  0  0  0  0  0  0  0  0  0  0  # atno 17394 bound_to 11000
  140.0705  134.5869  155.8647 LP  0  0  0  0  0  0  0  0  0  0  0  0  # atno 17395 bound_to 11000

$$$$
