AV-unprocessed.smi:2177|AV-procd|sdf|8849|dock10
  -GOLD-   2272012 43D 1   1.00000     0.00000
 Structure written by MMmdl.
 42 43  0  0  0  0  0  0  0  0  1 V2000
  151.6873  146.1396  159.0347 C   0  0  0  0  0  0  0  0  0  0  0  0
  152.2953  145.0417  159.8600 C   0  0  0  0  0  0  0  0  0  0  0  0
  152.4535  145.2168  161.1614 N   0  0  0  0  0  0  0  0  0  0  0  0
  153.0208  144.0740  161.5959 N   0  0  0  0  0  0  0  0  0  0  0  0
  153.3373  143.9311  163.0038 C   0  0  0  0  0  0  0  0  0  0  0  0
  153.2148  143.1715  160.5681 C   0  0  0  0  0  0  0  0  0  0  0  0
  153.8318  141.8285  160.7933 C   0  0  0  0  0  0  0  0  0  0  0  0
  152.7570  143.7659  159.4221 C   0  0  0  0  0  0  0  0  0  0  0  0
  152.7406  143.2240  158.0146 C   0  0  0  0  0  0  0  0  0  0  0  0
  151.6242  142.1895  157.8702 C   0  0  0  0  0  0  0  0  0  0  0  0
  151.9038  140.9999  157.7245 O   0  0  0  0  0  0  0  0  0  0  0  0
  150.3672  142.6596  157.9132 N   0  0  0  0  0  0  0  0  0  0  0  0
  149.1499  141.8586  157.8206 C   0  0  1  0  0  0  0  0  0  0  0  0
  147.9787  142.7956  157.4879 C   0  0  0  0  0  0  0  0  0  0  0  0
  149.3314  140.7494  156.7644 C   0  0  2  0  0  0  0  0  0  0  0  0
  149.9280  141.2208  155.4372 C   0  0  0  0  0  0  0  0  0  0  0  0
  149.4262  140.1964  154.4315 C   0  0  0  0  0  0  0  0  0  0  0  0
  148.2936  139.4754  155.1666 C   0  0  0  0  0  0  0  0  0  0  0  0
  148.0761  140.2345  156.3471 O   0  0  0  0  0  0  0  0  0  0  0  0
  152.3264  146.3886  158.1874 H   0  0  0  0  0  0  0  0  0  0  0  0
  151.5403  147.0505  159.6160 H   0  0  0  0  0  0  0  0  0  0  0  0
  150.7171  145.8375  158.6404 H   0  0  0  0  0  0  0  0  0  0  0  0
  152.5965  143.2891  163.4806 H   0  0  0  0  0  0  0  0  0  0  0  0
  153.3359  144.9035  163.4979 H   0  0  0  0  0  0  0  0  0  0  0  0
  154.3249  143.4838  163.1184 H   0  0  0  0  0  0  0  0  0  0  0  0
  153.7514  141.2006  159.9066 H   0  0  0  0  0  0  0  0  0  0  0  0
  153.3410  141.3068  161.6150 H   0  0  0  0  0  0  0  0  0  0  0  0
  154.8896  141.9272  161.0374 H   0  0  0  0  0  0  0  0  0  0  0  0
  152.5907  144.0136  157.2779 H   0  0  0  0  0  0  0  0  0  0  0  0
  153.6933  142.7574  157.7613 H   0  0  0  0  0  0  0  0  0  0  0  0
  150.2447  143.6542  158.0340 H   0  0  0  0  0  0  0  0  0  0  0  0
  148.9392  141.3954  158.7862 H   0  0  0  0  0  0  0  0  0  0  0  0
  147.0315  142.2569  157.4640 H   0  0  0  0  0  0  0  0  0  0  0  0
  148.1152  143.2730  156.5170 H   0  0  0  0  0  0  0  0  0  0  0  0
  147.8842  143.5836  158.2356 H   0  0  0  0  0  0  0  0  0  0  0  0
  149.9300  139.9309  157.1696 H   0  0  0  0  0  0  0  0  0  0  0  0
  149.5368  142.2052  155.1773 H   0  0  0  0  0  0  0  0  0  0  0  0
  151.0157  141.2880  155.4644 H   0  0  0  0  0  0  0  0  0  0  0  0
  149.0729  140.6837  153.5225 H   0  0  0  0  0  0  0  0  0  0  0  0
  150.2108  139.4925  154.1522 H   0  0  0  0  0  0  0  0  0  0  0  0
  147.3829  139.4075  154.5712 H   0  0  0  0  0  0  0  0  0  0  0  0
  148.5972  138.4644  155.4414 H   0  0  0  0  0  0  0  0  0  0  0  0
  1  2  1  0  0  0  0
  1 20  1  0  0  0  0
  1 21  1  0  0  0  0
  1 22  1  0  0  0  0
  2  8  1  0  0  0  0
  2  3  2  0  0  0  0
  3  4  1  0  0  0  0
  4  5  1  0  0  0  0
  4  6  1  0  0  0  0
  5 23  1  0  0  0  0
  5 24  1  0  0  0  0
  5 25  1  0  0  0  0
  6  7  1  0  0  0  0
  6  8  2  0  0  0  0
  7 26  1  0  0  0  0
  7 27  1  0  0  0  0
  7 28  1  0  0  0  0
  8  9  1  0  0  0  0
  9 10  1  0  0  0  0
  9 29  1  0  0  0  0
  9 30  1  0  0  0  0
 10 11  2  0  0  0  0
 10 12  1  0  0  0  0
 12 13  1  0  0  0  0
 12 31  1  0  0  0  0
 13 14  1  0  0  0  0
 13 15  1  0  0  0  0
 13 32  1  0  0  0  0
 14 33  1  0  0  0  0
 14 34  1  0  0  0  0
 14 35  1  0  0  0  0
 15 19  1  0  0  0  0
 15 16  1  0  0  0  0
 15 36  1  0  0  0  0
 16 17  1  0  0  0  0
 16 37  1  0  0  0  0
 16 38  1  0  0  0  0
 17 18  1  0  0  0  0
 17 39  1  0  0  0  0
 17 40  1  0  0  0  0
 18 19  1  0  0  0  0
 18 41  1  0  0  0  0
 18 42  1  0  0  0  0
M  END
> <s_m_source_file>
AV-unprocessed.smi

> <i_m_source_file_index>
2177

> <i_lp_mmshare_version>
43012

> <i_f3d_flags>
0

> <s_epik_input>
W0NIM11jMW5uKFtDSDNdKWMoW0NIM10pYzFbQ0gyXUMoPU8pW05IXVtDQEhdKFtDSDNdKVtDQEBIXTJbQ0gyXVtDSDJdW0NIMl1PMg==

> <s_epik_cmdline>
J2VwaWtfcHl0aG9uJywgJy1waCcsICc3LjAnLCAnLXRuJywgJzgnLCAnLW1hJywgJzIwMCcsICctbWV0YWxfYmluZGluZycsICctaW1hZScsICc8aW5maWxlLm1hZT4nLCAnLW9tYWUnLCAnPG91dGZpbGUubWFlPic=

> <r_lp_tautomer_probability>
1

> <r_epik_Ionization_Penalty>
0.00310467

> <r_epik_Ionization_Penalty_Charging>
0

> <r_epik_Ionization_Penalty_Neutral>
0.00310467

> <r_epik_State_Penalty>
0.00218493

> <r_epik_Charging_Adjusted_Penalty>
0.00218493

> <i_epik_Tot_Q>
0

> <i_epik_Tot_abs_Q>
0

> <r_epik_Metal_State_Penalty>
-0

> <b_epik_Metal_Only>
0

> <s_lp_Force_Field>
OPLS_2005

> <r_lp_Energy>
13.1065

> <b_lp_Chiralities_Consistent>
1

> <s_lp_Variant>
AV-unprocessed.smi:2177-2

> <Gold.Version>
5.8.1

> <Gold.Id.Protein>
6NUR|6NUR_protein|mol2

> <Gold.PLP.Fitness>
39.8006

> <Gold.PLP.PLP>
-41.3398

> <Gold.PLP.part.hbond>
0.0000

> <Gold.PLP.part.metal>
0.0000

> <Gold.PLP.part.buried>
-5.0064

> <Gold.PLP.part.nonpolar>
-36.5046

> <Gold.PLP.part.repulsive>
0.3809

> <Gold.PLP.ligand.clash>
0.0000

> <Gold.PLP.ligand.torsion>
0.7820

> <Gold.PLP.Chemscore.Hbond>
0.0000

> <Gold.PLP.Chemscore.CHOScore>
0.0000

> <Gold.PLP.Chemscore.Metal>
0.0000

> <Gold.PLP.Chemscore.Internal.Correction>
0.0247

> <Gold.Rescore>
     Score         DG    S(hbond)    S(metal)    S(lipo)     H(rot)  DE(clash)    DE(int)     intcor
     11.77     -14.48       0.00        0.00     108.91       1.46       0.53       2.18       ----

> <Gold.Chemscore.Fitness>
11.7687

> <Gold.Chemscore.DG>
-14.4776

> <Gold.Chemscore.ZeroCoef>
-5.4800

> <Gold.Chemscore.Hbond>
0.0000

> <Gold.Chemscore.Metal>
0.0000

> <Gold.Chemscore.Lipo>
108.9065

> <Gold.Chemscore.Internal_Hbond>
0.0000

> <Gold.Chemscore.DEClash>
0.5263

> <Gold.Chemscore.DEInternal>
2.1826

> <Gold.Chemscore.Rot>
1.4627

> <Gold.Chemscore.Internal.Correction>
   9.000000E+99

> <Gold.Chemscore.Hbond.Weighted>
-0.0000

> <Gold.Chemscore.Metal.Weighted>
-0.0000

> <Gold.Chemscore.Lipo.Weighted>
-12.7421

> <Gold.Chemscore.Internal_Hbond.Weighted>
0.0000

> <Gold.Chemscore.DEClash.Weighted>
0.5263

> <Gold.Chemscore.DEInternal.Weighted>
2.1826

> <Gold.Chemscore.Rot.Weighted>
3.7445

> <Gold.Chemscore.Internal.Correction.Weighted>
   9.000000E+99

> <Gold.Protein.RotatedTorsions>
[ 6907 6896 6895 6894 ] final   17.46 input  -60.11 | X-H torsion
[ 7974 7965 7964 7962 ] final   76.06 input  175.53 | X-H torsion
[ 8008 7997 7996 7995 ] final -126.91 input   59.86 | X-H torsion
[ 10167 10162 10161 10158 ] final  -65.91 input  -65.29 | X-H torsion
[ 10718 10713 10712 10709 ] final  -86.47 input   66.30 | X-H torsion
[ 10763 10752 10751 10750 ] final -125.77 input  -60.55 | X-H torsion
[ 11005 11000 10999 10996 ] final   60.32 input  -57.11 | X-H torsion

> <Gold.Protein.ActiveResidues>
 VAL166  LYS551  ARG553  GLY616  TRP617  ASP618  TYR619  PRO620  LYS621  CYS622 
 ASP623  PHE694  ASN695  SER759  ASP760  ASP761  ALA762  ILE779  LEU786  VAL792 
 PHE793  MET794  SER795  GLU796  ALA797  LYS798  CYS799  TRP800  GLU811  SER814 

> <Gold.Protein.RotatedAtoms>
  151.8500  135.0561  160.0457 H   0  0  0  0  0  0  0  0  0  0  0  0  # atno 6907 bound_to 6896
  152.2744  133.5407  159.5467 H   0  0  0  0  0  0  0  0  0  0  0  0  # atno 6908 bound_to 6896
  150.7164  134.0569  159.3860 H   0  0  0  0  0  0  0  0  0  0  0  0  # atno 6909 bound_to 6896
  145.7077  139.2604  143.1669 H   0  0  0  0  0  0  0  0  0  0  0  0  # atno 7974 bound_to 7965
  155.2374  140.0427  157.2970 H   0  0  0  0  0  0  0  0  0  0  0  0  # atno 8008 bound_to 7997
  154.5850  140.2411  155.7971 H   0  0  0  0  0  0  0  0  0  0  0  0  # atno 8009 bound_to 7997
  156.2219  140.2967  155.9982 H   0  0  0  0  0  0  0  0  0  0  0  0  # atno 8010 bound_to 7997
  140.5695  143.2317  151.6566 H   0  0  0  0  0  0  0  0  0  0  0  0  # atno 10167 bound_to 10162
  155.9989  130.4766  150.4720 H   0  0  0  0  0  0  0  0  0  0  0  0  # atno 10718 bound_to 10713
  154.8739  135.4018  154.3323 H   0  0  0  0  0  0  0  0  0  0  0  0  # atno 10763 bound_to 10752
  153.4135  135.7021  153.6348 H   0  0  0  0  0  0  0  0  0  0  0  0  # atno 10764 bound_to 10752
  153.5041  135.3721  155.2525 H   0  0  0  0  0  0  0  0  0  0  0  0  # atno 10765 bound_to 10752
  140.0240  134.6111  155.9599 H   0  0  0  0  0  0  0  0  0  0  0  0  # atno 11005 bound_to 11000
  146.0741  140.7837  142.9674 LP  0  0  0  0  0  0  0  0  0  0  0  0  # atno 17320 bound_to 7965
  144.6950  140.3387  143.7203 LP  0  0  0  0  0  0  0  0  0  0  0  0  # atno 17321 bound_to 7965
  139.5110  144.3523  152.0640 LP  0  0  0  0  0  0  0  0  0  0  0  0  # atno 17342 bound_to 10162
  140.2659  144.4017  150.6168 LP  0  0  0  0  0  0  0  0  0  0  0  0  # atno 17343 bound_to 10162
  157.2734  131.0592  151.2245 LP  0  0  0  0  0  0  0  0  0  0  0  0  # atno 17370 bound_to 10713
  157.3317  130.6988  149.6328 LP  0  0  0  0  0  0  0  0  0  0  0  0  # atno 17371 bound_to 10713
  141.1791  133.6544  156.4948 LP  0  0  0  0  0  0  0  0  0  0  0  0  # atno 17394 bound_to 11000
  140.4338  134.7077  157.4956 LP  0  0  0  0  0  0  0  0  0  0  0  0  # atno 17395 bound_to 11000

$$$$
