AV-unprocessed.smi:49|AV-procd|sdf|478|dock10
  -GOLD-   2262016343D 1   1.00000     0.00000
 Structure written by MMmdl.
 27 28  0  0  0  0  0  0  0  0  1 V2000
  140.3587  138.7510  153.6857 C   0  0  0  0  0  0  0  0  0  0  0  0
  139.7918  137.3542  153.9633 C   0  0  0  0  0  0  0  0  0  0  0  0
  140.8231  136.2850  153.8148 C   0  0  0  0  0  0  0  0  0  0  0  0
  142.0473  136.5140  153.2513 N   0  0  0  0  0  0  0  0  0  0  0  0
  142.5684  135.2914  153.3117 C   0  0  0  0  0  0  0  0  0  0  0  0
  143.9305  134.8958  152.8294 C   0  0  1  0  0  0  0  0  0  0  0  0
  143.8710  133.7906  151.7579 C   0  0  0  0  0  0  0  0  0  0  0  0
  144.2874  134.4960  150.4711 C   0  0  2  0  0  0  0  0  0  0  0  0
  144.8938  133.6268  149.5385 O   0  0  0  0  0  0  0  0  0  0  0  0
  145.2491  135.5602  150.9833 C   0  0  0  0  0  0  0  0  0  0  0  0
  144.6523  136.0232  152.2281 N   0  0  0  0  0  0  0  0  0  0  0  0
  141.7240  134.4063  153.8459 N   0  0  0  0  0  0  0  0  0  0  0  0
  140.5723  135.0278  154.1766 N   0  0  0  0  0  0  0  0  0  0  0  0
  144.4956  134.5207  153.6838 H   0  0  0  0  0  0  0  0  0  0  0  0
  143.4190  134.9715  150.0124 H   0  0  0  0  0  0  0  0  0  0  0  0
  141.8797  133.4192  153.9920 H   0  0  0  0  0  0  0  0  0  0  0  0
  139.5892  139.5135  153.8064 H   0  0  0  0  0  0  0  0  0  0  0  0
  140.7439  138.8243  152.6683 H   0  0  0  0  0  0  0  0  0  0  0  0
  141.1733  138.9878  154.3708 H   0  0  0  0  0  0  0  0  0  0  0  0
  139.3831  137.3152  154.9737 H   0  0  0  0  0  0  0  0  0  0  0  0
  138.9614  137.1496  153.2862 H   0  0  0  0  0  0  0  0  0  0  0  0
  144.6002  133.0180  152.0071 H   0  0  0  0  0  0  0  0  0  0  0  0
  142.8972  133.3052  151.6787 H   0  0  0  0  0  0  0  0  0  0  0  0
  145.0764  134.1143  148.7497 H   0  0  0  0  0  0  0  0  0  0  0  0
  146.2236  135.1148  151.1885 H   0  0  0  0  0  0  0  0  0  0  0  0
  145.3954  136.3747  150.2734 H   0  0  0  0  0  0  0  0  0  0  0  0
  145.3901  136.3358  152.8510 H   0  0  0  0  0  0  0  0  0  0  0  0
  1  2  1  0  0  0  0
  1 17  1  0  0  0  0
  1 18  1  0  0  0  0
  1 19  1  0  0  0  0
  2 20  1  0  0  0  0
  2 21  1  0  0  0  0
  2  3  1  0  0  0  0
  3  4  1  0  0  0  0
  3 13  2  0  0  0  0
  4  5  2  0  0  0  0
  5  6  1  0  0  0  0
  5 12  1  0  0  0  0
  6 14  1  0  0  0  0
  6 11  1  0  0  0  0
  6  7  1  0  0  0  0
  7  8  1  0  0  0  0
  7 22  1  0  0  0  0
  7 23  1  0  0  0  0
  8 15  1  0  0  0  0
  8  9  1  0  0  0  0
  8 10  1  0  0  0  0
  9 24  1  0  0  0  0
 10 11  1  0  0  0  0
 10 25  1  0  0  0  0
 10 26  1  0  0  0  0
 11 27  1  0  0  0  0
 12 13  1  0  0  0  0
 12 16  1  0  0  0  0
M  END
> <s_m_source_file>
AV-unprocessed.smi

> <i_m_source_file_index>
49

> <i_lp_mmshare_version>
43012

> <i_f3d_flags>
0

> <s_epik_input>
W0NIM11bQ0gyXWMxbmMobltuSF0xKVtDQEBIXTJbQ0gyXVtDQEBIXShbT0hdKVtDSDJdW05IXTI=

> <s_epik_cmdline>
J2VwaWtfcHl0aG9uJywgJy1waCcsICc3LjAnLCAnLXRuJywgJzgnLCAnLW1hJywgJzIwMCcsICctbWV0YWxfYmluZGluZycsICctaW1hZScsICc8aW5maWxlLm1hZT4nLCAnLW9tYWUnLCAnPG91dGZpbGUubWFlPic=

> <r_epik_Ionization_Penalty>
1.31544

> <r_epik_Ionization_Penalty_Charging>
0

> <r_epik_Ionization_Penalty_Neutral>
1.31544

> <r_epik_State_Penalty>
2.06074

> <r_epik_Charging_Adjusted_Penalty>
2.06074

> <i_epik_Tot_Q>
0

> <i_epik_Tot_abs_Q>
0

> <r_epik_Metal_State_Penalty>
2.32913

> <b_epik_Metal_Only>
0

> <s_lp_Force_Field>
OPLS_2005

> <r_lp_Energy>
17.94

> <b_lp_Chiralities_Consistent>
1

> <s_lp_Variant>
AV-unprocessed.smi:49-16

> <Gold.Version>
5.8.1

> <Gold.Id.Protein>
6NUR|6NUR_protein|mol2

> <Gold.PLP.Fitness>
35.1522

> <Gold.PLP.PLP>
-26.3535

> <Gold.PLP.part.hbond>
-4.5800

> <Gold.PLP.part.metal>
0.0000

> <Gold.PLP.part.buried>
-4.9762

> <Gold.PLP.part.nonpolar>
-16.2446

> <Gold.PLP.part.repulsive>
0.4396

> <Gold.PLP.ligand.clash>
0.0000

> <Gold.PLP.ligand.torsion>
0.1035

> <Gold.PLP.Chemscore.Hbond>
3.0000

> <Gold.PLP.Chemscore.CHOScore>
0.0000

> <Gold.PLP.Chemscore.Metal>
0.0000

> <Gold.Chemscore.Hbonds>
donor molecule, donor type, donor heavy atom, donor atom, acceptor molecule, acceptor atom, score
      L1  H     9    24       P1  7921  1.00
      L1  H    12    16       P1 10957  1.00
      P1  H 11000 11005       L1    13  1.00

> <Gold.PLP.Chemscore.Internal.Correction>
0.0059

> <Gold.Rescore>
     Score         DG    S(hbond)    S(metal)    S(lipo)     H(rot)  DE(clash)    DE(int)     intcor
     13.89     -14.20       2.79        0.00      35.52       1.86       0.00       0.31       ----

> <Gold.Chemscore.Fitness>
13.8890

> <Gold.Chemscore.DG>
-14.1969

> <Gold.Chemscore.ZeroCoef>
-5.4800

> <Gold.Chemscore.Hbond>
2.7878

> <Gold.Chemscore.Metal>
0.0000

> <Gold.Chemscore.Lipo>
35.5241

> <Gold.Chemscore.Internal_Hbond>
0.0000

> <Gold.Chemscore.DEClash>
0.0000

> <Gold.Chemscore.DEInternal>
0.3079

> <Gold.Chemscore.Rot>
1.8558

> <Gold.Chemscore.Internal.Correction>
   9.000000E+99

> <Gold.Chemscore.Hbonds>
donor molecule, donor type, donor heavy atom, donor atom, acceptor molecule, acceptor atom, score
      L1  H     9    24       P1  7921  0.96
      L1  H    12    16       P1 10957  0.97
      P1  H 11000 11005       L1    13  0.50

> <Gold.Chemscore.Hbond.Weighted>
-9.3113

> <Gold.Chemscore.Metal.Weighted>
-0.0000

> <Gold.Chemscore.Lipo.Weighted>
-4.1563

> <Gold.Chemscore.Internal_Hbond.Weighted>
0.0000

> <Gold.Chemscore.DEClash.Weighted>
0.0000

> <Gold.Chemscore.DEInternal.Weighted>
0.3079

> <Gold.Chemscore.Rot.Weighted>
4.7507

> <Gold.Chemscore.Internal.Correction.Weighted>
   9.000000E+99

> <Gold.Protein.RotatedTorsions>
[ 6907 6896 6895 6894 ] final  133.51 input  -60.11 | X-H torsion
[ 7974 7965 7964 7962 ] final -107.67 input  175.53 | X-H torsion
[ 8008 7997 7996 7995 ] final  140.00 input   59.86 | X-H torsion
[ 10167 10162 10161 10158 ] final -123.55 input  -65.29 | X-H torsion
[ 10718 10713 10712 10709 ] final  -78.53 input   66.30 | X-H torsion
[ 10763 10752 10751 10750 ] final   71.12 input  -60.55 | X-H torsion
[ 11005 11000 10999 10996 ] final   41.84 input  -57.11 | X-H torsion

> <Gold.Protein.ActiveResidues>
 VAL166  LYS551  ARG553  GLY616  TRP617  ASP618  TYR619  PRO620  LYS621  CYS622 
 ASP623  PHE694  ASN695  SER759  ASP760  ASP761  ALA762  ILE779  LEU786  VAL792 
 PHE793  MET794  SER795  GLU796  ALA797  LYS798  CYS799  TRP800  GLU811  SER814 

> <Gold.Protein.RotatedAtoms>
  152.3211  133.5855  159.5745 H   0  0  0  0  0  0  0  0  0  0  0  0  # atno 6907 bound_to 6896
  150.7372  134.0009  159.3647 H   0  0  0  0  0  0  0  0  0  0  0  0  # atno 6908 bound_to 6896
  151.7893  135.0740  160.0436 H   0  0  0  0  0  0  0  0  0  0  0  0  # atno 6909 bound_to 6896
  145.2024  140.9062  143.3361 H   0  0  0  0  0  0  0  0  0  0  0  0  # atno 7974 bound_to 7965
  156.2984  140.2353  156.4329 H   0  0  0  0  0  0  0  0  0  0  0  0  # atno 8008 bound_to 7997
  154.8254  140.0435  157.1460 H   0  0  0  0  0  0  0  0  0  0  0  0  # atno 8009 bound_to 7997
  154.9268  140.3011  155.5191 H   0  0  0  0  0  0  0  0  0  0  0  0  # atno 8010 bound_to 7997
  140.0023  143.5528  152.2298 H   0  0  0  0  0  0  0  0  0  0  0  0  # atno 10167 bound_to 10162
  156.0115  130.4521  150.3511 H   0  0  0  0  0  0  0  0  0  0  0  0  # atno 10718 bound_to 10713
  153.0380  135.5149  154.7544 H   0  0  0  0  0  0  0  0  0  0  0  0  # atno 10763 bound_to 10752
  154.6505  135.2924  154.9995 H   0  0  0  0  0  0  0  0  0  0  0  0  # atno 10764 bound_to 10752
  154.0881  135.6654  153.4901 H   0  0  0  0  0  0  0  0  0  0  0  0  # atno 10765 bound_to 10752
  140.1796  134.4121  155.8208 H   0  0  0  0  0  0  0  0  0  0  0  0  # atno 11005 bound_to 11000
  144.9934  139.3667  143.6203 LP  0  0  0  0  0  0  0  0  0  0  0  0  # atno 17320 bound_to 7965
  146.3415  139.9127  142.8778 LP  0  0  0  0  0  0  0  0  0  0  0  0  # atno 17321 bound_to 7965
  139.6263  144.7637  151.2631 LP  0  0  0  0  0  0  0  0  0  0  0  0  # atno 17342 bound_to 10162
  140.7414  143.6558  150.8208 LP  0  0  0  0  0  0  0  0  0  0  0  0  # atno 17343 bound_to 10162
  157.1603  131.0343  151.2844 LP  0  0  0  0  0  0  0  0  0  0  0  0  # atno 17370 bound_to 10713
  157.4316  130.7494  149.6995 LP  0  0  0  0  0  0  0  0  0  0  0  0  # atno 17371 bound_to 10713
  141.2222  133.6994  156.7907 LP  0  0  0  0  0  0  0  0  0  0  0  0  # atno 17394 bound_to 11000
  140.2283  134.8705  157.3450 LP  0  0  0  0  0  0  0  0  0  0  0  0  # atno 17395 bound_to 11000

$$$$
