AV-unprocessed.smi:34|AV-procd|sdf|227|dock6
  -GOLD-   2262015553D 1   1.00000     0.00000
 Structure written by MMmdl.
 55 59  0  0  0  0  0  0  0  0  1 V2000
  151.0213  141.7103  156.6707 O   0  0  0  0  0  0  0  0  0  0  0  0
  151.6616  141.6923  157.7226 C   0  0  0  0  0  0  0  0  0  0  0  0
  152.3484  140.5006  158.1880 N   0  0  0  0  0  0  0  0  0  0  0  0
  152.4890  139.3160  157.5485 C   0  0  0  0  0  0  0  0  0  0  0  0
  152.0356  139.1137  156.2831 N   0  0  0  0  0  0  0  0  0  0  0  0
  152.2042  137.9288  155.6885 C   0  0  0  0  0  0  0  0  0  0  0  0
  152.7927  136.8308  156.1681 N   0  0  0  0  0  0  0  0  0  0  0  0
  153.2558  137.0300  157.4361 C   0  0  0  0  0  0  0  0  0  0  0  0
  153.1450  138.2321  158.1879 C   0  0  0  0  0  0  0  0  0  0  0  0
  153.7305  138.0600  159.4355 N   0  0  0  0  0  0  0  0  0  0  0  0
  154.1600  136.8264  159.4163 C   0  0  0  0  0  0  0  0  0  0  0  0
  153.9227  136.1362  158.2455 N   0  0  0  0  0  0  0  0  0  0  0  0
  154.2723  134.7234  157.8831 C   0  0  2  0  0  0  0  0  0  0  0  0
  154.4145  133.9980  159.0701 O   0  0  0  0  0  0  0  0  0  0  0  0
  155.7890  133.6992  159.3333 C   0  0  1  0  0  0  0  0  0  0  0  0
  155.9733  132.1820  159.1836 C   0  0  0  0  0  0  0  0  0  0  0  0
  155.0052  131.6775  158.2779 O   0  0  0  0  0  0  0  0  0  0  0  0
  155.3314  131.4590  156.9892 C   0  0  0  0  0  0  0  0  0  0  0  0
  156.4353  131.7254  156.5097 O   0  0  0  0  0  0  0  0  0  0  0  0
  154.2174  130.8525  156.2046 C   0  0  0  0  0  0  0  0  0  0  0  0
  154.5195  130.0093  155.1099 C   0  0  0  0  0  0  0  0  0  0  0  0
  153.4888  129.4197  154.3524 C   0  0  0  0  0  0  0  0  0  0  0  0
  152.1430  129.6669  154.6800 C   0  0  0  0  0  0  0  0  0  0  0  0
  151.8291  130.5042  155.7662 C   0  0  0  0  0  0  0  0  0  0  0  0
  152.8585  131.0941  156.5255 C   0  0  0  0  0  0  0  0  0  0  0  0
  156.5994  134.5070  158.3120 C   0  0  2  0  0  0  0  0  0  0  0  0
  156.8863  135.6977  158.8429 F   0  0  0  0  0  0  0  0  0  0  0  0
  155.6229  134.6335  157.1563 C   0  0  2  0  0  0  0  0  0  0  0  0
  155.9352  135.7141  156.2968 O   0  0  0  0  0  0  0  0  0  0  0  0
  151.6951  142.8754  158.6456 C   0  0  0  0  0  0  0  0  0  0  0  0
  151.3444  144.1572  158.1650 C   0  0  0  0  0  0  0  0  0  0  0  0
  151.3901  145.2762  159.0194 C   0  0  0  0  0  0  0  0  0  0  0  0
  151.7949  145.1243  160.3588 C   0  0  0  0  0  0  0  0  0  0  0  0
  152.1577  143.8532  160.8429 C   0  0  0  0  0  0  0  0  0  0  0  0
  152.1116  142.7331  159.9896 C   0  0  0  0  0  0  0  0  0  0  0  0
  152.7818  140.5667  159.0973 H   0  0  0  0  0  0  0  0  0  0  0  0
  151.8126  137.8508  154.6849 H   0  0  0  0  0  0  0  0  0  0  0  0
  154.6672  136.3877  160.2632 H   0  0  0  0  0  0  0  0  0  0  0  0
  153.4238  134.3714  157.2953 H   0  0  0  0  0  0  0  0  0  0  0  0
  156.0354  133.9938  160.3544 H   0  0  0  0  0  0  0  0  0  0  0  0
  156.9687  131.9613  158.7964 H   0  0  0  0  0  0  0  0  0  0  0  0
  155.8855  131.6941  160.1554 H   0  0  0  0  0  0  0  0  0  0  0  0
  155.5456  129.8036  154.8402 H   0  0  0  0  0  0  0  0  0  0  0  0
  153.7313  128.7770  153.5191 H   0  0  0  0  0  0  0  0  0  0  0  0
  151.3525  129.2152  154.0990 H   0  0  0  0  0  0  0  0  0  0  0  0
  150.7965  130.6950  156.0185 H   0  0  0  0  0  0  0  0  0  0  0  0
  152.5821  131.7319  157.3521 H   0  0  0  0  0  0  0  0  0  0  0  0
  157.5456  134.0440  158.0303 H   0  0  0  0  0  0  0  0  0  0  0  0
  155.6233  133.7098  156.5763 H   0  0  0  0  0  0  0  0  0  0  0  0
  156.5853  136.2554  156.7187 H   0  0  0  0  0  0  0  0  0  0  0  0
  151.0329  144.2906  157.1389 H   0  0  0  0  0  0  0  0  0  0  0  0
  151.1156  146.2516  158.6457 H   0  0  0  0  0  0  0  0  0  0  0  0
  151.8309  145.9826  161.0135 H   0  0  0  0  0  0  0  0  0  0  0  0
  152.4747  143.7373  161.8689 H   0  0  0  0  0  0  0  0  0  0  0  0
  152.4032  141.7683  160.3787 H   0  0  0  0  0  0  0  0  0  0  0  0
  1  2  2  0  0  0  0
  2  3  1  0  0  0  0
  2 30  1  0  0  0  0
  3  4  1  0  0  0  0
  3 36  1  0  0  0  0
  4  9  1  0  0  0  0
  4  5  2  0  0  0  0
  5  6  1  0  0  0  0
  6  7  2  0  0  0  0
  6 37  1  0  0  0  0
  7  8  1  0  0  0  0
  8 12  1  0  0  0  0
  8  9  2  0  0  0  0
  9 10  1  0  0  0  0
 10 11  2  0  0  0  0
 11 12  1  0  0  0  0
 11 38  1  0  0  0  0
 12 13  1  0  0  0  0
 13 28  1  0  0  0  0
 13 14  1  0  0  0  0
 13 39  1  0  0  0  0
 14 15  1  0  0  0  0
 15 16  1  0  0  0  0
 15 26  1  0  0  0  0
 15 40  1  0  0  0  0
 16 17  1  0  0  0  0
 16 41  1  0  0  0  0
 16 42  1  0  0  0  0
 17 18  1  0  0  0  0
 18 19  2  0  0  0  0
 18 20  1  0  0  0  0
 20 25  1  0  0  0  0
 20 21  2  0  0  0  0
 21 22  1  0  0  0  0
 21 43  1  0  0  0  0
 22 23  2  0  0  0  0
 22 44  1  0  0  0  0
 23 24  1  0  0  0  0
 23 45  1  0  0  0  0
 24 25  2  0  0  0  0
 24 46  1  0  0  0  0
 25 47  1  0  0  0  0
 26 27  1  0  0  0  0
 26 28  1  0  0  0  0
 26 48  1  0  0  0  0
 28 29  1  0  0  0  0
 28 49  1  0  0  0  0
 29 50  1  0  0  0  0
 30 35  1  0  0  0  0
 30 31  2  0  0  0  0
 31 32  1  0  0  0  0
 31 51  1  0  0  0  0
 32 33  2  0  0  0  0
 32 52  1  0  0  0  0
 33 34  1  0  0  0  0
 33 53  1  0  0  0  0
 34 35  2  0  0  0  0
 34 54  1  0  0  0  0
 35 55  1  0  0  0  0
M  END
> <s_m_source_file>
AV-unprocessed.smi

> <i_m_source_file_index>
34

> <i_lp_mmshare_version>
43012

> <i_f3d_flags>
0

> <s_epik_input>
W2NIXTFbY0hdW2NIXVtjSF1bY0hdYzFDKD1PKVtOSF1jKG5bY0hdbjIpYyhjMjMpbltjSF1uM1tDQEBIXTRPW0NASF0oW0NAQEhdKEYpW0NASF00W09IXSlbQ0gyXU9DKD1PKWM1W2NIXVtjSF1bY0hdW2NIXVtjSF01

> <s_epik_cmdline>
J2VwaWtfcHl0aG9uJywgJy1waCcsICc3LjAnLCAnLXRuJywgJzgnLCAnLW1hJywgJzIwMCcsICctbWV0YWxfYmluZGluZycsICctaW1hZScsICc8aW5maWxlLm1hZT4nLCAnLW9tYWUnLCAnPG91dGZpbGUubWFlPic=

> <r_lp_tautomer_probability>
1

> <r_epik_Ionization_Penalty>
0.00257489

> <r_epik_Ionization_Penalty_Charging>
0

> <r_epik_Ionization_Penalty_Neutral>
0.00257489

> <r_epik_State_Penalty>
0.00519398

> <r_epik_Charging_Adjusted_Penalty>
0.00519398

> <i_epik_Tot_Q>
0

> <i_epik_Tot_abs_Q>
0

> <r_epik_Metal_State_Penalty>
0.335891

> <b_epik_Metal_Only>
0

> <s_epik_Chemistry_Notes>
This compound has an ester and may undergo hydrolysis at high or low pH. This compound contains an acetal/aminal-like group ( X-CH(R)-Y where X, Y are N, S, or O) that may be acid/base labile, releasing an aldehyde.

> <s_lp_Force_Field>
OPLS_2005

> <r_lp_Energy>
52.3338

> <b_lp_Chiralities_Consistent>
1

> <s_lp_Variant>
AV-unprocessed.smi:34-13

> <Gold.Version>
5.8.1

> <Gold.Id.Protein>
6NUR|6NUR_protein|mol2

> <Gold.PLP.Fitness>
53.7347

> <Gold.PLP.PLP>
-48.2643

> <Gold.PLP.part.hbond>
-3.0000

> <Gold.PLP.part.metal>
0.0000

> <Gold.PLP.part.buried>
-6.3776

> <Gold.PLP.part.nonpolar>
-38.4559

> <Gold.PLP.part.repulsive>
0.1487

> <Gold.PLP.ligand.clash>
0.0000

> <Gold.PLP.ligand.torsion>
1.8614

> <Gold.PLP.Chemscore.Hbond>
2.8000

> <Gold.PLP.Chemscore.CHOScore>
0.0000

> <Gold.PLP.Chemscore.Metal>
0.0000

> <Gold.Chemscore.Hbonds>
donor molecule, donor type, donor heavy atom, donor atom, acceptor molecule, acceptor atom, score
      P1  H  6896  6909       L1    14  1.00
      P1  H 10752 10763       L1    29  1.00
      P1  H 10752 10765       L1     7  0.78

> <Gold.PLP.Chemscore.Internal.Correction>
0.7932

> <Gold.Rescore>
     Score         DG    S(hbond)    S(metal)    S(lipo)     H(rot)  DE(clash)    DE(int)     intcor
     13.81     -18.03       1.77        0.00     116.23       2.72       0.07       4.14       ----

> <Gold.Chemscore.Fitness>
13.8115

> <Gold.Chemscore.DG>
-18.0298

> <Gold.Chemscore.ZeroCoef>
-5.4800

> <Gold.Chemscore.Hbond>
1.7718

> <Gold.Chemscore.Metal>
0.0000

> <Gold.Chemscore.Lipo>
116.2329

> <Gold.Chemscore.Internal_Hbond>
0.0000

> <Gold.Chemscore.DEClash>
0.0743

> <Gold.Chemscore.DEInternal>
4.1441

> <Gold.Chemscore.Rot>
2.7215

> <Gold.Chemscore.Internal.Correction>
   9.000000E+99

> <Gold.Chemscore.Hbonds>
donor molecule, donor type, donor heavy atom, donor atom, acceptor molecule, acceptor atom, score
      P1  H  6896  6909       L1    14  0.34
      P1  H 10752 10763       L1    29  0.29
      P1  H 10752 10765       L1     7  0.73

> <Gold.Chemscore.Hbond.Weighted>
-5.9176

> <Gold.Chemscore.Metal.Weighted>
-0.0000

> <Gold.Chemscore.Lipo.Weighted>
-13.5992

> <Gold.Chemscore.Internal_Hbond.Weighted>
0.0000

> <Gold.Chemscore.DEClash.Weighted>
0.0743

> <Gold.Chemscore.DEInternal.Weighted>
4.1441

> <Gold.Chemscore.Rot.Weighted>
6.9670

> <Gold.Chemscore.Internal.Correction.Weighted>
   9.000000E+99

> <Gold.Protein.RotatedTorsions>
[ 6907 6896 6895 6894 ] final -134.23 input  -60.11 | X-H torsion
[ 7974 7965 7964 7962 ] final  130.85 input  175.53 | X-H torsion
[ 8008 7997 7996 7995 ] final  -83.32 input   59.86 | X-H torsion
[ 10167 10162 10161 10158 ] final   66.78 input  -65.29 | X-H torsion
[ 10718 10713 10712 10709 ] final   84.55 input   66.30 | X-H torsion
[ 10763 10752 10751 10750 ] final -154.75 input  -60.55 | X-H torsion
[ 11005 11000 10999 10996 ] final  -61.67 input  -57.11 | X-H torsion

> <Gold.Protein.ActiveResidues>
 VAL166  LYS551  ARG553  GLY616  TRP617  ASP618  TYR619  PRO620  LYS621  CYS622 
 ASP623  PHE694  ASN695  SER759  ASP760  ASP761  ALA762  ILE779  LEU786  VAL792 
 PHE793  MET794  SER795  GLU796  ALA797  LYS798  CYS799  TRP800  GLU811  SER814 

> <Gold.Protein.RotatedAtoms>
  150.9834  133.6222  159.2718 H   0  0  0  0  0  0  0  0  0  0  0  0  # atno 6907 bound_to 6896
  151.3469  135.0875  159.9399 H   0  0  0  0  0  0  0  0  0  0  0  0  # atno 6908 bound_to 6896
  152.5223  133.9434  159.7692 H   0  0  0  0  0  0  0  0  0  0  0  0  # atno 6909 bound_to 6896
  145.0135  139.4198  143.5233 H   0  0  0  0  0  0  0  0  0  0  0  0  # atno 7974 bound_to 7965
  154.6179  140.0620  156.9577 H   0  0  0  0  0  0  0  0  0  0  0  0  # atno 8008 bound_to 7997
  155.1866  140.3303  155.4347 H   0  0  0  0  0  0  0  0  0  0  0  0  # atno 8009 bound_to 7997
  156.2415  140.1888  156.6959 H   0  0  0  0  0  0  0  0  0  0  0  0  # atno 8010 bound_to 7997
  140.0967  144.4940  150.7064 H   0  0  0  0  0  0  0  0  0  0  0  0  # atno 10167 bound_to 10162
  157.6900  131.0138  150.2689 H   0  0  0  0  0  0  0  0  0  0  0  0  # atno 10718 bound_to 10713
  154.7836  135.3183  154.7935 H   0  0  0  0  0  0  0  0  0  0  0  0  # atno 10763 bound_to 10752
  153.8640  135.6850  153.4784 H   0  0  0  0  0  0  0  0  0  0  0  0  # atno 10764 bound_to 10752
  153.1480  135.4711  154.9534 H   0  0  0  0  0  0  0  0  0  0  0  0  # atno 10765 bound_to 10752
  141.1333  133.6632  156.5411 H   0  0  0  0  0  0  0  0  0  0  0  0  # atno 11005 bound_to 11000
  146.3474  139.9592  142.8719 LP  0  0  0  0  0  0  0  0  0  0  0  0  # atno 17320 bound_to 7965
  145.1991  140.9846  143.4166 LP  0  0  0  0  0  0  0  0  0  0  0  0  # atno 17321 bound_to 7965
  140.7000  143.2428  151.4892 LP  0  0  0  0  0  0  0  0  0  0  0  0  # atno 17342 bound_to 10162
  139.5694  144.1964  152.1814 LP  0  0  0  0  0  0  0  0  0  0  0  0  # atno 17343 bound_to 10162
  156.3256  130.3792  149.7536 LP  0  0  0  0  0  0  0  0  0  0  0  0  # atno 17370 bound_to 10713
  156.5093  130.8164  151.3162 LP  0  0  0  0  0  0  0  0  0  0  0  0  # atno 17371 bound_to 10713
  140.4139  134.7248  157.4852 LP  0  0  0  0  0  0  0  0  0  0  0  0  # atno 17394 bound_to 11000
  140.0408  134.6271  155.8984 LP  0  0  0  0  0  0  0  0  0  0  0  0  # atno 17395 bound_to 11000

$$$$
