AV-unprocessed.smi:3270|AV-procd|sdf|12512|dock1
  -GOLD-   2272018423D 1   1.00000     0.00000
 Structure written by MMmdl.
 38 39  0  0  0  0  0  0  0  0  1 V2000
  152.1923  145.0593  158.8478 C   0  0  0  0  0  0  0  0  0  0  0  0
  152.1838  143.5175  158.7910 C   0  0  2  0  0  0  0  0  0  0  0  0
  150.8185  142.9456  158.3767 C   0  0  0  0  0  0  0  0  0  0  0  0
  149.8384  143.0603  159.1137 O   0  0  0  0  0  0  0  0  0  0  0  0
  150.7702  142.3278  157.1857 N   0  0  0  0  0  0  0  0  0  0  0  0
  149.5858  141.6996  156.6138 C   0  0  0  0  0  0  0  0  0  0  0  0
  149.9082  140.9971  155.2813 C   0  0  0  0  0  0  0  0  0  0  0  0
  150.5712  139.7006  155.4126 N   0  0  0  0  0  0  0  0  0  0  0  0
  150.2681  138.8419  154.2723 C   0  0  0  0  0  0  0  0  0  0  0  0
  150.9551  137.4699  154.3845 C   0  0  0  0  0  0  0  0  0  0  0  0
  152.3607  137.6512  154.5190 O   0  0  0  0  0  0  0  0  0  0  0  0
  152.7048  138.4455  155.6493 C   0  0  0  0  0  0  0  0  0  0  0  0
  152.0218  139.8206  155.5439 C   0  0  0  0  0  0  0  0  0  0  0  0
  152.6253  142.9136  160.0432 N   0  0  0  0  0  0  0  0  0  0  0  0
  152.2172  143.2253  161.3246 C   0  0  0  0  0  0  0  0  0  0  0  0
  152.9250  142.4367  162.1856 C   0  0  0  0  0  0  0  0  0  0  0  0
  153.7649  141.6723  161.3297 C   0  0  0  0  0  0  0  0  0  0  0  0
  153.5908  141.9650  160.0516 N   0  0  0  0  0  0  0  0  0  0  0  0
  151.9122  145.4890  157.8856 H   0  0  0  0  0  0  0  0  0  0  0  0
  153.1867  145.4326  159.0939 H   0  0  0  0  0  0  0  0  0  0  0  0
  151.4998  145.4480  159.5960 H   0  0  0  0  0  0  0  0  0  0  0  0
  152.9030  143.2238  158.0244 H   0  0  0  0  0  0  0  0  0  0  0  0
  151.6194  142.2783  156.6419 H   0  0  0  0  0  0  0  0  0  0  0  0
  149.2150  140.9861  157.3487 H   0  0  0  0  0  0  0  0  0  0  0  0
  148.7988  142.4425  156.4739 H   0  0  0  0  0  0  0  0  0  0  0  0
  148.9698  140.8526  154.7443 H   0  0  0  0  0  0  0  0  0  0  0  0
  150.5110  141.6574  154.6561 H   0  0  0  0  0  0  0  0  0  0  0  0
  149.1899  138.6973  154.1945 H   0  0  0  0  0  0  0  0  0  0  0  0
  150.5850  139.3278  153.3482 H   0  0  0  0  0  0  0  0  0  0  0  0
  150.5688  136.9127  155.2392 H   0  0  0  0  0  0  0  0  0  0  0  0
  150.7560  136.8718  153.4952 H   0  0  0  0  0  0  0  0  0  0  0  0
  152.4046  137.9349  156.5657 H   0  0  0  0  0  0  0  0  0  0  0  0
  153.7878  138.5619  155.6873 H   0  0  0  0  0  0  0  0  0  0  0  0
  152.4279  140.3606  154.6871 H   0  0  0  0  0  0  0  0  0  0  0  0
  152.2759  140.4015  156.4296 H   0  0  0  0  0  0  0  0  0  0  0  0
  151.4643  143.9756  161.5155 H   0  0  0  0  0  0  0  0  0  0  0  0
  152.8568  142.4129  163.2631 H   0  0  0  0  0  0  0  0  0  0  0  0
  154.4941  140.9220  161.5973 H   0  0  0  0  0  0  0  0  0  0  0  0
  1  2  1  0  0  0  0
  1 19  1  0  0  0  0
  1 20  1  0  0  0  0
  1 21  1  0  0  0  0
  2  3  1  0  0  0  0
  2 14  1  0  0  0  0
  2 22  1  0  0  0  0
  3  4  2  0  0  0  0
  3  5  1  0  0  0  0
  5  6  1  0  0  0  0
  5 23  1  0  0  0  0
  6  7  1  0  0  0  0
  6 24  1  0  0  0  0
  6 25  1  0  0  0  0
  7  8  1  0  0  0  0
  7 26  1  0  0  0  0
  7 27  1  0  0  0  0
  8 13  1  0  0  0  0
  8  9  1  0  0  0  0
  9 10  1  0  0  0  0
  9 28  1  0  0  0  0
  9 29  1  0  0  0  0
 10 11  1  0  0  0  0
 10 30  1  0  0  0  0
 10 31  1  0  0  0  0
 11 12  1  0  0  0  0
 12 13  1  0  0  0  0
 12 32  1  0  0  0  0
 12 33  1  0  0  0  0
 13 34  1  0  0  0  0
 13 35  1  0  0  0  0
 14 18  1  0  0  0  0
 14 15  1  0  0  0  0
 15 16  2  0  0  0  0
 15 36  1  0  0  0  0
 16 17  1  0  0  0  0
 16 37  1  0  0  0  0
 17 18  2  0  0  0  0
 17 38  1  0  0  0  0
M  END
> <s_m_source_file>
AV-unprocessed.smi

> <i_m_source_file_index>
3270

> <i_lp_mmshare_version>
43012

> <i_f3d_flags>
0

> <s_epik_input>
bjFbY0hdW2NIXVtjSF1uMVtDQEhdKFtDSDNdKUMoPU8pW05IXVtDSDJdW0NIMl1OMltDSDJdW0NIMl1PW0NIMl1bQ0gyXTI=

> <s_epik_cmdline>
J2VwaWtfcHl0aG9uJywgJy1waCcsICc3LjAnLCAnLXRuJywgJzgnLCAnLW1hJywgJzIwMCcsICctbWV0YWxfYmluZGluZycsICctaW1hZScsICc8aW5maWxlLm1hZT4nLCAnLW9tYWUnLCAnPG91dGZpbGUubWFlPic=

> <r_lp_tautomer_probability>
1

> <r_epik_Ionization_Penalty>
0.203323

> <r_epik_Ionization_Penalty_Charging>
0

> <r_epik_Ionization_Penalty_Neutral>
0.203323

> <r_epik_State_Penalty>
0.193192

> <r_epik_Charging_Adjusted_Penalty>
0.193192

> <i_epik_Tot_Q>
0

> <i_epik_Tot_abs_Q>
0

> <r_epik_Metal_State_Penalty>
0.193187

> <b_epik_Metal_Only>
0

> <s_lp_Force_Field>
OPLS_2005

> <r_lp_Energy>
25.3297

> <b_lp_Chiralities_Consistent>
1

> <s_lp_Variant>
AV-unprocessed.smi:3270-1

> <Gold.Version>
5.8.1

> <Gold.Id.Protein>
6NUR|6NUR_protein|mol2

> <Gold.PLP.Fitness>
47.2531

> <Gold.PLP.PLP>
-46.6615

> <Gold.PLP.part.hbond>
-1.7132

> <Gold.PLP.part.metal>
0.0000

> <Gold.PLP.part.buried>
-5.9774

> <Gold.PLP.part.nonpolar>
-39.9281

> <Gold.PLP.part.repulsive>
0.2598

> <Gold.PLP.ligand.clash>
0.0000

> <Gold.PLP.ligand.torsion>
0.7817

> <Gold.PLP.Chemscore.Hbond>
0.6661

> <Gold.PLP.Chemscore.CHOScore>
0.0000

> <Gold.PLP.Chemscore.Metal>
0.0000

> <Gold.Chemscore.Hbonds>
donor molecule, donor type, donor heavy atom, donor atom, acceptor molecule, acceptor atom, score
      P1  H 10752 10765       L1    11  0.58

> <Gold.PLP.Chemscore.Internal.Correction>
0.1567

> <Gold.Rescore>
     Score         DG    S(hbond)    S(metal)    S(lipo)     H(rot)  DE(clash)    DE(int)     intcor
     15.10     -15.75       0.88        0.00     102.55       1.83       0.05       0.60       ----

> <Gold.Chemscore.Fitness>
15.0959

> <Gold.Chemscore.DG>
-15.7468

> <Gold.Chemscore.ZeroCoef>
-5.4800

> <Gold.Chemscore.Hbond>
0.8834

> <Gold.Chemscore.Metal>
0.0000

> <Gold.Chemscore.Lipo>
102.5496

> <Gold.Chemscore.Internal_Hbond>
0.0000

> <Gold.Chemscore.DEClash>
0.0529

> <Gold.Chemscore.DEInternal>
0.5980

> <Gold.Chemscore.Rot>
1.8290

> <Gold.Chemscore.Internal.Correction>
   9.000000E+99

> <Gold.Chemscore.Hbonds>
donor molecule, donor type, donor heavy atom, donor atom, acceptor molecule, acceptor atom, score
      P1  H 10752 10765       L1    11  0.12

> <Gold.Chemscore.Hbond.Weighted>
-2.9506

> <Gold.Chemscore.Metal.Weighted>
-0.0000

> <Gold.Chemscore.Lipo.Weighted>
-11.9983

> <Gold.Chemscore.Internal_Hbond.Weighted>
0.0000

> <Gold.Chemscore.DEClash.Weighted>
0.0529

> <Gold.Chemscore.DEInternal.Weighted>
0.5980

> <Gold.Chemscore.Rot.Weighted>
4.6821

> <Gold.Chemscore.Internal.Correction.Weighted>
   9.000000E+99

> <Gold.Protein.RotatedTorsions>
[ 6907 6896 6895 6894 ] final  -32.94 input  -60.11 | X-H torsion
[ 7974 7965 7964 7962 ] final   55.68 input  175.53 | X-H torsion
[ 8008 7997 7996 7995 ] final -126.80 input   59.86 | X-H torsion
[ 10167 10162 10161 10158 ] final  -86.03 input  -65.29 | X-H torsion
[ 10718 10713 10712 10709 ] final  162.11 input   66.30 | X-H torsion
[ 10763 10752 10751 10750 ] final  163.83 input  -60.55 | X-H torsion
[ 11005 11000 10999 10996 ] final  -13.66 input  -57.11 | X-H torsion

> <Gold.Protein.ActiveResidues>
 VAL166  LYS551  ARG553  GLY616  TRP617  ASP618  TYR619  PRO620  LYS621  CYS622 
 ASP623  PHE694  ASN695  SER759  ASP760  ASP761  ALA762  ILE779  LEU786  VAL792 
 PHE793  MET794  SER795  GLU796  ALA797  LYS798  CYS799  TRP800  GLU811  SER814 

> <Gold.Protein.RotatedAtoms>
  151.0722  134.9805  159.8313 H   0  0  0  0  0  0  0  0  0  0  0  0  # atno 6907 bound_to 6896
  152.5410  134.2285  159.8825 H   0  0  0  0  0  0  0  0  0  0  0  0  # atno 6908 bound_to 6896
  151.2310  133.4407  159.2637 H   0  0  0  0  0  0  0  0  0  0  0  0  # atno 6909 bound_to 6896
  145.9478  139.3945  143.0324 H   0  0  0  0  0  0  0  0  0  0  0  0  # atno 7974 bound_to 7965
  155.2356  140.0427  157.2968 H   0  0  0  0  0  0  0  0  0  0  0  0  # atno 8008 bound_to 7997
  154.5860  140.2414  155.7956 H   0  0  0  0  0  0  0  0  0  0  0  0  # atno 8009 bound_to 7997
  156.2227  140.2965  155.9999 H   0  0  0  0  0  0  0  0  0  0  0  0  # atno 8010 bound_to 7997
  140.3980  143.2675  151.9179 H   0  0  0  0  0  0  0  0  0  0  0  0  # atno 10167 bound_to 10162
  157.1271  131.0507  151.2389 H   0  0  0  0  0  0  0  0  0  0  0  0  # atno 10718 bound_to 10713
  154.2997  135.2759  155.2617 H   0  0  0  0  0  0  0  0  0  0  0  0  # atno 10763 bound_to 10752
  154.5059  135.5795  153.6570 H   0  0  0  0  0  0  0  0  0  0  0  0  # atno 10764 bound_to 10752
  152.9902  135.6169  154.3166 H   0  0  0  0  0  0  0  0  0  0  0  0  # atno 10765 bound_to 10752
  140.7784  133.8382  155.9270 H   0  0  0  0  0  0  0  0  0  0  0  0  # atno 11005 bound_to 11000
  145.8212  140.9678  143.0898 LP  0  0  0  0  0  0  0  0  0  0  0  0  # atno 17320 bound_to 7965
  144.6790  140.0044  143.7484 LP  0  0  0  0  0  0  0  0  0  0  0  0  # atno 17321 bound_to 7965
  139.4786  144.5661  151.8162 LP  0  0  0  0  0  0  0  0  0  0  0  0  # atno 17342 bound_to 10162
  140.4769  144.1505  150.5926 LP  0  0  0  0  0  0  0  0  0  0  0  0  # atno 17343 bound_to 10162
  157.4425  130.7552  149.7082 LP  0  0  0  0  0  0  0  0  0  0  0  0  # atno 17370 bound_to 10713
  155.9816  130.4018  150.3463 LP  0  0  0  0  0  0  0  0  0  0  0  0  # atno 17371 bound_to 10713
  140.9506  134.1783  157.4730 LP  0  0  0  0  0  0  0  0  0  0  0  0  # atno 17394 bound_to 11000
  139.8746  134.9908  156.5518 LP  0  0  0  0  0  0  0  0  0  0  0  0  # atno 17395 bound_to 11000

$$$$
