AV-unprocessed.smi:2143|AV-procd|sdf|8725|dock7
  -GOLD-   2272011493D 1   1.00000     0.00000
 Structure written by MMmdl.
 44 45  0  0  0  0  0  0  0  0  1 V2000
  153.6951  141.8885  159.5719 C   0  0  0  0  0  0  0  0  0  0  0  0
  152.3473  142.5760  159.8731 C   0  0  1  0  0  0  0  0  0  0  0  0
  152.4846  144.1118  159.8874 C   0  0  0  0  0  0  0  0  0  0  0  0
  152.6647  144.6917  158.4760 C   0  0  0  0  0  0  0  0  0  0  0  0
  151.5178  144.2617  157.5517 C   0  0  0  0  0  0  0  0  0  0  0  0
  151.3571  142.7297  157.5065 C   0  0  2  0  0  0  0  0  0  0  0  0
  150.2037  142.4109  156.6656 N   0  0  0  0  0  0  0  0  0  0  0  0
  150.1302  141.4116  155.7726 C   0  0  0  0  0  0  0  0  0  0  0  0
  151.0401  140.6035  155.5807 O   0  0  0  0  0  0  0  0  0  0  0  0
  148.8093  141.3034  154.9987 C   0  0  0  0  0  0  0  0  0  0  0  0
  148.0395  140.0990  155.3355 N   0  0  0  0  0  0  0  0  0  0  0  0
  147.6959  139.2044  154.3385 C   0  0  0  0  0  0  0  0  0  0  0  0
  146.9741  138.0841  154.5595 C   0  0  0  0  0  0  0  0  0  0  0  0
  146.5068  137.7461  155.8986 C   0  0  0  0  0  0  0  0  0  0  0  0
  145.8284  136.7473  156.1402 O   0  0  0  0  0  0  0  0  0  0  0  0
  146.8857  138.6696  156.9024 N   0  0  0  0  0  0  0  0  0  0  0  0
  146.4497  138.4303  158.2627 C   0  0  0  0  0  0  0  0  0  0  0  0
  147.6273  139.8479  156.6621 C   0  0  0  0  0  0  0  0  0  0  0  0
  147.9043  140.6401  157.5663 O   0  0  0  0  0  0  0  0  0  0  0  0
  151.1889  142.1429  158.9340 C   0  0  1  0  0  0  0  0  0  0  0  0
  150.9684  140.6172  158.9442 C   0  0  0  0  0  0  0  0  0  0  0  0
  154.0378  142.0785  158.5552 H   0  0  0  0  0  0  0  0  0  0  0  0
  153.6321  140.8085  159.7023 H   0  0  0  0  0  0  0  0  0  0  0  0
  154.4717  142.2436  160.2500 H   0  0  0  0  0  0  0  0  0  0  0  0
  152.0736  142.2768  160.8858 H   0  0  0  0  0  0  0  0  0  0  0  0
  151.5919  144.5474  160.3382 H   0  0  0  0  0  0  0  0  0  0  0  0
  153.3187  144.4118  160.5227 H   0  0  0  0  0  0  0  0  0  0  0  0
  152.7085  145.7799  158.5267 H   0  0  0  0  0  0  0  0  0  0  0  0
  153.6174  144.3680  158.0564 H   0  0  0  0  0  0  0  0  0  0  0  0
  150.5899  144.7196  157.8984 H   0  0  0  0  0  0  0  0  0  0  0  0
  151.6944  144.6481  156.5472 H   0  0  0  0  0  0  0  0  0  0  0  0
  152.2620  142.3136  157.0613 H   0  0  0  0  0  0  0  0  0  0  0  0
  149.3994  143.0139  156.7594 H   0  0  0  0  0  0  0  0  0  0  0  0
  148.2177  142.1950  155.2106 H   0  0  0  0  0  0  0  0  0  0  0  0
  149.0078  141.3296  153.9257 H   0  0  0  0  0  0  0  0  0  0  0  0
  148.0146  139.4122  153.3272 H   0  0  0  0  0  0  0  0  0  0  0  0
  146.7356  137.4306  153.7331 H   0  0  0  0  0  0  0  0  0  0  0  0
  147.2641  138.6915  158.9408 H   0  0  0  0  0  0  0  0  0  0  0  0
  146.2126  137.3761  158.4077 H   0  0  0  0  0  0  0  0  0  0  0  0
  145.5735  139.0585  158.4294 H   0  0  0  0  0  0  0  0  0  0  0  0
  150.2796  142.5801  159.3502 H   0  0  0  0  0  0  0  0  0  0  0  0
  151.7683  140.0921  158.4218 H   0  0  0  0  0  0  0  0  0  0  0  0
  150.0299  140.3465  158.4602 H   0  0  0  0  0  0  0  0  0  0  0  0
  150.9245  140.2330  159.9635 H   0  0  0  0  0  0  0  0  0  0  0  0
  1  2  1  0  0  0  0
  1 22  1  0  0  0  0
  1 23  1  0  0  0  0
  1 24  1  0  0  0  0
  2 20  1  0  0  0  0
  2  3  1  0  0  0  0
  2 25  1  0  0  0  0
  3  4  1  0  0  0  0
  3 26  1  0  0  0  0
  3 27  1  0  0  0  0
  4  5  1  0  0  0  0
  4 28  1  0  0  0  0
  4 29  1  0  0  0  0
  5  6  1  0  0  0  0
  5 30  1  0  0  0  0
  5 31  1  0  0  0  0
  6  7  1  0  0  0  0
  6 20  1  0  0  0  0
  6 32  1  0  0  0  0
  7  8  1  0  0  0  0
  7 33  1  0  0  0  0
  8  9  2  0  0  0  0
  8 10  1  0  0  0  0
 10 11  1  0  0  0  0
 10 34  1  0  0  0  0
 10 35  1  0  0  0  0
 11 18  1  0  0  0  0
 11 12  1  0  0  0  0
 12 13  2  0  0  0  0
 12 36  1  0  0  0  0
 13 14  1  0  0  0  0
 13 37  1  0  0  0  0
 14 15  2  0  0  0  0
 14 16  1  0  0  0  0
 16 17  1  0  0  0  0
 16 18  1  0  0  0  0
 17 38  1  0  0  0  0
 17 39  1  0  0  0  0
 17 40  1  0  0  0  0
 18 19  2  0  0  0  0
 20 21  1  0  0  0  0
 20 41  1  0  0  0  0
 21 42  1  0  0  0  0
 21 43  1  0  0  0  0
 21 44  1  0  0  0  0
M  END
> <s_m_source_file>
AV-unprocessed.smi

> <i_m_source_file_index>
2143

> <i_lp_mmshare_version>
43012

> <i_f3d_flags>
0

> <s_epik_input>
W0NIM11bQ0BASF0xW0NIMl1bQ0gyXVtDSDJdW0NASF0oW0NASF0xW0NIM10pW05IXUMoPU8pW0NIMl1uMltjSF1bY0hdYyg9TyluKFtDSDNdKWMyPU8=

> <s_epik_cmdline>
J2VwaWtfcHl0aG9uJywgJy1waCcsICc3LjAnLCAnLXRuJywgJzgnLCAnLW1hJywgJzIwMCcsICctbWV0YWxfYmluZGluZycsICctaW1hZScsICc8aW5maWxlLm1hZT4nLCAnLW9tYWUnLCAnPG91dGZpbGUubWFlPic=

> <r_lp_tautomer_probability>
1

> <r_epik_Ionization_Penalty>
3.18445e-08

> <r_epik_Ionization_Penalty_Charging>
1.27977e-08

> <r_epik_Ionization_Penalty_Neutral>
1.90469e-08

> <r_epik_State_Penalty>
-0

> <r_epik_Charging_Adjusted_Penalty>
1.27977e-08

> <i_epik_Tot_Q>
0

> <i_epik_Tot_abs_Q>
0

> <r_epik_Metal_State_Penalty>
-0

> <b_epik_Metal_Only>
0

> <s_lp_Force_Field>
OPLS_2005

> <r_lp_Energy>
21.4204

> <b_lp_Chiralities_Consistent>
1

> <s_lp_Variant>
AV-unprocessed.smi:2143-4

> <Gold.Version>
5.8.1

> <Gold.Id.Protein>
6NUR|6NUR_protein|mol2

> <Gold.PLP.Fitness>
43.9367

> <Gold.PLP.PLP>
-36.9230

> <Gold.PLP.part.hbond>
-2.0000

> <Gold.PLP.part.metal>
0.0000

> <Gold.PLP.part.buried>
-4.4252

> <Gold.PLP.part.nonpolar>
-30.2291

> <Gold.PLP.part.repulsive>
0.1347

> <Gold.PLP.ligand.clash>
0.0000

> <Gold.PLP.ligand.torsion>
0.3379

> <Gold.PLP.Chemscore.Hbond>
1.5614

> <Gold.PLP.Chemscore.CHOScore>
1.0000

> <Gold.PLP.Chemscore.Metal>
0.0000

> <Gold.Chemscore.Hbonds>
donor molecule, donor type, donor heavy atom, donor atom, acceptor molecule, acceptor atom, score
      L1  H     7    33       P1  8028  0.50
      P1  H  7989  7998       L1     9  0.55
      L1  C    12    36       P1  7957  0.44

> <Gold.PLP.Chemscore.Internal.Correction>
0.0052

> <Gold.Rescore>
     Score         DG    S(hbond)    S(metal)    S(lipo)     H(rot)  DE(clash)    DE(int)     intcor
     15.15     -16.88       1.33        0.00      92.56       1.51       0.01       1.71       ----

> <Gold.Chemscore.Fitness>
15.1539

> <Gold.Chemscore.DG>
-16.8776

> <Gold.Chemscore.ZeroCoef>
-5.4800

> <Gold.Chemscore.Hbond>
1.3298

> <Gold.Chemscore.Metal>
0.0000

> <Gold.Chemscore.Lipo>
92.5606

> <Gold.Chemscore.Internal_Hbond>
0.0000

> <Gold.Chemscore.DEClash>
0.0126

> <Gold.Chemscore.DEInternal>
1.7111

> <Gold.Chemscore.Rot>
1.5131

> <Gold.Chemscore.Internal.Correction>
   9.000000E+99

> <Gold.Chemscore.Hbonds>
donor molecule, donor type, donor heavy atom, donor atom, acceptor molecule, acceptor atom, score
      L1  H     7    33       P1  8028  0.49
      P1  H  7989  7998       L1     9  0.27

> <Gold.Chemscore.Hbond.Weighted>
-4.4415

> <Gold.Chemscore.Metal.Weighted>
-0.0000

> <Gold.Chemscore.Lipo.Weighted>
-10.8296

> <Gold.Chemscore.Internal_Hbond.Weighted>
0.0000

> <Gold.Chemscore.DEClash.Weighted>
0.0126

> <Gold.Chemscore.DEInternal.Weighted>
1.7111

> <Gold.Chemscore.Rot.Weighted>
3.8734

> <Gold.Chemscore.Internal.Correction.Weighted>
   9.000000E+99

> <Gold.Protein.RotatedTorsions>
[ 6907 6896 6895 6894 ] final  -70.57 input  -60.11 | X-H torsion
[ 7974 7965 7964 7962 ] final   33.34 input  175.53 | X-H torsion
[ 8008 7997 7996 7995 ] final  -36.50 input   59.86 | X-H torsion
[ 10167 10162 10161 10158 ] final   88.91 input  -65.29 | X-H torsion
[ 10718 10713 10712 10709 ] final -167.99 input   66.30 | X-H torsion
[ 10763 10752 10751 10750 ] final   94.98 input  -60.55 | X-H torsion
[ 11005 11000 10999 10996 ] final   68.90 input  -57.11 | X-H torsion

> <Gold.Protein.ActiveResidues>
 VAL166  LYS551  ARG553  GLY616  TRP617  ASP618  TYR619  PRO620  LYS621  CYS622 
 ASP623  PHE694  ASN695  SER759  ASP760  ASP761  ALA762  ILE779  LEU786  VAL792 
 PHE793  MET794  SER795  GLU796  ALA797  LYS798  CYS799  TRP800  GLU811  SER814 

> <Gold.Protein.RotatedAtoms>
  150.7251  134.5434  159.5758 H   0  0  0  0  0  0  0  0  0  0  0  0  # atno 6907 bound_to 6896
  152.2939  134.7687  160.0381 H   0  0  0  0  0  0  0  0  0  0  0  0  # atno 6908 bound_to 6896
  151.8291  133.3370  159.3644 H   0  0  0  0  0  0  0  0  0  0  0  0  # atno 6909 bound_to 6896
  146.1427  139.6409  142.9152 H   0  0  0  0  0  0  0  0  0  0  0  0  # atno 7974 bound_to 7965
  154.4072  140.1629  156.2383 H   0  0  0  0  0  0  0  0  0  0  0  0  # atno 8008 bound_to 7997
  155.9223  140.3420  155.6160 H   0  0  0  0  0  0  0  0  0  0  0  0  # atno 8009 bound_to 7997
  155.7207  140.0768  157.2322 H   0  0  0  0  0  0  0  0  0  0  0  0  # atno 8010 bound_to 7997
  139.8625  144.6536  150.9041 H   0  0  0  0  0  0  0  0  0  0  0  0  # atno 10167 bound_to 10162
  156.6904  130.9157  151.3068 H   0  0  0  0  0  0  0  0  0  0  0  0  # atno 10718 bound_to 10713
  153.2479  135.4270  155.0767 H   0  0  0  0  0  0  0  0  0  0  0  0  # atno 10763 bound_to 10752
  154.8369  135.3418  154.6555 H   0  0  0  0  0  0  0  0  0  0  0  0  # atno 10764 bound_to 10752
  153.6977  135.7030  153.5128 H   0  0  0  0  0  0  0  0  0  0  0  0  # atno 10765 bound_to 10752
  139.9684  134.6941  156.0496 H   0  0  0  0  0  0  0  0  0  0  0  0  # atno 11005 bound_to 11000
  145.5010  141.0437  143.2541 LP  0  0  0  0  0  0  0  0  0  0  0  0  # atno 17320 bound_to 7965
  144.7810  139.6525  143.7154 LP  0  0  0  0  0  0  0  0  0  0  0  0  # atno 17321 bound_to 7965
  140.7773  143.3732  151.1611 LP  0  0  0  0  0  0  0  0  0  0  0  0  # atno 17342 bound_to 10162
  139.7360  143.8999  152.3035 LP  0  0  0  0  0  0  0  0  0  0  0  0  # atno 17343 bound_to 10162
  157.7011  130.9334  150.0788 LP  0  0  0  0  0  0  0  0  0  0  0  0  # atno 17370 bound_to 10713
  156.1802  130.3650  149.9046 LP  0  0  0  0  0  0  0  0  0  0  0  0  # atno 17371 bound_to 10713
  141.1364  133.6574  156.3606 LP  0  0  0  0  0  0  0  0  0  0  0  0  # atno 17394 bound_to 11000
  140.5345  134.6180  157.5360 LP  0  0  0  0  0  0  0  0  0  0  0  0  # atno 17395 bound_to 11000

$$$$
