AV-unprocessed.smi:3353|AV-procd|sdf|12954|dock9
  -GOLD-   2272019393D 1   1.00000     0.00000
 Structure written by MMmdl.
 43 44  0  0  0  0  0  0  0  0  2 V2000
  143.7214  132.6178  148.6508 C   0  0  0  0  0  0  0  0  0  0  0  0
  143.7875  132.1580  150.1122 C   0  0  0  0  0  0  0  0  0  0  0  0
  144.4814  133.1190  150.9471 N   0  0  0  0  0  0  0  0  0  0  0  0
  145.1546  134.2595  150.5564 C   0  0  0  0  0  0  0  0  0  0  0  0
  145.6287  134.8214  151.7081 C   0  0  0  0  0  0  0  0  0  0  0  0
  146.3896  136.0044  151.8859 N   0  0  0  0  0  0  0  0  0  0  0  0
  145.9274  137.2437  152.1179 C   0  0  0  0  0  0  0  0  0  0  0  0
  144.7392  137.5488  152.2189 O   0  0  0  0  0  0  0  0  0  0  0  0
  146.9319  138.1237  152.2283 N   0  0  0  0  0  0  0  0  0  0  0  0
  146.7762  139.5541  152.4776 C   0  0  0  0  0  0  0  0  0  0  0  0
  146.8711  139.8931  153.9851 C   0  0  1  0  0  0  0  0  0  0  0  0
  148.3260  140.2302  154.3838 C   0  0  0  0  0  0  0  0  0  0  0  0
  145.9467  141.0098  154.3414 N   0  3  0  0  0  0  0  0  0  0  0  0
  145.7178  141.2017  155.7902 C   0  0  0  0  0  0  0  0  0  0  0  0
  145.1651  142.6198  155.9502 C   0  0  0  0  0  0  0  0  0  0  0  0
  145.5701  143.3633  154.6751 C   0  0  0  0  0  0  0  0  0  0  0  0
  146.3375  142.3423  153.8315 C   0  0  0  0  0  0  0  0  0  0  0  0
  145.2039  133.9673  152.7588 C   0  0  0  0  0  0  0  0  0  0  0  0
  144.5113  132.9399  152.2910 N   0  0  0  0  0  0  0  0  0  0  0  0
  143.2063  131.8804  148.0352 H   0  0  0  0  0  0  0  0  0  0  0  0
  144.7207  132.7576  148.2378 H   0  0  0  0  0  0  0  0  0  0  0  0
  143.1839  133.5620  148.5574 H   0  0  0  0  0  0  0  0  0  0  0  0
  142.7828  132.0074  150.5095 H   0  0  0  0  0  0  0  0  0  0  0  0
  144.3031  131.1995  150.1819 H   0  0  0  0  0  0  0  0  0  0  0  0
  145.2287  134.5545  149.5201 H   0  0  0  0  0  0  0  0  0  0  0  0
  147.3914  135.8927  151.8301 H   0  0  0  0  0  0  0  0  0  0  0  0
  147.8757  137.7779  152.1339 H   0  0  0  0  0  0  0  0  0  0  0  0
  147.5226  140.1321  151.9295 H   0  0  0  0  0  0  0  0  0  0  0  0
  145.8044  139.8348  152.0722 H   0  0  0  0  0  0  0  0  0  0  0  0
  146.5643  139.0122  154.5519 H   0  0  0  0  0  0  0  0  0  0  0  0
  149.0156  139.4282  154.1207 H   0  0  0  0  0  0  0  0  0  0  0  0
  148.4318  140.3766  155.4584 H   0  0  0  0  0  0  0  0  0  0  0  0
  148.6717  141.1369  153.8864 H   0  0  0  0  0  0  0  0  0  0  0  0
  145.0346  140.4572  156.1996 H   0  0  0  0  0  0  0  0  0  0  0  0
  146.6670  141.1192  156.3226 H   0  0  0  0  0  0  0  0  0  0  0  0
  144.0780  142.5947  156.0343 H   0  0  0  0  0  0  0  0  0  0  0  0
  145.5529  143.1010  156.8487 H   0  0  0  0  0  0  0  0  0  0  0  0
  144.6783  143.6998  154.1446 H   0  0  0  0  0  0  0  0  0  0  0  0
  146.1777  144.2439  154.8874 H   0  0  0  0  0  0  0  0  0  0  0  0
  147.4101  142.4856  153.9734 H   0  0  0  0  0  0  0  0  0  0  0  0
  146.1191  142.4535  152.7691 H   0  0  0  0  0  0  0  0  0  0  0  0
  145.3711  134.0560  153.8221 H   0  0  0  0  0  0  0  0  0  0  0  0
  145.0460  140.8017  153.9339 H   0  0  0  0  0  0  0  0  0  0  0  0
  1  2  1  0  0  0  0
  1 20  1  0  0  0  0
  1 21  1  0  0  0  0
  1 22  1  0  0  0  0
  2  3  1  0  0  0  0
  2 23  1  0  0  0  0
  2 24  1  0  0  0  0
  3 19  1  0  0  0  0
  3  4  1  0  0  0  0
  4  5  2  0  0  0  0
  4 25  1  0  0  0  0
  5  6  1  0  0  0  0
  5 18  1  0  0  0  0
  6  7  1  0  0  0  0
  6 26  1  0  0  0  0
  7  8  2  0  0  0  0
  7  9  1  0  0  0  0
  9 10  1  0  0  0  0
  9 27  1  0  0  0  0
 10 11  1  0  0  0  0
 10 28  1  0  0  0  0
 10 29  1  0  0  0  0
 11 12  1  0  0  0  0
 11 13  1  0  0  0  0
 11 30  1  0  0  0  0
 12 31  1  0  0  0  0
 12 32  1  0  0  0  0
 12 33  1  0  0  0  0
 13 17  1  0  0  0  0
 13 14  1  0  0  0  0
 13 43  1  0  0  0  0
 14 15  1  0  0  0  0
 14 34  1  0  0  0  0
 14 35  1  0  0  0  0
 15 16  1  0  0  0  0
 15 36  1  0  0  0  0
 15 37  1  0  0  0  0
 16 17  1  0  0  0  0
 16 38  1  0  0  0  0
 16 39  1  0  0  0  0
 17 40  1  0  0  0  0
 17 41  1  0  0  0  0
 18 19  2  0  0  0  0
 18 42  1  0  0  0  0
M  CHG  1  13   1
M  END
> <s_m_source_file>
AV-unprocessed.smi

> <i_m_source_file_index>
3353

> <i_lp_mmshare_version>
43012

> <i_f3d_flags>
0

> <s_epik_input>
W0NIM11bQ0gyXW4xW2NIXWMoW2NIXW4xKVtOSF1DKD1PKVtOSF1bQ0gyXVtDQEhdKFtDSDNdKU4yW0NIMl1bQ0gyXVtDSDJdW0NIMl0y

> <s_epik_cmdline>
J2VwaWtfcHl0aG9uJywgJy1waCcsICc3LjAnLCAnLXRuJywgJzgnLCAnLW1hJywgJzIwMCcsICctbWV0YWxfYmluZGluZycsICctaW1hZScsICc8aW5maWxlLm1hZT4nLCAnLW9tYWUnLCAnPG91dGZpbGUubWFlPic=

> <r_lp_tautomer_probability>
1

> <r_epik_Ionization_Penalty>
0.000914091

> <r_epik_Ionization_Penalty_Charging>
0.000761583

> <r_epik_Ionization_Penalty_Neutral>
0.000152508

> <r_epik_State_Penalty>
0.000487427

> <r_epik_Charging_Adjusted_Penalty>
0.00124901

> <i_epik_Tot_Q>
1

> <i_epik_Tot_abs_Q>
1

> <r_epik_Metal_State_Penalty>
-0

> <b_epik_Metal_Only>
0

> <s_lp_Force_Field>
OPLS_2005

> <r_lp_Energy>
35.4291

> <b_lp_Chiralities_Consistent>
1

> <s_lp_Variant>
AV-unprocessed.smi:3353-2

> <Gold.Version>
5.8.1

> <Gold.Id.Protein>
6NUR|6NUR_protein|mol2

> <Gold.PLP.Fitness>
44.7618

> <Gold.PLP.PLP>
-33.0441

> <Gold.PLP.part.hbond>
-2.9806

> <Gold.PLP.part.metal>
0.0000

> <Gold.PLP.part.buried>
-4.5102

> <Gold.PLP.part.nonpolar>
-29.5359

> <Gold.PLP.part.repulsive>
3.0635

> <Gold.PLP.ligand.clash>
0.0000

> <Gold.PLP.ligand.torsion>
1.5315

> <Gold.PLP.Chemscore.Hbond>
3.9120

> <Gold.PLP.Chemscore.CHOScore>
1.0000

> <Gold.PLP.Chemscore.Metal>
0.0000

> <Gold.Chemscore.Hbonds>
donor molecule, donor type, donor heavy atom, donor atom, acceptor molecule, acceptor atom, score
      L1  H     6    26       P1  7948  1.00
      L1  H     9    27       P1  7948  0.91
      L1  H    13    43       P1 10175  2.00
      L1  C     4    25       P1  7921  1.00

> <Gold.PLP.Chemscore.Internal.Correction>
0.0447

> <Gold.Rescore>
     Score         DG    S(hbond)    S(metal)    S(lipo)     H(rot)  DE(clash)    DE(int)     intcor
     17.18     -20.21       2.91        0.00      78.19       1.61       1.50       1.54       ----

> <Gold.Chemscore.Fitness>
17.1775

> <Gold.Chemscore.DG>
-20.2133

> <Gold.Chemscore.ZeroCoef>
-5.4800

> <Gold.Chemscore.Hbond>
2.9074

> <Gold.Chemscore.Metal>
0.0000

> <Gold.Chemscore.Lipo>
78.1948

> <Gold.Chemscore.Internal_Hbond>
0.0000

> <Gold.Chemscore.DEClash>
1.4963

> <Gold.Chemscore.DEInternal>
1.5396

> <Gold.Chemscore.Rot>
1.6117

> <Gold.Chemscore.Internal.Correction>
   9.000000E+99

> <Gold.Chemscore.Hbonds>
donor molecule, donor type, donor heavy atom, donor atom, acceptor molecule, acceptor atom, score
      L1  H     6    26       P1  7948  0.97
      L1  H     9    27       P1  7948  0.89
      L1  H    13    43       P1 10175  0.90

> <Gold.Chemscore.Hbond.Weighted>
-9.7106

> <Gold.Chemscore.Metal.Weighted>
-0.0000

> <Gold.Chemscore.Lipo.Weighted>
-9.1488

> <Gold.Chemscore.Internal_Hbond.Weighted>
0.0000

> <Gold.Chemscore.DEClash.Weighted>
1.4963

> <Gold.Chemscore.DEInternal.Weighted>
1.5396

> <Gold.Chemscore.Rot.Weighted>
4.1260

> <Gold.Chemscore.Internal.Correction.Weighted>
   9.000000E+99

> <Gold.Protein.RotatedTorsions>
[ 6907 6896 6895 6894 ] final  -24.08 input  -60.11 | X-H torsion
[ 7974 7965 7964 7962 ] final  -74.93 input  175.53 | X-H torsion
[ 8008 7997 7996 7995 ] final  155.94 input   59.86 | X-H torsion
[ 10167 10162 10161 10158 ] final   30.55 input  -65.29 | X-H torsion
[ 10718 10713 10712 10709 ] final -141.57 input   66.30 | X-H torsion
[ 10763 10752 10751 10750 ] final -165.89 input  -60.55 | X-H torsion
[ 11005 11000 10999 10996 ] final   94.68 input  -57.11 | X-H torsion

> <Gold.Protein.ActiveResidues>
 VAL166  LYS551  ARG553  GLY616  TRP617  ASP618  TYR619  PRO620  LYS621  CYS622 
 ASP623  PHE694  ASN695  SER759  ASP760  ASP761  ALA762  ILE779  LEU786  VAL792 
 PHE793  MET794  SER795  GLU796  ALA797  LYS798  CYS799  TRP800  GLU811  SER814 

> <Gold.Protein.RotatedAtoms>
  151.1947  135.0417  159.8847 H   0  0  0  0  0  0  0  0  0  0  0  0  # atno 6907 bound_to 6896
  152.5437  134.0916  159.8289 H   0  0  0  0  0  0  0  0  0  0  0  0  # atno 6908 bound_to 6896
  151.1049  133.5168  159.2640 H   0  0  0  0  0  0  0  0  0  0  0  0  # atno 6909 bound_to 6896
  145.6326  140.9333  143.1078 H   0  0  0  0  0  0  0  0  0  0  0  0  # atno 7974 bound_to 7965
  156.2450  140.1926  156.6879 H   0  0  0  0  0  0  0  0  0  0  0  0  # atno 8008 bound_to 7997
  154.6273  140.0600  156.9716 H   0  0  0  0  0  0  0  0  0  0  0  0  # atno 8009 bound_to 7997
  155.1766  140.3273  155.4385 H   0  0  0  0  0  0  0  0  0  0  0  0  # atno 8010 bound_to 7997
  140.4668  144.0824  150.6226 H   0  0  0  0  0  0  0  0  0  0  0  0  # atno 10167 bound_to 10162
  156.3356  130.7610  151.1736 H   0  0  0  0  0  0  0  0  0  0  0  0  # atno 10718 bound_to 10713
  154.6887  135.2967  154.9511 H   0  0  0  0  0  0  0  0  0  0  0  0  # atno 10763 bound_to 10752
  154.0481  135.6648  153.4801 H   0  0  0  0  0  0  0  0  0  0  0  0  # atno 10764 bound_to 10752
  153.0597  135.5123  154.7968 H   0  0  0  0  0  0  0  0  0  0  0  0  # atno 10765 bound_to 10752
  139.8796  134.8858  156.3899 H   0  0  0  0  0  0  0  0  0  0  0  0  # atno 11005 bound_to 11000
  144.7187  139.8104  143.7389 LP  0  0  0  0  0  0  0  0  0  0  0  0  # atno 17320 bound_to 7965
  146.1344  139.4386  143.0148 LP  0  0  0  0  0  0  0  0  0  0  0  0  # atno 17321 bound_to 7965
  140.4027  143.2696  151.9929 LP  0  0  0  0  0  0  0  0  0  0  0  0  # atno 17342 bound_to 10162
  139.4813  144.5984  151.7649 LP  0  0  0  0  0  0  0  0  0  0  0  0  # atno 17343 bound_to 10162
  157.7438  131.0469  150.4916 LP  0  0  0  0  0  0  0  0  0  0  0  0  # atno 17370 bound_to 10713
  156.5088  130.4134  149.6312 LP  0  0  0  0  0  0  0  0  0  0  0  0  # atno 17371 bound_to 10713
  140.9340  133.7560  156.0061 LP  0  0  0  0  0  0  0  0  0  0  0  0  # atno 17394 bound_to 11000
  140.8297  134.3192  157.5353 LP  0  0  0  0  0  0  0  0  0  0  0  0  # atno 17395 bound_to 11000

$$$$
