AV-unprocessed.smi:632|AV-procd|sdf|3127|dock6
  -GOLD-   22720 0 53D 1   1.00000     0.00000
 Structure written by MMmdl.
 42 43  0  0  0  0  0  0  0  0  1 V2000
  148.0170  123.1821  149.7679 C   0  0  0  0  0  0  0  0  0  0  0  0
  148.6723  123.6827  151.0698 C   0  0  0  0  0  0  0  0  0  0  0  0
  148.2452  122.7266  152.2052 C   0  0  0  0  0  0  0  0  0  0  0  0
  150.2086  123.6170  150.9632 C   0  0  0  0  0  0  0  0  0  0  0  0
  148.2376  125.1029  151.3487 C   0  0  0  0  0  0  0  0  0  0  0  0
  147.5885  125.4365  152.4747 N   0  0  0  0  0  0  0  0  0  0  0  0
  147.2837  126.7878  152.5407 N   0  0  0  0  0  0  0  0  0  0  0  0
  147.7132  127.4508  151.4602 C   0  0  0  0  0  0  0  0  0  0  0  0
  147.5411  128.8477  151.2706 N   0  0  0  0  0  0  0  0  0  0  0  0
  146.4814  129.6084  151.5974 C   0  0  0  0  0  0  0  0  0  0  0  0
  145.4407  129.1965  152.1106 O   0  0  0  0  0  0  0  0  0  0  0  0
  146.6958  130.8965  151.2916 N   0  0  0  0  0  0  0  0  0  0  0  0
  145.7554  131.9865  151.5348 C   0  0  2  0  0  0  0  0  0  0  0  0
  144.4229  131.7303  150.8035 C   0  0  0  0  0  0  0  0  0  0  0  0
  143.4367  132.8935  151.0100 C   0  0  0  0  0  0  0  0  0  0  0  0
  144.0419  134.2532  150.6112 C   0  0  2  0  0  0  0  0  0  0  0  0
  144.1853  134.3268  149.2064 O   0  0  0  0  0  0  0  0  0  0  0  0
  145.4023  134.4928  151.2938 C   0  0  0  0  0  0  0  0  0  0  0  0
  146.3759  133.3202  151.0813 C   0  0  0  0  0  0  0  0  0  0  0  0
  148.5307  126.4661  150.2614 S   0  0  0  0  0  0  0  0  0  0  0  0
  148.3027  122.1530  149.5480 H   0  0  0  0  0  0  0  0  0  0  0  0
  148.3132  123.7895  148.9118 H   0  0  0  0  0  0  0  0  0  0  0  0
  146.9288  123.2155  149.8331 H   0  0  0  0  0  0  0  0  0  0  0  0
  147.1617  122.7044  152.3282 H   0  0  0  0  0  0  0  0  0  0  0  0
  148.6843  123.0145  153.1611 H   0  0  0  0  0  0  0  0  0  0  0  0
  148.5647  121.7039  152.0015 H   0  0  0  0  0  0  0  0  0  0  0  0
  150.5519  122.5985  150.7801 H   0  0  0  0  0  0  0  0  0  0  0  0
  150.6850  123.9658  151.8802 H   0  0  0  0  0  0  0  0  0  0  0  0
  150.5801  124.2345  150.1446 H   0  0  0  0  0  0  0  0  0  0  0  0
  148.3223  129.3261  150.8473 H   0  0  0  0  0  0  0  0  0  0  0  0
  147.5763  131.1445  150.8644 H   0  0  0  0  0  0  0  0  0  0  0  0
  145.5611  132.0546  152.6070 H   0  0  0  0  0  0  0  0  0  0  0  0
  144.6057  131.5916  149.7369 H   0  0  0  0  0  0  0  0  0  0  0  0
  143.9698  130.8045  151.1602 H   0  0  0  0  0  0  0  0  0  0  0  0
  142.5175  132.7096  150.4525 H   0  0  0  0  0  0  0  0  0  0  0  0
  143.1505  132.9276  152.0620 H   0  0  0  0  0  0  0  0  0  0  0  0
  143.3530  135.0472  150.9013 H   0  0  0  0  0  0  0  0  0  0  0  0
  145.0906  134.5095  149.0062 H   0  0  0  0  0  0  0  0  0  0  0  0
  145.8483  135.4213  150.9351 H   0  0  0  0  0  0  0  0  0  0  0  0
  145.2428  134.6274  152.3644 H   0  0  0  0  0  0  0  0  0  0  0  0
  147.2987  133.5090  151.6315 H   0  0  0  0  0  0  0  0  0  0  0  0
  146.6527  133.2619  150.0276 H   0  0  0  0  0  0  0  0  0  0  0  0
  1  2  1  0  0  0  0
  1 21  1  0  0  0  0
  1 22  1  0  0  0  0
  1 23  1  0  0  0  0
  2  3  1  0  0  0  0
  2  4  1  0  0  0  0
  2  5  1  0  0  0  0
  3 24  1  0  0  0  0
  3 25  1  0  0  0  0
  3 26  1  0  0  0  0
  4 27  1  0  0  0  0
  4 28  1  0  0  0  0
  4 29  1  0  0  0  0
  5 20  1  0  0  0  0
  5  6  2  0  0  0  0
  6  7  1  0  0  0  0
  7  8  2  0  0  0  0
  8  9  1  0  0  0  0
  8 20  1  0  0  0  0
  9 10  1  0  0  0  0
  9 30  1  0  0  0  0
 10 11  2  0  0  0  0
 10 12  1  0  0  0  0
 12 13  1  0  0  0  0
 12 31  1  0  0  0  0
 13 19  1  0  0  0  0
 13 14  1  0  0  0  0
 13 32  1  0  0  0  0
 14 15  1  0  0  0  0
 14 33  1  0  0  0  0
 14 34  1  0  0  0  0
 15 16  1  0  0  0  0
 15 35  1  0  0  0  0
 15 36  1  0  0  0  0
 16 17  1  0  0  0  0
 16 18  1  0  0  0  0
 16 37  1  0  0  0  0
 17 38  1  0  0  0  0
 18 19  1  0  0  0  0
 18 39  1  0  0  0  0
 18 40  1  0  0  0  0
 19 41  1  0  0  0  0
 19 42  1  0  0  0  0
M  END
> <s_m_source_file>
AV-unprocessed.smi

> <i_m_source_file_index>
632

> <i_lp_mmshare_version>
43012

> <i_f3d_flags>
0

> <s_epik_input>
W0NIM11DKFtDSDNdKShbQ0gzXSljMW5uYyhzMSlbTkhdQyg9TylbTkhdW0NAQEhdMltDSDJdW0NIMl1bQ0BASF0oW09IXSlbQ0gyXVtDSDJdMg==

> <s_epik_cmdline>
J2VwaWtfcHl0aG9uJywgJy1waCcsICc3LjAnLCAnLXRuJywgJzgnLCAnLW1hJywgJzIwMCcsICctbWV0YWxfYmluZGluZycsICctaW1hZScsICc8aW5maWxlLm1hZT4nLCAnLW9tYWUnLCAnPG91dGZpbGUubWFlPic=

> <r_lp_tautomer_probability>
1

> <r_epik_Ionization_Penalty>
0.000349475

> <r_epik_Ionization_Penalty_Charging>
0

> <r_epik_Ionization_Penalty_Neutral>
0.000349475

> <r_epik_State_Penalty>
-0

> <r_epik_Charging_Adjusted_Penalty>
0

> <i_epik_Tot_Q>
0

> <i_epik_Tot_abs_Q>
0

> <r_epik_Metal_State_Penalty>
0.179207

> <b_epik_Metal_Only>
0

> <s_lp_Force_Field>
OPLS_2005

> <r_lp_Energy>
4.89168

> <b_lp_Chiralities_Consistent>
1

> <s_lp_Variant>
AV-unprocessed.smi:632-2

> <Gold.Version>
5.8.1

> <Gold.Id.Protein>
6NUR|6NUR_protein|mol2

> <Gold.PLP.Fitness>
46.1119

> <Gold.PLP.PLP>
-38.2300

> <Gold.PLP.part.hbond>
-5.0987

> <Gold.PLP.part.metal>
0.0000

> <Gold.PLP.part.buried>
-5.1688

> <Gold.PLP.part.nonpolar>
-28.5927

> <Gold.PLP.part.repulsive>
0.2960

> <Gold.PLP.ligand.clash>
0.0000

> <Gold.PLP.ligand.torsion>
0.2915

> <Gold.PLP.Chemscore.Hbond>
2.8192

> <Gold.PLP.Chemscore.CHOScore>
0.0000

> <Gold.PLP.Chemscore.Metal>
0.0000

> <Gold.Chemscore.Hbonds>
donor molecule, donor type, donor heavy atom, donor atom, acceptor molecule, acceptor atom, score
      L1  H     9    30       P1 10747  0.83
      L1  H    12    31       P1 10747  1.00
      L1  H    17    38       P1  7921  0.80

> <Gold.PLP.Chemscore.Internal.Correction>
0.0074

> <Gold.Rescore>
     Score         DG    S(hbond)    S(metal)    S(lipo)     H(rot)  DE(clash)    DE(int)     intcor
     15.22     -16.81       2.20        0.00      71.22       1.70       1.20       0.39       ----

> <Gold.Chemscore.Fitness>
15.2175

> <Gold.Chemscore.DG>
-16.8055

> <Gold.Chemscore.ZeroCoef>
-5.4800

> <Gold.Chemscore.Hbond>
2.1966

> <Gold.Chemscore.Metal>
0.0000

> <Gold.Chemscore.Lipo>
71.2187

> <Gold.Chemscore.Internal_Hbond>
0.0000

> <Gold.Chemscore.DEClash>
1.1990

> <Gold.Chemscore.DEInternal>
0.3891

> <Gold.Chemscore.Rot>
1.6968

> <Gold.Chemscore.Internal.Correction>
   9.000000E+99

> <Gold.Chemscore.Hbonds>
donor molecule, donor type, donor heavy atom, donor atom, acceptor molecule, acceptor atom, score
      L1  H     9    30       P1 10747  0.14
      L1  H    12    31       P1 10747  0.92
      L1  H    17    38       P1  7921  0.80

> <Gold.Chemscore.Hbond.Weighted>
-7.3368

> <Gold.Chemscore.Metal.Weighted>
-0.0000

> <Gold.Chemscore.Lipo.Weighted>
-8.3326

> <Gold.Chemscore.Internal_Hbond.Weighted>
0.0000

> <Gold.Chemscore.DEClash.Weighted>
1.1990

> <Gold.Chemscore.DEInternal.Weighted>
0.3891

> <Gold.Chemscore.Rot.Weighted>
4.3438

> <Gold.Chemscore.Internal.Correction.Weighted>
   9.000000E+99

> <Gold.Protein.RotatedTorsions>
[ 6907 6896 6895 6894 ] final  -57.67 input  -60.11 | X-H torsion
[ 7974 7965 7964 7962 ] final -134.28 input  175.53 | X-H torsion
[ 8008 7997 7996 7995 ] final  -73.42 input   59.86 | X-H torsion
[ 10167 10162 10161 10158 ] final -154.13 input  -65.29 | X-H torsion
[ 10718 10713 10712 10709 ] final  146.26 input   66.30 | X-H torsion
[ 10763 10752 10751 10750 ] final -101.24 input  -60.55 | X-H torsion
[ 11005 11000 10999 10996 ] final  -48.90 input  -57.11 | X-H torsion

> <Gold.Protein.ActiveResidues>
 VAL166  LYS551  ARG553  GLY616  TRP617  ASP618  TYR619  PRO620  LYS621  CYS622 
 ASP623  PHE694  ASN695  SER759  ASP760  ASP761  ALA762  ILE779  LEU786  VAL792 
 PHE793  MET794  SER795  GLU796  ALA797  LYS798  CYS799  TRP800  GLU811  SER814 

> <Gold.Protein.RotatedAtoms>
  150.8068  134.7198  159.6650 H   0  0  0  0  0  0  0  0  0  0  0  0  # atno 6907 bound_to 6896
  152.4187  134.5991  160.0005 H   0  0  0  0  0  0  0  0  0  0  0  0  # atno 6908 bound_to 6896
  151.6212  133.3302  159.3124 H   0  0  0  0  0  0  0  0  0  0  0  0  # atno 6909 bound_to 6896
  144.9117  140.6903  143.5021 H   0  0  0  0  0  0  0  0  0  0  0  0  # atno 7974 bound_to 7965
  154.5246  140.0779  156.8234 H   0  0  0  0  0  0  0  0  0  0  0  0  # atno 8008 bound_to 7997
  155.3503  140.3412  155.4221 H   0  0  0  0  0  0  0  0  0  0  0  0  # atno 8009 bound_to 7997
  156.1717  140.1622  156.8421 H   0  0  0  0  0  0  0  0  0  0  0  0  # atno 8010 bound_to 7997
  139.7039  143.9219  152.2440 H   0  0  0  0  0  0  0  0  0  0  0  0  # atno 10167 bound_to 10162
  157.3354  131.0927  151.1128 H   0  0  0  0  0  0  0  0  0  0  0  0  # atno 10718 bound_to 10713
  154.7642  135.4905  153.9522 H   0  0  0  0  0  0  0  0  0  0  0  0  # atno 10763 bound_to 10752
  153.1287  135.6748  153.9221 H   0  0  0  0  0  0  0  0  0  0  0  0  # atno 10764 bound_to 10752
  153.8931  135.3118  155.3426 H   0  0  0  0  0  0  0  0  0  0  0  0  # atno 10765 bound_to 10752
  141.0728  133.6674  156.3507 H   0  0  0  0  0  0  0  0  0  0  0  0  # atno 11005 bound_to 11000
  145.3444  139.1723  143.4468 LP  0  0  0  0  0  0  0  0  0  0  0  0  # atno 17320 bound_to 7965
  146.3161  140.3488  142.8654 LP  0  0  0  0  0  0  0  0  0  0  0  0  # atno 17321 bound_to 7965
  139.9069  144.6879  150.8604 LP  0  0  0  0  0  0  0  0  0  0  0  0  # atno 17342 bound_to 10162
  140.7716  143.3472  151.2087 LP  0  0  0  0  0  0  0  0  0  0  0  0  # atno 17343 bound_to 10162
  157.2360  130.6547  149.5869 LP  0  0  0  0  0  0  0  0  0  0  0  0  # atno 17370 bound_to 10713
  155.9701  130.4583  150.5996 LP  0  0  0  0  0  0  0  0  0  0  0  0  # atno 17371 bound_to 10713
  140.5638  134.5908  157.5440 LP  0  0  0  0  0  0  0  0  0  0  0  0  # atno 17394 bound_to 11000
  139.9540  134.7567  156.0383 LP  0  0  0  0  0  0  0  0  0  0  0  0  # atno 17395 bound_to 11000

$$$$
