AV-unprocessed.smi:21|AV-procd|sdf|151|dock2
  -GOLD-   2262015373D 1   1.00000     0.00000
 Structure written by MMmdl.
 62 65  0  0  0  0  0  0  0  0  2 V2000
  146.4271  127.4089  154.5409 C   0  0  0  0  0  0  0  0  0  0  0  0
  145.7726  128.2705  153.6224 O   0  0  0  0  0  0  0  0  0  0  0  0
  146.5025  128.4887  152.4221 C   0  0  1  0  0  0  0  0  0  0  0  0
  145.7216  129.4672  151.5536 C   0  0  0  0  0  0  0  0  0  0  0  0
  146.1275  130.8393  152.0988 C   0  0  2  0  0  0  0  0  0  0  0  0
  145.9387  131.9941  151.0937 C   0  0  0  0  0  0  0  0  0  0  0  0
  144.6546  132.6790  151.2593 N   0  0  0  0  0  0  0  0  0  0  0  0
  143.4796  132.0848  150.6342 C   0  0  0  0  0  0  0  0  0  0  0  0
  144.6223  133.9788  151.6709 C   0  0  0  0  0  0  0  0  0  0  0  0
  145.6180  134.8065  151.2542 N   0  0  0  0  0  0  0  0  0  0  0  0
  145.6417  136.0909  151.6186 C   0  0  0  0  0  0  0  0  0  0  0  0
  144.7752  136.7547  152.3828 N   0  0  0  0  0  0  0  0  0  0  0  0
  143.7689  135.9397  152.8068 C   0  0  0  0  0  0  0  0  0  0  0  0
  143.6156  134.5537  152.5080 C   0  0  0  0  0  0  0  0  0  0  0  0
  142.4592  134.0786  153.1206 N   0  0  0  0  0  0  0  0  0  0  0  0
  141.9679  135.1127  153.7457 C   0  0  0  0  0  0  0  0  0  0  0  0
  142.6864  136.2757  153.5997 N   0  0  0  0  0  0  0  0  0  0  0  0
  142.3724  137.5745  154.1682 C   0  0  0  0  0  0  0  0  0  0  0  0
  141.3005  137.4917  155.2858 C   0  0  1  0  0  0  0  0  0  0  0  0
  141.7290  138.2931  156.5369 C   0  0  0  0  0  0  0  0  0  0  0  0
  141.9273  139.6571  156.2291 O   0  0  0  0  0  0  0  0  0  0  0  0
  139.8760  137.8840  154.8057 C   0  0  1  0  0  0  0  0  0  0  0  0
  139.3005  137.0664  153.6541 C   0  0  0  0  0  0  0  0  0  0  0  0
  137.8020  137.1869  153.8916 C   0  0  0  0  0  0  0  0  0  0  0  0
  137.7032  137.0854  155.3020 O   0  0  0  0  0  0  0  0  0  0  0  0
  138.7734  137.8257  155.8790 C   0  0  0  0  0  0  0  0  0  0  0  0
  147.5474  130.6829  152.4894 N   0  3  1  0  0  0  0  0  0  0  0  0
  147.9642  131.5446  153.6175 C   0  0  0  0  0  0  0  0  0  0  0  0
  147.8113  129.2407  152.7127 C   0  0  0  0  0  0  0  0  0  0  0  0
  146.6684  127.5483  151.8939 H   0  0  0  0  0  0  0  0  0  0  0  0
  145.5439  131.0324  153.0011 H   0  0  0  0  0  0  0  0  0  0  0  0
  145.8202  127.3079  155.4405 H   0  0  0  0  0  0  0  0  0  0  0  0
  147.4021  127.7956  154.8378 H   0  0  0  0  0  0  0  0  0  0  0  0
  146.5628  126.4135  154.1159 H   0  0  0  0  0  0  0  0  0  0  0  0
  146.0455  129.3651  150.5168 H   0  0  0  0  0  0  0  0  0  0  0  0
  144.6447  129.2972  151.5834 H   0  0  0  0  0  0  0  0  0  0  0  0
  146.7238  132.7352  151.2456 H   0  0  0  0  0  0  0  0  0  0  0  0
  146.0848  131.6363  150.0743 H   0  0  0  0  0  0  0  0  0  0  0  0
  142.5834  132.2812  151.2236 H   0  0  0  0  0  0  0  0  0  0  0  0
  143.5883  131.0027  150.5554 H   0  0  0  0  0  0  0  0  0  0  0  0
  143.3365  132.4801  149.6280 H   0  0  0  0  0  0  0  0  0  0  0  0
  146.4734  136.6695  151.2442 H   0  0  0  0  0  0  0  0  0  0  0  0
  141.0572  135.0570  154.3242 H   0  0  0  0  0  0  0  0  0  0  0  0
  143.2962  138.0086  154.5507 H   0  0  0  0  0  0  0  0  0  0  0  0
  142.0480  138.2173  153.3509 H   0  0  0  0  0  0  0  0  0  0  0  0
  141.2393  136.4450  155.5881 H   0  0  0  0  0  0  0  0  0  0  0  0
  140.9652  138.2480  157.3127 H   0  0  0  0  0  0  0  0  0  0  0  0
  142.6427  137.8826  156.9676 H   0  0  0  0  0  0  0  0  0  0  0  0
  142.8373  139.7871  156.0083 H   0  0  0  0  0  0  0  0  0  0  0  0
  139.9059  138.9220  154.4713 H   0  0  0  0  0  0  0  0  0  0  0  0
  139.6037  137.4388  152.6754 H   0  0  0  0  0  0  0  0  0  0  0  0
  139.5858  136.0174  153.7183 H   0  0  0  0  0  0  0  0  0  0  0  0
  137.4290  138.1588  153.5640 H   0  0  0  0  0  0  0  0  0  0  0  0
  137.2295  136.4069  153.3891 H   0  0  0  0  0  0  0  0  0  0  0  0
  139.0903  137.3600  156.8114 H   0  0  0  0  0  0  0  0  0  0  0  0
  138.4272  138.8309  156.1224 H   0  0  0  0  0  0  0  0  0  0  0  0
  147.4146  131.2947  154.5262 H   0  0  0  0  0  0  0  0  0  0  0  0
  147.7872  132.5957  153.3885 H   0  0  0  0  0  0  0  0  0  0  0  0
  149.0291  131.4208  153.8167 H   0  0  0  0  0  0  0  0  0  0  0  0
  148.1940  129.0356  153.7130 H   0  0  0  0  0  0  0  0  0  0  0  0
  148.5827  128.9338  152.0058 H   0  0  0  0  0  0  0  0  0  0  0  0
  148.0992  130.9483  151.6859 H   0  0  0  0  0  0  0  0  0  0  0  0
  1  2  1  0  0  0  0
  1 32  1  0  0  0  0
  1 33  1  0  0  0  0
  1 34  1  0  0  0  0
  2  3  1  0  0  0  0
  3 30  1  0  0  0  0
  3 29  1  0  0  0  0
  3  4  1  0  0  0  0
  4  5  1  0  0  0  0
  4 35  1  0  0  0  0
  4 36  1  0  0  0  0
  5 31  1  0  0  0  0
  5  6  1  0  0  0  0
  5 27  1  0  0  0  0
  6  7  1  0  0  0  0
  6 37  1  0  0  0  0
  6 38  1  0  0  0  0
  7  8  1  0  0  0  0
  7  9  1  0  0  0  0
  8 39  1  0  0  0  0
  8 40  1  0  0  0  0
  8 41  1  0  0  0  0
  9 14  1  0  0  0  0
  9 10  2  0  0  0  0
 10 11  1  0  0  0  0
 11 12  2  0  0  0  0
 11 42  1  0  0  0  0
 12 13  1  0  0  0  0
 13 17  1  0  0  0  0
 13 14  2  0  0  0  0
 14 15  1  0  0  0  0
 15 16  2  0  0  0  0
 16 17  1  0  0  0  0
 16 43  1  0  0  0  0
 17 18  1  0  0  0  0
 18 19  1  0  0  0  0
 18 44  1  0  0  0  0
 18 45  1  0  0  0  0
 19 20  1  0  0  0  0
 19 22  1  0  0  0  0
 19 46  1  0  0  0  0
 20 21  1  0  0  0  0
 20 47  1  0  0  0  0
 20 48  1  0  0  0  0
 21 49  1  0  0  0  0
 22 26  1  0  0  0  0
 22 23  1  0  0  0  0
 22 50  1  0  0  0  0
 23 24  1  0  0  0  0
 23 51  1  0  0  0  0
 23 52  1  0  0  0  0
 24 25  1  0  0  0  0
 24 53  1  0  0  0  0
 24 54  1  0  0  0  0
 25 26  1  0  0  0  0
 26 55  1  0  0  0  0
 26 56  1  0  0  0  0
 27 28  1  0  0  0  0
 27 29  1  0  0  0  0
 27 62  1  0  0  0  0
 28 57  1  0  0  0  0
 28 58  1  0  0  0  0
 28 59  1  0  0  0  0
 29 60  1  0  0  0  0
 29 61  1  0  0  0  0
M  CHG  1  27   1
M  END
> <s_m_source_file>
AV-unprocessed.smi

> <i_m_source_file_index>
21

> <i_lp_mmshare_version>
43012

> <i_f3d_flags>
0

> <s_epik_input>
W0NIM11PW0NASF0xW0NIMl1bQ0BIXShOKFtDSDNdKVtDSDJdMSlbQ0gyXU4oW0NIM10pYyhuW2NIXW4yKWMoYzIzKW5bY0hdbjNbQ0gyXVtDQEhdKFtDSDJdW09IXSlbQ0BASF00W0NIMl1bQ0gyXU9bQ0gyXTQ=

> <s_epik_cmdline>
J2VwaWtfcHl0aG9uJywgJy1waCcsICc3LjAnLCAnLXRuJywgJzgnLCAnLW1hJywgJzIwMCcsICctbWV0YWxfYmluZGluZycsICctaW1hZScsICc8aW5maWxlLm1hZT4nLCAnLW9tYWUnLCAnPG91dGZpbGUubWFlPic=

> <r_lp_tautomer_probability>
1

> <r_epik_Ionization_Penalty>
0.0157465

> <r_epik_Ionization_Penalty_Charging>
0.015354

> <r_epik_Ionization_Penalty_Neutral>
0.000392529

> <r_epik_State_Penalty>
0.0120612

> <r_epik_Charging_Adjusted_Penalty>
0.0274152

> <i_epik_Tot_Q>
1

> <i_epik_Tot_abs_Q>
1

> <r_epik_Metal_State_Penalty>
0.0121253

> <b_epik_Metal_Only>
0

> <s_lp_Force_Field>
OPLS_2005

> <r_lp_Energy>
59.9021

> <b_lp_Chiralities_Consistent>
1

> <s_lp_Variant>
AV-unprocessed.smi:21-31

> <Gold.Version>
5.8.1

> <Gold.Id.Protein>
6NUR|6NUR_protein|mol2

> <Gold.PLP.Fitness>
45.0384

> <Gold.PLP.PLP>
-40.5725

> <Gold.PLP.part.hbond>
-1.0000

> <Gold.PLP.part.metal>
0.0000

> <Gold.PLP.part.buried>
-9.2118

> <Gold.PLP.part.nonpolar>
-35.0426

> <Gold.PLP.part.repulsive>
3.0194

> <Gold.PLP.ligand.clash>
0.0000

> <Gold.PLP.ligand.torsion>
2.1825

> <Gold.PLP.Chemscore.Hbond>
1.0000

> <Gold.PLP.Chemscore.CHOScore>
1.7133

> <Gold.PLP.Chemscore.Metal>
0.0000

> <Gold.Chemscore.Hbonds>
donor molecule, donor type, donor heavy atom, donor atom, acceptor molecule, acceptor atom, score
      L1  H    27    62       P1 10747  1.00
      L1  C    11    42       P1  7948  0.84
      L1  C    16    43       P1 11000  0.82

> <Gold.PLP.Chemscore.Internal.Correction>
0.6912

> <Gold.Rescore>
     Score         DG    S(hbond)    S(metal)    S(lipo)     H(rot)  DE(clash)    DE(int)     intcor
      9.70     -12.66       1.00        0.00     100.28       3.08       0.81       2.15       ----

> <Gold.Chemscore.Fitness>
9.6992

> <Gold.Chemscore.DG>
-12.6621

> <Gold.Chemscore.ZeroCoef>
-5.4800

> <Gold.Chemscore.Hbond>
0.9951

> <Gold.Chemscore.Metal>
0.0000

> <Gold.Chemscore.Lipo>
100.2775

> <Gold.Chemscore.Internal_Hbond>
0.0000

> <Gold.Chemscore.DEClash>
0.8121

> <Gold.Chemscore.DEInternal>
2.1508

> <Gold.Chemscore.Rot>
3.0758

> <Gold.Chemscore.Internal.Correction>
   9.000000E+99

> <Gold.Chemscore.Hbonds>
donor molecule, donor type, donor heavy atom, donor atom, acceptor molecule, acceptor atom, score
      L1  H    27    62       P1 10747  0.99

> <Gold.Chemscore.Hbond.Weighted>
-3.3238

> <Gold.Chemscore.Metal.Weighted>
-0.0000

> <Gold.Chemscore.Lipo.Weighted>
-11.7325

> <Gold.Chemscore.Internal_Hbond.Weighted>
0.0000

> <Gold.Chemscore.DEClash.Weighted>
0.8121

> <Gold.Chemscore.DEInternal.Weighted>
2.1508

> <Gold.Chemscore.Rot.Weighted>
7.8741

> <Gold.Chemscore.Internal.Correction.Weighted>
   9.000000E+99

> <Gold.Protein.RotatedTorsions>
[ 6907 6896 6895 6894 ] final  146.72 input  -60.11 | X-H torsion
[ 7974 7965 7964 7962 ] final -105.09 input  175.53 | X-H torsion
[ 8008 7997 7996 7995 ] final -131.26 input   59.86 | X-H torsion
[ 10167 10162 10161 10158 ] final  116.96 input  -65.29 | X-H torsion
[ 10718 10713 10712 10709 ] final  -26.80 input   66.30 | X-H torsion
[ 10763 10752 10751 10750 ] final  -30.17 input  -60.55 | X-H torsion
[ 11005 11000 10999 10996 ] final -128.22 input  -57.11 | X-H torsion

> <Gold.Protein.ActiveResidues>
 VAL166  LYS551  ARG553  GLY616  TRP617  ASP618  TYR619  PRO620  LYS621  CYS622 
 ASP623  PHE694  ASN695  SER759  ASP760  ASP761  ALA762  ILE779  LEU786  VAL792 
 PHE793  MET794  SER795  GLU796  ALA797  LYS798  CYS799  TRP800  GLU811  SER814 

> <Gold.Protein.RotatedAtoms>
  152.1641  133.4601  159.4875 H   0  0  0  0  0  0  0  0  0  0  0  0  # atno 6907 bound_to 6896
  150.6911  134.2034  159.4340 H   0  0  0  0  0  0  0  0  0  0  0  0  # atno 6908 bound_to 6896
  151.9938  134.9964  160.0613 H   0  0  0  0  0  0  0  0  0  0  0  0  # atno 6909 bound_to 6896
  145.2348  140.9184  143.3184 H   0  0  0  0  0  0  0  0  0  0  0  0  # atno 7974 bound_to 7965
  155.3094  140.0456  157.3034 H   0  0  0  0  0  0  0  0  0  0  0  0  # atno 8008 bound_to 7997
  154.5441  140.2297  155.8558 H   0  0  0  0  0  0  0  0  0  0  0  0  # atno 8009 bound_to 7997
  156.1908  140.3051  155.9335 H   0  0  0  0  0  0  0  0  0  0  0  0  # atno 8010 bound_to 7997
  139.6211  144.7101  151.2633 H   0  0  0  0  0  0  0  0  0  0  0  0  # atno 10167 bound_to 10162
  156.4465  130.4475  149.7018 H   0  0  0  0  0  0  0  0  0  0  0  0  # atno 10718 bound_to 10713
  153.7766  135.6908  153.4896 H   0  0  0  0  0  0  0  0  0  0  0  0  # atno 10763 bound_to 10752
  153.1839  135.4496  155.0062 H   0  0  0  0  0  0  0  0  0  0  0  0  # atno 10764 bound_to 10752
  154.8097  135.3372  154.7272 H   0  0  0  0  0  0  0  0  0  0  0  0  # atno 10765 bound_to 10752
  140.9534  134.1034  157.4040 H   0  0  0  0  0  0  0  0  0  0  0  0  # atno 11005 bound_to 11000
  144.9643  139.3947  143.6340 LP  0  0  0  0  0  0  0  0  0  0  0  0  # atno 17320 bound_to 7965
  146.3344  139.8711  142.8840 LP  0  0  0  0  0  0  0  0  0  0  0  0  # atno 17321 bound_to 7965
  140.7382  143.6654  150.8127 LP  0  0  0  0  0  0  0  0  0  0  0  0  # atno 17342 bound_to 10162
  140.0265  143.5488  152.2778 LP  0  0  0  0  0  0  0  0  0  0  0  0  # atno 17343 bound_to 10162
  156.3862  130.7604  151.2601 LP  0  0  0  0  0  0  0  0  0  0  0  0  # atno 17370 bound_to 10713
  157.7504  131.0281  150.4035 LP  0  0  0  0  0  0  0  0  0  0  0  0  # atno 17371 bound_to 10713
  139.8854  135.0072  156.6436 LP  0  0  0  0  0  0  0  0  0  0  0  0  # atno 17394 bound_to 11000
  140.7570  133.8849  155.8389 LP  0  0  0  0  0  0  0  0  0  0  0  0  # atno 17395 bound_to 11000

$$$$
