#       Name:                AV-unprocessed.smi:2616
#       Creating user name   scv26
#       Creation time:       Fri Mar 27 14:22:17 2020


#       File generated by GOLD software.
#

@<TRIPOS>MOLECULE
AV-unprocessed.smi:2616
    34    35     1
SMALL
NO_CHARGES


@<TRIPOS>ATOM
      1 ****        -4.3636  -1.5986   0.0220 O.co2          1 S1                 0.0000
      2 ****        -3.5186  -2.5192  -0.0033 C.2            1 S1                 0.0000
      3 ****        -3.8814  -3.7180  -0.0319 O.co2          1 S1                -1.0000
      4 ****        -2.0325  -2.2156   0.0031 C.ar           1 S1                 0.0000
      5 ****        -1.2386  -3.3145   0.0158 N.ar           1 S1                 0.0000
      6 ****         0.0973  -3.1705   0.0230 C.ar           1 S1                 0.0000
      7 ****         0.7341  -1.9209   0.0172 C.ar           1 S1                 0.0000
      8 ****         2.4627  -1.8447   0.0269 Cl             1 S1                 0.0000
      9 ****        -0.0632  -0.7553   0.0035 C.ar           1 S1                 0.0000
     10 ****         0.5923   0.4883  -0.0012 N.3            1 S1                 0.0000
     11 ****         0.5433   1.2607  -1.2340 C.3            1 S1                 0.0000
     12 ****         1.6168   2.3619  -1.1900 C.3            1 S1                 0.0000
     13 ****         1.4529   3.1479  -0.0113 O.3            1 S1                 0.0000
     14 ****         1.6025   2.3754   1.1782 C.3            1 S1                 0.0000
     15 ****         0.5284   1.2749   1.2218 C.3            1 S1                 0.0000
     16 ****        -1.4810  -0.8942  -0.0036 C.ar           1 S1                 0.0000
     17 ****        -2.4735   0.5326  -0.0227 Cl             1 S1                 0.0000
     18 ****         0.6756  -4.0827   0.0339 H              1 S1                 0.0000
     19 ****         0.7059   0.6079  -2.0924 H              1 S1                 0.0000
     20 ****        -0.4399   1.7147  -1.3534 H              1 S1                 0.0000
     21 ****         2.6180   1.9287  -1.2121 H              1 S1                 0.0000
     22 ****         1.5297   3.0072  -2.0641 H              1 S1                 0.0000
     23 ****         2.6034   1.9424   1.2175 H              1 S1                 0.0000
     24 ****         1.5049   3.0302   2.0440 H              1 S1                 0.0000
     25 ****        -0.4562   1.7299   1.3237 H              1 S1                 0.0000
     26 ****         0.6807   0.6318   2.0893 H              1 S1                 0.0000
     27 ****        -5.3397  -1.8157   0.0195 LP             1 S1                 0.0000
     28 ****        -4.0635  -0.6450   0.0447 LP             1 S1                 0.0000
     29 ****        -4.8551  -3.9458  -0.0346 LP             1 S1                 0.0000
     30 ****        -3.1973  -4.4471  -0.0520 LP             1 S1                 0.0000
     31 ****        -1.6454  -4.2280   0.0198 LP             1 S1                 0.0000
     32 ****         1.5382   0.1640   0.0046 LP             1 S1                 0.0000
     33 ****         0.5386   3.5529  -0.0191 LP             1 S1                 0.0000
     34 ****         2.1395   3.8749  -0.0113 LP             1 S1                 0.0000
@<TRIPOS>BOND
    1    1    2 ar    
    2    2    3 ar    
    3    2    4 1     
    4    4   16 ar    
    5    4    5 ar    
    6    5    6 ar    
    7    6    7 ar    
    8    6   18 1     
    9    7    8 1     
   10    7    9 ar    
   11    9   10 1     
   12    9   16 ar    
   13   10   15 1     
   14   10   11 1     
   15   11   12 1     
   16   11   19 1     
   17   11   20 1     
   18   12   13 1     
   19   12   21 1     
   20   12   22 1     
   21   13   14 1     
   22   14   15 1     
   23   14   23 1     
   24   14   24 1     
   25   15   25 1     
   26   15   26 1     
   27   16   17 1     
   28    1   27 1     
   29    1   28 1     
   30    3   29 1     
   31    3   30 1     
   32    5   31 1     
   33   10   32 1     
   34   13   33 1     
   35   13   34 1     
@<TRIPOS>SUBSTRUCTURE
      1 S1             1
@<TRIPOS>SET
LONE_PAIRS      STATIC     ATOMS    <user>   **** ""
8 27 28 29 30 31 32 33 34
ATOM$BLUE        STATIC     ATOMS    COLORGROUP SYSTEM
8 27 28 29 30 31 32 33 34
