AV-unprocessed.smi:774|AV-procd|sdf|3693|dock7
  -GOLD-   22720 1113D 1   1.00000     0.00000
 Structure written by MMmdl.
 37 38  0  0  0  0  0  0  0  0  1 V2000
  151.4132  139.0922  155.3628 C   0  0  0  0  0  0  0  0  0  0  0  0
  150.0585  139.0607  154.6504 C   0  0  0  0  0  0  0  0  0  0  0  0
  149.3014  140.7079  154.5919 S   0  0  0  0  0  0  0  0  0  0  0  0
  147.6315  140.2808  154.0197 C   0  0  2  0  0  0  0  0  0  0  0  0
  146.9140  139.2912  154.9360 C   0  0  0  0  0  0  0  0  0  0  0  0
  145.8131  138.6981  154.0564 C   0  0  0  0  0  0  0  0  0  0  0  0
  146.3594  138.7231  152.6146 C   0  0  2  0  0  0  0  0  0  0  0  0
  146.6503  137.3771  152.1271 N   0  0  0  0  0  0  0  0  0  0  0  0
  145.7296  136.4452  151.8426 C   0  0  0  0  0  0  0  0  0  0  0  0
  144.5189  136.6257  151.9729 O   0  0  0  0  0  0  0  0  0  0  0  0
  146.3059  135.3047  151.4260 N   0  0  0  0  0  0  0  0  0  0  0  0
  145.6797  134.0952  151.0204 C   0  0  0  0  0  0  0  0  0  0  0  0
  144.2702  134.0568  150.9941 C   0  0  0  0  0  0  0  0  0  0  0  0
  143.6229  132.8659  150.6136 C   0  0  0  0  0  0  0  0  0  0  0  0
  144.4152  131.7501  150.2816 C   0  0  0  0  0  0  0  0  0  0  0  0
  145.7643  131.7640  150.3163 N   0  0  0  0  0  0  0  0  0  0  0  0
  146.3790  132.9103  150.6803 C   0  0  0  0  0  0  0  0  0  0  0  0
  147.6388  139.5797  152.6580 C   0  0  0  0  0  0  0  0  0  0  0  0
  151.8592  138.0979  155.3934 H   0  0  0  0  0  0  0  0  0  0  0  0
  151.3090  139.4421  156.3901 H   0  0  0  0  0  0  0  0  0  0  0  0
  152.1114  139.7551  154.8510 H   0  0  0  0  0  0  0  0  0  0  0  0
  150.1825  138.6872  153.6339 H   0  0  0  0  0  0  0  0  0  0  0  0
  149.3827  138.3777  155.1657 H   0  0  0  0  0  0  0  0  0  0  0  0
  147.0397  141.1939  153.9414 H   0  0  0  0  0  0  0  0  0  0  0  0
  147.6000  138.5011  155.2447 H   0  0  0  0  0  0  0  0  0  0  0  0
  146.5166  139.7596  155.8368 H   0  0  0  0  0  0  0  0  0  0  0  0
  145.5158  137.7040  154.3934 H   0  0  0  0  0  0  0  0  0  0  0  0
  144.9268  139.3315  154.1137 H   0  0  0  0  0  0  0  0  0  0  0  0
  145.6285  139.2004  151.9588 H   0  0  0  0  0  0  0  0  0  0  0  0
  147.6234  137.1409  151.9980 H   0  0  0  0  0  0  0  0  0  0  0  0
  147.3146  135.2816  151.4527 H   0  0  0  0  0  0  0  0  0  0  0  0
  143.6896  134.9290  151.2578 H   0  0  0  0  0  0  0  0  0  0  0  0
  142.5451  132.8087  150.5783 H   0  0  0  0  0  0  0  0  0  0  0  0
  143.9532  130.8198  149.9854 H   0  0  0  0  0  0  0  0  0  0  0  0
  147.4556  132.8515  150.7149 H   0  0  0  0  0  0  0  0  0  0  0  0
  147.6846  140.2921  151.8335 H   0  0  0  0  0  0  0  0  0  0  0  0
  148.5231  138.9443  152.5813 H   0  0  0  0  0  0  0  0  0  0  0  0
  1  2  1  0  0  0  0
  1 19  1  0  0  0  0
  1 20  1  0  0  0  0
  1 21  1  0  0  0  0
  2  3  1  0  0  0  0
  2 22  1  0  0  0  0
  2 23  1  0  0  0  0
  3  4  1  0  0  0  0
  4 18  1  0  0  0  0
  4  5  1  0  0  0  0
  4 24  1  0  0  0  0
  5  6  1  0  0  0  0
  5 25  1  0  0  0  0
  5 26  1  0  0  0  0
  6  7  1  0  0  0  0
  6 27  1  0  0  0  0
  6 28  1  0  0  0  0
  7  8  1  0  0  0  0
  7 18  1  0  0  0  0
  7 29  1  0  0  0  0
  8  9  1  0  0  0  0
  8 30  1  0  0  0  0
  9 10  2  0  0  0  0
  9 11  1  0  0  0  0
 11 12  1  0  0  0  0
 11 31  1  0  0  0  0
 12 17  1  0  0  0  0
 12 13  2  0  0  0  0
 13 14  1  0  0  0  0
 13 32  1  0  0  0  0
 14 15  2  0  0  0  0
 14 33  1  0  0  0  0
 15 16  1  0  0  0  0
 15 34  1  0  0  0  0
 16 17  2  0  0  0  0
 17 35  1  0  0  0  0
 18 36  1  0  0  0  0
 18 37  1  0  0  0  0
M  END
> <s_m_source_file>
AV-unprocessed.smi

> <i_m_source_file_index>
774

> <i_lp_mmshare_version>
43012

> <i_f3d_flags>
0

> <s_epik_input>
W0NIM11bQ0gyXVNbQ0BASF0xW0NIMl1bQ0gyXVtDQEhdKFtDSDJdMSlbTkhdQyg9TylbTkhdYzJbY0hdW2NIXVtjSF1uW2NIXTI=

> <s_epik_cmdline>
J2VwaWtfcHl0aG9uJywgJy1waCcsICc3LjAnLCAnLXRuJywgJzgnLCAnLW1hJywgJzIwMCcsICctbWV0YWxfYmluZGluZycsICctaW1hZScsICc8aW5maWxlLm1hZT4nLCAnLW9tYWUnLCAnPG91dGZpbGUubWFlPic=

> <r_epik_Ionization_Penalty>
0.00485718

> <r_epik_Ionization_Penalty_Charging>
0

> <r_epik_Ionization_Penalty_Neutral>
0.00485718

> <r_epik_State_Penalty>
0.00349461

> <r_epik_Charging_Adjusted_Penalty>
0.00349461

> <i_epik_Tot_Q>
0

> <i_epik_Tot_abs_Q>
0

> <r_epik_Metal_State_Penalty>
-0

> <b_epik_Metal_Only>
0

> <s_lp_Force_Field>
OPLS_2005

> <r_lp_Energy>
20.2727

> <b_lp_Chiralities_Consistent>
1

> <s_lp_Variant>
AV-unprocessed.smi:774-3

> <Gold.Version>
5.8.1

> <Gold.Id.Protein>
6NUR|6NUR_protein|mol2

> <Gold.PLP.Fitness>
39.9471

> <Gold.PLP.PLP>
-31.3047

> <Gold.PLP.part.hbond>
-2.0000

> <Gold.PLP.part.metal>
0.0000

> <Gold.PLP.part.buried>
0.3778

> <Gold.PLP.part.nonpolar>
-30.7918

> <Gold.PLP.part.repulsive>
0.4488

> <Gold.PLP.ligand.clash>
0.0000

> <Gold.PLP.ligand.torsion>
0.1026

> <Gold.PLP.Chemscore.Hbond>
1.9760

> <Gold.PLP.Chemscore.CHOScore>
0.9710

> <Gold.PLP.Chemscore.Metal>
0.0000

> <Gold.Chemscore.Hbonds>
donor molecule, donor type, donor heavy atom, donor atom, acceptor molecule, acceptor atom, score
      L1  H     8    30       P1  7948  1.00
      L1  H    11    31       P1  7948  0.98
      L1  C    17    35       P1 10747  0.98

> <Gold.PLP.Chemscore.Internal.Correction>
0.0066

> <Gold.Rescore>
     Score         DG    S(hbond)    S(metal)    S(lipo)     H(rot)  DE(clash)    DE(int)     intcor
     15.47     -18.76       1.90        0.00      87.74       1.30       1.68       1.62       ----

> <Gold.Chemscore.Fitness>
15.4685

> <Gold.Chemscore.DG>
-18.7631

> <Gold.Chemscore.ZeroCoef>
-5.4800

> <Gold.Chemscore.Hbond>
1.9031

> <Gold.Chemscore.Metal>
0.0000

> <Gold.Chemscore.Lipo>
87.7361

> <Gold.Chemscore.Internal_Hbond>
0.0000

> <Gold.Chemscore.DEClash>
1.6790

> <Gold.Chemscore.DEInternal>
1.6157

> <Gold.Chemscore.Rot>
1.3041

> <Gold.Chemscore.Internal.Correction>
   9.000000E+99

> <Gold.Chemscore.Hbonds>
donor molecule, donor type, donor heavy atom, donor atom, acceptor molecule, acceptor atom, score
      L1  H     8    30       P1  7948  0.98
      L1  H    11    31       P1  7948  0.80

> <Gold.Chemscore.Hbond.Weighted>
-6.3564

> <Gold.Chemscore.Metal.Weighted>
-0.0000

> <Gold.Chemscore.Lipo.Weighted>
-10.2651

> <Gold.Chemscore.Internal_Hbond.Weighted>
0.0000

> <Gold.Chemscore.DEClash.Weighted>
1.6790

> <Gold.Chemscore.DEInternal.Weighted>
1.6157

> <Gold.Chemscore.Rot.Weighted>
3.3384

> <Gold.Chemscore.Internal.Correction.Weighted>
   9.000000E+99

> <Gold.Protein.RotatedTorsions>
[ 6907 6896 6895 6894 ] final -119.53 input  -60.11 | X-H torsion
[ 7974 7965 7964 7962 ] final -115.04 input  175.53 | X-H torsion
[ 8008 7997 7996 7995 ] final   73.65 input   59.86 | X-H torsion
[ 10167 10162 10161 10158 ] final   -4.32 input  -65.29 | X-H torsion
[ 10718 10713 10712 10709 ] final  171.14 input   66.30 | X-H torsion
[ 10763 10752 10751 10750 ] final -171.65 input  -60.55 | X-H torsion
[ 11005 11000 10999 10996 ] final -113.02 input  -57.11 | X-H torsion

> <Gold.Protein.ActiveResidues>
 VAL166  LYS551  ARG553  GLY616  TRP617  ASP618  TYR619  PRO620  LYS621  CYS622 
 ASP623  PHE694  ASN695  SER759  ASP760  ASP761  ALA762  ILE779  LEU786  VAL792 
 PHE793  MET794  SER795  GLU796  ALA797  LYS798  CYS799  TRP800  GLU811  SER814 

> <Gold.Protein.RotatedAtoms>
  150.8313  133.8086  159.3097 H   0  0  0  0  0  0  0  0  0  0  0  0  # atno 6907 bound_to 6896
  151.5815  135.1056  160.0028 H   0  0  0  0  0  0  0  0  0  0  0  0  # atno 6908 bound_to 6896
  152.4392  133.7375  159.6678 H   0  0  0  0  0  0  0  0  0  0  0  0  # atno 6909 bound_to 6896
  145.1131  140.8624  143.3858 H   0  0  0  0  0  0  0  0  0  0  0  0  # atno 7974 bound_to 7965
  155.7868  140.3480  155.5327 H   0  0  0  0  0  0  0  0  0  0  0  0  # atno 8008 bound_to 7997
  155.8674  140.0981  157.1594 H   0  0  0  0  0  0  0  0  0  0  0  0  # atno 8009 bound_to 7997
  154.4015  140.1347  156.4022 H   0  0  0  0  0  0  0  0  0  0  0  0  # atno 8010 bound_to 7997
  140.6923  143.6438  150.8412 H   0  0  0  0  0  0  0  0  0  0  0  0  # atno 10167 bound_to 10162
  156.9979  131.0167  151.2839 H   0  0  0  0  0  0  0  0  0  0  0  0  # atno 10718 bound_to 10713
  154.6282  135.2883  155.0248 H   0  0  0  0  0  0  0  0  0  0  0  0  # atno 10763 bound_to 10752
  154.1418  135.6517  153.4948 H   0  0  0  0  0  0  0  0  0  0  0  0  # atno 10764 bound_to 10752
  153.0267  135.5335  154.7098 H   0  0  0  0  0  0  0  0  0  0  0  0  # atno 10765 bound_to 10752
  141.0640  133.9489  157.2614 H   0  0  0  0  0  0  0  0  0  0  0  0  # atno 11005 bound_to 11000
  145.0824  139.2950  143.5776 LP  0  0  0  0  0  0  0  0  0  0  0  0  # atno 17320 bound_to 7965
  146.3525  140.0335  142.8648 LP  0  0  0  0  0  0  0  0  0  0  0  0  # atno 17321 bound_to 7965
  140.0152  143.5601  152.2823 LP  0  0  0  0  0  0  0  0  0  0  0  0  # atno 17342 bound_to 10162
  139.6339  144.7647  151.2479 LP  0  0  0  0  0  0  0  0  0  0  0  0  # atno 17343 bound_to 10162
  157.5411  130.8120  149.8030 LP  0  0  0  0  0  0  0  0  0  0  0  0  # atno 17370 bound_to 10713
  156.0182  130.3805  150.2044 LP  0  0  0  0  0  0  0  0  0  0  0  0  # atno 17371 bound_to 10713
  139.9459  135.0184  156.8850 LP  0  0  0  0  0  0  0  0  0  0  0  0  # atno 17394 bound_to 11000
  140.5811  134.0351  155.7464 LP  0  0  0  0  0  0  0  0  0  0  0  0  # atno 17395 bound_to 11000

$$$$
