#       Name:                AV-unprocessed.smi:492
#       Creating user name   scv26
#       Creation time:       Thu Mar 26 23:15:29 2020


#       File generated by GOLD software.
#

@<TRIPOS>MOLECULE
AV-unprocessed.smi:492
    53    55     1
SMALL
NO_CHARGES


@<TRIPOS>ATOM
      1 ****        -6.7250   3.4953   0.1712 C.3            1 S1                 0.0000
      2 ****        -5.9333   2.5098  -0.4760 O.3            1 S1                 0.0000
      3 ****        -4.5637   2.6655  -0.4613 C.ar           1 S1                 0.0000
      4 ****        -3.8913   3.7488   0.1585 C.ar           1 S1                 0.0000
      5 ****        -2.4855   3.8303   0.1245 C.ar           1 S1                 0.0000
      6 ****        -1.7294   2.8314  -0.5207 C.ar           1 S1                 0.0000
      7 ****        -0.2167   2.9334  -0.5701 C.3            1 S1                 0.0000
      8 ****         0.4020   1.6599  -0.4900 O.3            1 S1                 0.0000
      9 ****         1.8173   1.7228  -0.5613 C.3            1 S1                 0.0000
     10 ****         2.4037   0.3056  -0.4635 C.3            1 S1                 0.0000
     11 ****         2.2120  -0.3549  -1.6984 O.3            1 S1                 0.0000
     12 ****         1.8468  -0.5123   0.7200 C.3            1 S1                 0.0000
     13 ****         2.4318  -1.8595   0.8053 N.pl3          1 S1                 0.0000
     14 ****         3.5972  -2.2728   1.3798 C.2            1 S1                 0.0000
     15 ****         4.5934  -1.4171   2.0874 C.3            1 S1                 0.0000
     16 ****         3.6877  -3.6190   1.1879 N.pl3          1 S1                 1.0000
     17 ****         2.5716  -4.0714   0.4824 C.ar           1 S1                 0.0000
     18 ****         2.2208  -5.3482   0.0545 C.ar           1 S1                 0.0000
     19 ****         1.0055  -5.4678  -0.6511 C.ar           1 S1                 0.0000
     20 ****         0.1919  -4.3451  -0.9074 C.ar           1 S1                 0.0000
     21 ****         0.5573  -3.0557  -0.4676 C.ar           1 S1                 0.0000
     22 ****         1.7600  -2.9459   0.2311 C.ar           1 S1                 0.0000
     23 ****        -2.3935   1.7569  -1.1466 C.ar           1 S1                 0.0000
     24 ****        -3.7986   1.6760  -1.1119 C.ar           1 S1                 0.0000
     25 ****        -7.7781   3.2326   0.0712 H              1 S1                 0.0000
     26 ****        -6.5867   4.4787  -0.2801 H              1 S1                 0.0000
     27 ****        -6.4990   3.5513   1.2369 H              1 S1                 0.0000
     28 ****        -4.4322   4.5328   0.6660 H              1 S1                 0.0000
     29 ****        -1.9897   4.6650   0.5982 H              1 S1                 0.0000
     30 ****         0.0639   3.4266  -1.5018 H              1 S1                 0.0000
     31 ****         0.1328   3.5618   0.2506 H              1 S1                 0.0000
     32 ****         2.1393   2.2110  -1.4829 H              1 S1                 0.0000
     33 ****         2.1875   2.3247   0.2700 H              1 S1                 0.0000
     34 ****         3.4830   0.3988  -0.3392 H              1 S1                 0.0000
     35 ****         1.2854  -0.3776  -1.8825 H              1 S1                 0.0000
     36 ****         2.0674  -0.0018   1.6580 H              1 S1                 0.0000
     37 ****         0.7615  -0.5984   0.6745 H              1 S1                 0.0000
     38 ****         5.4317  -2.0175   2.4415 H              1 S1                 0.0000
     39 ****         4.1293  -0.9292   2.9447 H              1 S1                 0.0000
     40 ****         4.9771  -0.6503   1.4143 H              1 S1                 0.0000
     41 ****         2.8432  -6.2097   0.2481 H              1 S1                 0.0000
     42 ****         0.6916  -6.4396  -1.0039 H              1 S1                 0.0000
     43 ****        -0.7314  -4.4744  -1.4534 H              1 S1                 0.0000
     44 ****        -0.0729  -2.2036  -0.6743 H              1 S1                 0.0000
     45 ****        -1.8289   0.9901  -1.6563 H              1 S1                 0.0000
     46 ****        -4.2950   0.8459  -1.5928 H              1 S1                 0.0000
     47 ****         4.4603  -4.1851   1.5143 H              1 S1                 0.0000
     48 ****        -6.2188   2.4816  -1.4339 LP             1 S1                 0.0000
     49 ****        -6.1372   1.6326  -0.0414 LP             1 S1                 0.0000
     50 ****         0.0700   1.0968  -1.2467 LP             1 S1                 0.0000
     51 ****         0.1457   1.2358   0.3786 LP             1 S1                 0.0000
     52 ****         2.5683  -1.2875  -1.6418 LP             1 S1                 0.0000
     53 ****         2.6888   0.1407  -2.4243 LP             1 S1                 0.0000
@<TRIPOS>BOND
    1    1    2 1     
    2    1   25 1     
    3    1   26 1     
    4    1   27 1     
    5    2    3 1     
    6    3   24 ar    
    7    3    4 ar    
    8    4    5 ar    
    9    4   28 1     
   10    5    6 ar    
   11    5   29 1     
   12    6    7 1     
   13    6   23 ar    
   14    7    8 1     
   15    7   30 1     
   16    7   31 1     
   17    8    9 1     
   18    9   10 1     
   19    9   32 1     
   20    9   33 1     
   21   10   11 1     
   22   10   12 1     
   23   10   34 1     
   24   11   35 1     
   25   12   13 1     
   26   12   36 1     
   27   12   37 1     
   28   13   22 1     
   29   13   14 1     
   30   14   15 1     
   31   14   16 2     
   32   15   38 1     
   33   15   39 1     
   34   15   40 1     
   35   16   17 1     
   36   16   47 1     
   37   17   22 ar    
   38   17   18 ar    
   39   18   19 ar    
   40   18   41 1     
   41   19   20 ar    
   42   19   42 1     
   43   20   21 ar    
   44   20   43 1     
   45   21   22 ar    
   46   21   44 1     
   47   23   24 ar    
   48   23   45 1     
   49   24   46 1     
   50    2   48 1     
   51    2   49 1     
   52    8   50 1     
   53    8   51 1     
   54   11   52 1     
   55   11   53 1     
@<TRIPOS>SUBSTRUCTURE
      1 S1             1
@<TRIPOS>SET
LONE_PAIRS      STATIC     ATOMS    <user>   **** ""
6 48 49 50 51 52 53
DONOR_HYDROGENS      STATIC     ATOMS    <user>   **** ""
2 35 47
ATOM$BLUE        STATIC     ATOMS    COLORGROUP SYSTEM
6 48 49 50 51 52 53
ATOM$RED        STATIC     ATOMS    COLORGROUP SYSTEM
2 35 47
