#       Name:                AV-unprocessed.smi:1157
#       Creating user name   scv26
#       Creation time:       Fri Mar 27 03:48:46 2020


#       File generated by GOLD software.
#

@<TRIPOS>MOLECULE
AV-unprocessed.smi:1157
    60    62     1
SMALL
NO_CHARGES


@<TRIPOS>ATOM
      1 ****        -3.6301  -2.6006   0.1565 C.3            1 S1                 0.0000
      2 ****        -3.0419  -1.9848  -1.1474 C.3            1 S1                 0.0000
      3 ****        -3.3888  -0.4677  -1.0852 C.3            1 S1                 0.0000
      4 ****        -1.4776  -2.1955  -1.2054 C.3            1 S1                 0.0000
      5 ****        -0.7983  -1.6080  -0.0453 N.pl3          1 S1                -1.0000
      6 ****         0.1646  -0.6497  -0.1049 C.2            1 S1                 0.0000
      7 ****         0.6175  -0.0980  -1.1140 O.2            1 S1                 0.0000
      8 ****         0.6358  -0.3327   1.1146 N.am           1 S1                 0.0000
      9 ****         1.6664   0.5795   1.4674 C.ar           1 S1                 0.0000
     10 ****         2.3607   0.3526   2.6738 C.ar           1 S1                 0.0000
     11 ****         3.3857   1.2361   3.0691 C.ar           1 S1                 0.0000
     12 ****         3.6991   2.3523   2.2583 C.ar           1 S1                 0.0000
     13 ****         4.7174   3.2684   2.5824 N.pl3          1 S1                 0.0000
     14 ****         4.9015   4.5052   1.8407 C.3            1 S1                 0.0000
     15 ****         6.0094   5.2413   2.5928 C.3            1 S1                 0.0000
     16 ****         5.7873   4.8131   4.0440 C.3            1 S1                 0.0000
     17 ****         5.2450   3.3827   3.9344 C.3            1 S1                 0.0000
     18 ****         2.9949   2.5411   1.1169 N.pl3          1 S1                 1.0000
     19 ****         2.0070   1.7191   0.7011 C.ar           1 S1                 0.0000
     20 ****        -3.7688  -2.5944  -2.3346 N.4            1 S1                 1.0000
     21 ****        -3.5401  -1.9774  -3.6775 C.3            1 S1                 0.0000
     22 ****        -4.5591  -2.5125  -4.6965 C.3            1 S1                 0.0000
     23 ****        -4.4682  -3.9283  -4.7699 O.3            1 S1                 0.0000
     24 ****        -4.7751  -4.5397  -3.5250 C.3            1 S1                 0.0000
     25 ****        -3.7656  -4.0849  -2.4583 C.3            1 S1                 0.0000
     26 ****        -3.3167  -2.0564   1.0496 H              1 S1                 0.0000
     27 ****        -3.3446  -3.6414   0.3189 H              1 S1                 0.0000
     28 ****        -4.7201  -2.5640   0.1450 H              1 S1                 0.0000
     29 ****        -3.0898  -0.0129  -0.1387 H              1 S1                 0.0000
     30 ****        -4.4649  -0.3122  -1.1708 H              1 S1                 0.0000
     31 ****        -2.9138   0.1243  -1.8695 H              1 S1                 0.0000
     32 ****        -1.2710  -3.2642  -1.2594 H              1 S1                 0.0000
     33 ****        -1.1072  -1.7930  -2.1487 H              1 S1                 0.0000
     34 ****         0.2657  -0.8862   1.8735 H              1 S1                 0.0000
     35 ****         2.1188  -0.5010   3.2903 H              1 S1                 0.0000
     36 ****         3.9229   1.0412   3.9852 H              1 S1                 0.0000
     37 ****         5.1752   4.3176   0.8019 H              1 S1                 0.0000
     38 ****         3.9753   5.0814   1.8579 H              1 S1                 0.0000
     39 ****         6.9845   4.8905   2.2515 H              1 S1                 0.0000
     40 ****         5.9717   6.3220   2.4537 H              1 S1                 0.0000
     41 ****         6.6915   4.8779   4.6497 H              1 S1                 0.0000
     42 ****         5.0329   5.4558   4.5001 H              1 S1                 0.0000
     43 ****         4.4841   3.1942   4.6928 H              1 S1                 0.0000
     44 ****         6.0466   2.6545   4.0624 H              1 S1                 0.0000
     45 ****         1.5272   2.0128  -0.2205 H              1 S1                 0.0000
     46 ****        -3.6394  -0.8944  -3.6480 H              1 S1                 0.0000
     47 ****        -2.5322  -2.1965  -4.0322 H              1 S1                 0.0000
     48 ****        -5.5734  -2.2124  -4.4278 H              1 S1                 0.0000
     49 ****        -4.3558  -2.0963  -5.6834 H              1 S1                 0.0000
     50 ****        -5.7958  -4.2959  -3.2259 H              1 S1                 0.0000
     51 ****        -4.7301  -5.6221  -3.6455 H              1 S1                 0.0000
     52 ****        -2.7727  -4.4435  -2.7320 H              1 S1                 0.0000
     53 ****        -4.0321  -4.5693  -1.5213 H              1 S1                 0.0000
     54 ****        -4.7338  -2.3752  -2.1340 H              1 S1                 0.0000
     55 ****         3.2205   3.3494   0.5374 H              1 S1                 0.0000
     56 ****        -1.0643  -1.9382   0.8604 LP             1 S1                 0.0000
     57 ****         0.2711  -0.3475  -2.0183 LP             1 S1                 0.0000
     58 ****         1.3303   0.5978  -1.0261 LP             1 S1                 0.0000
     59 ****        -3.5371  -4.1801  -5.0338 LP             1 S1                 0.0000
     60 ****        -5.1113  -4.2590  -5.4606 LP             1 S1                 0.0000
@<TRIPOS>BOND
    1    1    2 1     
    2    1   26 1     
    3    1   27 1     
    4    1   28 1     
    5    2    3 1     
    6    2    4 1     
    7    2   20 1     
    8    3   29 1     
    9    3   30 1     
   10    3   31 1     
   11    4    5 1     
   12    4   32 1     
   13    4   33 1     
   14    5    6 1     
   15    6    7 2     
   16    6    8 am    
   17    8    9 1     
   18    8   34 1     
   19    9   19 ar    
   20    9   10 ar    
   21   10   11 ar    
   22   10   35 1     
   23   11   12 ar    
   24   11   36 1     
   25   12   13 1     
   26   12   18 ar    
   27   13   17 1     
   28   13   14 1     
   29   14   15 1     
   30   14   37 1     
   31   14   38 1     
   32   15   16 1     
   33   15   39 1     
   34   15   40 1     
   35   16   17 1     
   36   16   41 1     
   37   16   42 1     
   38   17   43 1     
   39   17   44 1     
   40   18   19 ar    
   41   18   55 1     
   42   19   45 1     
   43   20   25 1     
   44   20   21 1     
   45   20   54 1     
   46   21   22 1     
   47   21   46 1     
   48   21   47 1     
   49   22   23 1     
   50   22   48 1     
   51   22   49 1     
   52   23   24 1     
   53   24   25 1     
   54   24   50 1     
   55   24   51 1     
   56   25   52 1     
   57   25   53 1     
   58    5   56 1     
   59    7   57 1     
   60    7   58 1     
   61   23   59 1     
   62   23   60 1     
@<TRIPOS>SUBSTRUCTURE
      1 S1             1
@<TRIPOS>SET
LONE_PAIRS      STATIC     ATOMS    <user>   **** ""
5 56 57 58 59 60
DONOR_HYDROGENS      STATIC     ATOMS    <user>   **** ""
3 34 55 54
ATOM$BLUE        STATIC     ATOMS    COLORGROUP SYSTEM
5 56 57 58 59 60
ATOM$RED        STATIC     ATOMS    COLORGROUP SYSTEM
3 34 55 54
