AV-unprocessed.smi:2532|AV-procd|sdf|9968|dock3
  -GOLD-   2272014 13D 1   1.00000     0.00000
 Structure written by MMmdl.
 36 38  0  0  0  0  0  0  0  0  1 V2000
  146.6885  138.1133  150.7046 O   0  0  0  0  0  0  0  0  0  0  0  0
  146.8309  138.5404  152.0457 C   0  0  2  0  0  0  0  0  0  0  0  0
  145.7012  137.9154  152.8796 C   0  0  0  0  0  0  0  0  0  0  0  0
  145.7367  136.5058  152.7313 O   0  0  0  0  0  0  0  0  0  0  0  0
  144.7878  136.0303  151.7900 C   0  0  0  0  0  0  0  0  0  0  0  0
  145.0104  134.5616  151.6189 C   0  0  0  0  0  0  0  0  0  0  0  0
  144.0693  133.5680  151.7142 C   0  0  0  0  0  0  0  0  0  0  0  0
  144.5984  132.2653  151.4773 C   0  0  0  0  0  0  0  0  0  0  0  0
  145.9382  132.2797  151.1952 C   0  0  0  0  0  0  0  0  0  0  0  0
  146.5779  133.9002  151.2129 S   0  0  0  0  0  0  0  0  0  0  0  0
  146.7883  140.0803  152.0886 C   0  0  0  0  0  0  0  0  0  0  0  0
  147.1106  140.6132  153.4008 N   0  0  0  0  0  0  0  0  0  0  0  0
  146.3453  141.4268  154.1535 C   0  0  0  0  0  0  0  0  0  0  0  0
  146.8330  141.8049  155.3317 N   0  0  0  0  0  0  0  0  0  0  0  0
  148.0591  141.1621  155.3458 C   0  0  0  0  0  0  0  0  0  0  0  0
  149.0779  141.1516  156.3255 C   0  0  0  0  0  0  0  0  0  0  0  0
  150.2603  140.4105  156.1188 C   0  0  0  0  0  0  0  0  0  0  0  0
  150.4415  139.6692  154.9330 C   0  0  0  0  0  0  0  0  0  0  0  0
  149.4408  139.6646  153.9424 C   0  0  0  0  0  0  0  0  0  0  0  0
  148.2633  140.4067  154.1516 C   0  0  0  0  0  0  0  0  0  0  0  0
  145.9009  138.4974  150.3502 H   0  0  0  0  0  0  0  0  0  0  0  0
  147.7962  138.2017  152.4247 H   0  0  0  0  0  0  0  0  0  0  0  0
  145.8524  138.1488  153.9349 H   0  0  0  0  0  0  0  0  0  0  0  0
  144.7291  138.3230  152.5958 H   0  0  0  0  0  0  0  0  0  0  0  0
  143.7732  136.2207  152.1432 H   0  0  0  0  0  0  0  0  0  0  0  0
  144.9115  136.5395  150.8332 H   0  0  0  0  0  0  0  0  0  0  0  0
  143.0268  133.7301  151.9457 H   0  0  0  0  0  0  0  0  0  0  0  0
  143.9859  131.3766  151.5195 H   0  0  0  0  0  0  0  0  0  0  0  0
  146.5849  131.4428  150.9758 H   0  0  0  0  0  0  0  0  0  0  0  0
  147.4805  140.5026  151.3587 H   0  0  0  0  0  0  0  0  0  0  0  0
  145.7944  140.4363  151.8145 H   0  0  0  0  0  0  0  0  0  0  0  0
  145.3744  141.7602  153.8170 H   0  0  0  0  0  0  0  0  0  0  0  0
  148.9495  141.7151  157.2378 H   0  0  0  0  0  0  0  0  0  0  0  0
  151.0320  140.4102  156.8747 H   0  0  0  0  0  0  0  0  0  0  0  0
  151.3496  139.1033  154.7842 H   0  0  0  0  0  0  0  0  0  0  0  0
  149.5756  139.0960  153.0342 H   0  0  0  0  0  0  0  0  0  0  0  0
  1  2  1  0  0  0  0
  1 21  1  0  0  0  0
  2  3  1  0  0  0  0
  2 11  1  0  0  0  0
  2 22  1  0  0  0  0
  3  4  1  0  0  0  0
  3 23  1  0  0  0  0
  3 24  1  0  0  0  0
  4  5  1  0  0  0  0
  5  6  1  0  0  0  0
  5 25  1  0  0  0  0
  5 26  1  0  0  0  0
  6 10  1  0  0  0  0
  6  7  2  0  0  0  0
  7  8  1  0  0  0  0
  7 27  1  0  0  0  0
  8  9  2  0  0  0  0
  8 28  1  0  0  0  0
  9 10  1  0  0  0  0
  9 29  1  0  0  0  0
 11 12  1  0  0  0  0
 11 30  1  0  0  0  0
 11 31  1  0  0  0  0
 12 20  1  0  0  0  0
 12 13  1  0  0  0  0
 13 14  2  0  0  0  0
 13 32  1  0  0  0  0
 14 15  1  0  0  0  0
 15 20  2  0  0  0  0
 15 16  1  0  0  0  0
 16 17  2  0  0  0  0
 16 33  1  0  0  0  0
 17 18  1  0  0  0  0
 17 34  1  0  0  0  0
 18 19  2  0  0  0  0
 18 35  1  0  0  0  0
 19 20  1  0  0  0  0
 19 36  1  0  0  0  0
M  END
> <s_m_source_file>
AV-unprocessed.smi

> <i_m_source_file_index>
2532

> <i_lp_mmshare_version>
43012

> <i_f3d_flags>
0

> <s_epik_input>
W2NIXTFbY0hdW2NIXVtjSF1jKGMxMiluKFtjSF1uMilbQ0gyXVtDQEhdKFtPSF0pW0NIMl1PW0NIMl1jM1tjSF1bY0hdW2NIXXMz

> <s_epik_cmdline>
J2VwaWtfcHl0aG9uJywgJy1waCcsICc3LjAnLCAnLXRuJywgJzgnLCAnLW1hJywgJzIwMCcsICctbWV0YWxfYmluZGluZycsICctaW1hZScsICc8aW5maWxlLm1hZT4nLCAnLW9tYWUnLCAnPG91dGZpbGUubWFlPic=

> <r_epik_Ionization_Penalty>
0.0678455

> <r_epik_Ionization_Penalty_Charging>
0

> <r_epik_Ionization_Penalty_Neutral>
0.0678455

> <r_epik_State_Penalty>
0.0593261

> <r_epik_Charging_Adjusted_Penalty>
0.0593261

> <i_epik_Tot_Q>
0

> <i_epik_Tot_abs_Q>
0

> <r_epik_Metal_State_Penalty>
6.23947e-05

> <b_epik_Metal_Only>
0

> <s_lp_Force_Field>
OPLS_2005

> <r_lp_Energy>
9.71279

> <b_lp_Chiralities_Consistent>
1

> <s_lp_Variant>
AV-unprocessed.smi:2532-1

> <Gold.Version>
5.8.1

> <Gold.Id.Protein>
6NUR|6NUR_protein|mol2

> <Gold.PLP.Fitness>
47.0368

> <Gold.PLP.PLP>
-36.2272

> <Gold.PLP.part.hbond>
-2.4958

> <Gold.PLP.part.metal>
0.0000

> <Gold.PLP.part.buried>
3.0760

> <Gold.PLP.part.nonpolar>
-37.5107

> <Gold.PLP.part.repulsive>
0.2882

> <Gold.PLP.ligand.clash>
0.0000

> <Gold.PLP.ligand.torsion>
0.3878

> <Gold.PLP.Chemscore.Hbond>
2.0000

> <Gold.PLP.Chemscore.CHOScore>
1.7696

> <Gold.PLP.Chemscore.Metal>
0.0000

> <Gold.Chemscore.Hbonds>
donor molecule, donor type, donor heavy atom, donor atom, acceptor molecule, acceptor atom, score
      L1  H     1    21       P1 10171  0.88
      P1  H  7954  7966       L1     1  1.00
      L1  C     9    29       P1 10747  0.93
      L1  C    13    32       P1 10175  0.75

> <Gold.PLP.Chemscore.Internal.Correction>
0.2766

> <Gold.Rescore>
     Score         DG    S(hbond)    S(metal)    S(lipo)     H(rot)  DE(clash)    DE(int)     intcor
     15.07     -16.34       1.84        0.00      92.14       2.36       0.86       0.41       ----

> <Gold.Chemscore.Fitness>
15.0735

> <Gold.Chemscore.DG>
-16.3426

> <Gold.Chemscore.ZeroCoef>
-5.4800

> <Gold.Chemscore.Hbond>
1.8350

> <Gold.Chemscore.Metal>
0.0000

> <Gold.Chemscore.Lipo>
92.1397

> <Gold.Chemscore.Internal_Hbond>
0.0000

> <Gold.Chemscore.DEClash>
0.8624

> <Gold.Chemscore.DEInternal>
0.4067

> <Gold.Chemscore.Rot>
2.3620

> <Gold.Chemscore.Internal.Correction>
   9.000000E+99

> <Gold.Chemscore.Hbonds>
donor molecule, donor type, donor heavy atom, donor atom, acceptor molecule, acceptor atom, score
      L1  H     1    21       P1 10171  0.85
      P1  H  7954  7966       L1     1  0.87

> <Gold.Chemscore.Hbond.Weighted>
-6.1290

> <Gold.Chemscore.Metal.Weighted>
-0.0000

> <Gold.Chemscore.Lipo.Weighted>
-10.7803

> <Gold.Chemscore.Internal_Hbond.Weighted>
0.0000

> <Gold.Chemscore.DEClash.Weighted>
0.8624

> <Gold.Chemscore.DEInternal.Weighted>
0.4067

> <Gold.Chemscore.Rot.Weighted>
6.0468

> <Gold.Chemscore.Internal.Correction.Weighted>
   9.000000E+99

> <Gold.Protein.RotatedTorsions>
[ 6907 6896 6895 6894 ] final   75.75 input  -60.11 | X-H torsion
[ 7974 7965 7964 7962 ] final   97.68 input  175.53 | X-H torsion
[ 8008 7997 7996 7995 ] final   34.21 input   59.86 | X-H torsion
[ 10167 10162 10161 10158 ] final -164.52 input  -65.29 | X-H torsion
[ 10718 10713 10712 10709 ] final  -74.79 input   66.30 | X-H torsion
[ 10763 10752 10751 10750 ] final -172.82 input  -60.55 | X-H torsion
[ 11005 11000 10999 10996 ] final  -92.62 input  -57.11 | X-H torsion

> <Gold.Protein.ActiveResidues>
 VAL166  LYS551  ARG553  GLY616  TRP617  ASP618  TYR619  PRO620  LYS621  CYS622 
 ASP623  PHE694  ASN695  SER759  ASP760  ASP761  ALA762  ILE779  LEU786  VAL792 
 PHE793  MET794  SER795  GLU796  ALA797  LYS798  CYS799  TRP800  GLU811  SER814 

> <Gold.Protein.RotatedAtoms>
  152.5041  134.4073  159.9436 H   0  0  0  0  0  0  0  0  0  0  0  0  # atno 6907 bound_to 6896
  151.4039  133.3742  159.2743 H   0  0  0  0  0  0  0  0  0  0  0  0  # atno 6908 bound_to 6896
  150.9341  134.8776  159.7629 H   0  0  0  0  0  0  0  0  0  0  0  0  # atno 6909 bound_to 6896
  145.4223  139.2320  143.3189 H   0  0  0  0  0  0  0  0  0  0  0  0  # atno 7974 bound_to 7965
  155.1511  140.3275  155.4431 H   0  0  0  0  0  0  0  0  0  0  0  0  # atno 8008 bound_to 7997
  156.2574  140.1977  156.6573 H   0  0  0  0  0  0  0  0  0  0  0  0  # atno 8009 bound_to 7997
  154.6472  140.0563  156.9901 H   0  0  0  0  0  0  0  0  0  0  0  0  # atno 8010 bound_to 7997
  139.6245  144.0559  152.1962 H   0  0  0  0  0  0  0  0  0  0  0  0  # atno 10167 bound_to 10162
  156.0230  130.4425  150.2945 H   0  0  0  0  0  0  0  0  0  0  0  0  # atno 10718 bound_to 10713
  154.6149  135.2868  155.0390 H   0  0  0  0  0  0  0  0  0  0  0  0  # atno 10763 bound_to 10752
  154.1607  135.6488  153.4989 H   0  0  0  0  0  0  0  0  0  0  0  0  # atno 10764 bound_to 10752
  153.0211  135.5377  154.6917 H   0  0  0  0  0  0  0  0  0  0  0  0  # atno 10765 bound_to 10752
  141.1517  133.7833  157.0045 H   0  0  0  0  0  0  0  0  0  0  0  0  # atno 11005 bound_to 11000
  146.2650  140.4949  142.8838 LP  0  0  0  0  0  0  0  0  0  0  0  0  # atno 17320 bound_to 7965
  144.8237  140.6593  143.6336 LP  0  0  0  0  0  0  0  0  0  0  0  0  # atno 17321 bound_to 7965
  140.0209  144.6154  150.7567 LP  0  0  0  0  0  0  0  0  0  0  0  0  # atno 17342 bound_to 10162
  140.7402  143.2802  151.3621 LP  0  0  0  0  0  0  0  0  0  0  0  0  # atno 17343 bound_to 10162
  157.1048  131.0205  151.3071 LP  0  0  0  0  0  0  0  0  0  0  0  0  # atno 17370 bound_to 10713
  157.4751  130.7732  149.7360 LP  0  0  0  0  0  0  0  0  0  0  0  0  # atno 17371 bound_to 10713
  140.0918  134.9588  157.1788 LP  0  0  0  0  0  0  0  0  0  0  0  0  # atno 17394 bound_to 11000
  140.3435  134.2677  155.7208 LP  0  0  0  0  0  0  0  0  0  0  0  0  # atno 17395 bound_to 11000

$$$$
