#       Name:                AV-unprocessed.smi:1115
#       Creating user name   scv26
#       Creation time:       Fri Mar 27 03:34:55 2020


#       File generated by GOLD software.
#

@<TRIPOS>MOLECULE
AV-unprocessed.smi:1115
    56    57     1
SMALL
NO_CHARGES


@<TRIPOS>ATOM
      1 ****        -5.0322   5.0292   1.1512 C.3            1 S1                 0.0000
      2 ****        -5.2751   3.5911   1.1545 N.pl3          1 S1                 0.0000
      3 ****        -6.6237   3.0749   1.3485 C.3            1 S1                 0.0000
      4 ****        -4.1846   2.6961   1.1004 C.ar           1 S1                 0.0000
      5 ****        -4.3359   1.2883   1.1291 C.ar           1 S1                 0.0000
      6 ****        -3.1973   0.4594   1.0731 C.ar           1 S1                 0.0000
      7 ****        -1.9116   1.0335   0.9950 C.ar           1 S1                 0.0000
      8 ****        -0.8012   0.1476   0.9354 N.am           1 S1                 0.0000
      9 ****         0.5091   0.4201   1.0604 C.2            1 S1                 0.0000
     10 ****         0.9909   1.5346   1.2593 O.2            1 S1                 0.0000
     11 ****         1.2432  -0.6947   0.9414 N.am           1 S1                 0.0000
     12 ****         2.7032  -0.7700   0.9926 C.3            1 S1                 0.0000
     13 ****         3.3441  -1.0004  -0.4080 C.3            1 S1                 0.0000
     14 ****         3.1406   0.3116  -1.2076 C.3            1 S1                 0.0000
     15 ****         4.8674  -1.1678  -0.1911 C.3            1 S1                 0.0000
     16 ****         2.7238  -2.1585  -1.1119 N.3            1 S1                 0.0000
     17 ****         3.1888  -2.3672  -2.4880 C.3            1 S1                 0.0000
     18 ****         2.4220  -3.4994  -3.1926 C.3            1 S1                 0.0000
     19 ****         2.5376  -4.6997  -2.4384 O.3            1 S1                 0.0000
     20 ****         2.0415  -4.5573  -1.1132 C.3            1 S1                 0.0000
     21 ****         2.8067  -3.4349  -0.3919 C.3            1 S1                 0.0000
     22 ****        -1.8123   2.4452   0.9593 C.ar           1 S1                 0.0000
     23 ****        -2.9299   3.2016   1.0137 N.pl3          1 S1                 1.0000
     24 ****        -4.4824   5.3236   0.2567 H              1 S1                 0.0000
     25 ****        -4.4524   5.3211   2.0274 H              1 S1                 0.0000
     26 ****        -5.9671   5.5898   1.1652 H              1 S1                 0.0000
     27 ****        -6.6836   2.4940   2.2695 H              1 S1                 0.0000
     28 ****        -6.9133   2.4363   0.5136 H              1 S1                 0.0000
     29 ****        -7.3515   3.8835   1.4170 H              1 S1                 0.0000
     30 ****        -5.3098   0.8266   1.1924 H              1 S1                 0.0000
     31 ****        -3.3156  -0.6141   1.0944 H              1 S1                 0.0000
     32 ****        -1.0347  -0.8268   0.8123 H              1 S1                 0.0000
     33 ****         0.7585  -1.5641   0.7733 H              1 S1                 0.0000
     34 ****         3.1177   0.1276   1.4552 H              1 S1                 0.0000
     35 ****         2.9690  -1.5732   1.6795 H              1 S1                 0.0000
     36 ****         3.4230   1.1863  -0.6204 H              1 S1                 0.0000
     37 ****         2.1006   0.4438  -1.5080 H              1 S1                 0.0000
     38 ****         3.7500   0.3432  -2.1108 H              1 S1                 0.0000
     39 ****         5.2867  -0.2992   0.3177 H              1 S1                 0.0000
     40 ****         5.4092  -1.2720  -1.1309 H              1 S1                 0.0000
     41 ****         5.1034  -2.0351   0.4252 H              1 S1                 0.0000
     42 ****         3.0622  -1.4641  -3.0824 H              1 S1                 0.0000
     43 ****         4.2524  -2.6059  -2.4948 H              1 S1                 0.0000
     44 ****         1.3699  -3.2363  -3.3132 H              1 S1                 0.0000
     45 ****         2.8261  -3.6660  -4.1910 H              1 S1                 0.0000
     46 ****         0.9720  -4.3424  -1.1374 H              1 S1                 0.0000
     47 ****         2.1664  -5.5015  -0.5830 H              1 S1                 0.0000
     48 ****         3.8479  -3.7378  -0.2803 H              1 S1                 0.0000
     49 ****         2.3945  -3.3446   0.6113 H              1 S1                 0.0000
     50 ****        -0.8948   3.0079   0.8827 H              1 S1                 0.0000
     51 ****        -2.8209   4.2155   0.9873 H              1 S1                 0.0000
     52 ****         0.3917   2.3310   1.3410 LP             1 S1                 0.0000
     53 ****         1.9817   1.6440   1.3393 LP             1 S1                 0.0000
     54 ****         1.7658  -1.8736  -1.1423 LP             1 S1                 0.0000
     55 ****         3.5023  -4.9594  -2.3940 LP             1 S1                 0.0000
     56 ****         2.0194  -5.4199  -2.8996 LP             1 S1                 0.0000
@<TRIPOS>BOND
    1    1    2 1     
    2    1   24 1     
    3    1   25 1     
    4    1   26 1     
    5    2    3 1     
    6    2    4 1     
    7    3   27 1     
    8    3   28 1     
    9    3   29 1     
   10    4   23 ar    
   11    4    5 ar    
   12    5    6 ar    
   13    5   30 1     
   14    6    7 ar    
   15    6   31 1     
   16    7    8 1     
   17    7   22 ar    
   18    8    9 am    
   19    8   32 1     
   20    9   10 2     
   21    9   11 am    
   22   11   12 1     
   23   11   33 1     
   24   12   13 1     
   25   12   34 1     
   26   12   35 1     
   27   13   14 1     
   28   13   15 1     
   29   13   16 1     
   30   14   36 1     
   31   14   37 1     
   32   14   38 1     
   33   15   39 1     
   34   15   40 1     
   35   15   41 1     
   36   16   21 1     
   37   16   17 1     
   38   17   18 1     
   39   17   42 1     
   40   17   43 1     
   41   18   19 1     
   42   18   44 1     
   43   18   45 1     
   44   19   20 1     
   45   20   21 1     
   46   20   46 1     
   47   20   47 1     
   48   21   48 1     
   49   21   49 1     
   50   22   23 ar    
   51   22   50 1     
   52   23   51 1     
   53   10   52 1     
   54   10   53 1     
   55   16   54 1     
   56   19   55 1     
   57   19   56 1     
@<TRIPOS>SUBSTRUCTURE
      1 S1             1
@<TRIPOS>SET
LONE_PAIRS      STATIC     ATOMS    <user>   **** ""
5 52 53 54 55 56
DONOR_HYDROGENS      STATIC     ATOMS    <user>   **** ""
3 32 33 51
ATOM$BLUE        STATIC     ATOMS    COLORGROUP SYSTEM
5 52 53 54 55 56
ATOM$RED        STATIC     ATOMS    COLORGROUP SYSTEM
3 32 33 51
