AV-unprocessed.smi:2901|AV-procd|sdf|11149|dock6
  -GOLD-   2272016 23D 1   1.00000     0.00000
 Structure written by MMmdl.
 40 41  0  0  0  0  0  0  0  0  1 V2000
  153.8209  138.8722  154.6260 C   0  0  0  0  0  0  0  0  0  0  0  0
  152.3548  138.6102  154.5963 C   0  0  0  0  0  0  0  0  0  0  0  0
  151.3848  139.4738  154.3038 N   0  0  0  0  0  0  0  0  0  0  0  0
  150.2113  138.7420  154.4213 C   0  0  0  0  0  0  0  0  0  0  0  0
  148.8660  139.3500  154.1666 C   0  0  0  0  0  0  0  0  0  0  0  0
  147.7201  138.4035  154.5604 C   0  0  0  0  0  0  0  0  0  0  0  0
  147.4073  137.4629  153.4907 N   0  0  0  0  0  0  0  0  0  0  0  0
  146.1759  137.0317  153.1855 C   0  0  0  0  0  0  0  0  0  0  0  0
  145.1542  137.3880  153.7727 O   0  0  0  0  0  0  0  0  0  0  0  0
  146.1921  136.1600  152.1683 N   0  0  0  0  0  0  0  0  0  0  0  0
  145.0143  135.4994  151.6163 C   0  0  0  0  0  0  0  0  0  0  0  0
  145.3636  134.1619  150.9401 C   0  0  2  0  0  0  0  0  0  0  0  0
  144.1615  133.3668  150.4295 C   0  0  0  0  0  0  0  0  0  0  0  0
  144.6458  131.9249  150.4600 C   0  0  0  0  0  0  0  0  0  0  0  0
  145.9354  131.9775  151.2848 C   0  0  0  0  0  0  0  0  0  0  0  0
  145.9452  133.2693  151.8755 O   0  0  0  0  0  0  0  0  0  0  0  0
  150.5417  137.4594  154.7783 C   0  0  0  0  0  0  0  0  0  0  0  0
  149.7323  136.2354  155.0426 C   0  0  0  0  0  0  0  0  0  0  0  0
  151.9024  137.3628  154.8954 O   0  0  0  0  0  0  0  0  0  0  0  0
  154.0393  139.8547  154.2070 H   0  0  0  0  0  0  0  0  0  0  0  0
  154.3468  138.1172  154.0415 H   0  0  0  0  0  0  0  0  0  0  0  0
  154.1839  138.8391  155.6533 H   0  0  0  0  0  0  0  0  0  0  0  0
  148.7708  140.2858  154.7184 H   0  0  0  0  0  0  0  0  0  0  0  0
  148.7791  139.6153  153.1122 H   0  0  0  0  0  0  0  0  0  0  0  0
  147.9673  137.8613  155.4750 H   0  0  0  0  0  0  0  0  0  0  0  0
  146.8203  138.9806  154.7757 H   0  0  0  0  0  0  0  0  0  0  0  0
  148.1840  137.1131  152.9488 H   0  0  0  0  0  0  0  0  0  0  0  0
  147.0814  135.9297  151.7503 H   0  0  0  0  0  0  0  0  0  0  0  0
  144.2723  135.3433  152.4009 H   0  0  0  0  0  0  0  0  0  0  0  0
  144.5585  136.1745  150.8916 H   0  0  0  0  0  0  0  0  0  0  0  0
  146.0751  134.3207  150.1274 H   0  0  0  0  0  0  0  0  0  0  0  0
  143.3161  133.4812  151.1092 H   0  0  0  0  0  0  0  0  0  0  0  0
  143.8406  133.6860  149.4374 H   0  0  0  0  0  0  0  0  0  0  0  0
  143.9002  131.2774  150.9226 H   0  0  0  0  0  0  0  0  0  0  0  0
  144.8445  131.5449  149.4570 H   0  0  0  0  0  0  0  0  0  0  0  0
  145.9807  131.1961  152.0437 H   0  0  0  0  0  0  0  0  0  0  0  0
  146.8078  131.8744  150.6378 H   0  0  0  0  0  0  0  0  0  0  0  0
  148.8900  136.1713  154.3534 H   0  0  0  0  0  0  0  0  0  0  0  0
  149.3382  136.2462  156.0589 H   0  0  0  0  0  0  0  0  0  0  0  0
  150.3347  135.3346  154.9222 H   0  0  0  0  0  0  0  0  0  0  0  0
  1  2  1  0  0  0  0
  1 20  1  0  0  0  0
  1 21  1  0  0  0  0
  1 22  1  0  0  0  0
  2 19  1  0  0  0  0
  2  3  2  0  0  0  0
  3  4  1  0  0  0  0
  4  5  1  0  0  0  0
  4 17  2  0  0  0  0
  5  6  1  0  0  0  0
  5 23  1  0  0  0  0
  5 24  1  0  0  0  0
  6  7  1  0  0  0  0
  6 25  1  0  0  0  0
  6 26  1  0  0  0  0
  7  8  1  0  0  0  0
  7 27  1  0  0  0  0
  8  9  2  0  0  0  0
  8 10  1  0  0  0  0
 10 11  1  0  0  0  0
 10 28  1  0  0  0  0
 11 12  1  0  0  0  0
 11 29  1  0  0  0  0
 11 30  1  0  0  0  0
 12 16  1  0  0  0  0
 12 13  1  0  0  0  0
 12 31  1  0  0  0  0
 13 14  1  0  0  0  0
 13 32  1  0  0  0  0
 13 33  1  0  0  0  0
 14 15  1  0  0  0  0
 14 34  1  0  0  0  0
 14 35  1  0  0  0  0
 15 16  1  0  0  0  0
 15 36  1  0  0  0  0
 15 37  1  0  0  0  0
 17 18  1  0  0  0  0
 17 19  1  0  0  0  0
 18 38  1  0  0  0  0
 18 39  1  0  0  0  0
 18 40  1  0  0  0  0
M  END
> <s_m_source_file>
AV-unprocessed.smi

> <i_m_source_file_index>
2901

> <i_lp_mmshare_version>
43012

> <i_f3d_flags>
0

> <s_epik_input>
W0NIM11jMW5jKGMobzEpW0NIM10pW0NIMl1bQ0gyXVtOSF1DKD1PKVtOSF1bQ0gyXVtDQEBIXTJbQ0gyXVtDSDJdW0NIMl1PMg==

> <s_epik_cmdline>
J2VwaWtfcHl0aG9uJywgJy1waCcsICc3LjAnLCAnLXRuJywgJzgnLCAnLW1hJywgJzIwMCcsICctbWV0YWxfYmluZGluZycsICctaW1hZScsICc8aW5maWxlLm1hZT4nLCAnLW9tYWUnLCAnPG91dGZpbGUubWFlPic=

> <r_lp_tautomer_probability>
1

> <r_epik_Ionization_Penalty>
9.58254e-05

> <r_epik_Ionization_Penalty_Charging>
0

> <r_epik_Ionization_Penalty_Neutral>
9.58254e-05

> <r_epik_State_Penalty>
-0

> <r_epik_Charging_Adjusted_Penalty>
0

> <i_epik_Tot_Q>
0

> <i_epik_Tot_abs_Q>
0

> <r_epik_Metal_State_Penalty>
-0

> <b_epik_Metal_Only>
0

> <s_lp_Force_Field>
OPLS_2005

> <r_lp_Energy>
8.98545

> <b_lp_Chiralities_Consistent>
1

> <s_lp_Variant>
AV-unprocessed.smi:2901-1

> <Gold.Version>
5.8.1

> <Gold.Id.Protein>
6NUR|6NUR_protein|mol2

> <Gold.PLP.Fitness>
42.1253

> <Gold.PLP.PLP>
-31.6329

> <Gold.PLP.part.hbond>
-4.0000

> <Gold.PLP.part.metal>
0.0000

> <Gold.PLP.part.buried>
-1.5678

> <Gold.PLP.part.nonpolar>
-26.6035

> <Gold.PLP.part.repulsive>
0.5401

> <Gold.PLP.ligand.clash>
0.0985

> <Gold.PLP.ligand.torsion>
0.5548

> <Gold.PLP.Chemscore.Hbond>
3.8880

> <Gold.PLP.Chemscore.CHOScore>
0.0000

> <Gold.PLP.Chemscore.Metal>
0.0000

> <Gold.Chemscore.Hbonds>
donor molecule, donor type, donor heavy atom, donor atom, acceptor molecule, acceptor atom, score
      L1  H     7    27       P1  7948  1.00
      L1  H    10    28       P1  7948  0.91
      P1  H  7989  7998       L1     3  1.00
      P1  H 10752 10765       L1    19  0.87

> <Gold.PLP.Chemscore.Internal.Correction>
0.0366

> <Gold.Rescore>
     Score         DG    S(hbond)    S(metal)    S(lipo)     H(rot)  DE(clash)    DE(int)     intcor
     18.61     -21.76       3.69        0.00      75.83       1.92       1.47       1.67       ----

> <Gold.Chemscore.Fitness>
18.6136

> <Gold.Chemscore.DG>
-21.7569

> <Gold.Chemscore.ZeroCoef>
-5.4800

> <Gold.Chemscore.Hbond>
3.6861

> <Gold.Chemscore.Metal>
0.0000

> <Gold.Chemscore.Lipo>
75.8309

> <Gold.Chemscore.Internal_Hbond>
0.0000

> <Gold.Chemscore.DEClash>
1.4740

> <Gold.Chemscore.DEInternal>
1.6693

> <Gold.Chemscore.Rot>
1.9167

> <Gold.Chemscore.Internal.Correction>
   9.000000E+99

> <Gold.Chemscore.Hbonds>
donor molecule, donor type, donor heavy atom, donor atom, acceptor molecule, acceptor atom, score
      L1  H     7    27       P1  7948  0.98
      L1  H    10    28       P1  7948  0.90
      P1  H  7989  7998       L1     3  0.98
      P1  H 10752 10765       L1    19  0.79

> <Gold.Chemscore.Hbond.Weighted>
-12.3116

> <Gold.Chemscore.Metal.Weighted>
-0.0000

> <Gold.Chemscore.Lipo.Weighted>
-8.8722

> <Gold.Chemscore.Internal_Hbond.Weighted>
0.0000

> <Gold.Chemscore.DEClash.Weighted>
1.4740

> <Gold.Chemscore.DEInternal.Weighted>
1.6693

> <Gold.Chemscore.Rot.Weighted>
4.9069

> <Gold.Chemscore.Internal.Correction.Weighted>
   9.000000E+99

> <Gold.Protein.RotatedTorsions>
[ 6907 6896 6895 6894 ] final -157.41 input  -60.11 | X-H torsion
[ 7974 7965 7964 7962 ] final  -33.54 input  175.53 | X-H torsion
[ 8008 7997 7996 7995 ] final -150.99 input   59.86 | X-H torsion
[ 10167 10162 10161 10158 ] final   15.57 input  -65.29 | X-H torsion
[ 10718 10713 10712 10709 ] final -148.35 input   66.30 | X-H torsion
[ 10763 10752 10751 10750 ] final  171.01 input  -60.55 | X-H torsion
[ 11005 11000 10999 10996 ] final  -94.05 input  -57.11 | X-H torsion

> <Gold.Protein.ActiveResidues>
 VAL166  LYS551  ARG553  GLY616  TRP617  ASP618  TYR619  PRO620  LYS621  CYS622 
 ASP623  PHE694  ASN695  SER759  ASP760  ASP761  ALA762  ILE779  LEU786  VAL792 
 PHE793  MET794  SER795  GLU796  ALA797  LYS798  CYS799  TRP800  GLU811  SER814 

> <Gold.Protein.RotatedAtoms>
  151.3024  133.4116  159.2640 H   0  0  0  0  0  0  0  0  0  0  0  0  # atno 6907 bound_to 6896
  151.0184  134.9451  159.8056 H   0  0  0  0  0  0  0  0  0  0  0  0  # atno 6908 bound_to 6896
  152.5318  134.2987  159.9123 H   0  0  0  0  0  0  0  0  0  0  0  0  # atno 6909 bound_to 6896
  146.0902  140.5929  142.8868 H   0  0  0  0  0  0  0  0  0  0  0  0  # atno 7974 bound_to 7965
  155.6322  140.0693  157.2645 H   0  0  0  0  0  0  0  0  0  0  0  0  # atno 8008 bound_to 7997
  154.4203  140.1765  156.1534 H   0  0  0  0  0  0  0  0  0  0  0  0  # atno 8009 bound_to 7997
  155.9923  140.3344  155.6768 H   0  0  0  0  0  0  0  0  0  0  0  0  # atno 8010 bound_to 7997
  140.5858  143.8892  150.6829 H   0  0  0  0  0  0  0  0  0  0  0  0  # atno 10167 bound_to 10162
  156.4191  130.8020  151.2242 H   0  0  0  0  0  0  0  0  0  0  0  0  # atno 10718 bound_to 10713
  154.4058  135.2755  155.2068 H   0  0  0  0  0  0  0  0  0  0  0  0  # atno 10763 bound_to 10752
  154.4075  135.6030  153.5936 H   0  0  0  0  0  0  0  0  0  0  0  0  # atno 10764 bound_to 10752
  152.9831  135.5941  154.4332 H   0  0  0  0  0  0  0  0  0  0  0  0  # atno 10765 bound_to 10752
  141.1481  133.7929  157.0244 H   0  0  0  0  0  0  0  0  0  0  0  0  # atno 11005 bound_to 11000
  144.7354  140.4794  143.6907 LP  0  0  0  0  0  0  0  0  0  0  0  0  # atno 17320 bound_to 7965
  145.6053  139.1508  143.3106 LP  0  0  0  0  0  0  0  0  0  0  0  0  # atno 17321 bound_to 7965
  140.2403  143.3669  152.1492 LP  0  0  0  0  0  0  0  0  0  0  0  0  # atno 17342 bound_to 10162
  139.5197  144.7023  151.5458 LP  0  0  0  0  0  0  0  0  0  0  0  0  # atno 17343 bound_to 10162
  157.7508  131.0234  150.3831 LP  0  0  0  0  0  0  0  0  0  0  0  0  # atno 17370 bound_to 10713
  156.4145  130.3940  149.6868 LP  0  0  0  0  0  0  0  0  0  0  0  0  # atno 17371 bound_to 10713
  140.0794  134.9656  157.1600 LP  0  0  0  0  0  0  0  0  0  0  0  0  # atno 17394 bound_to 11000
  140.3597  134.2507  155.7188 LP  0  0  0  0  0  0  0  0  0  0  0  0  # atno 17395 bound_to 11000

$$$$
