AV-unprocessed.smi:592|AV-procd|sdf|3011|dock10
  -GOLD-   2262023523D 1   1.00000     0.00000
 Structure written by MMmdl.
 28 29  0  0  0  0  0  0  0  0  2 V2000
  152.0062  141.2237  157.8566 O   0  0  0  0  0  0  0  0  0  0  0  0
  151.7331  142.3821  157.5451 C   0  0  0  0  0  0  0  0  0  0  0  0
  152.3598  143.5835  158.2722 C   0  0  0  0  0  0  0  0  0  0  0  0
  152.5686  143.3481  159.7118 N   0  0  0  0  0  0  0  0  0  0  0  0
  153.3214  142.2125  160.0726 C   0  0  0  0  0  0  0  0  0  0  0  0
  153.5736  141.9051  161.3547 C   0  0  0  0  0  0  0  0  0  0  0  0
  153.0505  142.7753  162.3810 C   0  0  0  0  0  0  0  0  0  0  0  0
  152.3247  143.8611  162.0478 C   0  0  0  0  0  0  0  0  0  0  0  0
  152.0430  144.1986  160.6477 C   0  0  0  0  0  0  0  0  0  0  0  0
  151.3744  145.1838  160.3338 O   0  0  0  0  0  0  0  0  0  0  0  0
  150.7879  142.5851  156.4737 N   0  0  0  0  0  0  0  0  0  0  0  0
  150.1095  141.7078  155.6920 C   0  0  0  0  0  0  0  0  0  0  0  0
  149.0787  142.0519  154.9066 N   0  3  0  0  0  0  0  0  0  0  0  0
  148.4095  141.0106  154.1118 C   0  0  0  0  0  0  0  0  0  0  0  0
  149.0993  139.6604  154.3651 C   0  0  0  0  0  0  0  0  0  0  0  0
  150.4220  139.9482  155.5571 S   0  0  0  0  0  0  0  0  0  0  0  0
  153.3164  143.8170  157.8049 H   0  0  0  0  0  0  0  0  0  0  0  0
  151.7222  144.4583  158.1413 H   0  0  0  0  0  0  0  0  0  0  0  0
  153.6722  141.6097  159.2475 H   0  0  0  0  0  0  0  0  0  0  0  0
  154.1497  141.0284  161.6118 H   0  0  0  0  0  0  0  0  0  0  0  0
  153.2412  142.5543  163.4209 H   0  0  0  0  0  0  0  0  0  0  0  0
  151.9405  144.4997  162.8296 H   0  0  0  0  0  0  0  0  0  0  0  0
  150.5382  143.5331  156.2318 H   0  0  0  0  0  0  0  0  0  0  0  0
  147.3573  140.9642  154.3942 H   0  0  0  0  0  0  0  0  0  0  0  0
  148.4537  141.2761  153.0554 H   0  0  0  0  0  0  0  0  0  0  0  0
  148.3973  138.9286  154.7654 H   0  0  0  0  0  0  0  0  0  0  0  0
  149.5187  139.2541  153.4443 H   0  0  0  0  0  0  0  0  0  0  0  0
  148.7491  143.0055  154.8537 H   0  0  0  0  0  0  0  0  0  0  0  0
  1  2  2  0  0  0  0
  2  3  1  0  0  0  0
  2 11  1  0  0  0  0
  3  4  1  0  0  0  0
  3 17  1  0  0  0  0
  3 18  1  0  0  0  0
  4  9  1  0  0  0  0
  4  5  1  0  0  0  0
  5  6  2  0  0  0  0
  5 19  1  0  0  0  0
  6  7  1  0  0  0  0
  6 20  1  0  0  0  0
  7  8  2  0  0  0  0
  7 21  1  0  0  0  0
  8  9  1  0  0  0  0
  8 22  1  0  0  0  0
  9 10  2  0  0  0  0
 11 12  1  0  0  0  0
 11 23  1  0  0  0  0
 12 16  1  0  0  0  0
 12 13  2  0  0  0  0
 13 14  1  0  0  0  0
 13 28  1  0  0  0  0
 14 15  1  0  0  0  0
 14 24  1  0  0  0  0
 14 25  1  0  0  0  0
 15 16  1  0  0  0  0
 15 26  1  0  0  0  0
 15 27  1  0  0  0  0
M  CHG  1  13   1
M  END
> <s_m_source_file>
AV-unprocessed.smi

> <i_m_source_file_index>
592

> <i_lp_mmshare_version>
43012

> <i_f3d_flags>
0

> <s_epik_input>
UzFbQ0gyXVtDSDJdTj1DMVtOSF1DKD1PKVtDSDJdbjJbY0hdW2NIXVtjSF1bY0hdYzI9Tw==

> <s_epik_cmdline>
J2VwaWtfcHl0aG9uJywgJy1waCcsICc3LjAnLCAnLXRuJywgJzgnLCAnLW1hJywgJzIwMCcsICctbWV0YWxfYmluZGluZycsICctaW1hZScsICc8aW5maWxlLm1hZT4nLCAnLW9tYWUnLCAnPG91dGZpbGUubWFlPic=

> <r_lp_tautomer_probability>
1

> <r_epik_Ionization_Penalty>
1.98499

> <r_epik_Ionization_Penalty_Charging>
1.98499

> <r_epik_Ionization_Penalty_Neutral>
2.63117e-16

> <r_epik_State_Penalty>
1.64719

> <r_epik_Charging_Adjusted_Penalty>
3.63218

> <i_epik_Tot_Q>
1

> <i_epik_Tot_abs_Q>
1

> <r_epik_Metal_State_Penalty>
5.35038

> <b_epik_Metal_Only>
0

> <s_epik_Chemistry_Notes>
This compound has an imine and may undergo hydrolysis.

> <s_lp_Force_Field>
OPLS_2005

> <r_lp_Energy>
33.1972

> <b_lp_Chiralities_Consistent>
1

> <s_lp_Variant>
AV-unprocessed.smi:592-2

> <Gold.Version>
5.8.1

> <Gold.Id.Protein>
6NUR|6NUR_protein|mol2

> <Gold.PLP.Fitness>
49.5287

> <Gold.PLP.PLP>
-42.1960

> <Gold.PLP.part.hbond>
-2.0000

> <Gold.PLP.part.metal>
0.0000

> <Gold.PLP.part.buried>
-4.7778

> <Gold.PLP.part.nonpolar>
-35.5643

> <Gold.PLP.part.repulsive>
0.4746

> <Gold.PLP.ligand.clash>
0.0000

> <Gold.PLP.ligand.torsion>
0.4028

> <Gold.PLP.Chemscore.Hbond>
2.7119

> <Gold.PLP.Chemscore.CHOScore>
0.0000

> <Gold.PLP.Chemscore.Metal>
0.0000

> <Gold.Chemscore.Hbonds>
donor molecule, donor type, donor heavy atom, donor atom, acceptor molecule, acceptor atom, score
      L1  H    11    23       P1  8028  0.69
      L1  H    13    28       P1  8028  1.79

> <Gold.PLP.Chemscore.Internal.Correction>
0.0026

> <Gold.Rescore>
     Score         DG    S(hbond)    S(metal)    S(lipo)     H(rot)  DE(clash)    DE(int)     intcor
     15.18     -16.94       1.69        0.00      79.23       1.35       0.08       1.68       ----

> <Gold.Chemscore.Fitness>
15.1765

> <Gold.Chemscore.DG>
-16.9433

> <Gold.Chemscore.ZeroCoef>
-5.4800

> <Gold.Chemscore.Hbond>
1.6911

> <Gold.Chemscore.Metal>
0.0000

> <Gold.Chemscore.Lipo>
79.2344

> <Gold.Chemscore.Internal_Hbond>
0.0000

> <Gold.Chemscore.DEClash>
0.0849

> <Gold.Chemscore.DEInternal>
1.6819

> <Gold.Chemscore.Rot>
1.3497

> <Gold.Chemscore.Internal.Correction>
   9.000000E+99

> <Gold.Chemscore.Hbonds>
donor molecule, donor type, donor heavy atom, donor atom, acceptor molecule, acceptor atom, score
      L1  H    11    23       P1  8028  0.68
      L1  H    13    28       P1  8028  0.88

> <Gold.Chemscore.Hbond.Weighted>
-5.6481

> <Gold.Chemscore.Metal.Weighted>
-0.0000

> <Gold.Chemscore.Lipo.Weighted>
-9.2704

> <Gold.Chemscore.Internal_Hbond.Weighted>
0.0000

> <Gold.Chemscore.DEClash.Weighted>
0.0849

> <Gold.Chemscore.DEInternal.Weighted>
1.6819

> <Gold.Chemscore.Rot.Weighted>
3.4552

> <Gold.Chemscore.Internal.Correction.Weighted>
   9.000000E+99

> <Gold.Protein.RotatedTorsions>
[ 6907 6896 6895 6894 ] final  -37.22 input  -60.11 | X-H torsion
[ 7974 7965 7964 7962 ] final  -37.52 input  175.53 | X-H torsion
[ 8008 7997 7996 7995 ] final  -99.51 input   59.86 | X-H torsion
[ 10167 10162 10161 10158 ] final -138.39 input  -65.29 | X-H torsion
[ 10718 10713 10712 10709 ] final -119.77 input   66.30 | X-H torsion
[ 10763 10752 10751 10750 ] final   56.77 input  -60.55 | X-H torsion
[ 11005 11000 10999 10996 ] final  -13.42 input  -57.11 | X-H torsion

> <Gold.Protein.ActiveResidues>
 VAL166  LYS551  ARG553  GLY616  TRP617  ASP618  TYR619  PRO620  LYS621  CYS622 
 ASP623  PHE694  ASN695  SER759  ASP760  ASP761  ALA762  ILE779  LEU786  VAL792 
 PHE793  MET794  SER795  GLU796  ALA797  LYS798  CYS799  TRP800  GLU811  SER814 

> <Gold.Protein.RotatedAtoms>
  151.0174  134.9443  159.8040 H   0  0  0  0  0  0  0  0  0  0  0  0  # atno 6907 bound_to 6896
  152.5317  134.2948  159.9066 H   0  0  0  0  0  0  0  0  0  0  0  0  # atno 6908 bound_to 6896
  151.2955  133.4104  159.2670 H   0  0  0  0  0  0  0  0  0  0  0  0  # atno 6909 bound_to 6896
  146.0568  140.6405  142.9016 H   0  0  0  0  0  0  0  0  0  0  0  0  # atno 7974 bound_to 7965
  154.8158  140.0447  157.1375 H   0  0  0  0  0  0  0  0  0  0  0  0  # atno 8008 bound_to 7997
  154.9316  140.3040  155.5145 H   0  0  0  0  0  0  0  0  0  0  0  0  # atno 8009 bound_to 7997
  156.2976  140.2322  156.4377 H   0  0  0  0  0  0  0  0  0  0  0  0  # atno 8010 bound_to 7997
  139.8483  143.7232  152.2659 H   0  0  0  0  0  0  0  0  0  0  0  0  # atno 10167 bound_to 10162
  156.1207  130.6320  150.9458 H   0  0  0  0  0  0  0  0  0  0  0  0  # atno 10718 bound_to 10713
  152.9837  135.5665  154.5282 H   0  0  0  0  0  0  0  0  0  0  0  0  # atno 10763 bound_to 10752
  154.4758  135.2786  155.1610 H   0  0  0  0  0  0  0  0  0  0  0  0  # atno 10764 bound_to 10752
  154.3139  135.6282  153.5531 H   0  0  0  0  0  0  0  0  0  0  0  0  # atno 10765 bound_to 10752
  140.7759  133.8401  155.9248 H   0  0  0  0  0  0  0  0  0  0  0  0  # atno 11005 bound_to 11000
  144.7152  140.4184  143.7050 LP  0  0  0  0  0  0  0  0  0  0  0  0  # atno 17320 bound_to 7965
  145.6630  139.1585  143.2797 LP  0  0  0  0  0  0  0  0  0  0  0  0  # atno 17321 bound_to 7965
  139.7490  144.7539  151.0535 LP  0  0  0  0  0  0  0  0  0  0  0  0  # atno 17342 bound_to 10162
  140.7790  143.4882  150.9928 LP  0  0  0  0  0  0  0  0  0  0  0  0  # atno 17343 bound_to 10162
  157.6390  131.0912  150.8290 LP  0  0  0  0  0  0  0  0  0  0  0  0  # atno 17370 bound_to 10713
  156.8387  130.5040  149.5323 LP  0  0  0  0  0  0  0  0  0  0  0  0  # atno 17371 bound_to 10713
  140.9529  134.1755  157.4714 LP  0  0  0  0  0  0  0  0  0  0  0  0  # atno 17394 bound_to 11000
  139.8749  134.9916  156.5557 LP  0  0  0  0  0  0  0  0  0  0  0  0  # atno 17395 bound_to 11000

$$$$
