AV-unprocessed.smi:1006|AV-procd|sdf|4395|dock5
  -GOLD-   22720 2323D 1   1.00000     0.00000
 Structure written by MMmdl.
 46 48  0  0  0  0  0  0  0  0  2 V2000
  147.0911  136.8549  162.4983 C   0  0  0  0  0  0  0  0  0  0  0  0
  147.7657  136.3632  161.2357 C   0  0  0  0  0  0  0  0  0  0  0  0
  147.4812  135.0911  160.6943 C   0  0  0  0  0  0  0  0  0  0  0  0
  148.1756  134.7461  159.5162 C   0  0  0  0  0  0  0  0  0  0  0  0
  147.9660  133.5149  158.9004 N   0  0  0  0  0  0  0  0  0  0  0  0
  149.0621  135.5859  158.9403 N   0  0  0  0  0  0  0  0  0  0  0  0
  149.2464  136.7637  159.5410 C   0  0  0  0  0  0  0  0  0  0  0  0
  150.4253  137.8430  158.7475 S   0  0  0  0  0  0  0  0  0  0  0  0
  149.5848  138.2722  157.1915 C   0  0  0  0  0  0  0  0  0  0  0  0
  150.5233  138.1641  155.9793 C   0  0  1  0  0  0  0  0  0  0  0  0
  149.7619  138.2676  154.7910 O   0  0  0  0  0  0  0  0  0  0  0  0
  151.6148  139.2517  155.9998 C   0  0  0  0  0  0  0  0  0  0  0  0
  151.0809  140.5867  156.3059 N   0  0  0  0  0  0  0  0  0  0  0  0
  150.1415  141.3159  155.6449 C   0  0  0  0  0  0  0  0  0  0  0  0
  149.9814  142.4881  156.3191 N   0  3  0  0  0  0  0  0  0  0  0  0
  150.8298  142.5077  157.4279 C   0  0  0  0  0  0  0  0  0  0  0  0
  151.0236  143.4742  158.4076 C   0  0  0  0  0  0  0  0  0  0  0  0
  151.9682  143.1875  159.4187 C   0  0  0  0  0  0  0  0  0  0  0  0
  152.2026  144.2220  160.5067 C   0  0  0  0  0  0  0  0  0  0  0  0
  152.6826  141.9615  159.4239 C   0  0  0  0  0  0  0  0  0  0  0  0
  153.6931  141.6620  160.5181 C   0  0  0  0  0  0  0  0  0  0  0  0
  152.4727  140.9925  158.4168 C   0  0  0  0  0  0  0  0  0  0  0  0
  151.5387  141.2903  157.4267 C   0  0  0  0  0  0  0  0  0  0  0  0
  148.6532  137.2017  160.6560 N   0  0  0  0  0  0  0  0  0  0  0  0
  146.2710  136.1968  162.7870 H   0  0  0  0  0  0  0  0  0  0  0  0
  146.6863  137.8564  162.3500 H   0  0  0  0  0  0  0  0  0  0  0  0
  147.8071  136.8904  163.3197 H   0  0  0  0  0  0  0  0  0  0  0  0
  146.7719  134.4199  161.1566 H   0  0  0  0  0  0  0  0  0  0  0  0
  147.3166  132.8390  159.2758 H   0  0  0  0  0  0  0  0  0  0  0  0
  148.4527  133.2634  158.0521 H   0  0  0  0  0  0  0  0  0  0  0  0
  148.7202  137.6210  157.0561 H   0  0  0  0  0  0  0  0  0  0  0  0
  149.2097  139.2927  157.2756 H   0  0  0  0  0  0  0  0  0  0  0  0
  151.0028  137.1843  155.9851 H   0  0  0  0  0  0  0  0  0  0  0  0
  148.9509  138.7095  154.9904 H   0  0  0  0  0  0  0  0  0  0  0  0
  152.4074  139.0066  156.7069 H   0  0  0  0  0  0  0  0  0  0  0  0
  152.0908  139.3158  155.0205 H   0  0  0  0  0  0  0  0  0  0  0  0
  149.6162  141.0175  154.7491 H   0  0  0  0  0  0  0  0  0  0  0  0
  150.4744  144.4045  158.3986 H   0  0  0  0  0  0  0  0  0  0  0  0
  153.2492  144.5269  160.5283 H   0  0  0  0  0  0  0  0  0  0  0  0
  151.9393  143.8153  161.4835 H   0  0  0  0  0  0  0  0  0  0  0  0
  151.5994  145.1156  160.3440 H   0  0  0  0  0  0  0  0  0  0  0  0
  154.1310  140.6707  160.3970 H   0  0  0  0  0  0  0  0  0  0  0  0
  153.2190  141.6975  161.4989 H   0  0  0  0  0  0  0  0  0  0  0  0
  154.5048  142.3893  160.4981 H   0  0  0  0  0  0  0  0  0  0  0  0
  153.0147  140.0588  158.4253 H   0  0  0  0  0  0  0  0  0  0  0  0
  149.3374  143.2180  156.0421 H   0  0  0  0  0  0  0  0  0  0  0  0
  1  2  1  0  0  0  0
  1 25  1  0  0  0  0
  1 26  1  0  0  0  0
  1 27  1  0  0  0  0
  2 24  1  0  0  0  0
  2  3  2  0  0  0  0
  3  4  1  0  0  0  0
  3 28  1  0  0  0  0
  4  5  1  0  0  0  0
  4  6  2  0  0  0  0
  5 29  1  0  0  0  0
  5 30  1  0  0  0  0
  6  7  1  0  0  0  0
  7  8  1  0  0  0  0
  7 24  2  0  0  0  0
  8  9  1  0  0  0  0
  9 10  1  0  0  0  0
  9 31  1  0  0  0  0
  9 32  1  0  0  0  0
 10 11  1  0  0  0  0
 10 12  1  0  0  0  0
 10 33  1  0  0  0  0
 11 34  1  0  0  0  0
 12 13  1  0  0  0  0
 12 35  1  0  0  0  0
 12 36  1  0  0  0  0
 13 23  1  0  0  0  0
 13 14  1  0  0  0  0
 14 15  2  0  0  0  0
 14 37  1  0  0  0  0
 15 16  1  0  0  0  0
 15 46  1  0  0  0  0
 16 23  2  0  0  0  0
 16 17  1  0  0  0  0
 17 18  2  0  0  0  0
 17 38  1  0  0  0  0
 18 19  1  0  0  0  0
 18 20  1  0  0  0  0
 19 39  1  0  0  0  0
 19 40  1  0  0  0  0
 19 41  1  0  0  0  0
 20 21  1  0  0  0  0
 20 22  2  0  0  0  0
 21 42  1  0  0  0  0
 21 43  1  0  0  0  0
 21 44  1  0  0  0  0
 22 23  1  0  0  0  0
 22 45  1  0  0  0  0
M  CHG  1  15   1
M  END
> <s_m_source_file>
AV-unprocessed.smi

> <i_m_source_file_index>
1006

> <i_lp_mmshare_version>
43012

> <i_f3d_flags>
0

> <s_epik_input>
W0NIM11jMVtjSF1jKFtOSDJdKW5jKG4xKVNbQ0gyXVtDQEhdKFtPSF0pW0NIMl1uKFtjSF1uMiljKGMyMylbY0hdYyhbQ0gzXSljKFtjSF0zKVtDSDNd

> <s_epik_cmdline>
J2VwaWtfcHl0aG9uJywgJy1waCcsICc3LjAnLCAnLXRuJywgJzgnLCAnLW1hJywgJzIwMCcsICctbWV0YWxfYmluZGluZycsICctaW1hZScsICc8aW5maWxlLm1hZT4nLCAnLW9tYWUnLCAnPG91dGZpbGUubWFlPic=

> <r_epik_Ionization_Penalty>
1.4378

> <r_epik_Ionization_Penalty_Charging>
1.06724

> <r_epik_Ionization_Penalty_Neutral>
0.370564

> <r_epik_State_Penalty>
1.48666

> <r_epik_Charging_Adjusted_Penalty>
2.5539

> <i_epik_Tot_Q>
1

> <i_epik_Tot_abs_Q>
1

> <r_epik_Metal_State_Penalty>
1.38026

> <b_epik_Metal_Only>
0

> <s_lp_Force_Field>
OPLS_2005

> <r_lp_Energy>
7.15152

> <b_lp_Chiralities_Consistent>
1

> <s_lp_Variant>
AV-unprocessed.smi:1006-6

> <Gold.Version>
5.8.1

> <Gold.Id.Protein>
6NUR|6NUR_protein|mol2

> <Gold.PLP.Fitness>
57.4852

> <Gold.PLP.PLP>
-47.6633

> <Gold.PLP.part.hbond>
-3.9281

> <Gold.PLP.part.metal>
0.0000

> <Gold.PLP.part.buried>
-6.0434

> <Gold.PLP.part.nonpolar>
-38.8623

> <Gold.PLP.part.repulsive>
0.1597

> <Gold.PLP.ligand.clash>
0.0000

> <Gold.PLP.ligand.torsion>
0.5370

> <Gold.PLP.Chemscore.Hbond>
3.6268

> <Gold.PLP.Chemscore.CHOScore>
0.0000

> <Gold.PLP.Chemscore.Metal>
0.0000

> <Gold.Chemscore.Hbonds>
donor molecule, donor type, donor heavy atom, donor atom, acceptor molecule, acceptor atom, score
      L1  H    15    46       P1  8028  2.00
      P1  H  6896  6908       L1     6  0.76
      P1  H  6931  6943       L1    24  0.77
      P1  H  6934  6947       L1    24  0.06

> <Gold.PLP.Chemscore.Internal.Correction>
0.0155

> <Gold.Rescore>
     Score         DG    S(hbond)    S(metal)    S(lipo)     H(rot)  DE(clash)    DE(int)     intcor
     18.63     -19.23       2.29        0.00     115.47       2.89       0.01       0.59       ----

> <Gold.Chemscore.Fitness>
18.6348

> <Gold.Chemscore.DG>
-19.2267

> <Gold.Chemscore.ZeroCoef>
-5.4800

> <Gold.Chemscore.Hbond>
2.2869

> <Gold.Chemscore.Metal>
0.0000

> <Gold.Chemscore.Lipo>
115.4654

> <Gold.Chemscore.Internal_Hbond>
0.0000

> <Gold.Chemscore.DEClash>
0.0060

> <Gold.Chemscore.DEInternal>
0.5859

> <Gold.Chemscore.Rot>
2.8910

> <Gold.Chemscore.Internal.Correction>
   9.000000E+99

> <Gold.Chemscore.Hbonds>
donor molecule, donor type, donor heavy atom, donor atom, acceptor molecule, acceptor atom, score
      L1  H    15    46       P1  8028  0.97
      P1  H  6896  6908       L1     6  0.02
      P1  H  6931  6943       L1    24  0.34

> <Gold.Chemscore.Hbond.Weighted>
-7.6381

> <Gold.Chemscore.Metal.Weighted>
-0.0000

> <Gold.Chemscore.Lipo.Weighted>
-13.5094

> <Gold.Chemscore.Internal_Hbond.Weighted>
0.0000

> <Gold.Chemscore.DEClash.Weighted>
0.0060

> <Gold.Chemscore.DEInternal.Weighted>
0.5859

> <Gold.Chemscore.Rot.Weighted>
7.4009

> <Gold.Chemscore.Internal.Correction.Weighted>
   9.000000E+99

> <Gold.Protein.RotatedTorsions>
[ 6907 6896 6895 6894 ] final  173.09 input  -60.11 | X-H torsion
[ 7974 7965 7964 7962 ] final   54.51 input  175.53 | X-H torsion
[ 8008 7997 7996 7995 ] final  124.84 input   59.86 | X-H torsion
[ 10167 10162 10161 10158 ] final   21.37 input  -65.29 | X-H torsion
[ 10718 10713 10712 10709 ] final -147.85 input   66.30 | X-H torsion
[ 10763 10752 10751 10750 ] final  -61.60 input  -60.55 | X-H torsion
[ 11005 11000 10999 10996 ] final   70.25 input  -57.11 | X-H torsion

> <Gold.Protein.ActiveResidues>
 VAL166  LYS551  ARG553  GLY616  TRP617  ASP618  TYR619  PRO620  LYS621  CYS622 
 ASP623  PHE694  ASN695  SER759  ASP760  ASP761  ALA762  ILE779  LEU786  VAL792 
 PHE793  MET794  SER795  GLU796  ALA797  LYS798  CYS799  TRP800  GLU811  SER814 

> <Gold.Protein.RotatedAtoms>
  151.7739  133.3343  159.3451 H   0  0  0  0  0  0  0  0  0  0  0  0  # atno 6907 bound_to 6896
  150.7451  134.5993  159.6038 H   0  0  0  0  0  0  0  0  0  0  0  0  # atno 6908 bound_to 6896
  152.3322  134.7246  160.0338 H   0  0  0  0  0  0  0  0  0  0  0  0  # atno 6909 bound_to 6896
  145.9601  139.4051  143.0253 H   0  0  0  0  0  0  0  0  0  0  0  0  # atno 7974 bound_to 7965
  156.2815  140.2730  156.1853 H   0  0  0  0  0  0  0  0  0  0  0  0  # atno 8008 bound_to 7997
  155.0514  140.0386  157.2563 H   0  0  0  0  0  0  0  0  0  0  0  0  # atno 8009 bound_to 7997
  154.7192  140.2684  155.6563 H   0  0  0  0  0  0  0  0  0  0  0  0  # atno 8010 bound_to 7997
  140.5432  143.9640  150.6532 H   0  0  0  0  0  0  0  0  0  0  0  0  # atno 10167 bound_to 10162
  156.4128  130.7990  151.2208 H   0  0  0  0  0  0  0  0  0  0  0  0  # atno 10718 bound_to 10713
  154.2871  135.6260  153.5370 H   0  0  0  0  0  0  0  0  0  0  0  0  # atno 10763 bound_to 10752
  152.9857  135.5647  154.5431 H   0  0  0  0  0  0  0  0  0  0  0  0  # atno 10764 bound_to 10752
  154.5034  135.2873  155.1378 H   0  0  0  0  0  0  0  0  0  0  0  0  # atno 10765 bound_to 10752
  139.9608  134.7064  156.0650 H   0  0  0  0  0  0  0  0  0  0  0  0  # atno 11005 bound_to 11000
  145.8052  140.9752  143.0978 LP  0  0  0  0  0  0  0  0  0  0  0  0  # atno 17320 bound_to 7965
  144.6813  139.9851  143.7484 LP  0  0  0  0  0  0  0  0  0  0  0  0  # atno 17321 bound_to 7965
  140.3047  143.3237  152.0938 LP  0  0  0  0  0  0  0  0  0  0  0  0  # atno 17342 bound_to 10162
  139.4997  144.6675  151.6322 LP  0  0  0  0  0  0  0  0  0  0  0  0  # atno 17343 bound_to 10162
  157.7507  131.0252  150.3910 LP  0  0  0  0  0  0  0  0  0  0  0  0  # atno 17370 bound_to 10713
  156.4211  130.3953  149.6824 LP  0  0  0  0  0  0  0  0  0  0  0  0  # atno 17371 bound_to 10713
  141.1285  133.6593  156.3401 LP  0  0  0  0  0  0  0  0  0  0  0  0  # atno 17394 bound_to 11000
  140.5504  134.6033  157.5406 LP  0  0  0  0  0  0  0  0  0  0  0  0  # atno 17395 bound_to 11000

$$$$
