#       Name:                AV-unprocessed.smi:1695
#       Creating user name   scv26
#       Creation time:       Fri Mar 27 07:55:26 2020


#       File generated by GOLD software.
#

@<TRIPOS>MOLECULE
AV-unprocessed.smi:1695
    56    58     1
SMALL
NO_CHARGES


@<TRIPOS>ATOM
      1 ****        -3.9022   4.0444   2.1600 C.3            1 S1                 0.0000
      2 ****        -3.4980   2.9985   1.1358 C.ar           1 S1                 0.0000
      3 ****        -3.1062   3.4174  -0.1556 C.ar           1 S1                 0.0000
      4 ****        -2.7206   2.4773  -1.1359 C.ar           1 S1                 0.0000
      5 ****        -2.3021   2.6617  -2.4423 N.2            1 S1                 0.0000
      6 ****        -2.0822   1.4102  -2.8333 C.2            1 S1                 0.0000
      7 ****        -2.3013   0.4348  -1.9306 N.pl3          1 S1                 0.0000
      8 ****        -2.1138  -0.9910  -2.1270 C.3            1 S1                 0.0000
      9 ****        -0.6427  -1.4197  -1.9597 C.3            1 S1                 0.0000
     10 ****        -0.5679  -2.8101  -2.2014 O.3            1 S1                 0.0000
     11 ****        -0.0698  -1.1266  -0.5551 C.3            1 S1                 0.0000
     12 ****         1.3736  -1.4595  -0.4471 N.4            1 S1                 1.0000
     13 ****         2.2595  -0.4320  -1.0566 C.3            1 S1                 0.0000
     14 ****         3.7286  -0.8844  -1.0359 C.3            1 S1                 0.0000
     15 ****         4.1926  -1.2043   0.3980 C.3            1 S1                 0.0000
     16 ****         5.6419  -1.7089   0.4104 C.2            1 S1                 0.0000
     17 ****         6.5253  -1.0106   1.1280 N.am           1 S1                 0.0000
     18 ****         5.9613  -2.7147  -0.2207 O.2            1 S1                 0.0000
     19 ****         3.2375  -2.2445   1.0135 C.3            1 S1                 0.0000
     20 ****         1.7776  -1.7656   0.9492 C.3            1 S1                 0.0000
     21 ****        -2.7368   1.0953  -0.7862 C.ar           1 S1                 0.0000
     22 ****        -3.1279   0.6659   0.4946 C.ar           1 S1                 0.0000
     23 ****        -3.5116   1.6186   1.4617 C.ar           1 S1                 0.0000
     24 ****        -3.9331   1.1455   2.8415 C.3            1 S1                 0.0000
     25 ****        -3.7835   5.0542   1.7664 H              1 S1                 0.0000
     26 ****        -3.2865   3.9617   3.0558 H              1 S1                 0.0000
     27 ****        -4.9469   3.9157   2.4440 H              1 S1                 0.0000
     28 ****        -3.0974   4.4684  -0.4044 H              1 S1                 0.0000
     29 ****        -1.7343   1.1887  -3.8317 H              1 S1                 0.0000
     30 ****        -2.7528  -1.5270  -1.4240 H              1 S1                 0.0000
     31 ****        -2.4703  -1.2448  -3.1265 H              1 S1                 0.0000
     32 ****        -0.0514  -0.9170  -2.7244 H              1 S1                 0.0000
     33 ****        -1.1472  -3.2553  -1.6015 H              1 S1                 0.0000
     34 ****        -0.2024  -0.0786  -0.2843 H              1 S1                 0.0000
     35 ****        -0.6414  -1.7014   0.1754 H              1 S1                 0.0000
     36 ****         1.9657  -0.2388  -2.0875 H              1 S1                 0.0000
     37 ****         2.1512   0.5107  -0.5176 H              1 S1                 0.0000
     38 ****         3.8421  -1.7606  -1.6769 H              1 S1                 0.0000
     39 ****         4.3560  -0.1031  -1.4676 H              1 S1                 0.0000
     40 ****         4.1363  -0.2895   0.9913 H              1 S1                 0.0000
     41 ****         7.4910  -1.3024   1.1691 H              1 S1                 0.0000
     42 ****         6.2219  -0.1889   1.6309 H              1 S1                 0.0000
     43 ****         3.3255  -3.1974   0.4885 H              1 S1                 0.0000
     44 ****         3.5115  -2.4379   2.0514 H              1 S1                 0.0000
     45 ****         1.6415  -0.8797   1.5719 H              1 S1                 0.0000
     46 ****         1.1310  -2.5435   1.3576 H              1 S1                 0.0000
     47 ****        -3.1321  -0.3876   0.7317 H              1 S1                 0.0000
     48 ****        -3.9457   0.0571   2.9025 H              1 S1                 0.0000
     49 ****        -4.9345   1.5038   3.0809 H              1 S1                 0.0000
     50 ****        -3.2425   1.5160   3.5991 H              1 S1                 0.0000
     51 ****         1.5055  -2.3131  -0.9714 H              1 S1                 0.0000
     52 ****        -2.1937   3.5124  -2.9566 LP             1 S1                 0.0000
     53 ****         0.3702  -3.1259  -2.0594 LP             1 S1                 0.0000
     54 ****        -0.8457  -3.0031  -3.1424 LP             1 S1                 0.0000
     55 ****         5.2737  -3.2128  -0.7491 LP             1 S1                 0.0000
     56 ****         6.9086  -3.0346  -0.2056 LP             1 S1                 0.0000
@<TRIPOS>BOND
    1    1    2 1     
    2    1   25 1     
    3    1   26 1     
    4    1   27 1     
    5    2   23 ar    
    6    2    3 ar    
    7    3    4 ar    
    8    3   28 1     
    9    4   21 ar    
   10    4    5 1     
   11    5    6 2     
   12    6    7 1     
   13    6   29 1     
   14    7    8 1     
   15    7   21 1     
   16    8    9 1     
   17    8   30 1     
   18    8   31 1     
   19    9   10 1     
   20    9   11 1     
   21    9   32 1     
   22   10   33 1     
   23   11   12 1     
   24   11   34 1     
   25   11   35 1     
   26   12   20 1     
   27   12   13 1     
   28   12   51 1     
   29   13   14 1     
   30   13   36 1     
   31   13   37 1     
   32   14   15 1     
   33   14   38 1     
   34   14   39 1     
   35   15   16 1     
   36   15   19 1     
   37   15   40 1     
   38   16   17 am    
   39   16   18 2     
   40   17   41 1     
   41   17   42 1     
   42   19   20 1     
   43   19   43 1     
   44   19   44 1     
   45   20   45 1     
   46   20   46 1     
   47   21   22 ar    
   48   22   23 ar    
   49   22   47 1     
   50   23   24 1     
   51   24   48 1     
   52   24   49 1     
   53   24   50 1     
   54    5   52 1     
   55   10   53 1     
   56   10   54 1     
   57   18   55 1     
   58   18   56 1     
@<TRIPOS>SUBSTRUCTURE
      1 S1             1
@<TRIPOS>SET
LONE_PAIRS      STATIC     ATOMS    <user>   **** ""
5 52 53 54 55 56
DONOR_HYDROGENS      STATIC     ATOMS    <user>   **** ""
4 33 51 41 42
ATOM$BLUE        STATIC     ATOMS    COLORGROUP SYSTEM
5 52 53 54 55 56
ATOM$RED        STATIC     ATOMS    COLORGROUP SYSTEM
4 33 51 41 42
