AV-unprocessed.smi:286|AV-procd|sdf|2173|dock5
  -GOLD-   2262021533D 1   1.00000     0.00000
 Structure written by MMmdl.
 46 48  0  0  0  0  0  0  0  0  1 V2000
  152.7116  139.6159  155.9226 O   0  0  0  0  0  0  0  0  0  0  0  0
  151.5798  139.7533  155.4550 C   0  0  0  0  0  0  0  0  0  0  0  0
  151.1793  139.2183  154.1582 C   0  0  0  0  0  0  0  0  0  0  0  0
  152.0669  138.5280  153.4222 F   0  0  0  0  0  0  0  0  0  0  0  0
  149.9300  139.4059  153.6796 C   0  0  0  0  0  0  0  0  0  0  0  0
  148.9536  140.1059  154.3702 N   0  0  0  0  0  0  0  0  0  0  0  0
  147.5630  140.3153  153.8083 C   0  0  2  0  0  0  0  0  0  0  0  0
  146.8740  138.9623  153.5472 C   0  0  0  0  0  0  0  0  0  0  0  0
  146.4075  139.0943  152.1108 C   0  0  0  0  0  0  0  0  0  0  0  0
  147.4452  140.0417  151.5278 C   0  0  0  0  0  0  0  0  0  0  0  0
  147.6408  140.9789  152.5787 O   0  0  0  0  0  0  0  0  0  0  0  0
  149.2564  140.6675  155.6296 C   0  0  0  0  0  0  0  0  0  0  0  0
  148.4114  141.3182  156.2498 O   0  0  0  0  0  0  0  0  0  0  0  0
  150.5599  140.4592  156.1390 N   0  0  0  0  0  0  0  0  0  0  0  0
  150.8842  141.0508  157.4268 C   0  0  0  0  0  0  0  0  0  0  0  0
  150.6465  142.5781  157.4761 C   0  0  2  0  0  0  0  0  0  0  0  0
  150.9250  143.1294  156.2031 O   0  0  0  0  0  0  0  0  0  0  0  0
  151.5190  143.2850  158.5424 C   0  0  0  0  0  0  0  0  0  0  0  0
  151.7478  142.3968  159.7849 C   0  0  0  0  0  0  0  0  0  0  0  0
  152.6746  143.0755  160.8062 C   0  0  0  0  0  0  0  0  0  0  0  0
  152.1356  144.4542  161.2165 C   0  0  0  0  0  0  0  0  0  0  0  0
  151.9166  145.3490  159.9872 C   0  0  0  0  0  0  0  0  0  0  0  0
  150.9879  144.6759  158.9634 C   0  0  0  0  0  0  0  0  0  0  0  0
  149.7058  138.9854  152.7115 H   0  0  0  0  0  0  0  0  0  0  0  0
  147.0447  140.9498  154.5295 H   0  0  0  0  0  0  0  0  0  0  0  0
  147.5932  138.1471  153.6403 H   0  0  0  0  0  0  0  0  0  0  0  0
  146.0579  138.7969  154.2509 H   0  0  0  0  0  0  0  0  0  0  0  0
  146.3593  138.1393  151.5870 H   0  0  0  0  0  0  0  0  0  0  0  0
  145.4196  139.5552  152.0772 H   0  0  0  0  0  0  0  0  0  0  0  0
  148.3754  139.5135  151.3141 H   0  0  0  0  0  0  0  0  0  0  0  0
  147.1066  140.5290  150.6133 H   0  0  0  0  0  0  0  0  0  0  0  0
  150.2672  140.5320  158.1627 H   0  0  0  0  0  0  0  0  0  0  0  0
  151.9051  140.7754  157.6961 H   0  0  0  0  0  0  0  0  0  0  0  0
  149.5997  142.7783  157.7078 H   0  0  0  0  0  0  0  0  0  0  0  0
  150.2245  143.7198  155.9716 H   0  0  0  0  0  0  0  0  0  0  0  0
  152.4989  143.4397  158.0878 H   0  0  0  0  0  0  0  0  0  0  0  0
  150.7943  142.1699  160.2629 H   0  0  0  0  0  0  0  0  0  0  0  0
  152.1771  141.4400  159.4860 H   0  0  0  0  0  0  0  0  0  0  0  0
  152.7824  142.4423  161.6870 H   0  0  0  0  0  0  0  0  0  0  0  0
  153.6724  143.1836  160.3795 H   0  0  0  0  0  0  0  0  0  0  0  0
  151.1944  144.3340  161.7544 H   0  0  0  0  0  0  0  0  0  0  0  0
  152.8285  144.9343  161.9080 H   0  0  0  0  0  0  0  0  0  0  0  0
  151.4976  146.3073  160.2952 H   0  0  0  0  0  0  0  0  0  0  0  0
  152.8773  145.5687  159.5201 H   0  0  0  0  0  0  0  0  0  0  0  0
  150.8894  145.3253  158.0937 H   0  0  0  0  0  0  0  0  0  0  0  0
  149.9902  144.5830  159.3936 H   0  0  0  0  0  0  0  0  0  0  0  0
  1  2  2  0  0  0  0
  2 14  1  0  0  0  0
  2  3  1  0  0  0  0
  3  4  1  0  0  0  0
  3  5  2  0  0  0  0
  5  6  1  0  0  0  0
  5 24  1  0  0  0  0
  6  7  1  0  0  0  0
  6 12  1  0  0  0  0
  7 11  1  0  0  0  0
  7  8  1  0  0  0  0
  7 25  1  0  0  0  0
  8  9  1  0  0  0  0
  8 26  1  0  0  0  0
  8 27  1  0  0  0  0
  9 10  1  0  0  0  0
  9 28  1  0  0  0  0
  9 29  1  0  0  0  0
 10 11  1  0  0  0  0
 10 30  1  0  0  0  0
 10 31  1  0  0  0  0
 12 13  2  0  0  0  0
 12 14  1  0  0  0  0
 14 15  1  0  0  0  0
 15 16  1  0  0  0  0
 15 32  1  0  0  0  0
 15 33  1  0  0  0  0
 16 17  1  0  0  0  0
 16 18  1  0  0  0  0
 16 34  1  0  0  0  0
 17 35  1  0  0  0  0
 18 23  1  0  0  0  0
 18 19  1  0  0  0  0
 18 36  1  0  0  0  0
 19 20  1  0  0  0  0
 19 37  1  0  0  0  0
 19 38  1  0  0  0  0
 20 21  1  0  0  0  0
 20 39  1  0  0  0  0
 20 40  1  0  0  0  0
 21 22  1  0  0  0  0
 21 41  1  0  0  0  0
 21 42  1  0  0  0  0
 22 23  1  0  0  0  0
 22 43  1  0  0  0  0
 22 44  1  0  0  0  0
 23 45  1  0  0  0  0
 23 46  1  0  0  0  0
M  END
> <s_m_source_file>
AV-unprocessed.smi

> <i_m_source_file_index>
286

> <i_lp_mmshare_version>
43012

> <i_f3d_flags>
0

> <s_epik_input>
TzFbQ0gyXVtDSDJdW0NIMl1bQ0BIXTFuKFtjSF1jKEYpYzI9TyljKD1PKW4yW0NIMl1bQ0BIXShbT0hdKVtDSF0zW0NIMl1bQ0gyXVtDSDJdW0NIMl1bQ0gyXTM=

> <s_epik_cmdline>
J2VwaWtfcHl0aG9uJywgJy1waCcsICc3LjAnLCAnLXRuJywgJzgnLCAnLW1hJywgJzIwMCcsICctbWV0YWxfYmluZGluZycsICctaW1hZScsICc8aW5maWxlLm1hZT4nLCAnLW9tYWUnLCAnPG91dGZpbGUubWFlPic=

> <r_lp_tautomer_probability>
1

> <r_epik_Ionization_Penalty>
3.15564e-07

> <r_epik_Ionization_Penalty_Charging>
2.06416e-08

> <r_epik_Ionization_Penalty_Neutral>
2.94923e-07

> <r_epik_State_Penalty>
-0

> <r_epik_Charging_Adjusted_Penalty>
2.06416e-08

> <i_epik_Tot_Q>
0

> <i_epik_Tot_abs_Q>
0

> <r_epik_Metal_State_Penalty>
-0

> <b_epik_Metal_Only>
0

> <s_epik_Chemistry_Notes>
This compound contains an acetal/aminal-like group ( X-CH(R)-Y where X, Y are N, S, or O) that may be acid/base labile, releasing an aldehyde.

> <s_lp_Force_Field>
OPLS_2005

> <r_lp_Energy>
41.5856

> <b_lp_Chiralities_Consistent>
1

> <s_lp_Variant>
AV-unprocessed.smi:286-1

> <Gold.Version>
5.8.1

> <Gold.Id.Protein>
6NUR|6NUR_protein|mol2

> <Gold.PLP.Fitness>
50.4333

> <Gold.PLP.PLP>
-41.7745

> <Gold.PLP.part.hbond>
-2.0000

> <Gold.PLP.part.metal>
0.0000

> <Gold.PLP.part.buried>
-4.1147

> <Gold.PLP.part.nonpolar>
-36.0076

> <Gold.PLP.part.repulsive>
1.1587

> <Gold.PLP.ligand.clash>
0.0000

> <Gold.PLP.ligand.torsion>
0.7629

> <Gold.PLP.Chemscore.Hbond>
2.0000

> <Gold.PLP.Chemscore.CHOScore>
1.3829

> <Gold.PLP.Chemscore.Metal>
0.0000

> <Gold.Chemscore.Hbonds>
donor molecule, donor type, donor heavy atom, donor atom, acceptor molecule, acceptor atom, score
      L1  H    17    35       P1  8028  1.00
      P1  H  7997  8009       L1     1  1.00
      L1  C     5    24       P1  7948  0.01
      L1  C     5    24       P1  7957  0.51

> <Gold.PLP.Chemscore.Internal.Correction>
0.0359

> <Gold.Rescore>
     Score         DG    S(hbond)    S(metal)    S(lipo)     H(rot)  DE(clash)    DE(int)     intcor
     15.26     -20.22       1.99        0.00     118.99       2.28       1.70       3.26       ----

> <Gold.Chemscore.Fitness>
15.2607

> <Gold.Chemscore.DG>
-20.2203

> <Gold.Chemscore.ZeroCoef>
-5.4800

> <Gold.Chemscore.Hbond>
1.9893

> <Gold.Chemscore.Metal>
0.0000

> <Gold.Chemscore.Lipo>
118.9856

> <Gold.Chemscore.Internal_Hbond>
0.0000

> <Gold.Chemscore.DEClash>
1.6988

> <Gold.Chemscore.DEInternal>
3.2607

> <Gold.Chemscore.Rot>
2.2756

> <Gold.Chemscore.Internal.Correction>
   9.000000E+99

> <Gold.Chemscore.Hbonds>
donor molecule, donor type, donor heavy atom, donor atom, acceptor molecule, acceptor atom, score
      L1  H    17    35       P1  8028  1.00
      P1  H  7997  8009       L1     1  1.00

> <Gold.Chemscore.Hbond.Weighted>
-6.6444

> <Gold.Chemscore.Metal.Weighted>
-0.0000

> <Gold.Chemscore.Lipo.Weighted>
-13.9213

> <Gold.Chemscore.Internal_Hbond.Weighted>
0.0000

> <Gold.Chemscore.DEClash.Weighted>
1.6988

> <Gold.Chemscore.DEInternal.Weighted>
3.2607

> <Gold.Chemscore.Rot.Weighted>
5.8254

> <Gold.Chemscore.Internal.Correction.Weighted>
   9.000000E+99

> <Gold.Protein.RotatedTorsions>
[ 6907 6896 6895 6894 ] final   30.38 input  -60.11 | X-H torsion
[ 7974 7965 7964 7962 ] final  147.88 input  175.53 | X-H torsion
[ 8008 7997 7996 7995 ] final -164.34 input   59.86 | X-H torsion
[ 10167 10162 10161 10158 ] final   -9.98 input  -65.29 | X-H torsion
[ 10718 10713 10712 10709 ] final  162.70 input   66.30 | X-H torsion
[ 10763 10752 10751 10750 ] final  -15.57 input  -60.55 | X-H torsion
[ 11005 11000 10999 10996 ] final  129.82 input  -57.11 | X-H torsion

> <Gold.Protein.ActiveResidues>
 VAL166  LYS551  ARG553  GLY616  TRP617  ASP618  TYR619  PRO620  LYS621  CYS622 
 ASP623  PHE694  ASN695  SER759  ASP760  ASP761  ALA762  ILE779  LEU786  VAL792 
 PHE793  MET794  SER795  GLU796  ALA797  LYS798  CYS799  TRP800  GLU811  SER814 

> <Gold.Protein.RotatedAtoms>
  152.0451  134.9688  160.0574 H   0  0  0  0  0  0  0  0  0  0  0  0  # atno 6907 bound_to 6896
  152.1111  133.4296  159.4640 H   0  0  0  0  0  0  0  0  0  0  0  0  # atno 6908 bound_to 6896
  150.6843  134.2566  159.4575 H   0  0  0  0  0  0  0  0  0  0  0  0  # atno 6909 bound_to 6896
  144.8556  139.6084  143.5954 H   0  0  0  0  0  0  0  0  0  0  0  0  # atno 7974 bound_to 7965
  155.8342  140.0938  157.1774 H   0  0  0  0  0  0  0  0  0  0  0  0  # atno 8008 bound_to 7997
  154.3980  140.1413  156.3712 H   0  0  0  0  0  0  0  0  0  0  0  0  # atno 8009 bound_to 7997
  155.8133  140.3449  155.5473 H   0  0  0  0  0  0  0  0  0  0  0  0  # atno 8010 bound_to 7997
  140.7102  143.5798  150.9004 H   0  0  0  0  0  0  0  0  0  0  0  0  # atno 10167 bound_to 10162
  157.1188  131.0487  151.2424 H   0  0  0  0  0  0  0  0  0  0  0  0  # atno 10718 bound_to 10713
  153.5454  135.7012  153.5616 H   0  0  0  0  0  0  0  0  0  0  0  0  # atno 10763 bound_to 10752
  153.3564  135.3981  155.1685 H   0  0  0  0  0  0  0  0  0  0  0  0  # atno 10764 bound_to 10752
  154.8668  135.3778  154.4961 H   0  0  0  0  0  0  0  0  0  0  0  0  # atno 10765 bound_to 10752
  139.9637  134.9596  156.9204 H   0  0  0  0  0  0  0  0  0  0  0  0  # atno 11005 bound_to 11000
  146.2821  139.6904  142.9222 LP  0  0  0  0  0  0  0  0  0  0  0  0  # atno 17320 bound_to 7965
  145.4412  141.0422  143.2856 LP  0  0  0  0  0  0  0  0  0  0  0  0  # atno 17321 bound_to 7965
  139.9524  143.6257  152.3025 LP  0  0  0  0  0  0  0  0  0  0  0  0  # atno 17342 bound_to 10162
  139.6780  144.7657  151.1660 LP  0  0  0  0  0  0  0  0  0  0  0  0  # atno 17343 bound_to 10162
  157.4495  130.7590  149.7138 LP  0  0  0  0  0  0  0  0  0  0  0  0  # atno 17370 bound_to 10713
  155.9833  130.4001  150.3369 LP  0  0  0  0  0  0  0  0  0  0  0  0  # atno 17371 bound_to 10713
  140.5444  134.0688  155.7350 LP  0  0  0  0  0  0  0  0  0  0  0  0  # atno 17394 bound_to 11000
  141.1315  133.9293  157.2524 LP  0  0  0  0  0  0  0  0  0  0  0  0  # atno 17395 bound_to 11000

$$$$
