AV-unprocessed.smi:282|AV-procd|sdf|2117|dock6
  -GOLD-   2262021413D 1   1.00000     0.00000
 Structure written by MMmdl.
 65 69  0  0  0  0  0  0  0  0  2 V2000
  147.1609  141.5661  155.2985 C   0  0  0  0  0  0  0  0  0  0  0  0
  148.6180  141.1922  155.6003 C   0  0  0  0  0  0  0  0  0  0  0  0
  148.8495  140.7685  157.0674 C   0  0  2  0  0  0  0  0  0  0  0  0
  148.5592  141.9199  158.0530 C   0  0  0  0  0  0  0  0  0  0  0  0
  149.6031  142.9762  157.9993 N   0  3  1  0  0  0  0  0  0  0  0  0
  149.2900  144.1129  158.9024 C   0  0  0  0  0  0  0  0  0  0  0  0
  150.3127  145.2491  158.7446 C   0  0  0  0  0  0  0  0  0  0  0  0
  151.7379  144.7372  158.9845 C   0  0  0  0  0  0  0  0  0  0  0  0
  152.0311  143.5531  158.0543 C   0  0  0  0  0  0  0  0  0  0  0  0
  150.9784  142.4391  158.2152 C   0  0  2  0  0  0  0  0  0  0  0  0
  151.2682  141.2683  157.2518 C   0  0  0  0  0  0  0  0  0  0  0  0
  150.2064  140.2610  157.2918 N   0  0  0  0  0  0  0  0  0  0  0  0
  150.3303  139.2122  158.1508 C   0  0  0  0  0  0  0  0  0  0  0  0
  151.5306  138.9587  158.7380 N   0  0  0  0  0  0  0  0  0  0  0  0
  151.6714  137.9315  159.5802 C   0  0  0  0  0  0  0  0  0  0  0  0
  150.7568  137.0436  159.9709 N   0  0  0  0  0  0  0  0  0  0  0  0
  149.5482  137.2876  159.3894 C   0  0  0  0  0  0  0  0  0  0  0  0
  149.2522  138.3374  158.4730 C   0  0  0  0  0  0  0  0  0  0  0  0
  147.9241  138.2505  158.0742 N   0  0  0  0  0  0  0  0  0  0  0  0
  147.4609  137.2171  158.7216 C   0  0  0  0  0  0  0  0  0  0  0  0
  148.3638  136.5876  159.5489 N   0  0  0  0  0  0  0  0  0  0  0  0
  148.1146  135.4104  160.3706 C   0  0  0  0  0  0  0  0  0  0  0  0
  146.8409  135.4854  161.2727 C   0  0  0  0  0  0  0  0  0  0  0  0
  146.8027  136.8122  162.0773 C   0  0  0  0  0  0  0  0  0  0  0  0
  147.9841  137.0193  162.8259 O   0  0  0  0  0  0  0  0  0  0  0  0
  145.5631  135.3799  160.4026 C   0  0  0  0  0  0  0  0  0  0  0  0
  145.3470  133.9687  159.8263 C   0  0  0  0  0  0  0  0  0  0  0  0
  145.3031  133.0146  160.8795 O   0  0  0  0  0  0  0  0  0  0  0  0
  146.5144  132.9565  161.6214 C   0  0  0  0  0  0  0  0  0  0  0  0
  146.7852  134.3176  162.2893 C   0  0  0  0  0  0  0  0  0  0  0  0
  147.0457  141.8662  154.2569 H   0  0  0  0  0  0  0  0  0  0  0  0
  146.8318  142.3983  155.9210 H   0  0  0  0  0  0  0  0  0  0  0  0
  146.4877  140.7273  155.4767 H   0  0  0  0  0  0  0  0  0  0  0  0
  148.9419  140.4098  154.9139 H   0  0  0  0  0  0  0  0  0  0  0  0
  149.2424  142.0578  155.3773 H   0  0  0  0  0  0  0  0  0  0  0  0
  148.1186  139.9906  157.2852 H   0  0  0  0  0  0  0  0  0  0  0  0
  147.5803  142.3536  157.8440 H   0  0  0  0  0  0  0  0  0  0  0  0
  148.5129  141.5243  159.0691 H   0  0  0  0  0  0  0  0  0  0  0  0
  148.2916  144.4916  158.6797 H   0  0  0  0  0  0  0  0  0  0  0  0
  149.2732  143.7639  159.9363 H   0  0  0  0  0  0  0  0  0  0  0  0
  150.2381  145.6753  157.7433 H   0  0  0  0  0  0  0  0  0  0  0  0
  150.0843  146.0555  159.4423 H   0  0  0  0  0  0  0  0  0  0  0  0
  152.4599  145.5368  158.8167 H   0  0  0  0  0  0  0  0  0  0  0  0
  151.8502  144.4275  160.0243 H   0  0  0  0  0  0  0  0  0  0  0  0
  152.0485  143.9000  157.0199 H   0  0  0  0  0  0  0  0  0  0  0  0
  153.0261  143.1592  158.2649 H   0  0  0  0  0  0  0  0  0  0  0  0
  151.0277  142.0669  159.2397 H   0  0  0  0  0  0  0  0  0  0  0  0
  151.3486  141.6399  156.2301 H   0  0  0  0  0  0  0  0  0  0  0  0
  152.2389  140.8217  157.4721 H   0  0  0  0  0  0  0  0  0  0  0  0
  152.6582  137.8011  159.9996 H   0  0  0  0  0  0  0  0  0  0  0  0
  146.4391  136.8836  158.6129 H   0  0  0  0  0  0  0  0  0  0  0  0
  148.0392  134.5542  159.6991 H   0  0  0  0  0  0  0  0  0  0  0  0
  149.0097  135.2266  160.9630 H   0  0  0  0  0  0  0  0  0  0  0  0
  146.6810  137.6632  161.4062 H   0  0  0  0  0  0  0  0  0  0  0  0
  145.9487  136.8377  162.7545 H   0  0  0  0  0  0  0  0  0  0  0  0
  147.9867  136.4178  163.5549 H   0  0  0  0  0  0  0  0  0  0  0  0
  144.6899  135.6361  161.0040 H   0  0  0  0  0  0  0  0  0  0  0  0
  145.5913  136.1065  159.5898 H   0  0  0  0  0  0  0  0  0  0  0  0
  144.4010  133.9314  159.2859 H   0  0  0  0  0  0  0  0  0  0  0  0
  146.1246  133.7045  159.1089 H   0  0  0  0  0  0  0  0  0  0  0  0
  146.4169  132.1838  162.3839 H   0  0  0  0  0  0  0  0  0  0  0  0
  147.3367  132.6512  160.9744 H   0  0  0  0  0  0  0  0  0  0  0  0
  147.6969  134.2715  162.8837 H   0  0  0  0  0  0  0  0  0  0  0  0
  145.9816  134.4995  163.0047 H   0  0  0  0  0  0  0  0  0  0  0  0
  149.5860  143.3428  157.0585 H   0  0  0  0  0  0  0  0  0  0  0  0
  1  2  1  0  0  0  0
  1 31  1  0  0  0  0
  1 32  1  0  0  0  0
  1 33  1  0  0  0  0
  2  3  1  0  0  0  0
  2 34  1  0  0  0  0
  2 35  1  0  0  0  0
  3 12  1  0  0  0  0
  3  4  1  0  0  0  0
  3 36  1  0  0  0  0
  4  5  1  0  0  0  0
  4 37  1  0  0  0  0
  4 38  1  0  0  0  0
  5 10  1  0  0  0  0
  5  6  1  0  0  0  0
  5 65  1  0  0  0  0
  6  7  1  0  0  0  0
  6 39  1  0  0  0  0
  6 40  1  0  0  0  0
  7  8  1  0  0  0  0
  7 41  1  0  0  0  0
  7 42  1  0  0  0  0
  8  9  1  0  0  0  0
  8 43  1  0  0  0  0
  8 44  1  0  0  0  0
  9 10  1  0  0  0  0
  9 45  1  0  0  0  0
  9 46  1  0  0  0  0
 10 11  1  0  0  0  0
 10 47  1  0  0  0  0
 11 12  1  0  0  0  0
 11 48  1  0  0  0  0
 11 49  1  0  0  0  0
 12 13  1  0  0  0  0
 13 18  1  0  0  0  0
 13 14  2  0  0  0  0
 14 15  1  0  0  0  0
 15 16  2  0  0  0  0
 15 50  1  0  0  0  0
 16 17  1  0  0  0  0
 17 21  1  0  0  0  0
 17 18  2  0  0  0  0
 18 19  1  0  0  0  0
 19 20  2  0  0  0  0
 20 21  1  0  0  0  0
 20 51  1  0  0  0  0
 21 22  1  0  0  0  0
 22 23  1  0  0  0  0
 22 52  1  0  0  0  0
 22 53  1  0  0  0  0
 23 30  1  0  0  0  0
 23 24  1  0  0  0  0
 23 26  1  0  0  0  0
 24 25  1  0  0  0  0
 24 54  1  0  0  0  0
 24 55  1  0  0  0  0
 25 56  1  0  0  0  0
 26 27  1  0  0  0  0
 26 57  1  0  0  0  0
 26 58  1  0  0  0  0
 27 28  1  0  0  0  0
 27 59  1  0  0  0  0
 27 60  1  0  0  0  0
 28 29  1  0  0  0  0
 29 30  1  0  0  0  0
 29 61  1  0  0  0  0
 29 62  1  0  0  0  0
 30 63  1  0  0  0  0
 30 64  1  0  0  0  0
M  CHG  1   5   1
M  END
> <s_m_source_file>
AV-unprocessed.smi

> <i_m_source_file_index>
282

> <i_lp_mmshare_version>
43012

> <i_f3d_flags>
0

> <s_epik_input>
W0NIMl0xW0NIMl1bQ0gyXVtDSDJdW0NAQEhdKE4xMilbQ0gyXU4oW0NAQEhdKFtDSDJdMilbQ0gyXVtDSDNdKWMobltjSF1uMyljKGMzNCluW2NIXW40W0NIMl1DNShbQ0gyXVtPSF0pW0NIMl1bQ0gyXU9bQ0gyXVtDSDJdNQ==

> <s_epik_cmdline>
J2VwaWtfcHl0aG9uJywgJy1waCcsICc3LjAnLCAnLXRuJywgJzgnLCAnLW1hJywgJzIwMCcsICctbWV0YWxfYmluZGluZycsICctaW1hZScsICc8aW5maWxlLm1hZT4nLCAnLW9tYWUnLCAnPG91dGZpbGUubWFlPic=

> <r_lp_tautomer_probability>
1

> <r_epik_Ionization_Penalty>
0.00308583

> <r_epik_Ionization_Penalty_Charging>
0.00300384

> <r_epik_Ionization_Penalty_Neutral>
8.19894e-05

> <r_epik_State_Penalty>
-0

> <r_epik_Charging_Adjusted_Penalty>
0.00300384

> <i_epik_Tot_Q>
1

> <i_epik_Tot_abs_Q>
1

> <r_epik_Metal_State_Penalty>
-0

> <b_epik_Metal_Only>
0

> <s_lp_Force_Field>
OPLS_2005

> <r_lp_Energy>
57.6145

> <b_lp_Chiralities_Consistent>
1

> <s_lp_Variant>
AV-unprocessed.smi:282-1

> <Gold.Version>
5.8.1

> <Gold.Id.Protein>
6NUR|6NUR_protein|mol2

> <Gold.PLP.Fitness>
55.7292

> <Gold.PLP.PLP>
-44.4115

> <Gold.PLP.part.hbond>
-3.0000

> <Gold.PLP.part.metal>
0.0000

> <Gold.PLP.part.buried>
-4.5166

> <Gold.PLP.part.nonpolar>
-36.2361

> <Gold.PLP.part.repulsive>
0.0717

> <Gold.PLP.ligand.clash>
0.0000

> <Gold.PLP.ligand.torsion>
0.3793

> <Gold.PLP.Chemscore.Hbond>
3.9265

> <Gold.PLP.Chemscore.CHOScore>
0.0000

> <Gold.PLP.Chemscore.Metal>
0.0000

> <Gold.Chemscore.Hbonds>
donor molecule, donor type, donor heavy atom, donor atom, acceptor molecule, acceptor atom, score
      L1  H     5    65       P1  8028  1.77
      P1  H  6896  6909       L1    16  1.00
      P1  H  6931  6943       L1    25  0.85

> <Gold.PLP.Chemscore.Internal.Correction>
0.2970

> <Gold.Rescore>
     Score         DG    S(hbond)    S(metal)    S(lipo)     H(rot)  DE(clash)    DE(int)     intcor
     18.73     -21.02       2.52        0.00     109.24       2.20       0.33       1.96       ----

> <Gold.Chemscore.Fitness>
18.7282

> <Gold.Chemscore.DG>
-21.0200

> <Gold.Chemscore.ZeroCoef>
-5.4800

> <Gold.Chemscore.Hbond>
2.5153

> <Gold.Chemscore.Metal>
0.0000

> <Gold.Chemscore.Lipo>
109.2448

> <Gold.Chemscore.Internal_Hbond>
0.0000

> <Gold.Chemscore.DEClash>
0.3309

> <Gold.Chemscore.DEInternal>
1.9608

> <Gold.Chemscore.Rot>
2.2042

> <Gold.Chemscore.Internal.Correction>
   9.000000E+99

> <Gold.Chemscore.Hbonds>
donor molecule, donor type, donor heavy atom, donor atom, acceptor molecule, acceptor atom, score
      L1  H     5    65       P1  8028  0.78
      P1  H  6896  6909       L1    16  0.74
      P1  H  6931  6943       L1    25  0.58

> <Gold.Chemscore.Hbond.Weighted>
-8.4012

> <Gold.Chemscore.Metal.Weighted>
-0.0000

> <Gold.Chemscore.Lipo.Weighted>
-12.7816

> <Gold.Chemscore.Internal_Hbond.Weighted>
0.0000

> <Gold.Chemscore.DEClash.Weighted>
0.3309

> <Gold.Chemscore.DEInternal.Weighted>
1.9608

> <Gold.Chemscore.Rot.Weighted>
5.6429

> <Gold.Chemscore.Internal.Correction.Weighted>
   9.000000E+99

> <Gold.Protein.RotatedTorsions>
[ 6907 6896 6895 6894 ] final   97.15 input  -60.11 | X-H torsion
[ 7974 7965 7964 7962 ] final -170.49 input  175.53 | X-H torsion
[ 8008 7997 7996 7995 ] final   88.49 input   59.86 | X-H torsion
[ 10167 10162 10161 10158 ] final  154.51 input  -65.29 | X-H torsion
[ 10718 10713 10712 10709 ] final   10.67 input   66.30 | X-H torsion
[ 10763 10752 10751 10750 ] final  114.92 input  -60.55 | X-H torsion
[ 11005 11000 10999 10996 ] final  135.41 input  -57.11 | X-H torsion

> <Gold.Protein.ActiveResidues>
 VAL166  LYS551  ARG553  GLY616  TRP617  ASP618  TYR619  PRO620  LYS621  CYS622 
 ASP623  PHE694  ASN695  SER759  ASP760  ASP761  ALA762  ILE779  LEU786  VAL792 
 PHE793  MET794  SER795  GLU796  ALA797  LYS798  CYS799  TRP800  GLU811  SER814 

> <Gold.Protein.RotatedAtoms>
  152.5427  134.0777  159.8221 H   0  0  0  0  0  0  0  0  0  0  0  0  # atno 6907 bound_to 6896
  151.0883  133.5329  159.2624 H   0  0  0  0  0  0  0  0  0  0  0  0  # atno 6908 bound_to 6896
  151.2130  135.0497  159.8973 H   0  0  0  0  0  0  0  0  0  0  0  0  # atno 6909 bound_to 6896
  144.7169  140.2064  143.6332 H   0  0  0  0  0  0  0  0  0  0  0  0  # atno 7974 bound_to 7965
  155.9884  140.3371  155.6729 H   0  0  0  0  0  0  0  0  0  0  0  0  # atno 8008 bound_to 7997
  155.6454  140.0700  157.2622 H   0  0  0  0  0  0  0  0  0  0  0  0  # atno 8009 bound_to 7997
  154.4212  140.1735  156.1605 H   0  0  0  0  0  0  0  0  0  0  0  0  # atno 8010 bound_to 7997
  139.4823  144.5180  151.7921 H   0  0  0  0  0  0  0  0  0  0  0  0  # atno 10167 bound_to 10162
  156.9843  130.6018  149.5679 H   0  0  0  0  0  0  0  0  0  0  0  0  # atno 10718 bound_to 10713
  153.5145  135.3611  155.2602 H   0  0  0  0  0  0  0  0  0  0  0  0  # atno 10763 bound_to 10752
  154.8739  135.4030  154.3331 H   0  0  0  0  0  0  0  0  0  0  0  0  # atno 10764 bound_to 10752
  153.3990  135.7074  153.6507 H   0  0  0  0  0  0  0  0  0  0  0  0  # atno 10765 bound_to 10752
  139.9978  134.9490  157.0003 H   0  0  0  0  0  0  0  0  0  0  0  0  # atno 11005 bound_to 11000
  145.8632  139.2233  143.1704 LP  0  0  0  0  0  0  0  0  0  0  0  0  # atno 17320 bound_to 7965
  146.0154  140.8397  142.9950 LP  0  0  0  0  0  0  0  0  0  0  0  0  # atno 17321 bound_to 7965
  140.4691  144.1613  150.5915 LP  0  0  0  0  0  0  0  0  0  0  0  0  # atno 17342 bound_to 10162
  140.4402  143.2530  151.9483 LP  0  0  0  0  0  0  0  0  0  0  0  0  # atno 17343 bound_to 10162
  156.0232  130.5326  150.8333 LP  0  0  0  0  0  0  0  0  0  0  0  0  # atno 17370 bound_to 10713
  157.5504  131.0943  150.9704 LP  0  0  0  0  0  0  0  0  0  0  0  0  # atno 17371 bound_to 10713
  140.4785  134.1313  155.7213 LP  0  0  0  0  0  0  0  0  0  0  0  0  # atno 17394 bound_to 11000
  141.1618  133.8778  157.1827 LP  0  0  0  0  0  0  0  0  0  0  0  0  # atno 17395 bound_to 11000

$$$$
