AV-unprocessed.smi:2182|AV-procd|sdf|8864|dock4
  -GOLD-   2272012 63D 1   1.00000     0.00000
 Structure written by MMmdl.
 41 43  0  0  0  0  0  0  0  0  1 V2000
  155.0081  136.7446  162.9233 N   0  0  0  0  0  0  0  0  0  0  0  0
  154.5924  137.4476  162.1032 C   0  0  0  0  0  0  0  0  0  0  0  0
  154.0516  138.3026  161.0987 C   0  0  0  0  0  0  0  0  0  0  0  0
  154.1725  139.6445  161.1669 C   0  0  0  0  0  0  0  0  0  0  0  0
  153.6640  140.4846  160.2003 N   0  0  0  0  0  0  0  0  0  0  0  0
  153.6653  141.9101  160.3702 C   0  0  0  0  0  0  0  0  0  0  0  0
  153.0775  142.5290  161.6234 C   0  0  0  0  0  0  0  0  0  0  0  0
  152.3519  142.6591  160.3067 C   0  0  0  0  0  0  0  0  0  0  0  0
  152.9161  139.9583  159.1247 C   0  0  0  0  0  0  0  0  0  0  0  0
  152.3702  140.6997  158.3034 O   0  0  0  0  0  0  0  0  0  0  0  0
  152.8001  138.5506  159.0242 N   0  0  0  0  0  0  0  0  0  0  0  0
  152.0313  137.9836  157.8941 C   0  0  0  0  0  0  0  0  0  0  0  0
  150.9142  137.0232  158.3314 C   0  0  0  0  0  0  0  0  0  0  0  0
  150.6550  136.8487  159.5230 O   0  0  0  0  0  0  0  0  0  0  0  0
  150.2563  136.4030  157.3407 N   0  0  0  0  0  0  0  0  0  0  0  0
  149.1542  135.4653  157.5260 C   0  0  0  0  0  0  0  0  0  0  0  0
  149.4331  134.1058  156.8612 C   0  0  1  0  0  0  0  0  0  0  0  0
  149.6713  134.1681  155.3525 C   0  0  0  0  0  0  0  0  0  0  0  0
  150.4636  132.9017  155.1218 C   0  0  0  0  0  0  0  0  0  0  0  0
  151.3421  132.8472  156.3694 C   0  0  0  0  0  0  0  0  0  0  0  0
  150.6220  133.5298  157.3937 O   0  0  0  0  0  0  0  0  0  0  0  0
  153.3498  137.6656  159.9868 C   0  0  0  0  0  0  0  0  0  0  0  0
  153.2183  136.4455  159.8761 O   0  0  0  0  0  0  0  0  0  0  0  0
  154.6925  140.0798  162.0082 H   0  0  0  0  0  0  0  0  0  0  0  0
  154.5252  142.4264  159.9469 H   0  0  0  0  0  0  0  0  0  0  0  0
  152.6399  141.8669  162.3682 H   0  0  0  0  0  0  0  0  0  0  0  0
  153.5666  143.4166  162.0195 H   0  0  0  0  0  0  0  0  0  0  0  0
  152.3541  143.6351  159.8257 H   0  0  0  0  0  0  0  0  0  0  0  0
  151.4376  142.0819  160.1830 H   0  0  0  0  0  0  0  0  0  0  0  0
  151.5898  138.7789  157.2910 H   0  0  0  0  0  0  0  0  0  0  0  0
  152.6852  137.4568  157.1974 H   0  0  0  0  0  0  0  0  0  0  0  0
  150.5324  136.5999  156.3897 H   0  0  0  0  0  0  0  0  0  0  0  0
  149.0013  135.3305  158.5971 H   0  0  0  0  0  0  0  0  0  0  0  0
  148.2297  135.8938  157.1354 H   0  0  0  0  0  0  0  0  0  0  0  0
  148.6161  133.4117  157.0647 H   0  0  0  0  0  0  0  0  0  0  0  0
  148.7463  134.2052  154.7762 H   0  0  0  0  0  0  0  0  0  0  0  0
  150.2744  135.0391  155.0919 H   0  0  0  0  0  0  0  0  0  0  0  0
  149.7928  132.0416  155.0964 H   0  0  0  0  0  0  0  0  0  0  0  0
  151.0383  132.9156  154.1953 H   0  0  0  0  0  0  0  0  0  0  0  0
  151.5774  131.8243  156.6639 H   0  0  0  0  0  0  0  0  0  0  0  0
  152.2812  133.3745  156.1987 H   0  0  0  0  0  0  0  0  0  0  0  0
  1  2  3  0  0  0  0
  2  3  1  0  0  0  0
  3 22  1  0  0  0  0
  3  4  2  0  0  0  0
  4  5  1  0  0  0  0
  4 24  1  0  0  0  0
  5  6  1  0  0  0  0
  5  9  1  0  0  0  0
  6  8  1  0  0  0  0
  6  7  1  0  0  0  0
  6 25  1  0  0  0  0
  7  8  1  0  0  0  0
  7 26  1  0  0  0  0
  7 27  1  0  0  0  0
  8 28  1  0  0  0  0
  8 29  1  0  0  0  0
  9 10  2  0  0  0  0
  9 11  1  0  0  0  0
 11 12  1  0  0  0  0
 11 22  1  0  0  0  0
 12 13  1  0  0  0  0
 12 30  1  0  0  0  0
 12 31  1  0  0  0  0
 13 14  2  0  0  0  0
 13 15  1  0  0  0  0
 15 16  1  0  0  0  0
 15 32  1  0  0  0  0
 16 17  1  0  0  0  0
 16 33  1  0  0  0  0
 16 34  1  0  0  0  0
 17 21  1  0  0  0  0
 17 18  1  0  0  0  0
 17 35  1  0  0  0  0
 18 19  1  0  0  0  0
 18 36  1  0  0  0  0
 18 37  1  0  0  0  0
 19 20  1  0  0  0  0
 19 38  1  0  0  0  0
 19 39  1  0  0  0  0
 20 21  1  0  0  0  0
 20 40  1  0  0  0  0
 20 41  1  0  0  0  0
 22 23  2  0  0  0  0
M  END
> <s_m_source_file>
AV-unprocessed.smi

> <i_m_source_file_index>
2182

> <i_lp_mmshare_version>
43012

> <i_f3d_flags>
0

> <s_epik_input>
TiNDYzFbY0hdbihbQ0hdMltDSDJdW0NIMl0yKWMoPU8pbihjMT1PKVtDSDJdQyg9TylbTkhdW0NIMl1bQ0BASF0zW0NIMl1bQ0gyXVtDSDJdTzM=

> <s_epik_cmdline>
J2VwaWtfcHl0aG9uJywgJy1waCcsICc3LjAnLCAnLXRuJywgJzgnLCAnLW1hJywgJzIwMCcsICctbWV0YWxfYmluZGluZycsICctaW1hZScsICc8aW5maWxlLm1hZT4nLCAnLW9tYWUnLCAnPG91dGZpbGUubWFlPic=

> <r_lp_tautomer_probability>
1

> <r_epik_Ionization_Penalty>
2.69429e-08

> <r_epik_Ionization_Penalty_Charging>
8.38654e-11

> <r_epik_Ionization_Penalty_Neutral>
2.6859e-08

> <r_epik_State_Penalty>
-0

> <r_epik_Charging_Adjusted_Penalty>
8.38654e-11

> <i_epik_Tot_Q>
0

> <i_epik_Tot_abs_Q>
0

> <r_epik_Metal_State_Penalty>
-0

> <b_epik_Metal_Only>
0

> <s_lp_Force_Field>
OPLS_2005

> <r_lp_Energy>
43.7942

> <b_lp_Chiralities_Consistent>
1

> <s_lp_Variant>
AV-unprocessed.smi:2182-2

> <Gold.Version>
5.8.1

> <Gold.Id.Protein>
6NUR|6NUR_protein|mol2

> <Gold.PLP.Fitness>
43.2165

> <Gold.PLP.PLP>
-37.2477

> <Gold.PLP.part.hbond>
-3.0000

> <Gold.PLP.part.metal>
0.0000

> <Gold.PLP.part.buried>
-5.9763

> <Gold.PLP.part.nonpolar>
-28.7085

> <Gold.PLP.part.repulsive>
0.0811

> <Gold.PLP.ligand.clash>
0.0000

> <Gold.PLP.ligand.torsion>
0.1921

> <Gold.PLP.Chemscore.Hbond>
2.0416

> <Gold.PLP.Chemscore.CHOScore>
0.0000

> <Gold.PLP.Chemscore.Metal>
0.0000

> <Gold.Chemscore.Hbonds>
donor molecule, donor type, donor heavy atom, donor atom, acceptor molecule, acceptor atom, score
      P1  H  6896  6907       L1    21  0.54
      P1  H  6896  6908       L1    14  0.96
      P1  H  6896  6909       L1    23  0.54

> <Gold.PLP.Chemscore.Internal.Correction>
0.2282

> <Gold.Rescore>
     Score         DG    S(hbond)    S(metal)    S(lipo)     H(rot)  DE(clash)    DE(int)     intcor
      9.45     -14.79       1.91        0.00      70.48       2.08       0.02       5.32       ----

> <Gold.Chemscore.Fitness>
9.4521

> <Gold.Chemscore.DG>
-14.7888

> <Gold.Chemscore.ZeroCoef>
-5.4800

> <Gold.Chemscore.Hbond>
1.9105

> <Gold.Chemscore.Metal>
0.0000

> <Gold.Chemscore.Lipo>
70.4847

> <Gold.Chemscore.Internal_Hbond>
0.0000

> <Gold.Chemscore.DEClash>
0.0212

> <Gold.Chemscore.DEInternal>
5.3155

> <Gold.Chemscore.Rot>
2.0778

> <Gold.Chemscore.Internal.Correction>
   9.000000E+99

> <Gold.Chemscore.Hbonds>
donor molecule, donor type, donor heavy atom, donor atom, acceptor molecule, acceptor atom, score
      P1  H  6896  6907       L1    21  0.47
      P1  H  6896  6908       L1    14  0.36
      P1  H  6896  6909       L1    23  0.51

> <Gold.Chemscore.Hbond.Weighted>
-6.3811

> <Gold.Chemscore.Metal.Weighted>
-0.0000

> <Gold.Chemscore.Lipo.Weighted>
-8.2467

> <Gold.Chemscore.Internal_Hbond.Weighted>
0.0000

> <Gold.Chemscore.DEClash.Weighted>
0.0212

> <Gold.Chemscore.DEInternal.Weighted>
5.3155

> <Gold.Chemscore.Rot.Weighted>
5.3191

> <Gold.Chemscore.Internal.Correction.Weighted>
   9.000000E+99

> <Gold.Protein.RotatedTorsions>
[ 6907 6896 6895 6894 ] final -166.26 input  -60.11 | X-H torsion
[ 7974 7965 7964 7962 ] final  126.17 input  175.53 | X-H torsion
[ 8008 7997 7996 7995 ] final   59.41 input   59.86 | X-H torsion
[ 10167 10162 10161 10158 ] final -153.59 input  -65.29 | X-H torsion
[ 10718 10713 10712 10709 ] final  -98.66 input   66.30 | X-H torsion
[ 10763 10752 10751 10750 ] final -162.00 input  -60.55 | X-H torsion
[ 11005 11000 10999 10996 ] final   86.41 input  -57.11 | X-H torsion

> <Gold.Protein.ActiveResidues>
 VAL166  LYS551  ARG553  GLY616  TRP617  ASP618  TYR619  PRO620  LYS621  CYS622 
 ASP623  PHE694  ASN695  SER759  ASP760  ASP761  ALA762  ILE779  LEU786  VAL792 
 PHE793  MET794  SER795  GLU796  ALA797  LYS798  CYS799  TRP800  GLU811  SER814 

> <Gold.Protein.RotatedAtoms>
  151.4407  133.3644  159.2781 H   0  0  0  0  0  0  0  0  0  0  0  0  # atno 6907 bound_to 6896
  150.9159  134.8578  159.7467 H   0  0  0  0  0  0  0  0  0  0  0  0  # atno 6908 bound_to 6896
  152.4957  134.4341  159.9574 H   0  0  0  0  0  0  0  0  0  0  0  0  # atno 6909 bound_to 6896
  145.0647  139.3777  143.4988 H   0  0  0  0  0  0  0  0  0  0  0  0  # atno 7974 bound_to 7965
  155.5657  140.3489  155.4502 H   0  0  0  0  0  0  0  0  0  0  0  0  # atno 8008 bound_to 7997
  156.0481  140.1311  157.0106 H   0  0  0  0  0  0  0  0  0  0  0  0  # atno 8009 bound_to 7997
  154.4422  140.1010  156.6321 H   0  0  0  0  0  0  0  0  0  0  0  0  # atno 8010 bound_to 7997
  139.7084  143.9148  152.2458 H   0  0  0  0  0  0  0  0  0  0  0  0  # atno 10167 bound_to 10162
  156.0113  130.5248  150.6556 H   0  0  0  0  0  0  0  0  0  0  0  0  # atno 10718 bound_to 10713
  154.7253  135.3034  154.8981 H   0  0  0  0  0  0  0  0  0  0  0  0  # atno 10763 bound_to 10752
  153.9840  135.6727  153.4755 H   0  0  0  0  0  0  0  0  0  0  0  0  # atno 10764 bound_to 10752
  153.0870  135.4979  154.8534 H   0  0  0  0  0  0  0  0  0  0  0  0  # atno 10765 bound_to 10752
  139.8945  134.8353  156.2717 H   0  0  0  0  0  0  0  0  0  0  0  0  # atno 11005 bound_to 11000
  146.3526  140.0362  142.8646 LP  0  0  0  0  0  0  0  0  0  0  0  0  # atno 17320 bound_to 7965
  145.1366  140.9548  143.4513 LP  0  0  0  0  0  0  0  0  0  0  0  0  # atno 17321 bound_to 7965
  139.9010  144.6911  150.8665 LP  0  0  0  0  0  0  0  0  0  0  0  0  # atno 17342 bound_to 10162
  140.7727  143.3513  151.2008 LP  0  0  0  0  0  0  0  0  0  0  0  0  # atno 17343 bound_to 10162
  157.4309  131.0849  151.1040 LP  0  0  0  0  0  0  0  0  0  0  0  0  # atno 17370 bound_to 10713
  157.1613  130.6227  149.5611 LP  0  0  0  0  0  0  0  0  0  0  0  0  # atno 17371 bound_to 10713
  141.0096  133.7103  156.1091 LP  0  0  0  0  0  0  0  0  0  0  0  0  # atno 17394 bound_to 11000
  140.7385  134.4176  157.5557 LP  0  0  0  0  0  0  0  0  0  0  0  0  # atno 17395 bound_to 11000

$$$$
