AV-unprocessed.smi:3237|AV-procd|sdf|12368|dock8
  -GOLD-   2272018233D 1   1.00000     0.00000
 Structure written by MMmdl.
 36 38  0  0  0  0  0  0  0  0  3 V2000
  146.5629  135.2256  163.0767 C   0  0  0  0  0  0  0  0  0  0  0  0
  147.3459  135.5978  161.8646 C   0  0  0  0  0  0  0  0  0  0  0  0
  147.8177  134.8753  160.8056 C   0  0  0  0  0  0  0  0  0  0  0  0
  148.4871  135.8519  160.0188 C   0  0  0  0  0  0  0  0  0  0  0  0
  149.1149  135.6312  158.8535 N   0  5  0  0  0  0  0  0  0  0  0  0
  149.6046  136.6686  158.1376 C   0  0  0  0  0  0  0  0  0  0  0  0
  150.5303  137.4145  158.4655 O   0  0  0  0  0  0  0  0  0  0  0  0
  148.9832  136.8528  156.9649 N   0  0  0  0  0  0  0  0  0  0  0  0
  149.3030  137.8897  155.9909 C   0  0  1  0  0  0  0  0  0  0  0  0
  150.6728  137.7445  155.3354 C   0  0  0  0  0  0  0  0  0  0  0  0
  150.5183  138.5720  154.0548 C   0  0  0  0  0  0  0  0  0  0  0  0
  149.0777  138.5434  153.6979 N   0  3  2  0  0  0  0  0  0  0  0  0
  148.5197  139.8776  153.3864 C   0  0  0  0  0  0  0  0  0  0  0  0
  147.9975  140.6123  154.5979 C   0  0  0  0  0  0  0  0  0  0  0  0
  147.0313  139.9794  153.6201 C   0  0  0  0  0  0  0  0  0  0  0  0
  148.3635  137.8436  154.7879 C   0  0  0  0  0  0  0  0  0  0  0  0
  148.4133  137.0628  160.5451 N   0  0  0  0  0  0  0  0  0  0  0  0
  147.6897  136.9072  161.7334 O   0  0  0  0  0  0  0  0  0  0  0  0
  145.8743  134.4096  162.8573 H   0  0  0  0  0  0  0  0  0  0  0  0
  145.9783  136.0711  163.4401 H   0  0  0  0  0  0  0  0  0  0  0  0
  147.2264  134.9026  163.8789 H   0  0  0  0  0  0  0  0  0  0  0  0
  147.7062  133.8168  160.6241 H   0  0  0  0  0  0  0  0  0  0  0  0
  148.2291  136.2213  156.7374 H   0  0  0  0  0  0  0  0  0  0  0  0
  149.2256  138.8724  156.4605 H   0  0  0  0  0  0  0  0  0  0  0  0
  151.4883  138.0949  155.9689 H   0  0  0  0  0  0  0  0  0  0  0  0
  150.8642  136.6999  155.0845 H   0  0  0  0  0  0  0  0  0  0  0  0
  150.8393  139.5975  154.2458 H   0  0  0  0  0  0  0  0  0  0  0  0
  151.1307  138.1834  153.2409 H   0  0  0  0  0  0  0  0  0  0  0  0
  148.9916  140.4222  152.5702 H   0  0  0  0  0  0  0  0  0  0  0  0
  148.1083  140.1412  155.5730 H   0  0  0  0  0  0  0  0  0  0  0  0
  148.0701  141.6980  154.5954 H   0  0  0  0  0  0  0  0  0  0  0  0
  146.4664  140.6483  152.9739 H   0  0  0  0  0  0  0  0  0  0  0  0
  146.4986  139.0873  153.9452 H   0  0  0  0  0  0  0  0  0  0  0  0
  148.2007  136.8120  154.4718 H   0  0  0  0  0  0  0  0  0  0  0  0
  147.3867  138.2783  155.0054 H   0  0  0  0  0  0  0  0  0  0  0  0
  148.9755  137.9761  152.8685 H   0  0  0  0  0  0  0  0  0  0  0  0
  1  2  1  0  0  0  0
  1 19  1  0  0  0  0
  1 20  1  0  0  0  0
  1 21  1  0  0  0  0
  2 18  1  0  0  0  0
  2  3  2  0  0  0  0
  3  4  1  0  0  0  0
  3 22  1  0  0  0  0
  4  5  1  0  0  0  0
  4 17  2  0  0  0  0
  5  6  1  0  0  0  0
  6  7  2  0  0  0  0
  6  8  1  0  0  0  0
  8  9  1  0  0  0  0
  8 23  1  0  0  0  0
  9 16  1  0  0  0  0
  9 10  1  0  0  0  0
  9 24  1  0  0  0  0
 10 11  1  0  0  0  0
 10 25  1  0  0  0  0
 10 26  1  0  0  0  0
 11 12  1  0  0  0  0
 11 27  1  0  0  0  0
 11 28  1  0  0  0  0
 12 13  1  0  0  0  0
 12 16  1  0  0  0  0
 12 36  1  0  0  0  0
 13 15  1  0  0  0  0
 13 14  1  0  0  0  0
 13 29  1  0  0  0  0
 14 15  1  0  0  0  0
 14 30  1  0  0  0  0
 14 31  1  0  0  0  0
 15 32  1  0  0  0  0
 15 33  1  0  0  0  0
 16 34  1  0  0  0  0
 16 35  1  0  0  0  0
 17 18  1  0  0  0  0
M  CHG  1   5  -1
M  CHG  1  12   1
M  END
> <s_m_source_file>
AV-unprocessed.smi

> <i_m_source_file_index>
3237

> <i_lp_mmshare_version>
43012

> <i_f3d_flags>
0

> <s_epik_input>
W0NIM11jMVtjSF1jKG5vMSlbTkhdQyg9TylbTkhdW0NAQEhdMltDSDJdW0NIMl1OKFtDSDJdMilbQ0hdM1tDSDJdW0NIMl0z

> <s_epik_cmdline>
J2VwaWtfcHl0aG9uJywgJy1waCcsICc3LjAnLCAnLXRuJywgJzgnLCAnLW1hJywgJzIwMCcsICctbWV0YWxfYmluZGluZycsICctaW1hZScsICc8aW5maWxlLm1hZT4nLCAnLW9tYWUnLCAnPG91dGZpbGUubWFlPic=

> <r_epik_Ionization_Penalty>
6.08472

> <r_epik_Ionization_Penalty_Charging>
6.08464

> <r_epik_Ionization_Penalty_Neutral>
8.41751e-05

> <r_epik_State_Penalty>
6.08438

> <r_epik_Charging_Adjusted_Penalty>
12.169

> <i_epik_Tot_Q>
0

> <i_epik_Tot_abs_Q>
2

> <r_epik_Metal_State_Penalty>
2.0369

> <b_epik_Metal_Only>
1

> <s_lp_Force_Field>
OPLS_2005

> <r_lp_Energy>
24.4971

> <b_lp_Chiralities_Consistent>
1

> <s_lp_Variant>
AV-unprocessed.smi:3237-6

> <Gold.Version>
5.8.1

> <Gold.Id.Protein>
6NUR|6NUR_protein|mol2

> <Gold.PLP.Fitness>
36.0711

> <Gold.PLP.PLP>
-25.3760

> <Gold.PLP.part.hbond>
-7.0000

> <Gold.PLP.part.metal>
0.0000

> <Gold.PLP.part.buried>
-0.3499

> <Gold.PLP.part.nonpolar>
-19.7867

> <Gold.PLP.part.repulsive>
0.0690

> <Gold.PLP.ligand.clash>
0.0000

> <Gold.PLP.ligand.torsion>
1.2866

> <Gold.PLP.Chemscore.Hbond>
4.0000

> <Gold.PLP.Chemscore.CHOScore>
0.0000

> <Gold.PLP.Chemscore.Metal>
0.0000

> <Gold.Chemscore.Hbonds>
donor molecule, donor type, donor heavy atom, donor atom, acceptor molecule, acceptor atom, score
      L1  H    12    36       P1  7948  2.00
      P1  H  6896  6908       L1     5  1.95

> <Gold.PLP.Chemscore.Internal.Correction>
1.2683

> <Gold.Rescore>
     Score         DG    S(hbond)    S(metal)    S(lipo)     H(rot)  DE(clash)    DE(int)     intcor
     12.45     -15.25       1.85        0.00      58.02       1.25       1.41       1.39       ----

> <Gold.Chemscore.Fitness>
12.4486

> <Gold.Chemscore.DG>
-15.2490

> <Gold.Chemscore.ZeroCoef>
-5.4800

> <Gold.Chemscore.Hbond>
1.8479

> <Gold.Chemscore.Metal>
0.0000

> <Gold.Chemscore.Lipo>
58.0171

> <Gold.Chemscore.Internal_Hbond>
0.0000

> <Gold.Chemscore.DEClash>
1.4079

> <Gold.Chemscore.DEInternal>
1.3926

> <Gold.Chemscore.Rot>
1.2464

> <Gold.Chemscore.Internal.Correction>
   9.000000E+99

> <Gold.Chemscore.Hbonds>
donor molecule, donor type, donor heavy atom, donor atom, acceptor molecule, acceptor atom, score
      L1  H    12    36       P1  7948  0.95
      P1  H  6896  6908       L1     5  0.17

> <Gold.Chemscore.Hbond.Weighted>
-6.1719

> <Gold.Chemscore.Metal.Weighted>
-0.0000

> <Gold.Chemscore.Lipo.Weighted>
-6.7880

> <Gold.Chemscore.Internal_Hbond.Weighted>
0.0000

> <Gold.Chemscore.DEClash.Weighted>
1.4079

> <Gold.Chemscore.DEInternal.Weighted>
1.3926

> <Gold.Chemscore.Rot.Weighted>
3.1909

> <Gold.Chemscore.Internal.Correction.Weighted>
   9.000000E+99

> <Gold.Protein.RotatedTorsions>
[ 6907 6896 6895 6894 ] final  158.93 input  -60.11 | X-H torsion
[ 7974 7965 7964 7962 ] final  166.33 input  175.53 | X-H torsion
[ 8008 7997 7996 7995 ] final  -71.40 input   59.86 | X-H torsion
[ 10167 10162 10161 10158 ] final  101.68 input  -65.29 | X-H torsion
[ 10718 10713 10712 10709 ] final   35.68 input   66.30 | X-H torsion
[ 10763 10752 10751 10750 ] final   72.94 input  -60.55 | X-H torsion
[ 11005 11000 10999 10996 ] final  -91.85 input  -57.11 | X-H torsion

> <Gold.Protein.ActiveResidues>
 VAL166  LYS551  ARG553  GLY616  TRP617  ASP618  TYR619  PRO620  LYS621  CYS622 
 ASP623  PHE694  ASN695  SER759  ASP760  ASP761  ALA762  ILE779  LEU786  VAL792 
 PHE793  MET794  SER795  GLU796  ALA797  LYS798  CYS799  TRP800  GLU811  SER814 

> <Gold.Protein.RotatedAtoms>
  151.9931  133.3798  159.4151 H   0  0  0  0  0  0  0  0  0  0  0  0  # atno 6907 bound_to 6896
  150.6919  134.3915  159.5088 H   0  0  0  0  0  0  0  0  0  0  0  0  # atno 6908 bound_to 6896
  152.1651  134.8880  160.0589 H   0  0  0  0  0  0  0  0  0  0  0  0  # atno 6909 bound_to 6896
  144.7466  139.8600  143.6380 H   0  0  0  0  0  0  0  0  0  0  0  0  # atno 7974 bound_to 7965
  154.5085  140.0816  156.7942 H   0  0  0  0  0  0  0  0  0  0  0  0  # atno 8008 bound_to 7997
  155.3839  140.3429  155.4230 H   0  0  0  0  0  0  0  0  0  0  0  0  # atno 8009 bound_to 7997
  156.1544  140.1568  156.8703 H   0  0  0  0  0  0  0  0  0  0  0  0  # atno 8010 bound_to 7997
  139.7416  144.7009  151.0566 H   0  0  0  0  0  0  0  0  0  0  0  0  # atno 10167 bound_to 10162
  157.3256  130.7471  149.6814 H   0  0  0  0  0  0  0  0  0  0  0  0  # atno 10718 bound_to 10713
  153.0490  135.5081  154.7819 H   0  0  0  0  0  0  0  0  0  0  0  0  # atno 10763 bound_to 10752
  154.6696  135.2951  154.9762 H   0  0  0  0  0  0  0  0  0  0  0  0  # atno 10764 bound_to 10752
  154.0585  135.6694  153.4861 H   0  0  0  0  0  0  0  0  0  0  0  0  # atno 10765 bound_to 10752
  141.1535  133.7782  156.9937 H   0  0  0  0  0  0  0  0  0  0  0  0  # atno 11005 bound_to 11000
  146.1355  139.4399  143.0142 LP  0  0  0  0  0  0  0  0  0  0  0  0  # atno 17320 bound_to 7965
  145.7098  141.0110  143.1459 LP  0  0  0  0  0  0  0  0  0  0  0  0  # atno 17321 bound_to 7965
  140.7786  143.4917  150.9885 LP  0  0  0  0  0  0  0  0  0  0  0  0  # atno 17342 bound_to 10162
  139.8605  143.7320  152.3173 LP  0  0  0  0  0  0  0  0  0  0  0  0  # atno 17343 bound_to 10162
  155.9690  130.4210  150.4449 LP  0  0  0  0  0  0  0  0  0  0  0  0  # atno 17370 bound_to 10713
  157.2472  131.0538  151.2401 LP  0  0  0  0  0  0  0  0  0  0  0  0  # atno 17371 bound_to 10713
  140.0986  134.9549  157.1888 LP  0  0  0  0  0  0  0  0  0  0  0  0  # atno 17394 bound_to 11000
  140.3349  134.2768  155.7221 LP  0  0  0  0  0  0  0  0  0  0  0  0  # atno 17395 bound_to 11000

$$$$
