AV-unprocessed.smi:2526|AV-procd|sdf|9940|dock5
  -GOLD-   2272013583D 1   1.00000     0.00000
 Structure written by MMmdl.
 28 29  0  0  0  0  0  0  0  0  1 V2000
  152.1807  145.4402  160.2266 C   0  0  0  0  0  0  0  0  0  0  0  0
  151.7160  144.4235  159.3077 N   0  0  0  0  0  0  0  0  0  0  0  0
  151.3033  143.1384  159.5833 C   0  0  0  0  0  0  0  0  0  0  0  0
  150.9609  142.5480  158.3969 C   0  0  0  0  0  0  0  0  0  0  0  0
  150.4487  141.1462  158.1259 C   0  0  2  0  0  0  0  0  0  0  0  0
  151.5416  140.1725  158.2022 N   0  0  0  0  0  0  0  0  0  0  0  0
  152.2262  139.6510  157.1665 C   0  0  0  0  0  0  0  0  0  0  0  0
  153.2046  138.9295  157.3453 O   0  0  0  0  0  0  0  0  0  0  0  0
  151.7433  139.9222  155.7311 C   0  0  0  0  0  0  0  0  0  0  0  0
  150.7210  141.0666  155.6115 C   0  0  0  0  0  0  0  0  0  0  0  0
  149.7147  141.0202  156.7681 C   0  0  2  0  0  0  0  0  0  0  0  0
  148.6817  142.0261  156.5972 N   0  0  0  0  0  0  0  0  0  0  0  0
  151.2007  143.5806  157.4440 C   0  0  0  0  0  0  0  0  0  0  0  0
  151.6512  144.6981  157.9897 N   0  0  0  0  0  0  0  0  0  0  0  0
  152.1953  145.0468  161.2434 H   0  0  0  0  0  0  0  0  0  0  0  0
  151.5154  146.3034  160.1900 H   0  0  0  0  0  0  0  0  0  0  0  0
  153.1893  145.7518  159.9534 H   0  0  0  0  0  0  0  0  0  0  0  0
  151.2920  142.7506  160.5914 H   0  0  0  0  0  0  0  0  0  0  0  0
  149.7431  140.8679  158.9095 H   0  0  0  0  0  0  0  0  0  0  0  0
  151.8611  139.9353  159.1302 H   0  0  0  0  0  0  0  0  0  0  0  0
  152.6015  140.1196  155.0883 H   0  0  0  0  0  0  0  0  0  0  0  0
  151.2902  138.9997  155.3668 H   0  0  0  0  0  0  0  0  0  0  0  0
  151.2403  142.0259  155.5967 H   0  0  0  0  0  0  0  0  0  0  0  0
  150.2013  140.9869  154.6560 H   0  0  0  0  0  0  0  0  0  0  0  0
  149.2141  140.0514  156.7375 H   0  0  0  0  0  0  0  0  0  0  0  0
  148.3037  142.2834  157.4978 H   0  0  0  0  0  0  0  0  0  0  0  0
  149.0833  142.8640  156.2012 H   0  0  0  0  0  0  0  0  0  0  0  0
  151.0620  143.5478  156.3735 H   0  0  0  0  0  0  0  0  0  0  0  0
  1  2  1  0  0  0  0
  1 15  1  0  0  0  0
  1 16  1  0  0  0  0
  1 17  1  0  0  0  0
  2 14  1  0  0  0  0
  2  3  1  0  0  0  0
  3  4  2  0  0  0  0
  3 18  1  0  0  0  0
  4  5  1  0  0  0  0
  4 13  1  0  0  0  0
  5 11  1  0  0  0  0
  5  6  1  0  0  0  0
  5 19  1  0  0  0  0
  6  7  1  0  0  0  0
  6 20  1  0  0  0  0
  7  8  2  0  0  0  0
  7  9  1  0  0  0  0
  9 10  1  0  0  0  0
  9 21  1  0  0  0  0
  9 22  1  0  0  0  0
 10 11  1  0  0  0  0
 10 23  1  0  0  0  0
 10 24  1  0  0  0  0
 11 12  1  0  0  0  0
 11 25  1  0  0  0  0
 12 26  1  0  0  0  0
 12 27  1  0  0  0  0
 13 14  2  0  0  0  0
 13 28  1  0  0  0  0
M  END
> <s_m_source_file>
AV-unprocessed.smi

> <i_m_source_file_index>
2526

> <i_lp_mmshare_version>
43012

> <i_f3d_flags>
0

> <s_epik_input>
W0NIM11uMVtjSF1jKFtjSF1uMSlbQ0BASF0yW05IXUMoPU8pW0NIMl1bQ0gyXVtDQEhdMltOSDJd

> <s_epik_cmdline>
J2VwaWtfcHl0aG9uJywgJy1waCcsICc3LjAnLCAnLXRuJywgJzgnLCAnLW1hJywgJzIwMCcsICctbWV0YWxfYmluZGluZycsICctaW1hZScsICc8aW5maWxlLm1hZT4nLCAnLW9tYWUnLCAnPG91dGZpbGUubWFlPic=

> <r_lp_tautomer_probability>
1

> <r_epik_Ionization_Penalty>
2.50279

> <r_epik_Ionization_Penalty_Charging>
0

> <r_epik_Ionization_Penalty_Neutral>
2.50279

> <r_epik_State_Penalty>
2.66754

> <r_epik_Charging_Adjusted_Penalty>
2.66754

> <i_epik_Tot_Q>
0

> <i_epik_Tot_abs_Q>
0

> <r_epik_Metal_State_Penalty>
2.66721

> <b_epik_Metal_Only>
0

> <s_lp_Force_Field>
OPLS_2005

> <r_lp_Energy>
9.07017

> <b_lp_Chiralities_Consistent>
1

> <s_lp_Variant>
AV-unprocessed.smi:2526-7

> <Gold.Version>
5.8.1

> <Gold.Id.Protein>
6NUR|6NUR_protein|mol2

> <Gold.PLP.Fitness>
32.4337

> <Gold.PLP.PLP>
-25.4457

> <Gold.PLP.part.hbond>
-2.0000

> <Gold.PLP.part.metal>
0.0000

> <Gold.PLP.part.buried>
-1.0744

> <Gold.PLP.part.nonpolar>
-21.0742

> <Gold.PLP.part.repulsive>
0.2293

> <Gold.PLP.ligand.clash>
0.0000

> <Gold.PLP.ligand.torsion>
0.4986

> <Gold.PLP.Chemscore.Hbond>
2.0000

> <Gold.PLP.Chemscore.CHOScore>
0.6558

> <Gold.PLP.Chemscore.Metal>
0.0000

> <Gold.Chemscore.Hbonds>
donor molecule, donor type, donor heavy atom, donor atom, acceptor molecule, acceptor atom, score
      L1  H    12    27       P1  8028  0.98
      P1  H  7997  8010       L1     8  0.95
      L1  C    13    28       P1  8028  0.59

> <Gold.PLP.Chemscore.Internal.Correction>
0.0176

> <Gold.Rescore>
     Score         DG    S(hbond)    S(metal)    S(lipo)     H(rot)  DE(clash)    DE(int)     intcor
     15.13     -16.62       1.94        0.00      61.87       1.00       0.92       0.57       ----

> <Gold.Chemscore.Fitness>
15.1317

> <Gold.Chemscore.DG>
-16.6229

> <Gold.Chemscore.ZeroCoef>
-5.4800

> <Gold.Chemscore.Hbond>
1.9352

> <Gold.Chemscore.Metal>
0.0000

> <Gold.Chemscore.Lipo>
61.8735

> <Gold.Chemscore.Internal_Hbond>
0.0000

> <Gold.Chemscore.DEClash>
0.9172

> <Gold.Chemscore.DEInternal>
0.5740

> <Gold.Chemscore.Rot>
1.0000

> <Gold.Chemscore.Internal.Correction>
   9.000000E+99

> <Gold.Chemscore.Hbonds>
donor molecule, donor type, donor heavy atom, donor atom, acceptor molecule, acceptor atom, score
      L1  H    12    27       P1  8028  0.93
      P1  H  7997  8010       L1     8  0.22

> <Gold.Chemscore.Hbond.Weighted>
-6.4637

> <Gold.Chemscore.Metal.Weighted>
-0.0000

> <Gold.Chemscore.Lipo.Weighted>
-7.2392

> <Gold.Chemscore.Internal_Hbond.Weighted>
0.0000

> <Gold.Chemscore.DEClash.Weighted>
0.9172

> <Gold.Chemscore.DEInternal.Weighted>
0.5740

> <Gold.Chemscore.Rot.Weighted>
2.5600

> <Gold.Chemscore.Internal.Correction.Weighted>
   9.000000E+99

> <Gold.Protein.RotatedTorsions>
[ 6907 6896 6895 6894 ] final -143.33 input  -60.11 | X-H torsion
[ 7974 7965 7964 7962 ] final  173.31 input  175.53 | X-H torsion
[ 8008 7997 7996 7995 ] final   48.93 input   59.86 | X-H torsion
[ 10167 10162 10161 10158 ] final   71.11 input  -65.29 | X-H torsion
[ 10718 10713 10712 10709 ] final -112.12 input   66.30 | X-H torsion
[ 10763 10752 10751 10750 ] final   92.36 input  -60.55 | X-H torsion
[ 11005 11000 10999 10996 ] final   75.92 input  -57.11 | X-H torsion

> <Gold.Protein.ActiveResidues>
 VAL166  LYS551  ARG553  GLY616  TRP617  ASP618  TYR619  PRO620  LYS621  CYS622 
 ASP623  PHE694  ASN695  SER759  ASP760  ASP761  ALA762  ILE779  LEU786  VAL792 
 PHE793  MET794  SER795  GLU796  ALA797  LYS798  CYS799  TRP800  GLU811  SER814 

> <Gold.Protein.RotatedAtoms>
  151.0990  133.5258  159.2610 H   0  0  0  0  0  0  0  0  0  0  0  0  # atno 6907 bound_to 6896
  151.2096  135.0475  159.8916 H   0  0  0  0  0  0  0  0  0  0  0  0  # atno 6908 bound_to 6896
  152.5441  134.0807  159.8288 H   0  0  0  0  0  0  0  0  0  0  0  0  # atno 6909 bound_to 6896
  144.7246  139.9629  143.6435 H   0  0  0  0  0  0  0  0  0  0  0  0  # atno 7974 bound_to 7965
  155.3937  140.3434  155.4253 H   0  0  0  0  0  0  0  0  0  0  0  0  # atno 8008 bound_to 7997
  156.1543  140.1580  156.8752 H   0  0  0  0  0  0  0  0  0  0  0  0  # atno 8009 bound_to 7997
  154.5080  140.0797  156.7915 H   0  0  0  0  0  0  0  0  0  0  0  0  # atno 8010 bound_to 7997
  140.0497  144.5322  150.7373 H   0  0  0  0  0  0  0  0  0  0  0  0  # atno 10167 bound_to 10162
  156.0687  130.5903  150.8466 H   0  0  0  0  0  0  0  0  0  0  0  0  # atno 10718 bound_to 10713
  153.2183  135.4364  155.0460 H   0  0  0  0  0  0  0  0  0  0  0  0  # atno 10763 bound_to 10752
  154.8237  135.3350  154.6965 H   0  0  0  0  0  0  0  0  0  0  0  0  # atno 10764 bound_to 10752
  153.7398  135.7005  153.5025 H   0  0  0  0  0  0  0  0  0  0  0  0  # atno 10765 bound_to 10752
  139.9322  134.7558  156.1331 H   0  0  0  0  0  0  0  0  0  0  0  0  # atno 11005 bound_to 11000
  146.0623  139.3616  143.0574 LP  0  0  0  0  0  0  0  0  0  0  0  0  # atno 17320 bound_to 7965
  145.8076  140.9741  143.0965 LP  0  0  0  0  0  0  0  0  0  0  0  0  # atno 17321 bound_to 7965
  140.7222  143.2600  151.4239 LP  0  0  0  0  0  0  0  0  0  0  0  0  # atno 17342 bound_to 10162
  139.5961  144.1394  152.2145 LP  0  0  0  0  0  0  0  0  0  0  0  0  # atno 17343 bound_to 10162
  157.5745  131.0946  150.9367 LP  0  0  0  0  0  0  0  0  0  0  0  0  # atno 17370 bound_to 10713
  156.9576  130.5443  149.5284 LP  0  0  0  0  0  0  0  0  0  0  0  0  # atno 17371 bound_to 10713
  141.0916  133.6712  156.2553 LP  0  0  0  0  0  0  0  0  0  0  0  0  # atno 17394 bound_to 11000
  140.6172  134.5398  157.5542 LP  0  0  0  0  0  0  0  0  0  0  0  0  # atno 17395 bound_to 11000

$$$$
