AV-unprocessed.smi:11|AV-procd|sdf|59|dock8
  -GOLD-   2262015173D 1   1.00000     0.00000
 Structure written by MMmdl.
 33 35  0  0  0  0  0  0  0  0  1 V2000
  149.5784  138.9830  157.9776 C   0  0  0  0  0  0  0  0  0  0  0  0
  149.5937  139.1678  156.4506 C   0  0  0  0  0  0  0  0  0  0  0  0
  150.3981  140.3897  155.9407 C   0  0  1  0  0  0  0  0  0  0  0  0
  150.3257  140.4226  154.5284 O   0  0  0  0  0  0  0  0  0  0  0  0
  149.8539  141.7036  156.5162 C   0  0  0  0  0  0  0  0  0  0  0  0
  150.5970  141.8367  157.8431 C   0  0  0  0  0  0  0  0  0  0  0  0
  151.9083  141.2503  157.5992 N   0  0  0  0  0  0  0  0  0  0  0  0
  152.7596  140.9278  158.6778 C   0  0  0  0  0  0  0  0  0  0  0  0
  153.5089  139.7987  158.5901 N   0  0  0  0  0  0  0  0  0  0  0  0
  154.3293  139.4993  159.6287 C   0  0  0  0  0  0  0  0  0  0  0  0
  154.5027  140.1926  160.7805 N   0  0  0  0  0  0  0  0  0  0  0  0
  153.7470  141.3240  160.8993 C   0  0  0  0  0  0  0  0  0  0  0  0
  153.7072  142.1723  161.9216 N   0  0  0  0  0  0  0  0  0  0  0  0
  152.8069  143.1142  161.5943 C   0  0  0  0  0  0  0  0  0  0  0  0
  152.2043  142.9032  160.2956 C   0  0  0  0  0  0  0  0  0  0  0  0
  152.8652  141.7124  159.8609 C   0  0  0  0  0  0  0  0  0  0  0  0
  151.8640  140.4004  156.4154 C   0  0  0  0  0  0  0  0  0  0  0  0
  149.0168  138.0885  158.2468 H   0  0  0  0  0  0  0  0  0  0  0  0
  149.1100  139.8244  158.4869 H   0  0  0  0  0  0  0  0  0  0  0  0
  150.5859  138.8667  158.3772 H   0  0  0  0  0  0  0  0  0  0  0  0
  150.0011  138.2609  156.0020 H   0  0  0  0  0  0  0  0  0  0  0  0
  148.5630  139.2346  156.0999 H   0  0  0  0  0  0  0  0  0  0  0  0
  149.4151  140.4329  154.2755 H   0  0  0  0  0  0  0  0  0  0  0  0
  150.1255  142.5421  155.8725 H   0  0  0  0  0  0  0  0  0  0  0  0
  148.7696  141.7153  156.6333 H   0  0  0  0  0  0  0  0  0  0  0  0
  150.6773  142.8772  158.1588 H   0  0  0  0  0  0  0  0  0  0  0  0
  150.0732  141.2812  158.6222 H   0  0  0  0  0  0  0  0  0  0  0  0
  154.9149  138.5980  159.5245 H   0  0  0  0  0  0  0  0  0  0  0  0
  152.5801  143.9311  162.2683 H   0  0  0  0  0  0  0  0  0  0  0  0
  151.4505  143.4994  159.7981 H   0  0  0  0  0  0  0  0  0  0  0  0
  152.2392  139.3976  156.6157 H   0  0  0  0  0  0  0  0  0  0  0  0
  152.5065  140.8522  155.6587 H   0  0  0  0  0  0  0  0  0  0  0  0
  155.1511  139.8499  161.4749 H   0  0  0  0  0  0  0  0  0  0  0  0
  1  2  1  0  0  0  0
  1 18  1  0  0  0  0
  1 19  1  0  0  0  0
  1 20  1  0  0  0  0
  2  3  1  0  0  0  0
  2 21  1  0  0  0  0
  2 22  1  0  0  0  0
  3 17  1  0  0  0  0
  3  4  1  0  0  0  0
  3  5  1  0  0  0  0
  4 23  1  0  0  0  0
  5  6  1  0  0  0  0
  5 24  1  0  0  0  0
  5 25  1  0  0  0  0
  6  7  1  0  0  0  0
  6 26  1  0  0  0  0
  6 27  1  0  0  0  0
  7  8  1  0  0  0  0
  7 17  1  0  0  0  0
  8 16  2  0  0  0  0
  8  9  1  0  0  0  0
  9 10  2  0  0  0  0
 10 11  1  0  0  0  0
 10 28  1  0  0  0  0
 11 12  1  0  0  0  0
 11 33  1  0  0  0  0
 12 16  1  0  0  0  0
 12 13  2  0  0  0  0
 13 14  1  0  0  0  0
 14 15  2  0  0  0  0
 14 29  1  0  0  0  0
 15 16  1  0  0  0  0
 15 30  1  0  0  0  0
 17 31  1  0  0  0  0
 17 32  1  0  0  0  0
M  END
> <s_m_source_file>
AV-unprocessed.smi

> <i_m_source_file_index>
11

> <i_lp_mmshare_version>
43012

> <i_f3d_flags>
0

> <s_epik_input>
W0NIM11bQ0gyXVtDQEBdMShbT0hdKVtDSDJdW0NIMl1OKFtDSDJdMSljKG5bY0hdbjIpYyhjMjMpW2NIXVtjSF1bbkhdMw==

> <s_epik_cmdline>
J2VwaWtfcHl0aG9uJywgJy1waCcsICc3LjAnLCAnLXRuJywgJzgnLCAnLW1hJywgJzIwMCcsICctbWV0YWxfYmluZGluZycsICctaW1hZScsICc8aW5maWxlLm1hZT4nLCAnLW9tYWUnLCAnPG91dGZpbGUubWFlPic=

> <r_lp_tautomer_probability>
1.75997e-05

> <r_epik_Ionization_Penalty>
5.31594

> <r_epik_Ionization_Penalty_Charging>
0

> <r_epik_Ionization_Penalty_Neutral>
5.31594

> <r_epik_State_Penalty>
7.79803

> <r_epik_Charging_Adjusted_Penalty>
7.79803

> <i_epik_Tot_Q>
0

> <i_epik_Tot_abs_Q>
0

> <r_epik_Metal_State_Penalty>
4.83511

> <b_epik_Metal_Only>
1

> <s_lp_Force_Field>
OPLS_2005

> <r_lp_Energy>
41.5281

> <b_lp_Chiralities_Consistent>
1

> <s_lp_Variant>
AV-unprocessed.smi:11-5

> <Gold.Version>
5.8.1

> <Gold.Id.Protein>
6NUR|6NUR_protein|mol2

> <Gold.PLP.Fitness>
37.9594

> <Gold.PLP.PLP>
-32.2029

> <Gold.PLP.part.hbond>
-2.3449

> <Gold.PLP.part.metal>
0.0000

> <Gold.PLP.part.buried>
-5.0769

> <Gold.PLP.part.nonpolar>
-23.2662

> <Gold.PLP.part.repulsive>
0.0524

> <Gold.PLP.ligand.clash>
0.0000

> <Gold.PLP.ligand.torsion>
0.2784

> <Gold.PLP.Chemscore.Hbond>
2.0000

> <Gold.PLP.Chemscore.CHOScore>
0.0000

> <Gold.PLP.Chemscore.Metal>
0.0000

> <Gold.Chemscore.Hbonds>
donor molecule, donor type, donor heavy atom, donor atom, acceptor molecule, acceptor atom, score
      P1  H  7989  7998       L1     4  0.99
      P1  H  7997  8008       L1     9  1.00

> <Gold.PLP.Chemscore.Internal.Correction>
0.3132

> <Gold.Rescore>
     Score         DG    S(hbond)    S(metal)    S(lipo)     H(rot)  DE(clash)    DE(int)     intcor
     13.73     -14.21       1.61        0.00      59.78       1.43       0.09       0.40       ----

> <Gold.Chemscore.Fitness>
13.7251

> <Gold.Chemscore.DG>
-14.2110

> <Gold.Chemscore.ZeroCoef>
-5.4800

> <Gold.Chemscore.Hbond>
1.6147

> <Gold.Chemscore.Metal>
0.0000

> <Gold.Chemscore.Lipo>
59.7813

> <Gold.Chemscore.Internal_Hbond>
0.0000

> <Gold.Chemscore.DEClash>
0.0906

> <Gold.Chemscore.DEInternal>
0.3953

> <Gold.Chemscore.Rot>
1.4283

> <Gold.Chemscore.Internal.Correction>
   9.000000E+99

> <Gold.Chemscore.Hbonds>
donor molecule, donor type, donor heavy atom, donor atom, acceptor molecule, acceptor atom, score
      P1  H  7989  7998       L1     4  0.94
      P1  H  7997  8008       L1     9  0.30

> <Gold.Chemscore.Hbond.Weighted>
-5.3932

> <Gold.Chemscore.Metal.Weighted>
-0.0000

> <Gold.Chemscore.Lipo.Weighted>
-6.9944

> <Gold.Chemscore.Internal_Hbond.Weighted>
0.0000

> <Gold.Chemscore.DEClash.Weighted>
0.0906

> <Gold.Chemscore.DEInternal.Weighted>
0.3953

> <Gold.Chemscore.Rot.Weighted>
3.6566

> <Gold.Chemscore.Internal.Correction.Weighted>
   9.000000E+99

> <Gold.Protein.RotatedTorsions>
[ 6907 6896 6895 6894 ] final  -40.10 input  -60.11 | X-H torsion
[ 7974 7965 7964 7962 ] final   80.95 input  175.53 | X-H torsion
[ 8008 7997 7996 7995 ] final  -81.65 input   59.86 | X-H torsion
[ 10167 10162 10161 10158 ] final -158.61 input  -65.29 | X-H torsion
[ 10718 10713 10712 10709 ] final  108.81 input   66.30 | X-H torsion
[ 10763 10752 10751 10750 ] final  157.07 input  -60.55 | X-H torsion
[ 11005 11000 10999 10996 ] final -119.73 input  -57.11 | X-H torsion

> <Gold.Protein.ActiveResidues>
 VAL166  LYS551  ARG553  GLY616  TRP617  ASP618  TYR619  PRO620  LYS621  CYS622 
 ASP623  PHE694  ASN695  SER759  ASP760  ASP761  ALA762  ILE779  LEU786  VAL792 
 PHE793  MET794  SER795  GLU796  ALA797  LYS798  CYS799  TRP800  GLU811  SER814 

> <Gold.Protein.RotatedAtoms>
  150.9824  134.9176  159.7851 H   0  0  0  0  0  0  0  0  0  0  0  0  # atno 6907 bound_to 6896
  152.5226  134.3392  159.9221 H   0  0  0  0  0  0  0  0  0  0  0  0  # atno 6908 bound_to 6896
  151.3399  133.3925  159.2705 H   0  0  0  0  0  0  0  0  0  0  0  0  # atno 6909 bound_to 6896
  145.6446  139.2433  143.2011 H   0  0  0  0  0  0  0  0  0  0  0  0  # atno 7974 bound_to 7965
  154.6005  140.0644  156.9362 H   0  0  0  0  0  0  0  0  0  0  0  0  # atno 8008 bound_to 7997
  155.2140  140.3325  155.4306 H   0  0  0  0  0  0  0  0  0  0  0  0  # atno 8009 bound_to 7997
  156.2315  140.1843  156.7213 H   0  0  0  0  0  0  0  0  0  0  0  0  # atno 8010 bound_to 7997
  139.6679  143.9797  152.2266 H   0  0  0  0  0  0  0  0  0  0  0  0  # atno 10167 bound_to 10162
  157.6570  131.0901  150.6360 H   0  0  0  0  0  0  0  0  0  0  0  0  # atno 10718 bound_to 10713
  154.1944  135.2793  155.3011 H   0  0  0  0  0  0  0  0  0  0  0  0  # atno 10763 bound_to 10752
  154.5904  135.5561  153.7276 H   0  0  0  0  0  0  0  0  0  0  0  0  # atno 10764 bound_to 10752
  153.0104  135.6367  154.2082 H   0  0  0  0  0  0  0  0  0  0  0  0  # atno 10765 bound_to 10752
  141.0194  134.0146  157.3304 H   0  0  0  0  0  0  0  0  0  0  0  0  # atno 11005 bound_to 11000
  146.1253  140.7256  142.9438 LP  0  0  0  0  0  0  0  0  0  0  0  0  # atno 17320 bound_to 7965
  144.7145  140.4159  143.7055 LP  0  0  0  0  0  0  0  0  0  0  0  0  # atno 17321 bound_to 7965
  139.9553  144.6593  150.8132 LP  0  0  0  0  0  0  0  0  0  0  0  0  # atno 17342 bound_to 10162
  140.7606  143.3156  151.2741 LP  0  0  0  0  0  0  0  0  0  0  0  0  # atno 17343 bound_to 10162
  156.6666  130.4527  149.5670 LP  0  0  0  0  0  0  0  0  0  0  0  0  # atno 17370 bound_to 10713
  156.2028  130.6630  151.1186 LP  0  0  0  0  0  0  0  0  0  0  0  0  # atno 17371 bound_to 10713
  139.9137  135.0194  156.7795 LP  0  0  0  0  0  0  0  0  0  0  0  0  # atno 17394 bound_to 11000
  140.6599  133.9655  155.7799 LP  0  0  0  0  0  0  0  0  0  0  0  0  # atno 17395 bound_to 11000

$$$$
