AV-unprocessed.smi:3039|AV-procd|sdf|11593|dock9
  -GOLD-   2272016573D 1   1.00000     0.00000
 Structure written by MMmdl.
 38 39  0  0  0  0  0  0  0  0  1 V2000
  152.9074  139.5356  156.3864 O   0  0  0  0  0  0  0  0  0  0  0  0
  151.9057  139.6053  157.0982 C   0  0  0  0  0  0  0  0  0  0  0  0
  152.0295  139.4524  158.6144 C   0  0  0  0  0  0  0  0  0  0  0  0
  151.9658  140.8017  159.2803 C   0  0  0  0  0  0  0  0  0  0  0  0
  152.9797  141.4734  160.0206 C   0  0  0  0  0  0  0  0  0  0  0  0
  152.3841  142.6457  160.3870 C   0  0  0  0  0  0  0  0  0  0  0  0
  151.1143  142.7024  159.9122 O   0  0  0  0  0  0  0  0  0  0  0  0
  150.8570  141.5221  159.2058 N   0  0  0  0  0  0  0  0  0  0  0  0
  150.6685  139.8137  156.6209 N   0  0  0  0  0  0  0  0  0  0  0  0
  150.3070  139.9985  155.2168 C   0  0  2  0  0  0  0  0  0  0  0  0
  149.3003  141.1688  155.1139 C   0  0  0  0  0  0  0  0  0  0  0  0
  148.5168  141.2703  153.7956 C   0  0  0  0  0  0  0  0  0  0  0  0
  147.2253  140.4340  153.8127 C   0  0  0  0  0  0  0  0  0  0  0  0
  147.4347  138.9157  153.7112 C   0  0  0  0  0  0  0  0  0  0  0  0
  148.3632  138.3090  154.7800 C   0  0  0  0  0  0  0  0  0  0  0  0
  149.8530  138.6614  154.5614 C   0  0  2  0  0  0  0  0  0  0  0  0
  150.7904  137.4641  154.8572 C   0  0  0  0  0  0  0  0  0  0  0  0
  151.8276  137.3248  153.9049 O   0  0  0  0  0  0  0  0  0  0  0  0
  151.2281  138.8096  158.9808 H   0  0  0  0  0  0  0  0  0  0  0  0
  152.9653  138.9429  158.8500 H   0  0  0  0  0  0  0  0  0  0  0  0
  153.9824  141.1444  160.2508 H   0  0  0  0  0  0  0  0  0  0  0  0
  152.7165  143.5005  160.9575 H   0  0  0  0  0  0  0  0  0  0  0  0
  149.9079  139.8408  157.2849 H   0  0  0  0  0  0  0  0  0  0  0  0
  151.2110  140.2972  154.6820 H   0  0  0  0  0  0  0  0  0  0  0  0
  148.5932  141.1302  155.9442 H   0  0  0  0  0  0  0  0  0  0  0  0
  149.8523  142.0987  155.2576 H   0  0  0  0  0  0  0  0  0  0  0  0
  148.2299  142.3132  153.6565 H   0  0  0  0  0  0  0  0  0  0  0  0
  149.1443  141.0193  152.9398 H   0  0  0  0  0  0  0  0  0  0  0  0
  146.6510  140.6638  154.7109 H   0  0  0  0  0  0  0  0  0  0  0  0
  146.5976  140.7460  152.9772 H   0  0  0  0  0  0  0  0  0  0  0  0
  146.4587  138.4352  153.7876 H   0  0  0  0  0  0  0  0  0  0  0  0
  147.8047  138.6634  152.7167 H   0  0  0  0  0  0  0  0  0  0  0  0
  148.0397  138.5853  155.7841 H   0  0  0  0  0  0  0  0  0  0  0  0
  148.2431  137.2267  154.7213 H   0  0  0  0  0  0  0  0  0  0  0  0
  149.9748  138.8163  153.4886 H   0  0  0  0  0  0  0  0  0  0  0  0
  151.2549  137.5928  155.8354 H   0  0  0  0  0  0  0  0  0  0  0  0
  150.2206  136.5354  154.9041 H   0  0  0  0  0  0  0  0  0  0  0  0
  151.4394  137.1349  153.0642 H   0  0  0  0  0  0  0  0  0  0  0  0
  1  2  2  0  0  0  0
  2  3  1  0  0  0  0
  2  9  1  0  0  0  0
  3  4  1  0  0  0  0
  3 19  1  0  0  0  0
  3 20  1  0  0  0  0
  4  8  2  0  0  0  0
  4  5  1  0  0  0  0
  5  6  2  0  0  0  0
  5 21  1  0  0  0  0
  6  7  1  0  0  0  0
  6 22  1  0  0  0  0
  7  8  1  0  0  0  0
  9 10  1  0  0  0  0
  9 23  1  0  0  0  0
 10 16  1  0  0  0  0
 10 11  1  0  0  0  0
 10 24  1  0  0  0  0
 11 12  1  0  0  0  0
 11 25  1  0  0  0  0
 11 26  1  0  0  0  0
 12 13  1  0  0  0  0
 12 27  1  0  0  0  0
 12 28  1  0  0  0  0
 13 14  1  0  0  0  0
 13 29  1  0  0  0  0
 13 30  1  0  0  0  0
 14 15  1  0  0  0  0
 14 31  1  0  0  0  0
 14 32  1  0  0  0  0
 15 16  1  0  0  0  0
 15 33  1  0  0  0  0
 15 34  1  0  0  0  0
 16 17  1  0  0  0  0
 16 35  1  0  0  0  0
 17 18  1  0  0  0  0
 17 36  1  0  0  0  0
 17 37  1  0  0  0  0
 18 38  1  0  0  0  0
M  END
> <s_m_source_file>
AV-unprocessed.smi

> <i_m_source_file_index>
3039

> <i_lp_mmshare_version>
43012

> <i_f3d_flags>
0

> <s_epik_input>
bjFvW2NIXVtjSF1jMVtDSDJdQyg9TylbTkhdW0NAQEhdMltDSDJdW0NIMl1bQ0gyXVtDSDJdW0NIMl1bQ0BIXTJbQ0gyXVtPSF0=

> <s_epik_cmdline>
J2VwaWtfcHl0aG9uJywgJy1waCcsICc3LjAnLCAnLXRuJywgJzgnLCAnLW1hJywgJzIwMCcsICctbWV0YWxfYmluZGluZycsICctaW1hZScsICc8aW5maWxlLm1hZT4nLCAnLW9tYWUnLCAnPG91dGZpbGUubWFlPic=

> <r_lp_tautomer_probability>
1

> <r_epik_Ionization_Penalty>
3.05817e-07

> <r_epik_Ionization_Penalty_Charging>
0

> <r_epik_Ionization_Penalty_Neutral>
3.05817e-07

> <r_epik_State_Penalty>
-0

> <r_epik_Charging_Adjusted_Penalty>
0

> <i_epik_Tot_Q>
0

> <i_epik_Tot_abs_Q>
0

> <r_epik_Metal_State_Penalty>
-0

> <b_epik_Metal_Only>
0

> <s_lp_Force_Field>
OPLS_2005

> <r_lp_Energy>
21.1275

> <b_lp_Chiralities_Consistent>
1

> <s_lp_Variant>
AV-unprocessed.smi:3039-3

> <Gold.Version>
5.8.1

> <Gold.Id.Protein>
6NUR|6NUR_protein|mol2

> <Gold.PLP.Fitness>
41.3112

> <Gold.PLP.PLP>
-34.3502

> <Gold.PLP.part.hbond>
-4.0155

> <Gold.PLP.part.metal>
0.0000

> <Gold.PLP.part.buried>
-2.3875

> <Gold.PLP.part.nonpolar>
-27.3295

> <Gold.PLP.part.repulsive>
0.0678

> <Gold.PLP.ligand.clash>
0.0000

> <Gold.PLP.ligand.torsion>
1.0338

> <Gold.PLP.Chemscore.Hbond>
2.9825

> <Gold.PLP.Chemscore.CHOScore>
0.0000

> <Gold.PLP.Chemscore.Metal>
0.0000

> <Gold.Chemscore.Hbonds>
donor molecule, donor type, donor heavy atom, donor atom, acceptor molecule, acceptor atom, score
      L1  H    18    38       P1  7949  1.00
      P1  H  7997  8010       L1     1  1.00
      P1  H 10752 10764       L1    18  0.90

> <Gold.PLP.Chemscore.Internal.Correction>
0.0811

> <Gold.Rescore>
     Score         DG    S(hbond)    S(metal)    S(lipo)     H(rot)  DE(clash)    DE(int)     intcor
     16.15     -17.19       2.38        0.00      81.59       2.26       0.11       0.93       ----

> <Gold.Chemscore.Fitness>
16.1512

> <Gold.Chemscore.DG>
-17.1921

> <Gold.Chemscore.ZeroCoef>
-5.4800

> <Gold.Chemscore.Hbond>
2.3821

> <Gold.Chemscore.Metal>
0.0000

> <Gold.Chemscore.Lipo>
81.5856

> <Gold.Chemscore.Internal_Hbond>
0.0000

> <Gold.Chemscore.DEClash>
0.1109

> <Gold.Chemscore.DEInternal>
0.9300

> <Gold.Chemscore.Rot>
2.2616

> <Gold.Chemscore.Internal.Correction>
   9.000000E+99

> <Gold.Chemscore.Hbonds>
donor molecule, donor type, donor heavy atom, donor atom, acceptor molecule, acceptor atom, score
      L1  H    18    38       P1  7949  0.81
      P1  H  7997  8010       L1     1  0.97
      P1  H 10752 10764       L1    18  0.16

> <Gold.Chemscore.Hbond.Weighted>
-7.9562

> <Gold.Chemscore.Metal.Weighted>
-0.0000

> <Gold.Chemscore.Lipo.Weighted>
-9.5455

> <Gold.Chemscore.Internal_Hbond.Weighted>
0.0000

> <Gold.Chemscore.DEClash.Weighted>
0.1109

> <Gold.Chemscore.DEInternal.Weighted>
0.9300

> <Gold.Chemscore.Rot.Weighted>
5.7896

> <Gold.Chemscore.Internal.Correction.Weighted>
   9.000000E+99

> <Gold.Protein.RotatedTorsions>
[ 6907 6896 6895 6894 ] final  -36.67 input  -60.11 | X-H torsion
[ 7974 7965 7964 7962 ] final   43.86 input  175.53 | X-H torsion
[ 8008 7997 7996 7995 ] final   61.01 input   59.86 | X-H torsion
[ 10167 10162 10161 10158 ] final   26.98 input  -65.29 | X-H torsion
[ 10718 10713 10712 10709 ] final    3.65 input   66.30 | X-H torsion
[ 10763 10752 10751 10750 ] final  -93.53 input  -60.55 | X-H torsion
[ 11005 11000 10999 10996 ] final -164.91 input  -57.11 | X-H torsion

> <Gold.Protein.ActiveResidues>
 VAL166  LYS551  ARG553  GLY616  TRP617  ASP618  TYR619  PRO620  LYS621  CYS622 
 ASP623  PHE694  ASN695  SER759  ASP760  ASP761  ALA762  ILE779  LEU786  VAL792 
 PHE793  MET794  SER795  GLU796  ALA797  LYS798  CYS799  TRP800  GLU811  SER814 

> <Gold.Protein.RotatedAtoms>
  151.0243  134.9492  159.8076 H   0  0  0  0  0  0  0  0  0  0  0  0  # atno 6907 bound_to 6896
  152.5332  134.2863  159.9036 H   0  0  0  0  0  0  0  0  0  0  0  0  # atno 6908 bound_to 6896
  151.2871  133.4140  159.2664 H   0  0  0  0  0  0  0  0  0  0  0  0  # atno 6909 bound_to 6896
  146.0619  139.5139  142.9653 H   0  0  0  0  0  0  0  0  0  0  0  0  # atno 7974 bound_to 7965
  155.5915  140.3493  155.4568 H   0  0  0  0  0  0  0  0  0  0  0  0  # atno 8008 bound_to 7997
  156.0298  140.1272  157.0295 H   0  0  0  0  0  0  0  0  0  0  0  0  # atno 8009 bound_to 7997
  154.4347  140.1045  156.6069 H   0  0  0  0  0  0  0  0  0  0  0  0  # atno 8010 bound_to 7997
  140.4977  144.0366  150.6320 H   0  0  0  0  0  0  0  0  0  0  0  0  # atno 10167 bound_to 10162
  156.8809  130.5653  149.5653 H   0  0  0  0  0  0  0  0  0  0  0  0  # atno 10718 bound_to 10713
  154.6968  135.5191  153.8470 H   0  0  0  0  0  0  0  0  0  0  0  0  # atno 10763 bound_to 10752
  153.0673  135.6589  154.0334 H   0  0  0  0  0  0  0  0  0  0  0  0  # atno 10764 bound_to 10752
  154.0200  135.2994  155.3362 H   0  0  0  0  0  0  0  0  0  0  0  0  # atno 10765 bound_to 10752
  140.5817  134.5135  157.5179 H   0  0  0  0  0  0  0  0  0  0  0  0  # atno 11005 bound_to 11000
  145.6546  141.0255  143.1742 LP  0  0  0  0  0  0  0  0  0  0  0  0  # atno 17320 bound_to 7965
  144.7179  139.8130  143.7392 LP  0  0  0  0  0  0  0  0  0  0  0  0  # atno 17321 bound_to 7965
  140.3653  143.2885  152.0339 LP  0  0  0  0  0  0  0  0  0  0  0  0  # atno 17342 bound_to 10162
  139.4865  144.6272  151.7141 LP  0  0  0  0  0  0  0  0  0  0  0  0  # atno 17343 bound_to 10162
  156.0678  130.5717  150.9322 LP  0  0  0  0  0  0  0  0  0  0  0  0  # atno 17370 bound_to 10713
  157.6141  131.0934  150.8743 LP  0  0  0  0  0  0  0  0  0  0  0  0  # atno 17371 bound_to 10713
  139.9314  134.7956  156.0920 LP  0  0  0  0  0  0  0  0  0  0  0  0  # atno 17394 bound_to 11000
  141.0992  133.6684  156.2715 LP  0  0  0  0  0  0  0  0  0  0  0  0  # atno 17395 bound_to 11000

$$$$
