#       Name:                AV-unprocessed.smi:334
#       Creating user name   scv26
#       Creation time:       Thu Mar 26 22:27:56 2020


#       File generated by GOLD software.
#

@<TRIPOS>MOLECULE
AV-unprocessed.smi:334
    50    52     1
SMALL
NO_CHARGES


@<TRIPOS>ATOM
      1 ****        -1.8967  -1.5251  -1.2749 C.3            1 S1                 0.0000
      2 ****        -1.3625  -0.7667  -0.0473 C.3            1 S1                 0.0000
      3 ****         0.0987  -0.8026  -0.0432 N.am           1 S1                 0.0000
      4 ****         0.9030   0.0306  -0.7208 C.2            1 S1                 0.0000
      5 ****         0.4829   0.9326  -1.4470 O.2            1 S1                 0.0000
      6 ****         2.4093  -0.2147  -0.5504 C.3            1 S1                 0.0000
      7 ****         3.2502   0.7946  -1.2165 N.am           1 S1                 0.0000
      8 ****         3.6900   0.4975  -2.5215 C.2            1 S1                 0.0000
      9 ****         4.4583   1.3484  -3.2294 C.2            1 S1                 0.0000
     10 ****         4.8942   1.0301  -4.5715 N.pl3          1 S1                 1.0000
     11 ****         5.5871   1.8440  -5.1736 O.2            1 S1                 0.0000
     12 ****         4.5599  -0.0414  -5.0680 O.2            1 S1                -1.0000
     13 ****         4.8315   2.6011  -2.6015 C.2            1 S1                 0.0000
     14 ****         4.4094   2.8936  -1.3557 C.2            1 S1                 0.0000
     15 ****         3.5667   1.9690  -0.5901 C.2            1 S1                 0.0000
     16 ****         3.1700   2.2346   0.5446 O.2            1 S1                 0.0000
     17 ****        -1.8891  -1.3546   1.2831 C.3            1 S1                 0.0000
     18 ****        -1.4477  -0.5875   2.5512 C.3            1 S1                 0.0000
     19 ****        -2.7697  -0.3930   3.3169 C.3            1 S1                 0.0000
     20 ****        -3.6051   0.6899   2.6096 C.3            1 S1                 0.0000
     21 ****        -4.0845  -0.0321   1.3373 C.3            1 S1                 0.0000
     22 ****        -3.4264  -1.4218   1.4624 C.3            1 S1                 0.0000
     23 ****        -3.5357  -1.6630   2.9648 C.3            1 S1                 0.0000
     24 ****        -2.9831  -1.4629  -1.3369 H              1 S1                 0.0000
     25 ****        -1.6249  -2.5805  -1.2390 H              1 S1                 0.0000
     26 ****        -1.4989  -1.1103  -2.2017 H              1 S1                 0.0000
     27 ****        -1.6742   0.2758  -0.1197 H              1 S1                 0.0000
     28 ****         0.5309  -1.5160   0.5258 H              1 S1                 0.0000
     29 ****         2.6417  -0.2620   0.5152 H              1 S1                 0.0000
     30 ****         2.6395  -1.2097  -0.9345 H              1 S1                 0.0000
     31 ****         3.3522  -0.4562  -2.9010 H              1 S1                 0.0000
     32 ****         5.4514   3.3139  -3.1253 H              1 S1                 0.0000
     33 ****         4.6986   3.8326  -0.9071 H              1 S1                 0.0000
     34 ****        -1.5114  -2.3761   1.3625 H              1 S1                 0.0000
     35 ****        -0.7424  -1.1836   3.1314 H              1 S1                 0.0000
     36 ****        -0.9679   0.3669   2.3297 H              1 S1                 0.0000
     37 ****        -2.6354  -0.2136   4.3840 H              1 S1                 0.0000
     38 ****        -4.4552   0.9914   3.2230 H              1 S1                 0.0000
     39 ****        -3.0206   1.5831   2.3855 H              1 S1                 0.0000
     40 ****        -5.1710  -0.1266   1.3465 H              1 S1                 0.0000
     41 ****        -3.8174   0.4968   0.4235 H              1 S1                 0.0000
     42 ****        -3.9043  -2.1868   0.8499 H              1 S1                 0.0000
     43 ****        -3.0367  -2.5752   3.2973 H              1 S1                 0.0000
     44 ****        -4.5639  -1.6649   3.3311 H              1 S1                 0.0000
     45 ****        -0.5017   1.0712  -1.5533 LP             1 S1                 0.0000
     46 ****         1.1265   1.5262  -1.9301 LP             1 S1                 0.0000
     47 ****         5.8394   2.7069  -4.7356 LP             1 S1                 0.0000
     48 ****         5.8996   1.6446  -6.1023 LP             1 S1                 0.0000
     49 ****         2.5965   1.5817   1.0394 LP             1 S1                 0.0000
     50 ****         3.4212   3.1033   0.9716 LP             1 S1                 0.0000
@<TRIPOS>BOND
    1    1    2 1     
    2    1   24 1     
    3    1   25 1     
    4    1   26 1     
    5    2    3 1     
    6    2   17 1     
    7    2   27 1     
    8    3    4 am    
    9    3   28 1     
   10    4    5 2     
   11    4    6 1     
   12    6    7 1     
   13    6   29 1     
   14    6   30 1     
   15    7   15 am    
   16    7    8 1     
   17    8    9 2     
   18    8   31 1     
   19    9   10 1     
   20    9   13 1     
   21   10   11 2     
   22   10   12 1     
   23   13   14 2     
   24   13   32 1     
   25   14   15 1     
   26   14   33 1     
   27   15   16 2     
   28   17   22 1     
   29   17   18 1     
   30   17   34 1     
   31   18   19 1     
   32   18   35 1     
   33   18   36 1     
   34   19   23 1     
   35   19   20 1     
   36   19   37 1     
   37   20   21 1     
   38   20   38 1     
   39   20   39 1     
   40   21   22 1     
   41   21   40 1     
   42   21   41 1     
   43   22   23 1     
   44   22   42 1     
   45   23   43 1     
   46   23   44 1     
   47    5   45 1     
   48    5   46 1     
   49   11   47 1     
   50   11   48 1     
   51   16   49 1     
   52   16   50 1     
@<TRIPOS>SUBSTRUCTURE
      1 S1             1
@<TRIPOS>SET
LONE_PAIRS      STATIC     ATOMS    <user>   **** ""
7 45 46 47 48 12 49 50
DONOR_HYDROGENS      STATIC     ATOMS    <user>   **** ""
1 28
ATOM$BLUE        STATIC     ATOMS    COLORGROUP SYSTEM
7 45 46 47 48 12 49 50
ATOM$RED        STATIC     ATOMS    COLORGROUP SYSTEM
1 28
