AV-unprocessed.smi:708|AV-procd|sdf|3457|dock5
  -GOLD-   22720 0443D 1   1.00000     0.00000
 Structure written by MMmdl.
 42 43  0  0  0  0  0  0  0  0  1 V2000
  144.9655  137.5239  153.6767 O   0  0  0  0  0  0  0  0  0  0  0  0
  145.8489  137.0439  152.9656 C   0  0  0  0  0  0  0  0  0  0  0  0
  145.5236  136.5406  151.5536 C   0  0  0  0  0  0  0  0  0  0  0  0
  145.2562  135.0935  151.5171 N   0  0  0  0  0  0  0  0  0  0  0  0
  146.2957  134.2565  151.0648 C   0  0  0  0  0  0  0  0  0  0  0  0
  146.1519  132.9237  150.9893 C   0  0  0  0  0  0  0  0  0  0  0  0
  144.8882  132.3494  151.3868 C   0  0  0  0  0  0  0  0  0  0  0  0
  143.8888  133.1404  151.8249 C   0  0  0  0  0  0  0  0  0  0  0  0
  144.0425  134.5972  151.9128 C   0  0  0  0  0  0  0  0  0  0  0  0
  143.1360  135.3266  152.3168 O   0  0  0  0  0  0  0  0  0  0  0  0
  147.1251  136.9182  153.3585 N   0  0  0  0  0  0  0  0  0  0  0  0
  147.6657  137.3841  154.6310 C   0  0  0  0  0  0  0  0  0  0  0  0
  148.7807  138.4384  154.4553 C   0  0  0  0  0  0  0  0  0  0  0  0
  150.1938  137.8737  154.7378 C   0  0  0  0  0  0  0  0  0  0  0  0
  151.2624  138.9785  154.6652 C   0  0  0  0  0  0  0  0  0  0  0  0
  150.9091  140.0425  155.6132 N   0  0  0  0  0  0  0  0  0  0  0  0
  151.6059  140.2622  156.7567 C   0  0  0  0  0  0  0  0  0  0  0  0
  152.6126  139.6099  157.0405 O   0  0  0  0  0  0  0  0  0  0  0  0
  151.1452  141.3517  157.7418 C   0  0  0  0  0  0  0  0  0  0  0  0
  151.1272  142.5371  157.1309 F   0  0  0  0  0  0  0  0  0  0  0  0
  149.9326  141.0574  158.2129 F   0  0  0  0  0  0  0  0  0  0  0  0
  151.9934  141.4186  158.7695 F   0  0  0  0  0  0  0  0  0  0  0  0
  149.6574  140.7045  155.2260 C   0  0  0  0  0  0  0  0  0  0  0  0
  148.5065  139.6865  155.3230 C   0  0  0  0  0  0  0  0  0  0  0  0
  144.6673  137.0849  151.1500 H   0  0  0  0  0  0  0  0  0  0  0  0
  146.3597  136.7985  150.9023 H   0  0  0  0  0  0  0  0  0  0  0  0
  147.2104  134.7626  150.7922 H   0  0  0  0  0  0  0  0  0  0  0  0
  146.9608  132.2972  150.6434 H   0  0  0  0  0  0  0  0  0  0  0  0
  144.7438  131.2804  151.3336 H   0  0  0  0  0  0  0  0  0  0  0  0
  142.9506  132.6927  152.1184 H   0  0  0  0  0  0  0  0  0  0  0  0
  147.7801  136.5038  152.7113 H   0  0  0  0  0  0  0  0  0  0  0  0
  146.8578  137.7832  155.2466 H   0  0  0  0  0  0  0  0  0  0  0  0
  148.0575  136.5162  155.1625 H   0  0  0  0  0  0  0  0  0  0  0  0
  148.7693  138.7684  153.4155 H   0  0  0  0  0  0  0  0  0  0  0  0
  150.2175  137.4100  155.7249 H   0  0  0  0  0  0  0  0  0  0  0  0
  150.4409  137.0899  154.0213 H   0  0  0  0  0  0  0  0  0  0  0  0
  152.2489  138.5520  154.8518 H   0  0  0  0  0  0  0  0  0  0  0  0
  151.3073  139.3912  153.6563 H   0  0  0  0  0  0  0  0  0  0  0  0
  149.4224  141.5827  155.8233 H   0  0  0  0  0  0  0  0  0  0  0  0
  149.7463  141.0688  154.2015 H   0  0  0  0  0  0  0  0  0  0  0  0
  147.5723  140.1563  155.0136 H   0  0  0  0  0  0  0  0  0  0  0  0
  148.3731  139.3917  156.3648 H   0  0  0  0  0  0  0  0  0  0  0  0
  1  2  2  0  0  0  0
  2  3  1  0  0  0  0
  2 11  1  0  0  0  0
  3  4  1  0  0  0  0
  3 25  1  0  0  0  0
  3 26  1  0  0  0  0
  4  9  1  0  0  0  0
  4  5  1  0  0  0  0
  5  6  2  0  0  0  0
  5 27  1  0  0  0  0
  6  7  1  0  0  0  0
  6 28  1  0  0  0  0
  7  8  2  0  0  0  0
  7 29  1  0  0  0  0
  8  9  1  0  0  0  0
  8 30  1  0  0  0  0
  9 10  2  0  0  0  0
 11 12  1  0  0  0  0
 11 31  1  0  0  0  0
 12 13  1  0  0  0  0
 12 32  1  0  0  0  0
 12 33  1  0  0  0  0
 13 24  1  0  0  0  0
 13 14  1  0  0  0  0
 13 34  1  0  0  0  0
 14 15  1  0  0  0  0
 14 35  1  0  0  0  0
 14 36  1  0  0  0  0
 15 16  1  0  0  0  0
 15 37  1  0  0  0  0
 15 38  1  0  0  0  0
 16 17  1  0  0  0  0
 16 23  1  0  0  0  0
 17 18  2  0  0  0  0
 17 19  1  0  0  0  0
 19 20  1  0  0  0  0
 19 21  1  0  0  0  0
 19 22  1  0  0  0  0
 23 24  1  0  0  0  0
 23 39  1  0  0  0  0
 23 40  1  0  0  0  0
 24 41  1  0  0  0  0
 24 42  1  0  0  0  0
M  END
> <s_m_source_file>
AV-unprocessed.smi

> <i_m_source_file_index>
708

> <i_lp_mmshare_version>
43012

> <i_f3d_flags>
0

> <s_epik_input>
Tz1jMVtjSF1bY0hdW2NIXVtjSF1uMVtDSDJdQyg9TylbTkhdW0NIMl1bQ0hdMltDSDJdW0NIMl1OKEMoPU8pQyhGKShGKUYpW0NIMl1bQ0gyXTI=

> <s_epik_cmdline>
J2VwaWtfcHl0aG9uJywgJy1waCcsICc3LjAnLCAnLXRuJywgJzgnLCAnLW1hJywgJzIwMCcsICctbWV0YWxfYmluZGluZycsICctaW1hZScsICc8aW5maWxlLm1hZT4nLCAnLW9tYWUnLCAnPG91dGZpbGUubWFlPic=

> <r_lp_tautomer_probability>
1

> <r_epik_Ionization_Penalty>
3.72594e-07

> <r_epik_Ionization_Penalty_Charging>
3.54487e-07

> <r_epik_Ionization_Penalty_Neutral>
1.81071e-08

> <r_epik_State_Penalty>
-0

> <r_epik_Charging_Adjusted_Penalty>
3.54487e-07

> <i_epik_Tot_Q>
0

> <i_epik_Tot_abs_Q>
0

> <r_epik_Metal_State_Penalty>
-0

> <b_epik_Metal_Only>
0

> <s_lp_Force_Field>
OPLS_2005

> <r_lp_Energy>
36.5202

> <b_lp_Chiralities_Consistent>
1

> <s_lp_Variant>
AV-unprocessed.smi:708-1

> <Gold.Version>
5.8.1

> <Gold.Id.Protein>
6NUR|6NUR_protein|mol2

> <Gold.PLP.Fitness>
45.8238

> <Gold.PLP.PLP>
-39.5576

> <Gold.PLP.part.hbond>
-1.9410

> <Gold.PLP.part.metal>
0.0000

> <Gold.PLP.part.buried>
-5.7545

> <Gold.PLP.part.nonpolar>
-34.1368

> <Gold.PLP.part.repulsive>
0.3691

> <Gold.PLP.ligand.clash>
0.0000

> <Gold.PLP.ligand.torsion>
1.3012

> <Gold.PLP.Chemscore.Hbond>
2.0000

> <Gold.PLP.Chemscore.CHOScore>
0.9471

> <Gold.PLP.Chemscore.Metal>
0.0000

> <Gold.Chemscore.Hbonds>
donor molecule, donor type, donor heavy atom, donor atom, acceptor molecule, acceptor atom, score
      L1  H    11    31       P1  7948  0.86
      P1  H  7997  8008       L1    18  1.00
      L1  C     5    27       P1  7948  0.87

> <Gold.PLP.Chemscore.Internal.Correction>
0.0273

> <Gold.Rescore>
     Score         DG    S(hbond)    S(metal)    S(lipo)     H(rot)  DE(clash)    DE(int)     intcor
     12.66     -15.12       1.95        0.00      68.34       1.91       0.01       2.45       ----

> <Gold.Chemscore.Fitness>
12.6615

> <Gold.Chemscore.DG>
-15.1171

> <Gold.Chemscore.ZeroCoef>
-5.4800

> <Gold.Chemscore.Hbond>
1.9547

> <Gold.Chemscore.Metal>
0.0000

> <Gold.Chemscore.Lipo>
68.3439

> <Gold.Chemscore.Internal_Hbond>
0.0000

> <Gold.Chemscore.DEClash>
0.0081

> <Gold.Chemscore.DEInternal>
2.4474

> <Gold.Chemscore.Rot>
1.9093

> <Gold.Chemscore.Internal.Correction>
   9.000000E+99

> <Gold.Chemscore.Hbonds>
donor molecule, donor type, donor heavy atom, donor atom, acceptor molecule, acceptor atom, score
      L1  H    11    31       P1  7948  0.84
      P1  H  7997  8008       L1    18  1.00

> <Gold.Chemscore.Hbond.Weighted>
-6.5286

> <Gold.Chemscore.Metal.Weighted>
-0.0000

> <Gold.Chemscore.Lipo.Weighted>
-7.9962

> <Gold.Chemscore.Internal_Hbond.Weighted>
0.0000

> <Gold.Chemscore.DEClash.Weighted>
0.0081

> <Gold.Chemscore.DEInternal.Weighted>
2.4474

> <Gold.Chemscore.Rot.Weighted>
4.8877

> <Gold.Chemscore.Internal.Correction.Weighted>
   9.000000E+99

> <Gold.Protein.RotatedTorsions>
[ 6907 6896 6895 6894 ] final -165.30 input  -60.11 | X-H torsion
[ 7974 7965 7964 7962 ] final  134.43 input  175.53 | X-H torsion
[ 8008 7997 7996 7995 ] final  -66.12 input   59.86 | X-H torsion
[ 10167 10162 10161 10158 ] final  171.12 input  -65.29 | X-H torsion
[ 10718 10713 10712 10709 ] final   29.27 input   66.30 | X-H torsion
[ 10763 10752 10751 10750 ] final  -33.62 input  -60.55 | X-H torsion
[ 11005 11000 10999 10996 ] final   20.20 input  -57.11 | X-H torsion

> <Gold.Protein.ActiveResidues>
 VAL166  LYS551  ARG553  GLY616  TRP617  ASP618  TYR619  PRO620  LYS621  CYS622 
 ASP623  PHE694  ASN695  SER759  ASP760  ASP761  ALA762  ILE779  LEU786  VAL792 
 PHE793  MET794  SER795  GLU796  ALA797  LYS798  CYS799  TRP800  GLU811  SER814 

> <Gold.Protein.RotatedAtoms>
  151.4255  133.3685  159.2761 H   0  0  0  0  0  0  0  0  0  0  0  0  # atno 6907 bound_to 6896
  150.9262  134.8680  159.7532 H   0  0  0  0  0  0  0  0  0  0  0  0  # atno 6908 bound_to 6896
  152.5006  134.4197  159.9528 H   0  0  0  0  0  0  0  0  0  0  0  0  # atno 6909 bound_to 6896
  144.9765  139.4550  143.5407 H   0  0  0  0  0  0  0  0  0  0  0  0  # atno 7974 bound_to 7965
  154.4714  140.0919  156.7154 H   0  0  0  0  0  0  0  0  0  0  0  0  # atno 8008 bound_to 7997
  155.4713  140.3464  155.4308 H   0  0  0  0  0  0  0  0  0  0  0  0  # atno 8009 bound_to 7997
  156.1045  140.1431  156.9411 H   0  0  0  0  0  0  0  0  0  0  0  0  # atno 8010 bound_to 7997
  139.5038  144.3520  151.9912 H   0  0  0  0  0  0  0  0  0  0  0  0  # atno 10167 bound_to 10162
  157.2443  130.7084  149.6374 H   0  0  0  0  0  0  0  0  0  0  0  0  # atno 10718 bound_to 10713
  153.8333  135.6864  153.4812 H   0  0  0  0  0  0  0  0  0  0  0  0  # atno 10763 bound_to 10752
  153.1498  135.4623  154.9617 H   0  0  0  0  0  0  0  0  0  0  0  0  # atno 10764 bound_to 10752
  154.7877  135.3290  154.7794 H   0  0  0  0  0  0  0  0  0  0  0  0  # atno 10765 bound_to 10752
  140.4052  134.1676  155.7665 H   0  0  0  0  0  0  0  0  0  0  0  0  # atno 11005 bound_to 11000
  146.3396  139.9010  142.8794 LP  0  0  0  0  0  0  0  0  0  0  0  0  # atno 17320 bound_to 7965
  145.2483  141.0035  143.3896 LP  0  0  0  0  0  0  0  0  0  0  0  0  # atno 17321 bound_to 7965
  140.2957  144.3703  150.6075 LP  0  0  0  0  0  0  0  0  0  0  0  0  # atno 17342 bound_to 10162
  140.5912  143.2168  151.7249 LP  0  0  0  0  0  0  0  0  0  0  0  0  # atno 17343 bound_to 10162
  155.9668  130.4448  150.5475 LP  0  0  0  0  0  0  0  0  0  0  0  0  # atno 17370 bound_to 10713
  157.3345  131.0705  151.1835 LP  0  0  0  0  0  0  0  0  0  0  0  0  # atno 17371 bound_to 10713
  141.1842  133.8349  157.1149 LP  0  0  0  0  0  0  0  0  0  0  0  0  # atno 17394 bound_to 11000
  140.0307  134.9902  157.0775 LP  0  0  0  0  0  0  0  0  0  0  0  0  # atno 17395 bound_to 11000

$$$$
