#       Name:                AV-unprocessed.smi:2784
#       Creating user name   scv26
#       Creation time:       Fri Mar 27 15:16:53 2020


#       File generated by GOLD software.
#

@<TRIPOS>MOLECULE
AV-unprocessed.smi:2784
    38    39     1
SMALL
NO_CHARGES


@<TRIPOS>ATOM
      1 ****        -2.3185   0.5960  -2.3963 C.3            1 S1                 0.0000
      2 ****        -1.3234  -0.0922  -3.1373 O.3            1 S1                 0.0000
      3 ****        -0.0198   0.0197  -2.5833 C.3            1 S1                 0.0000
      4 ****         1.0084  -0.5014  -3.5915 C.3            1 S1                 0.0000
      5 ****         2.1580  -1.0146  -2.7315 C.3            1 S1                 0.0000
      6 ****         1.4600  -1.6554  -1.5326 C.3            1 S1                 0.0000
      7 ****         0.1703  -0.8418  -1.3130 C.3            1 S1                 0.0000
      8 ****         0.2910   0.0085  -0.1306 N.am           1 S1                 0.0000
      9 ****        -0.1505  -0.3052   1.0960 C.2            1 S1                 0.0000
     10 ****        -0.7059  -1.3684   1.3732 O.2            1 S1                 0.0000
     11 ****         0.0898   0.6807   1.9736 N.am           1 S1                 0.0000
     12 ****        -0.2826   0.6804   3.3376 C.2            1 S1                 0.0000
     13 ****        -0.0309   1.6818   4.1791 N.pl3          1 S1                 1.0000
     14 ****        -0.5334   1.3560   5.4145 C.2            1 S1                 0.0000
     15 ****        -1.0978   0.1112   5.2717 C.2            1 S1                 0.0000
     16 ****        -0.9479  -0.3270   3.9712 O.3            1 S1                 0.0000
     17 ****        -3.2837   0.4820  -2.8896 H              1 S1                 0.0000
     18 ****        -2.0971   1.6621  -2.3348 H              1 S1                 0.0000
     19 ****        -2.4138   0.2005  -1.3847 H              1 S1                 0.0000
     20 ****         0.2136   1.0675  -2.3810 H              1 S1                 0.0000
     21 ****         0.5866  -1.3321  -4.1593 H              1 S1                 0.0000
     22 ****         1.3214   0.2623  -4.3042 H              1 S1                 0.0000
     23 ****         2.8038  -1.7129  -3.2647 H              1 S1                 0.0000
     24 ****         2.7721  -0.1770  -2.3983 H              1 S1                 0.0000
     25 ****         1.1960  -2.6844  -1.7808 H              1 S1                 0.0000
     26 ****         2.1060  -1.6953  -0.6543 H              1 S1                 0.0000
     27 ****        -0.6678  -1.5329  -1.2046 H              1 S1                 0.0000
     28 ****         0.7399   0.9028  -0.2646 H              1 S1                 0.0000
     29 ****         0.4458   2.5528   3.9817 H              1 S1                 0.0000
     30 ****        -0.4421   2.0286   6.2555 H              1 S1                 0.0000
     31 ****        -1.6113  -0.5572   5.9476 H              1 S1                 0.0000
     32 ****         0.5645   1.5045   1.6353 H              1 S1                 0.0000
     33 ****        -1.3055   0.2813  -4.0648 LP             1 S1                 0.0000
     34 ****        -1.5694  -1.0608  -3.1727 LP             1 S1                 0.0000
     35 ****        -0.8500  -2.0573   0.6628 LP             1 S1                 0.0000
     36 ****        -1.0130  -1.5430   2.3087 LP             1 S1                 0.0000
     37 ****        -0.4150  -1.1727   3.9438 LP             1 S1                 0.0000
     38 ****        -1.8401  -0.4814   3.5466 LP             1 S1                 0.0000
@<TRIPOS>BOND
    1    1    2 1     
    2    1   17 1     
    3    1   18 1     
    4    1   19 1     
    5    2    3 1     
    6    3    7 1     
    7    3    4 1     
    8    3   20 1     
    9    4    5 1     
   10    4   21 1     
   11    4   22 1     
   12    5    6 1     
   13    5   23 1     
   14    5   24 1     
   15    6    7 1     
   16    6   25 1     
   17    6   26 1     
   18    7    8 1     
   19    7   27 1     
   20    8   28 1     
   21    8    9 am    
   22    9   11 am    
   23    9   10 2     
   24   11   12 1     
   25   11   32 1     
   26   12   16 1     
   27   12   13 2     
   28   13   29 1     
   29   13   14 1     
   30   14   30 1     
   31   14   15 2     
   32   15   31 1     
   33   15   16 1     
   34    2   33 1     
   35    2   34 1     
   36   10   35 1     
   37   10   36 1     
   38   16   37 1     
   39   16   38 1     
@<TRIPOS>SUBSTRUCTURE
      1 S1             1
@<TRIPOS>SET
LONE_PAIRS      STATIC     ATOMS    <user>   **** ""
6 33 34 35 36 37 38
DONOR_HYDROGENS      STATIC     ATOMS    <user>   **** ""
3 28 32 29
ATOM$BLUE        STATIC     ATOMS    COLORGROUP SYSTEM
6 33 34 35 36 37 38
ATOM$RED        STATIC     ATOMS    COLORGROUP SYSTEM
3 28 32 29
