AV-unprocessed.smi:1705|AV-procd|sdf|6884|dock10
  -GOLD-   22720 8 93D 1   1.00000     0.00000
 Structure written by MMmdl.
 38 39  0  0  0  0  0  0  0  0  1 V2000
  149.2270  139.5363  156.2595 C   0  0  0  0  0  0  0  0  0  0  0  0
  149.7563  140.8840  155.7496 C   0  0  2  0  0  0  0  0  0  0  0  0
  150.0875  141.7462  156.8768 N   0  0  0  0  0  0  0  0  0  0  0  0
  151.0958  141.6821  157.8388 C   0  0  0  0  0  0  0  0  0  0  0  0
  152.0440  140.6985  157.8734 C   0  0  0  0  0  0  0  0  0  0  0  0
  152.1559  139.6386  156.9211 C   0  0  0  0  0  0  0  0  0  0  0  0
  152.2726  138.8145  156.1151 N   0  0  0  0  0  0  0  0  0  0  0  0
  153.0816  140.6572  158.9040 C   0  0  0  0  0  0  0  0  0  0  0  0
  153.9670  139.7996  158.9492 O   0  0  0  0  0  0  0  0  0  0  0  0
  153.0118  141.6897  159.8601 N   0  0  0  0  0  0  0  0  0  0  0  0
  154.0236  141.7012  160.8992 C   0  0  0  0  0  0  0  0  0  0  0  0
  152.0618  142.7287  159.8358 C   0  0  0  0  0  0  0  0  0  0  0  0
  152.0662  143.6256  160.6848 O   0  0  0  0  0  0  0  0  0  0  0  0
  151.1051  142.7089  158.7913 N   0  0  0  0  0  0  0  0  0  0  0  0
  150.1630  143.8123  158.8259 C   0  0  0  0  0  0  0  0  0  0  0  0
  148.7573  141.5712  154.7944 C   0  0  1  0  0  0  0  0  0  0  0  0
  148.2316  140.7121  153.6376 C   0  0  0  0  0  0  0  0  0  0  0  0
  146.8906  141.3535  153.3627 C   0  0  0  0  0  0  0  0  0  0  0  0
  146.4220  141.6916  154.7735 C   0  0  0  0  0  0  0  0  0  0  0  0
  147.6022  142.0265  155.4962 O   0  0  0  0  0  0  0  0  0  0  0  0
  148.9889  138.8701  155.4299 H   0  0  0  0  0  0  0  0  0  0  0  0
  148.3239  139.6591  156.8581 H   0  0  0  0  0  0  0  0  0  0  0  0
  149.9701  139.0350  156.8806 H   0  0  0  0  0  0  0  0  0  0  0  0
  150.6591  140.6475  155.1935 H   0  0  0  0  0  0  0  0  0  0  0  0
  149.3279  142.3675  157.1151 H   0  0  0  0  0  0  0  0  0  0  0  0
  153.6718  142.2567  161.7691 H   0  0  0  0  0  0  0  0  0  0  0  0
  154.9141  142.1619  160.4689 H   0  0  0  0  0  0  0  0  0  0  0  0
  154.2176  140.6750  161.2158 H   0  0  0  0  0  0  0  0  0  0  0  0
  149.5374  143.6742  159.7092 H   0  0  0  0  0  0  0  0  0  0  0  0
  149.5500  143.8296  157.9280 H   0  0  0  0  0  0  0  0  0  0  0  0
  150.7330  144.7423  158.8733 H   0  0  0  0  0  0  0  0  0  0  0  0
  149.2262  142.4617  154.3728 H   0  0  0  0  0  0  0  0  0  0  0  0
  148.8927  140.7172  152.7708 H   0  0  0  0  0  0  0  0  0  0  0  0
  148.0834  139.6761  153.9442 H   0  0  0  0  0  0  0  0  0  0  0  0
  147.0218  142.2656  152.7794 H   0  0  0  0  0  0  0  0  0  0  0  0
  146.2013  140.6987  152.8291 H   0  0  0  0  0  0  0  0  0  0  0  0
  145.6964  142.5051  154.7921 H   0  0  0  0  0  0  0  0  0  0  0  0
  145.9657  140.8183  155.2415 H   0  0  0  0  0  0  0  0  0  0  0  0
  1  2  1  0  0  0  0
  1 21  1  0  0  0  0
  1 22  1  0  0  0  0
  1 23  1  0  0  0  0
  2  3  1  0  0  0  0
  2 16  1  0  0  0  0
  2 24  1  0  0  0  0
  3  4  1  0  0  0  0
  3 25  1  0  0  0  0
  4 14  1  0  0  0  0
  4  5  2  0  0  0  0
  5  6  1  0  0  0  0
  5  8  1  0  0  0  0
  6  7  3  0  0  0  0
  8  9  2  0  0  0  0
  8 10  1  0  0  0  0
 10 11  1  0  0  0  0
 10 12  1  0  0  0  0
 11 26  1  0  0  0  0
 11 27  1  0  0  0  0
 11 28  1  0  0  0  0
 12 13  2  0  0  0  0
 12 14  1  0  0  0  0
 14 15  1  0  0  0  0
 15 29  1  0  0  0  0
 15 30  1  0  0  0  0
 15 31  1  0  0  0  0
 16 20  1  0  0  0  0
 16 17  1  0  0  0  0
 16 32  1  0  0  0  0
 17 18  1  0  0  0  0
 17 33  1  0  0  0  0
 17 34  1  0  0  0  0
 18 19  1  0  0  0  0
 18 35  1  0  0  0  0
 18 36  1  0  0  0  0
 19 20  1  0  0  0  0
 19 37  1  0  0  0  0
 19 38  1  0  0  0  0
M  END
> <s_m_source_file>
AV-unprocessed.smi

> <i_m_source_file_index>
1705

> <i_lp_mmshare_version>
43012

> <i_f3d_flags>
0

> <s_epik_input>
TzFbQ0gyXVtDSDJdW0NIMl1bQ0BIXTFbQ0BIXShbQ0gzXSlbTkhdYzJjKEMjTiljKD1PKW4oW0NIM10pYyg9TyluMltDSDNd

> <s_epik_cmdline>
J2VwaWtfcHl0aG9uJywgJy1waCcsICc3LjAnLCAnLXRuJywgJzgnLCAnLW1hJywgJzIwMCcsICctbWV0YWxfYmluZGluZycsICctaW1hZScsICc8aW5maWxlLm1hZT4nLCAnLW9tYWUnLCAnPG91dGZpbGUubWFlPic=

> <r_epik_Ionization_Penalty>
0.000446268

> <r_epik_Ionization_Penalty_Charging>
9.41922e-10

> <r_epik_Ionization_Penalty_Neutral>
0.000446267

> <r_epik_State_Penalty>
0.000275531

> <r_epik_Charging_Adjusted_Penalty>
0.000275532

> <i_epik_Tot_Q>
0

> <i_epik_Tot_abs_Q>
0

> <r_epik_Metal_State_Penalty>
-0

> <b_epik_Metal_Only>
0

> <s_lp_Force_Field>
OPLS_2005

> <r_lp_Energy>
40.5078

> <b_lp_Chiralities_Consistent>
1

> <s_lp_Variant>
AV-unprocessed.smi:1705-3

> <Gold.Version>
5.8.1

> <Gold.Id.Protein>
6NUR|6NUR_protein|mol2

> <Gold.PLP.Fitness>
35.8947

> <Gold.PLP.PLP>
-33.2453

> <Gold.PLP.part.hbond>
-1.0000

> <Gold.PLP.part.metal>
0.0000

> <Gold.PLP.part.buried>
-3.8582

> <Gold.PLP.part.nonpolar>
-29.6294

> <Gold.PLP.part.repulsive>
1.1107

> <Gold.PLP.ligand.clash>
1.7701

> <Gold.PLP.ligand.torsion>
0.1839

> <Gold.PLP.Chemscore.Hbond>
1.0000

> <Gold.PLP.Chemscore.CHOScore>
0.0000

> <Gold.PLP.Chemscore.Metal>
0.0000

> <Gold.Chemscore.Hbonds>
donor molecule, donor type, donor heavy atom, donor atom, acceptor molecule, acceptor atom, score
      P1  H  7997  8010       L1     9  1.00

> <Gold.PLP.Chemscore.Internal.Correction>
1.7873

> <Gold.Rescore>
     Score         DG    S(hbond)    S(metal)    S(lipo)     H(rot)  DE(clash)    DE(int)     intcor
      9.19     -11.54       0.78        0.00      57.48       1.28       0.12       2.23       ----

> <Gold.Chemscore.Fitness>
9.1949

> <Gold.Chemscore.DG>
-11.5396

> <Gold.Chemscore.ZeroCoef>
-5.4800

> <Gold.Chemscore.Hbond>
0.7802

> <Gold.Chemscore.Metal>
0.0000

> <Gold.Chemscore.Lipo>
57.4804

> <Gold.Chemscore.Internal_Hbond>
0.0000

> <Gold.Chemscore.DEClash>
0.1155

> <Gold.Chemscore.DEInternal>
2.2292

> <Gold.Chemscore.Rot>
1.2780

> <Gold.Chemscore.Internal.Correction>
   9.000000E+99

> <Gold.Chemscore.Hbonds>
donor molecule, donor type, donor heavy atom, donor atom, acceptor molecule, acceptor atom, score
      P1  H  7997  8010       L1     9  0.56

> <Gold.Chemscore.Hbond.Weighted>
-2.6060

> <Gold.Chemscore.Metal.Weighted>
-0.0000

> <Gold.Chemscore.Lipo.Weighted>
-6.7252

> <Gold.Chemscore.Internal_Hbond.Weighted>
0.0000

> <Gold.Chemscore.DEClash.Weighted>
0.1155

> <Gold.Chemscore.DEInternal.Weighted>
2.2292

> <Gold.Chemscore.Rot.Weighted>
3.2717

> <Gold.Chemscore.Internal.Correction.Weighted>
   9.000000E+99

> <Gold.Protein.RotatedTorsions>
[ 6907 6896 6895 6894 ] final   57.49 input  -60.11 | X-H torsion
[ 7974 7965 7964 7962 ] final   52.36 input  175.53 | X-H torsion
[ 8008 7997 7996 7995 ] final    1.21 input   59.86 | X-H torsion
[ 10167 10162 10161 10158 ] final  158.56 input  -65.29 | X-H torsion
[ 10718 10713 10712 10709 ] final -134.14 input   66.30 | X-H torsion
[ 10763 10752 10751 10750 ] final  117.22 input  -60.55 | X-H torsion
[ 11005 11000 10999 10996 ] final   79.75 input  -57.11 | X-H torsion

> <Gold.Protein.ActiveResidues>
 VAL166  LYS551  ARG553  GLY616  TRP617  ASP618  TYR619  PRO620  LYS621  CYS622 
 ASP623  PHE694  ASN695  SER759  ASP760  ASP761  ALA762  ILE779  LEU786  VAL792 
 PHE793  MET794  SER795  GLU796  ALA797  LYS798  CYS799  TRP800  GLU811  SER814 

> <Gold.Protein.RotatedAtoms>
  152.3736  134.6697  160.0167 H   0  0  0  0  0  0  0  0  0  0  0  0  # atno 6907 bound_to 6896
  151.6982  133.3305  159.3268 H   0  0  0  0  0  0  0  0  0  0  0  0  # atno 6908 bound_to 6896
  150.7692  134.6574  159.6365 H   0  0  0  0  0  0  0  0  0  0  0  0  # atno 6909 bound_to 6896
  145.9821  139.4253  143.0125 H   0  0  0  0  0  0  0  0  0  0  0  0  # atno 7974 bound_to 7965
  154.6771  140.2624  155.6947 H   0  0  0  0  0  0  0  0  0  0  0  0  # atno 8008 bound_to 7997
  156.2682  140.2818  156.1224 H   0  0  0  0  0  0  0  0  0  0  0  0  # atno 8009 bound_to 7997
  155.1085  140.0375  157.2707 H   0  0  0  0  0  0  0  0  0  0  0  0  # atno 8010 bound_to 7997
  139.4827  144.4812  151.8441 H   0  0  0  0  0  0  0  0  0  0  0  0  # atno 10167 bound_to 10162
  156.2523  130.7160  151.1064 H   0  0  0  0  0  0  0  0  0  0  0  0  # atno 10718 bound_to 10713
  153.5491  135.3543  155.2752 H   0  0  0  0  0  0  0  0  0  0  0  0  # atno 10763 bound_to 10752
  154.8709  135.4109  154.2957 H   0  0  0  0  0  0  0  0  0  0  0  0  # atno 10764 bound_to 10752
  153.3680  135.7063  153.6729 H   0  0  0  0  0  0  0  0  0  0  0  0  # atno 10765 bound_to 10752
  139.9160  134.7867  156.1819 H   0  0  0  0  0  0  0  0  0  0  0  0  # atno 11005 bound_to 11000
  145.7754  140.9879  143.1127 LP  0  0  0  0  0  0  0  0  0  0  0  0  # atno 17320 bound_to 7965
  144.6864  139.9498  143.7477 LP  0  0  0  0  0  0  0  0  0  0  0  0  # atno 17321 bound_to 7965
  140.4289  144.2143  150.5887 LP  0  0  0  0  0  0  0  0  0  0  0  0  # atno 17342 bound_to 10162
  140.4800  143.2382  151.8969 LP  0  0  0  0  0  0  0  0  0  0  0  0  # atno 17343 bound_to 10162
  157.7219  131.0676  150.6099 LP  0  0  0  0  0  0  0  0  0  0  0  0  # atno 17370 bound_to 10713
  156.6180  130.4398  149.5833 LP  0  0  0  0  0  0  0  0  0  0  0  0  # atno 17371 bound_to 10713
  141.0637  133.6829  156.2002 LP  0  0  0  0  0  0  0  0  0  0  0  0  # atno 17394 bound_to 11000
  140.6620  134.4957  157.5584 LP  0  0  0  0  0  0  0  0  0  0  0  0  # atno 17395 bound_to 11000

$$$$
