#       Name:                AV-unprocessed.smi:1783
#       Creating user name   scv26
#       Creation time:       Fri Mar 27 08:43:47 2020


#       File generated by GOLD software.
#

@<TRIPOS>MOLECULE
AV-unprocessed.smi:1783
    36    37     1
SMALL
NO_CHARGES


@<TRIPOS>ATOM
      1 ****        -0.5353   0.5316   1.6399 O.2            1 S1                 0.0000
      2 ****        -0.8737  -0.3425   0.8420 C.2            1 S1                 0.0000
      3 ****        -0.0875  -0.8480  -0.1295 N.am           1 S1                 0.0000
      4 ****         1.2417  -0.5366  -0.4623 C.2            1 S1                 0.0000
      5 ****         2.1175   0.1124   0.3541 C.2            1 S1                 0.0000
      6 ****         3.4903   0.3975  -0.0438 C.2            1 S1                 0.0000
      7 ****         4.4600   1.2070   0.7988 C.3            1 S1                 0.0000
      8 ****         5.2128   0.3903   1.5345 F              1 S1                 0.0000
      9 ****         5.2682   1.9390   0.0316 F              1 S1                 0.0000
     10 ****         3.8073   2.0260   1.6236 F              1 S1                 0.0000
     11 ****         3.7719  -0.0565  -1.3177 C.2            1 S1                 0.0000
     12 ****         2.9754  -0.7304  -2.1762 N.pl3          1 S1                -1.0000
     13 ****         1.6933  -0.9911  -1.7940 C.2            1 S1                 0.0000
     14 ****         0.9114  -1.5935  -2.5306 O.2            1 S1                 0.0000
     15 ****        -2.2971  -0.9314   0.9194 C.3            1 S1                 0.0000
     16 ****        -3.3768   0.0769   1.3262 C.3            1 S1                 0.0000
     17 ****        -3.6963   0.7992   0.0272 C.3            1 S1                 0.0000
     18 ****        -3.2900  -0.2015  -1.0601 C.3            1 S1                 0.0000
     19 ****        -2.7490  -1.3289  -0.3730 O.3            1 S1                 0.0000
     20 ****        -0.5248  -1.5163  -0.7481 H              1 S1                 0.0000
     21 ****         1.8267   0.4226   1.3441 H              1 S1                 0.0000
     22 ****         4.7895   0.1586  -1.7082 H              1 S1                 0.0000
     23 ****        -2.2804  -1.7886   1.5929 H              1 S1                 0.0000
     24 ****        -4.2592  -0.4613   1.6743 H              1 S1                 0.0000
     25 ****        -3.0760   0.7572   2.1237 H              1 S1                 0.0000
     26 ****        -4.7479   1.0801  -0.0355 H              1 S1                 0.0000
     27 ****        -3.0999   1.7082  -0.0600 H              1 S1                 0.0000
     28 ****        -4.1378  -0.5096  -1.6724 H              1 S1                 0.0000
     29 ****        -2.5351   0.2288  -1.7197 H              1 S1                 0.0000
     30 ****         0.3849   0.9205   1.5950 LP             1 S1                 0.0000
     31 ****        -1.1806   0.8529   2.3329 LP             1 S1                 0.0000
     32 ****         3.3170  -1.0295  -3.0672 LP             1 S1                 0.0000
     33 ****        -0.0242  -1.7730  -2.2267 LP             1 S1                 0.0000
     34 ****         1.2122  -1.9031  -3.4327 LP             1 S1                 0.0000
     35 ****        -3.4553  -2.0303  -0.2772 LP             1 S1                 0.0000
     36 ****        -1.9803  -1.6989  -0.8948 LP             1 S1                 0.0000
@<TRIPOS>BOND
    1    1    2 2     
    2    2    3 am    
    3    2   15 1     
    4    3    4 1     
    5    3   20 1     
    6    4   13 1     
    7    4    5 2     
    8    5    6 1     
    9    5   21 1     
   10    6    7 1     
   11    6   11 2     
   12    7    8 1     
   13    7    9 1     
   14    7   10 1     
   15   11   12 1     
   16   11   22 1     
   17   12   13 1     
   18   13   14 2     
   19   15   19 1     
   20   15   16 1     
   21   15   23 1     
   22   16   17 1     
   23   16   24 1     
   24   16   25 1     
   25   17   18 1     
   26   17   26 1     
   27   17   27 1     
   28   18   19 1     
   29   18   28 1     
   30   18   29 1     
   31    1   30 1     
   32    1   31 1     
   33   12   32 1     
   34   14   33 1     
   35   14   34 1     
   36   19   35 1     
   37   19   36 1     
@<TRIPOS>SUBSTRUCTURE
      1 S1             1
@<TRIPOS>SET
LONE_PAIRS      STATIC     ATOMS    <user>   **** ""
7 30 31 32 33 34 35 36
DONOR_HYDROGENS      STATIC     ATOMS    <user>   **** ""
1 20
ATOM$BLUE        STATIC     ATOMS    COLORGROUP SYSTEM
7 30 31 32 33 34 35 36
ATOM$RED        STATIC     ATOMS    COLORGROUP SYSTEM
1 20
