AV-unprocessed.smi:1703|AV-procd|sdf|6863|dock1
  -GOLD-   22720 8 53D 1   1.00000     0.00000
 Structure written by MMmdl.
 49 51  0  0  0  0  0  0  0  0  2 V2000
  144.9702  144.9769  152.8039 C   0  0  0  0  0  0  0  0  0  0  0  0
  145.4076  144.0923  153.9767 C   0  0  2  0  0  0  0  0  0  0  0  0
  146.1021  142.8019  153.5022 C   0  0  0  0  0  0  0  0  0  0  0  0
  146.4385  141.9358  154.6567 N   0  3  2  0  0  0  0  0  0  0  0  0
  147.1698  140.7095  154.2487 C   0  0  0  0  0  0  0  0  0  0  0  0
  148.7030  140.8664  154.3512 C   0  0  2  0  0  0  0  0  0  0  0  0
  149.2143  141.2224  153.0827 O   0  0  0  0  0  0  0  0  0  0  0  0
  149.4286  139.5845  154.8077 C   0  0  0  0  0  0  0  0  0  0  0  0
  150.6059  139.8630  155.6198 N   0  0  0  0  0  0  0  0  0  0  0  0
  151.8011  139.2182  155.6316 C   0  0  0  0  0  0  0  0  0  0  0  0
  152.0932  138.0468  154.7444 C   0  0  0  0  0  0  0  0  0  0  0  0
  152.2062  136.8357  155.4599 O   0  0  0  0  0  0  0  0  0  0  0  0
  152.7055  139.6899  156.4901 N   0  0  0  0  0  0  0  0  0  0  0  0
  152.0424  140.7462  157.0825 C   0  0  0  0  0  0  0  0  0  0  0  0
  152.4658  141.6534  158.0799 C   0  0  0  0  0  0  0  0  0  0  0  0
  151.5995  142.6688  158.5353 C   0  0  0  0  0  0  0  0  0  0  0  0
  150.3006  142.7914  158.0009 C   0  0  0  0  0  0  0  0  0  0  0  0
  149.8584  141.8970  157.0072 C   0  0  0  0  0  0  0  0  0  0  0  0
  150.7265  140.8842  156.5573 C   0  0  0  0  0  0  0  0  0  0  0  0
  145.2258  141.6669  155.4684 C   0  0  0  0  0  0  0  0  0  0  0  0
  144.5589  142.9889  155.8932 C   0  0  2  0  0  0  0  0  0  0  0  0
  143.2603  142.7578  156.6738 C   0  0  0  0  0  0  0  0  0  0  0  0
  144.2496  143.7481  154.7295 O   0  0  0  0  0  0  0  0  0  0  0  0
  145.8263  145.2837  152.2026 H   0  0  0  0  0  0  0  0  0  0  0  0
  144.4748  145.8801  153.1610 H   0  0  0  0  0  0  0  0  0  0  0  0
  144.2730  144.4516  152.1505 H   0  0  0  0  0  0  0  0  0  0  0  0
  146.0884  144.6658  154.6082 H   0  0  0  0  0  0  0  0  0  0  0  0
  145.4557  142.2543  152.8138 H   0  0  0  0  0  0  0  0  0  0  0  0
  147.0114  143.0555  152.9557 H   0  0  0  0  0  0  0  0  0  0  0  0
  146.8172  139.8765  154.8583 H   0  0  0  0  0  0  0  0  0  0  0  0
  146.9176  140.4594  153.2170 H   0  0  0  0  0  0  0  0  0  0  0  0
  148.9537  141.6663  155.0465 H   0  0  0  0  0  0  0  0  0  0  0  0
  149.2004  140.4593  152.5248 H   0  0  0  0  0  0  0  0  0  0  0  0
  148.7466  138.9383  155.3595 H   0  0  0  0  0  0  0  0  0  0  0  0
  149.7500  139.0088  153.9386 H   0  0  0  0  0  0  0  0  0  0  0  0
  151.2943  137.9433  154.0092 H   0  0  0  0  0  0  0  0  0  0  0  0
  153.0105  138.2270  154.1845 H   0  0  0  0  0  0  0  0  0  0  0  0
  151.6413  136.8780  156.2162 H   0  0  0  0  0  0  0  0  0  0  0  0
  153.4595  141.5692  158.4942 H   0  0  0  0  0  0  0  0  0  0  0  0
  151.9342  143.3578  159.2971 H   0  0  0  0  0  0  0  0  0  0  0  0
  149.6445  143.5741  158.3532 H   0  0  0  0  0  0  0  0  0  0  0  0
  148.8650  141.9911  156.5948 H   0  0  0  0  0  0  0  0  0  0  0  0
  144.5262  141.0613  154.8896 H   0  0  0  0  0  0  0  0  0  0  0  0
  145.4823  141.0932  156.3581 H   0  0  0  0  0  0  0  0  0  0  0  0
  145.2437  143.5598  156.5231 H   0  0  0  0  0  0  0  0  0  0  0  0
  143.4450  142.1835  157.5822 H   0  0  0  0  0  0  0  0  0  0  0  0
  142.5300  142.2122  156.0755 H   0  0  0  0  0  0  0  0  0  0  0  0
  142.8086  143.7054  156.9677 H   0  0  0  0  0  0  0  0  0  0  0  0
  147.0729  142.4671  155.2366 H   0  0  0  0  0  0  0  0  0  0  0  0
  1  2  1  0  0  0  0
  1 24  1  0  0  0  0
  1 25  1  0  0  0  0
  1 26  1  0  0  0  0
  2 23  1  0  0  0  0
  2  3  1  0  0  0  0
  2 27  1  0  0  0  0
  3  4  1  0  0  0  0
  3 28  1  0  0  0  0
  3 29  1  0  0  0  0
  4  5  1  0  0  0  0
  4 20  1  0  0  0  0
  4 49  1  0  0  0  0
  5  6  1  0  0  0  0
  5 30  1  0  0  0  0
  5 31  1  0  0  0  0
  6  7  1  0  0  0  0
  6  8  1  0  0  0  0
  6 32  1  0  0  0  0
  7 33  1  0  0  0  0
  8  9  1  0  0  0  0
  8 34  1  0  0  0  0
  8 35  1  0  0  0  0
  9 19  1  0  0  0  0
  9 10  1  0  0  0  0
 10 11  1  0  0  0  0
 10 13  2  0  0  0  0
 11 12  1  0  0  0  0
 11 36  1  0  0  0  0
 11 37  1  0  0  0  0
 12 38  1  0  0  0  0
 13 14  1  0  0  0  0
 14 19  2  0  0  0  0
 14 15  1  0  0  0  0
 15 16  2  0  0  0  0
 15 39  1  0  0  0  0
 16 17  1  0  0  0  0
 16 40  1  0  0  0  0
 17 18  2  0  0  0  0
 17 41  1  0  0  0  0
 18 19  1  0  0  0  0
 18 42  1  0  0  0  0
 20 21  1  0  0  0  0
 20 43  1  0  0  0  0
 20 44  1  0  0  0  0
 21 22  1  0  0  0  0
 21 23  1  0  0  0  0
 21 45  1  0  0  0  0
 22 46  1  0  0  0  0
 22 47  1  0  0  0  0
 22 48  1  0  0  0  0
M  CHG  1   4   1
M  END
> <s_m_source_file>
AV-unprocessed.smi

> <i_m_source_file_index>
1703

> <i_lp_mmshare_version>
43012

> <i_f3d_flags>
0

> <s_epik_input>
W0NIM11bQ0BASF0xW0NIMl1OKFtDSDJdW0NASF0oTzEpW0NIM10pW0NIMl1bQ0BIXShbT0hdKVtDSDJdbihjKG4yKVtDSDJdW09IXSljKGMyMylbY0hdW2NIXVtjSF1bY0hdMw==

> <s_epik_cmdline>
J2VwaWtfcHl0aG9uJywgJy1waCcsICc3LjAnLCAnLXRuJywgJzgnLCAnLW1hJywgJzIwMCcsICctbWV0YWxfYmluZGluZycsICctaW1hZScsICc8aW5maWxlLm1hZT4nLCAnLW9tYWUnLCAnPG91dGZpbGUubWFlPic=

> <r_epik_Ionization_Penalty>
0.655661

> <r_epik_Ionization_Penalty_Charging>
0.608065

> <r_epik_Ionization_Penalty_Neutral>
0.0475963

> <r_epik_State_Penalty>
0.695267

> <r_epik_Charging_Adjusted_Penalty>
1.30333

> <i_epik_Tot_Q>
1

> <i_epik_Tot_abs_Q>
1

> <r_epik_Metal_State_Penalty>
0.653591

> <b_epik_Metal_Only>
0

> <s_lp_Force_Field>
OPLS_2005

> <r_lp_Energy>
21.8251

> <b_lp_Chiralities_Consistent>
1

> <s_lp_Variant>
AV-unprocessed.smi:1703-11

> <Gold.Version>
5.8.1

> <Gold.Id.Protein>
6NUR|6NUR_protein|mol2

> <Gold.PLP.Fitness>
49.4078

> <Gold.PLP.PLP>
-41.6189

> <Gold.PLP.part.hbond>
-4.3169

> <Gold.PLP.part.metal>
0.0000

> <Gold.PLP.part.buried>
-7.3233

> <Gold.PLP.part.nonpolar>
-30.8223

> <Gold.PLP.part.repulsive>
0.2029

> <Gold.PLP.ligand.clash>
0.0000

> <Gold.PLP.ligand.torsion>
1.8535

> <Gold.PLP.Chemscore.Hbond>
3.7834

> <Gold.PLP.Chemscore.CHOScore>
0.0000

> <Gold.PLP.Chemscore.Metal>
0.0000

> <Gold.Chemscore.Hbonds>
donor molecule, donor type, donor heavy atom, donor atom, acceptor molecule, acceptor atom, score
      L1  H     7    33       P1  7957  0.69
      P1  H  7997  8010       L1    13  1.00
      P1  H  8011  8017       L1     7  0.98
      P1  H 10752 10763       L1    12  0.96

> <Gold.PLP.Chemscore.Internal.Correction>
0.1458

> <Gold.Rescore>
     Score         DG    S(hbond)    S(metal)    S(lipo)     H(rot)  DE(clash)    DE(int)     intcor
     16.66     -19.28       3.04        0.00      96.07       2.96       0.12       2.50       ----

> <Gold.Chemscore.Fitness>
16.6603

> <Gold.Chemscore.DG>
-19.2814

> <Gold.Chemscore.ZeroCoef>
-5.4800

> <Gold.Chemscore.Hbond>
3.0365

> <Gold.Chemscore.Metal>
0.0000

> <Gold.Chemscore.Lipo>
96.0659

> <Gold.Chemscore.Internal_Hbond>
0.0000

> <Gold.Chemscore.DEClash>
0.1190

> <Gold.Chemscore.DEInternal>
2.5021

> <Gold.Chemscore.Rot>
2.9611

> <Gold.Chemscore.Internal.Correction>
   9.000000E+99

> <Gold.Chemscore.Hbonds>
donor molecule, donor type, donor heavy atom, donor atom, acceptor molecule, acceptor atom, score
      L1  H     7    33       P1  7957  0.66
      P1  H  7997  8010       L1    13  0.60
      P1  H  8011  8017       L1     7  0.68
      P1  H 10752 10763       L1    12  0.90

> <Gold.Chemscore.Hbond.Weighted>
-10.1421

> <Gold.Chemscore.Metal.Weighted>
-0.0000

> <Gold.Chemscore.Lipo.Weighted>
-11.2397

> <Gold.Chemscore.Internal_Hbond.Weighted>
0.0000

> <Gold.Chemscore.DEClash.Weighted>
0.1190

> <Gold.Chemscore.DEInternal.Weighted>
2.5021

> <Gold.Chemscore.Rot.Weighted>
7.5803

> <Gold.Chemscore.Internal.Correction.Weighted>
   9.000000E+99

> <Gold.Protein.RotatedTorsions>
[ 6907 6896 6895 6894 ] final   -3.66 input  -60.11 | X-H torsion
[ 7974 7965 7964 7962 ] final  177.32 input  175.53 | X-H torsion
[ 8008 7997 7996 7995 ] final   75.32 input   59.86 | X-H torsion
[ 10167 10162 10161 10158 ] final  109.16 input  -65.29 | X-H torsion
[ 10718 10713 10712 10709 ] final   -1.04 input   66.30 | X-H torsion
[ 10763 10752 10751 10750 ] final   75.05 input  -60.55 | X-H torsion
[ 11005 11000 10999 10996 ] final  -69.52 input  -57.11 | X-H torsion

> <Gold.Protein.ActiveResidues>
 VAL166  LYS551  ARG553  GLY616  TRP617  ASP618  TYR619  PRO620  LYS621  CYS622 
 ASP623  PHE694  ASN695  SER759  ASP760  ASP761  ALA762  ILE779  LEU786  VAL792 
 PHE793  MET794  SER795  GLU796  ALA797  LYS798  CYS799  TRP800  GLU811  SER814 

> <Gold.Protein.RotatedAtoms>
  151.5101  135.1064  159.9851 H   0  0  0  0  0  0  0  0  0  0  0  0  # atno 6907 bound_to 6896
  152.4665  133.7931  159.6923 H   0  0  0  0  0  0  0  0  0  0  0  0  # atno 6908 bound_to 6896
  150.8651  133.7522  159.3005 H   0  0  0  0  0  0  0  0  0  0  0  0  # atno 6909 bound_to 6896
  144.7171  140.0230  143.6440 H   0  0  0  0  0  0  0  0  0  0  0  0  # atno 7974 bound_to 7965
  155.8113  140.3473  155.5459 H   0  0  0  0  0  0  0  0  0  0  0  0  # atno 8008 bound_to 7997
  155.8438  140.0945  157.1738 H   0  0  0  0  0  0  0  0  0  0  0  0  # atno 8009 bound_to 7997
  154.4006  140.1389  156.3748 H   0  0  0  0  0  0  0  0  0  0  0  0  # atno 8010 bound_to 7997
  139.6788  144.7120  151.1552 H   0  0  0  0  0  0  0  0  0  0  0  0  # atno 10167 bound_to 10162
  156.8115  130.5426  149.5708 H   0  0  0  0  0  0  0  0  0  0  0  0  # atno 10718 bound_to 10713
  153.0628  135.5003  154.8132 H   0  0  0  0  0  0  0  0  0  0  0  0  # atno 10763 bound_to 10752
  154.6909  135.2984  154.9484 H   0  0  0  0  0  0  0  0  0  0  0  0  # atno 10764 bound_to 10752
  154.0239  135.6738  153.4827 H   0  0  0  0  0  0  0  0  0  0  0  0  # atno 10765 bound_to 10752
  141.1555  133.6766  156.6612 H   0  0  0  0  0  0  0  0  0  0  0  0  # atno 11005 bound_to 11000
  146.0165  139.3214  143.0838 LP  0  0  0  0  0  0  0  0  0  0  0  0  # atno 17320 bound_to 7965
  145.8619  140.9470  143.0695 LP  0  0  0  0  0  0  0  0  0  0  0  0  # atno 17321 bound_to 7965
  140.7645  143.5730  150.8975 LP  0  0  0  0  0  0  0  0  0  0  0  0  # atno 17342 bound_to 10162
  139.9401  143.6392  152.3056 LP  0  0  0  0  0  0  0  0  0  0  0  0  # atno 17343 bound_to 10162
  156.1042  130.5992  150.9943 LP  0  0  0  0  0  0  0  0  0  0  0  0  # atno 17370 bound_to 10713
  157.6503  131.0898  150.8064 LP  0  0  0  0  0  0  0  0  0  0  0  0  # atno 17371 bound_to 10713
  140.3246  134.7979  157.4279 LP  0  0  0  0  0  0  0  0  0  0  0  0  # atno 17394 bound_to 11000
  140.1068  134.5399  155.8302 LP  0  0  0  0  0  0  0  0  0  0  0  0  # atno 17395 bound_to 11000

$$$$
