#       Name:                AV-unprocessed.smi:551
#       Creating user name   scv26
#       Creation time:       Thu Mar 26 23:39:30 2020


#       File generated by GOLD software.
#

@<TRIPOS>MOLECULE
AV-unprocessed.smi:551
    41    42     1
SMALL
NO_CHARGES


@<TRIPOS>ATOM
      1 ****        -0.5367  -3.6040   0.6562 C.3            1 S1                 0.0000
      2 ****         0.1224  -2.6778  -0.3807 C.3            1 S1                 0.0000
      3 ****         1.6643  -2.6767  -0.2669 C.3            1 S1                 0.0000
      4 ****         2.2988  -1.8808  -1.3015 N.pl3          1 S1                 0.0000
      5 ****         2.8292  -0.6041  -1.1688 C.2            1 S1                 0.0000
      6 ****         3.3194  -0.2516  -2.4057 C.2            1 S1                 0.0000
      7 ****         3.1053  -1.2910  -3.3082 N.2            1 S1                 0.0000
      8 ****         2.4992  -2.2213  -2.5818 C.2            1 S1                 0.0000
      9 ****        -0.4538  -1.3306  -0.3377 N.am           1 S1                 0.0000
     10 ****        -0.3695  -0.4361   0.6621 C.2            1 S1                 0.0000
     11 ****         0.2161  -0.6529   1.7231 O.2            1 S1                 0.0000
     12 ****        -1.0460   0.9191   0.4184 C.3            1 S1                 0.0000
     13 ****         0.0020   2.0506   0.3533 C.3            1 S1                 0.0000
     14 ****        -0.6638   3.4173   0.1235 C.3            1 S1                 0.0000
     15 ****        -1.7178   3.7122   1.2024 C.3            1 S1                 0.0000
     16 ****        -2.7627   2.5882   1.2808 C.3            1 S1                 0.0000
     17 ****        -2.0953   1.2222   1.5098 C.3            1 S1                 0.0000
     18 ****        -0.1928  -4.6312   0.5336 H              1 S1                 0.0000
     19 ****        -1.6217  -3.6068   0.5485 H              1 S1                 0.0000
     20 ****        -0.3036  -3.3011   1.6772 H              1 S1                 0.0000
     21 ****        -0.1338  -3.0718  -1.3650 H              1 S1                 0.0000
     22 ****         1.9905  -2.3101   0.7067 H              1 S1                 0.0000
     23 ****         2.0428  -3.6965  -0.3490 H              1 S1                 0.0000
     24 ****         2.8099  -0.0663  -0.2319 H              1 S1                 0.0000
     25 ****         3.8056   0.6626  -2.7128 H              1 S1                 0.0000
     26 ****         2.1907  -3.1718  -2.9919 H              1 S1                 0.0000
     27 ****        -0.9567  -1.0424  -1.1644 H              1 S1                 0.0000
     28 ****        -1.5612   0.8776  -0.5432 H              1 S1                 0.0000
     29 ****         0.5787   2.0834   1.2793 H              1 S1                 0.0000
     30 ****         0.7172   1.8551  -0.4471 H              1 S1                 0.0000
     31 ****         0.0922   4.2030   0.1181 H              1 S1                 0.0000
     32 ****        -1.1337   3.4338  -0.8607 H              1 S1                 0.0000
     33 ****        -1.2279   3.8233   2.1705 H              1 S1                 0.0000
     34 ****        -2.2092   4.6629   0.9937 H              1 S1                 0.0000
     35 ****        -3.4708   2.7952   2.0837 H              1 S1                 0.0000
     36 ****        -3.3420   2.5619   0.3572 H              1 S1                 0.0000
     37 ****        -2.8579   0.4424   1.5247 H              1 S1                 0.0000
     38 ****        -1.6271   1.2143   2.4954 H              1 S1                 0.0000
     39 ****         3.3509  -1.3274  -4.2769 LP             1 S1                 0.0000
     40 ****         0.6626  -1.5344   1.8767 LP             1 S1                 0.0000
     41 ****         0.2453   0.0525   2.4313 LP             1 S1                 0.0000
@<TRIPOS>BOND
    1    1    2 1     
    2    1   18 1     
    3    1   19 1     
    4    1   20 1     
    5    2    3 1     
    6    2    9 1     
    7    2   21 1     
    8    3    4 1     
    9    3   22 1     
   10    3   23 1     
   11    4    8 1     
   12    4    5 1     
   13    5    6 2     
   14    5   24 1     
   15    6    7 1     
   16    6   25 1     
   17    7    8 2     
   18    8   26 1     
   19    9   10 am    
   20    9   27 1     
   21   10   11 2     
   22   10   12 1     
   23   12   17 1     
   24   12   13 1     
   25   12   28 1     
   26   13   14 1     
   27   13   29 1     
   28   13   30 1     
   29   14   15 1     
   30   14   31 1     
   31   14   32 1     
   32   15   16 1     
   33   15   33 1     
   34   15   34 1     
   35   16   17 1     
   36   16   35 1     
   37   16   36 1     
   38   17   37 1     
   39   17   38 1     
   40    7   39 1     
   41   11   40 1     
   42   11   41 1     
@<TRIPOS>SUBSTRUCTURE
      1 S1             1
@<TRIPOS>SET
LONE_PAIRS      STATIC     ATOMS    <user>   **** ""
3 39 40 41
DONOR_HYDROGENS      STATIC     ATOMS    <user>   **** ""
1 27
ATOM$BLUE        STATIC     ATOMS    COLORGROUP SYSTEM
3 39 40 41
ATOM$RED        STATIC     ATOMS    COLORGROUP SYSTEM
1 27
