AV-unprocessed.smi:299|AV-procd|sdf|2267|dock2
  -GOLD-   2262022153D 1   1.00000     0.00000
 Structure written by MMmdl.
 42 43  0  0  0  0  0  0  0  0  2 V2000
  144.2077  135.0117  151.0741 C   0  0  0  0  0  0  0  0  0  0  0  0
  145.7462  135.1376  151.0248 C   0  0  2  0  0  0  0  0  0  0  0  0
  146.4424  133.7674  150.8833 C   0  0  0  0  0  0  0  0  0  0  0  0
  146.3903  132.9555  152.1860 C   0  0  0  0  0  0  0  0  0  0  0  0
  146.9610  133.7836  153.3434 C   0  0  0  0  0  0  0  0  0  0  0  0
  146.2489  135.1411  153.4607 C   0  0  0  0  0  0  0  0  0  0  0  0
  146.3178  135.8954  152.1790 N   0  3  2  0  0  0  0  0  0  0  0  0
  145.8201  137.2923  152.2802 C   0  0  0  0  0  0  0  0  0  0  0  0
  146.5102  138.0809  153.4060 C   0  0  0  0  0  0  0  0  0  0  0  0
  146.9332  139.4893  152.9555 C   0  0  0  0  0  0  0  0  0  0  0  0
  148.3246  139.7665  153.2908 N   0  0  0  0  0  0  0  0  0  0  0  0
  148.8860  139.5630  154.4931 C   0  0  0  0  0  0  0  0  0  0  0  0
  148.2755  139.1007  155.4566 O   0  0  0  0  0  0  0  0  0  0  0  0
  150.3604  139.9440  154.6325 C   0  0  0  0  0  0  0  0  0  0  0  0
  151.1687  138.7838  154.9571 N   0  0  0  0  0  0  0  0  0  0  0  0
  151.1910  137.5563  154.4337 C   0  0  0  0  0  0  0  0  0  0  0  0
  152.0770  136.7821  155.0416 N   0  0  0  0  0  0  0  0  0  0  0  0
  152.6236  137.6203  155.9989 N   0  0  0  0  0  0  0  0  0  0  0  0
  152.0882  138.8092  155.9542 N   0  0  0  0  0  0  0  0  0  0  0  0
  143.8389  134.4723  150.2011 H   0  0  0  0  0  0  0  0  0  0  0  0
  143.7214  135.9869  151.0711 H   0  0  0  0  0  0  0  0  0  0  0  0
  143.8623  134.4724  151.9555 H   0  0  0  0  0  0  0  0  0  0  0  0
  145.9876  135.7025  150.1232 H   0  0  0  0  0  0  0  0  0  0  0  0
  145.9951  133.1969  150.0685 H   0  0  0  0  0  0  0  0  0  0  0  0
  147.4856  133.9230  150.6045 H   0  0  0  0  0  0  0  0  0  0  0  0
  145.3633  132.6641  152.4080 H   0  0  0  0  0  0  0  0  0  0  0  0
  146.9558  132.0299  152.0731 H   0  0  0  0  0  0  0  0  0  0  0  0
  146.8669  133.2312  154.2789 H   0  0  0  0  0  0  0  0  0  0  0  0
  148.0286  133.9446  153.1857 H   0  0  0  0  0  0  0  0  0  0  0  0
  145.2098  135.0005  153.7599 H   0  0  0  0  0  0  0  0  0  0  0  0
  146.7228  135.7105  154.2592 H   0  0  0  0  0  0  0  0  0  0  0  0
  146.0172  137.8093  151.3399 H   0  0  0  0  0  0  0  0  0  0  0  0
  144.7375  137.2956  152.4156 H   0  0  0  0  0  0  0  0  0  0  0  0
  145.8496  138.1712  154.2678 H   0  0  0  0  0  0  0  0  0  0  0  0
  147.3865  137.5268  153.7452 H   0  0  0  0  0  0  0  0  0  0  0  0
  146.7771  139.6146  151.8825 H   0  0  0  0  0  0  0  0  0  0  0  0
  146.3138  140.2387  153.4493 H   0  0  0  0  0  0  0  0  0  0  0  0
  148.9036  140.1500  152.5570 H   0  0  0  0  0  0  0  0  0  0  0  0
  150.7264  140.3752  153.6998 H   0  0  0  0  0  0  0  0  0  0  0  0
  150.4815  140.7019  155.4083 H   0  0  0  0  0  0  0  0  0  0  0  0
  150.5600  137.2317  153.6196 H   0  0  0  0  0  0  0  0  0  0  0  0
  147.3016  135.9802  151.9663 H   0  0  0  0  0  0  0  0  0  0  0  0
  1  2  1  0  0  0  0
  1 20  1  0  0  0  0
  1 21  1  0  0  0  0
  1 22  1  0  0  0  0
  2  7  1  0  0  0  0
  2  3  1  0  0  0  0
  2 23  1  0  0  0  0
  3  4  1  0  0  0  0
  3 24  1  0  0  0  0
  3 25  1  0  0  0  0
  4  5  1  0  0  0  0
  4 26  1  0  0  0  0
  4 27  1  0  0  0  0
  5  6  1  0  0  0  0
  5 28  1  0  0  0  0
  5 29  1  0  0  0  0
  6  7  1  0  0  0  0
  6 30  1  0  0  0  0
  6 31  1  0  0  0  0
  7  8  1  0  0  0  0
  7 42  1  0  0  0  0
  8  9  1  0  0  0  0
  8 32  1  0  0  0  0
  8 33  1  0  0  0  0
  9 10  1  0  0  0  0
  9 34  1  0  0  0  0
  9 35  1  0  0  0  0
 10 11  1  0  0  0  0
 10 36  1  0  0  0  0
 10 37  1  0  0  0  0
 11 12  1  0  0  0  0
 11 38  1  0  0  0  0
 12 13  2  0  0  0  0
 12 14  1  0  0  0  0
 14 15  1  0  0  0  0
 14 39  1  0  0  0  0
 14 40  1  0  0  0  0
 15 19  1  0  0  0  0
 15 16  1  0  0  0  0
 16 17  2  0  0  0  0
 16 41  1  0  0  0  0
 17 18  1  0  0  0  0
 18 19  2  0  0  0  0
M  CHG  1   7   1
M  END
> <s_m_source_file>
AV-unprocessed.smi

> <i_m_source_file_index>
299

> <i_lp_mmshare_version>
43012

> <i_f3d_flags>
0

> <s_epik_input>
W0NIM11bQ0BASF0xW0NIMl1bQ0gyXVtDSDJdW0NIMl1OMVtDSDJdW0NIMl1bQ0gyXVtOSF1DKD1PKVtDSDJdbjJbY0hdbm5uMg==

> <s_epik_cmdline>
J2VwaWtfcHl0aG9uJywgJy1waCcsICc3LjAnLCAnLXRuJywgJzgnLCAnLW1hJywgJzIwMCcsICctbWV0YWxfYmluZGluZycsICctaW1hZScsICc8aW5maWxlLm1hZT4nLCAnLW9tYWUnLCAnPG91dGZpbGUubWFlPic=

> <r_lp_tautomer_probability>
1

> <r_epik_Ionization_Penalty>
0.000544863

> <r_epik_Ionization_Penalty_Charging>
0.000543475

> <r_epik_Ionization_Penalty_Neutral>
1.38784e-06

> <r_epik_State_Penalty>
0.000340025

> <r_epik_Charging_Adjusted_Penalty>
0.0008835

> <i_epik_Tot_Q>
1

> <i_epik_Tot_abs_Q>
1

> <r_epik_Metal_State_Penalty>
-0

> <b_epik_Metal_Only>
0

> <s_lp_Force_Field>
OPLS_2005

> <r_lp_Energy>
22.352

> <b_lp_Chiralities_Consistent>
1

> <s_lp_Variant>
AV-unprocessed.smi:299-3

> <Gold.Version>
5.8.1

> <Gold.Id.Protein>
6NUR|6NUR_protein|mol2

> <Gold.PLP.Fitness>
44.6057

> <Gold.PLP.PLP>
-30.6971

> <Gold.PLP.part.hbond>
-3.2592

> <Gold.PLP.part.metal>
0.0000

> <Gold.PLP.part.buried>
-4.0920

> <Gold.PLP.part.nonpolar>
-24.8013

> <Gold.PLP.part.repulsive>
0.2698

> <Gold.PLP.ligand.clash>
0.0000

> <Gold.PLP.ligand.torsion>
0.8946

> <Gold.PLP.Chemscore.Hbond>
4.0000

> <Gold.PLP.Chemscore.CHOScore>
1.1946

> <Gold.PLP.Chemscore.Metal>
0.0000

> <Gold.Chemscore.Hbonds>
donor molecule, donor type, donor heavy atom, donor atom, acceptor molecule, acceptor atom, score
      L1  H     7    42       P1  7948  2.00
      L1  H    11    38       P1  7957  1.00
      P1  H 10752 10765       L1    17  0.99
      L1  C    16    41       P1  7948  0.61
      L1  C    16    41       P1  7949  0.58

> <Gold.PLP.Chemscore.Internal.Correction>
0.1142

> <Gold.Rescore>
     Score         DG    S(hbond)    S(metal)    S(lipo)     H(rot)  DE(clash)    DE(int)     intcor
     11.85     -13.90       2.88        0.00      54.69       2.97       0.01       2.04       ----

> <Gold.Chemscore.Fitness>
11.8541

> <Gold.Chemscore.DG>
-13.9045

> <Gold.Chemscore.ZeroCoef>
-5.4800

> <Gold.Chemscore.Hbond>
2.8812

> <Gold.Chemscore.Metal>
0.0000

> <Gold.Chemscore.Lipo>
54.6946

> <Gold.Chemscore.Internal_Hbond>
0.0000

> <Gold.Chemscore.DEClash>
0.0067

> <Gold.Chemscore.DEInternal>
2.0437

> <Gold.Chemscore.Rot>
2.9680

> <Gold.Chemscore.Internal.Correction>
   9.000000E+99

> <Gold.Chemscore.Hbonds>
donor molecule, donor type, donor heavy atom, donor atom, acceptor molecule, acceptor atom, score
      L1  H     7    42       P1  7948  1.00
      L1  H    11    38       P1  7957  0.92
      P1  H 10752 10765       L1    17  0.84

> <Gold.Chemscore.Hbond.Weighted>
-9.6232

> <Gold.Chemscore.Metal.Weighted>
-0.0000

> <Gold.Chemscore.Lipo.Weighted>
-6.3993

> <Gold.Chemscore.Internal_Hbond.Weighted>
0.0000

> <Gold.Chemscore.DEClash.Weighted>
0.0067

> <Gold.Chemscore.DEInternal.Weighted>
2.0437

> <Gold.Chemscore.Rot.Weighted>
7.5980

> <Gold.Chemscore.Internal.Correction.Weighted>
   9.000000E+99

> <Gold.Protein.RotatedTorsions>
[ 6907 6896 6895 6894 ] final  -19.46 input  -60.11 | X-H torsion
[ 7974 7965 7964 7962 ] final  -72.11 input  175.53 | X-H torsion
[ 8008 7997 7996 7995 ] final   84.98 input   59.86 | X-H torsion
[ 10167 10162 10161 10158 ] final -103.46 input  -65.29 | X-H torsion
[ 10718 10713 10712 10709 ] final  -34.72 input   66.30 | X-H torsion
[ 10763 10752 10751 10750 ] final  178.18 input  -60.55 | X-H torsion
[ 11005 11000 10999 10996 ] final   12.09 input  -57.11 | X-H torsion

> <Gold.Protein.ActiveResidues>
 VAL166  LYS551  ARG553  GLY616  TRP617  ASP618  TYR619  PRO620  LYS621  CYS622 
 ASP623  PHE694  ASN695  SER759  ASP760  ASP761  ALA762  ILE779  LEU786  VAL792 
 PHE793  MET794  SER795  GLU796  ALA797  LYS798  CYS799  TRP800  GLU811  SER814 

> <Gold.Protein.RotatedAtoms>
  151.2627  135.0659  159.9104 H   0  0  0  0  0  0  0  0  0  0  0  0  # atno 6907 bound_to 6896
  152.5363  134.0214  159.7993 H   0  0  0  0  0  0  0  0  0  0  0  0  # atno 6908 bound_to 6896
  151.0439  133.5632  159.2679 H   0  0  0  0  0  0  0  0  0  0  0  0  # atno 6909 bound_to 6896
  145.6693  140.9226  143.0891 H   0  0  0  0  0  0  0  0  0  0  0  0  # atno 7974 bound_to 7965
  155.9441  140.3406  155.6352 H   0  0  0  0  0  0  0  0  0  0  0  0  # atno 8008 bound_to 7997
  155.7003  140.0759  157.2431 H   0  0  0  0  0  0  0  0  0  0  0  0  # atno 8009 bound_to 7997
  154.4108  140.1641  156.2171 H   0  0  0  0  0  0  0  0  0  0  0  0  # atno 8010 bound_to 7997
  140.2198  143.3684  152.0980 H   0  0  0  0  0  0  0  0  0  0  0  0  # atno 10167 bound_to 10162
  156.3472  130.4302  149.7736 H   0  0  0  0  0  0  0  0  0  0  0  0  # atno 10718 bound_to 10713
  154.5043  135.2785  155.1395 H   0  0  0  0  0  0  0  0  0  0  0  0  # atno 10763 bound_to 10752
  154.3016  135.6247  153.5431 H   0  0  0  0  0  0  0  0  0  0  0  0  # atno 10764 bound_to 10752
  152.9907  135.5698  154.5493 H   0  0  0  0  0  0  0  0  0  0  0  0  # atno 10765 bound_to 10752
  140.4959  134.0794  155.7782 H   0  0  0  0  0  0  0  0  0  0  0  0  # atno 11005 bound_to 11000
  144.7062  139.8551  143.7429 LP  0  0  0  0  0  0  0  0  0  0  0  0  # atno 17320 bound_to 7965
  146.1059  139.4058  143.0318 LP  0  0  0  0  0  0  0  0  0  0  0  0  # atno 17321 bound_to 7965
  139.5148  144.6954  151.5645 LP  0  0  0  0  0  0  0  0  0  0  0  0  # atno 17342 bound_to 10162
  140.6263  143.9161  150.6568 LP  0  0  0  0  0  0  0  0  0  0  0  0  # atno 17343 bound_to 10162
  156.4950  130.8102  151.3110 LP  0  0  0  0  0  0  0  0  0  0  0  0  # atno 17370 bound_to 10713
  157.7456  130.9963  150.2775 LP  0  0  0  0  0  0  0  0  0  0  0  0  # atno 17371 bound_to 10713
  141.1460  133.9053  157.2213 LP  0  0  0  0  0  0  0  0  0  0  0  0  # atno 17394 bound_to 11000
  139.9742  135.0119  156.9589 LP  0  0  0  0  0  0  0  0  0  0  0  0  # atno 17395 bound_to 11000

$$$$
