AV-unprocessed.smi:3000|AV-procd|sdf|11429|dock3
  -GOLD-   2272016353D 1   1.00000     0.00000
 Structure written by MMmdl.
 44 45  0  0  0  0  0  0  0  0  1 V2000
  144.4912  132.4636  149.2807 C   0  0  0  0  0  0  0  0  0  0  0  0
  145.1259  132.8124  150.5337 N   0  0  0  0  0  0  0  0  0  0  0  0
  146.0205  133.8331  150.7866 C   0  0  0  0  0  0  0  0  0  0  0  0
  146.3183  133.7448  152.1133 C   0  0  0  0  0  0  0  0  0  0  0  0
  147.2052  134.6096  152.8017 N   0  0  0  0  0  0  0  0  0  0  0  0
  147.2658  134.8272  154.1251 C   0  0  0  0  0  0  0  0  0  0  0  0
  146.5394  134.2893  154.9599 O   0  0  0  0  0  0  0  0  0  0  0  0
  148.2322  135.7124  154.4210 N   0  0  0  0  0  0  0  0  0  0  0  0
  148.6458  136.2265  155.7361 C   0  0  1  0  0  0  0  0  0  0  0  0
  147.4018  136.7130  156.5230 C   0  0  0  0  0  0  0  0  0  0  0  0
  149.3258  135.0817  156.5438 C   0  0  0  0  0  0  0  0  0  0  0  0
  149.4874  135.4098  157.9092 O   0  0  0  0  0  0  0  0  0  0  0  0
  149.6339  137.4207  155.4822 C   0  0  0  0  0  0  0  0  0  0  0  0
  150.9300  137.0065  154.7330 C   0  0  0  0  0  0  0  0  0  0  0  0
  151.8503  138.2054  154.4531 C   0  0  0  0  0  0  0  0  0  0  0  0
  152.2130  138.9443  155.7471 C   0  0  0  0  0  0  0  0  0  0  0  0
  150.9465  139.3822  156.4923 C   0  0  0  0  0  0  0  0  0  0  0  0
  150.0230  138.1869  156.7760 C   0  0  0  0  0  0  0  0  0  0  0  0
  145.5656  132.6423  152.6080 C   0  0  0  0  0  0  0  0  0  0  0  0
  144.8471  132.0867  151.6435 N   0  0  0  0  0  0  0  0  0  0  0  0
  144.9475  133.0212  148.4623 H   0  0  0  0  0  0  0  0  0  0  0  0
  143.4292  132.7059  149.3269 H   0  0  0  0  0  0  0  0  0  0  0  0
  144.6078  131.3963  149.0890 H   0  0  0  0  0  0  0  0  0  0  0  0
  146.3572  134.5153  150.0200 H   0  0  0  0  0  0  0  0  0  0  0  0
  147.8640  135.1136  152.2269 H   0  0  0  0  0  0  0  0  0  0  0  0
  148.7556  136.0796  153.6400 H   0  0  0  0  0  0  0  0  0  0  0  0
  147.6910  137.2760  157.4109 H   0  0  0  0  0  0  0  0  0  0  0  0
  146.7848  135.8817  156.8640 H   0  0  0  0  0  0  0  0  0  0  0  0
  146.7574  137.3529  155.9209 H   0  0  0  0  0  0  0  0  0  0  0  0
  148.7383  134.1649  156.4977 H   0  0  0  0  0  0  0  0  0  0  0  0
  150.3019  134.8296  156.1293 H   0  0  0  0  0  0  0  0  0  0  0  0
  148.9649  136.1745  158.0975 H   0  0  0  0  0  0  0  0  0  0  0  0
  149.1235  138.1344  154.8339 H   0  0  0  0  0  0  0  0  0  0  0  0
  151.4811  136.2629  155.3097 H   0  0  0  0  0  0  0  0  0  0  0  0
  150.6922  136.5406  153.7779 H   0  0  0  0  0  0  0  0  0  0  0  0
  152.7582  137.8677  153.9525 H   0  0  0  0  0  0  0  0  0  0  0  0
  151.3563  138.8926  153.7648 H   0  0  0  0  0  0  0  0  0  0  0  0
  152.8111  138.2945  156.3873 H   0  0  0  0  0  0  0  0  0  0  0  0
  152.8318  139.8128  155.5201 H   0  0  0  0  0  0  0  0  0  0  0  0
  151.2182  139.8711  157.4283 H   0  0  0  0  0  0  0  0  0  0  0  0
  150.4107  140.1250  155.9000 H   0  0  0  0  0  0  0  0  0  0  0  0
  149.1366  138.5652  157.2831 H   0  0  0  0  0  0  0  0  0  0  0  0
  150.5166  137.5152  157.4791 H   0  0  0  0  0  0  0  0  0  0  0  0
  145.5086  132.2298  153.6042 H   0  0  0  0  0  0  0  0  0  0  0  0
  1  2  1  0  0  0  0
  1 21  1  0  0  0  0
  1 22  1  0  0  0  0
  1 23  1  0  0  0  0
  2 20  1  0  0  0  0
  2  3  1  0  0  0  0
  3  4  2  0  0  0  0
  3 24  1  0  0  0  0
  4  5  1  0  0  0  0
  4 19  1  0  0  0  0
  5  6  1  0  0  0  0
  5 25  1  0  0  0  0
  6  7  2  0  0  0  0
  6  8  1  0  0  0  0
  8  9  1  0  0  0  0
  8 26  1  0  0  0  0
  9 10  1  0  0  0  0
  9 11  1  0  0  0  0
  9 13  1  0  0  0  0
 10 27  1  0  0  0  0
 10 28  1  0  0  0  0
 10 29  1  0  0  0  0
 11 12  1  0  0  0  0
 11 30  1  0  0  0  0
 11 31  1  0  0  0  0
 12 32  1  0  0  0  0
 13 18  1  0  0  0  0
 13 14  1  0  0  0  0
 13 33  1  0  0  0  0
 14 15  1  0  0  0  0
 14 34  1  0  0  0  0
 14 35  1  0  0  0  0
 15 16  1  0  0  0  0
 15 36  1  0  0  0  0
 15 37  1  0  0  0  0
 16 17  1  0  0  0  0
 16 38  1  0  0  0  0
 16 39  1  0  0  0  0
 17 18  1  0  0  0  0
 17 40  1  0  0  0  0
 17 41  1  0  0  0  0
 18 42  1  0  0  0  0
 18 43  1  0  0  0  0
 19 20  2  0  0  0  0
 19 44  1  0  0  0  0
M  END
> <s_m_source_file>
AV-unprocessed.smi

> <i_m_source_file_index>
3000

> <i_lp_mmshare_version>
43012

> <i_f3d_flags>
0

> <s_epik_input>
W0NIM11uMVtjSF1jKFtjSF1uMSlbTkhdQyg9TylbTkhdW0NAQF0oW0NIM10pKFtDSDJdW09IXSlbQ0hdMltDSDJdW0NIMl1bQ0gyXVtDSDJdW0NIMl0y

> <s_epik_cmdline>
J2VwaWtfcHl0aG9uJywgJy1waCcsICc3LjAnLCAnLXRuJywgJzgnLCAnLW1hJywgJzIwMCcsICctbWV0YWxfYmluZGluZycsICctaW1hZScsICc8aW5maWxlLm1hZT4nLCAnLW9tYWUnLCAnPG91dGZpbGUubWFlPic=

> <r_lp_tautomer_probability>
1

> <r_epik_Ionization_Penalty>
0.000189471

> <r_epik_Ionization_Penalty_Charging>
0

> <r_epik_Ionization_Penalty_Neutral>
0.000189471

> <r_epik_State_Penalty>
-0

> <r_epik_Charging_Adjusted_Penalty>
0

> <i_epik_Tot_Q>
0

> <i_epik_Tot_abs_Q>
0

> <r_epik_Metal_State_Penalty>
-0

> <b_epik_Metal_Only>
0

> <s_lp_Force_Field>
OPLS_2005

> <r_lp_Energy>
20.4121

> <b_lp_Chiralities_Consistent>
1

> <s_lp_Variant>
AV-unprocessed.smi:3000-1

> <Gold.Version>
5.8.1

> <Gold.Id.Protein>
6NUR|6NUR_protein|mol2

> <Gold.PLP.Fitness>
37.9583

> <Gold.PLP.PLP>
-27.1098

> <Gold.PLP.part.hbond>
-3.0000

> <Gold.PLP.part.metal>
0.0000

> <Gold.PLP.part.buried>
-4.3164

> <Gold.PLP.part.nonpolar>
-19.9296

> <Gold.PLP.part.repulsive>
0.1709

> <Gold.PLP.ligand.clash>
0.0000

> <Gold.PLP.ligand.torsion>
0.3961

> <Gold.PLP.Chemscore.Hbond>
2.8720

> <Gold.PLP.Chemscore.CHOScore>
1.0000

> <Gold.PLP.Chemscore.Metal>
0.0000

> <Gold.Chemscore.Hbonds>
donor molecule, donor type, donor heavy atom, donor atom, acceptor molecule, acceptor atom, score
      L1  H     5    25       P1  7948  1.00
      L1  H     8    26       P1  7948  0.99
      P1  H  6896  6907       L1    12  0.59
      L1  C     3    24       P1  7921  0.90

> <Gold.PLP.Chemscore.Internal.Correction>
0.0246

> <Gold.Rescore>
     Score         DG    S(hbond)    S(metal)    S(lipo)     H(rot)  DE(clash)    DE(int)     intcor
     14.95     -17.18       2.80        0.00      64.30       2.02       0.02       2.21       ----

> <Gold.Chemscore.Fitness>
14.9466

> <Gold.Chemscore.DG>
-17.1795

> <Gold.Chemscore.ZeroCoef>
-5.4800

> <Gold.Chemscore.Hbond>
2.7958

> <Gold.Chemscore.Metal>
0.0000

> <Gold.Chemscore.Lipo>
64.3045

> <Gold.Chemscore.Internal_Hbond>
0.0000

> <Gold.Chemscore.DEClash>
0.0234

> <Gold.Chemscore.DEInternal>
2.2094

> <Gold.Chemscore.Rot>
2.0165

> <Gold.Chemscore.Internal.Correction>
   9.000000E+99

> <Gold.Chemscore.Hbonds>
donor molecule, donor type, donor heavy atom, donor atom, acceptor molecule, acceptor atom, score
      L1  H     5    25       P1  7948  0.87
      L1  H     8    26       P1  7948  0.93
      P1  H  6896  6907       L1    12  0.56

> <Gold.Chemscore.Hbond.Weighted>
-9.3380

> <Gold.Chemscore.Metal.Weighted>
-0.0000

> <Gold.Chemscore.Lipo.Weighted>
-7.5236

> <Gold.Chemscore.Internal_Hbond.Weighted>
0.0000

> <Gold.Chemscore.DEClash.Weighted>
0.0234

> <Gold.Chemscore.DEInternal.Weighted>
2.2094

> <Gold.Chemscore.Rot.Weighted>
5.1622

> <Gold.Chemscore.Internal.Correction.Weighted>
   9.000000E+99

> <Gold.Protein.RotatedTorsions>
[ 6907 6896 6895 6894 ] final  -88.37 input  -60.11 | X-H torsion
[ 7974 7965 7964 7962 ] final    6.56 input  175.53 | X-H torsion
[ 8008 7997 7996 7995 ] final -104.57 input   59.86 | X-H torsion
[ 10167 10162 10161 10158 ] final -175.58 input  -65.29 | X-H torsion
[ 10718 10713 10712 10709 ] final  125.53 input   66.30 | X-H torsion
[ 10763 10752 10751 10750 ] final    6.28 input  -60.55 | X-H torsion
[ 11005 11000 10999 10996 ] final  -74.75 input  -57.11 | X-H torsion

> <Gold.Protein.ActiveResidues>
 VAL166  LYS551  ARG553  GLY616  TRP617  ASP618  TYR619  PRO620  LYS621  CYS622 
 ASP623  PHE694  ASN695  SER759  ASP760  ASP761  ALA762  ILE779  LEU786  VAL792 
 PHE793  MET794  SER795  GLU796  ALA797  LYS798  CYS799  TRP800  GLU811  SER814 

> <Gold.Protein.RotatedAtoms>
  150.6868  134.2752  159.4604 H   0  0  0  0  0  0  0  0  0  0  0  0  # atno 6907 bound_to 6896
  152.0671  134.9555  160.0584 H   0  0  0  0  0  0  0  0  0  0  0  0  # atno 6908 bound_to 6896
  152.0959  133.4190  159.4602 H   0  0  0  0  0  0  0  0  0  0  0  0  # atno 6909 bound_to 6896
  146.2434  140.0215  142.8397 H   0  0  0  0  0  0  0  0  0  0  0  0  # atno 7974 bound_to 7965
  154.8873  140.0417  157.1818 H   0  0  0  0  0  0  0  0  0  0  0  0  # atno 8008 bound_to 7997
  154.8577  140.2939  155.5537 H   0  0  0  0  0  0  0  0  0  0  0  0  # atno 8009 bound_to 7997
  156.2997  140.2453  156.3546 H   0  0  0  0  0  0  0  0  0  0  0  0  # atno 8010 bound_to 7997
  139.5574  144.1956  152.1181 H   0  0  0  0  0  0  0  0  0  0  0  0  # atno 10167 bound_to 10162
  157.5495  131.1094  150.8725 H   0  0  0  0  0  0  0  0  0  0  0  0  # atno 10718 bound_to 10713
  153.2496  135.6912  153.7694 H   0  0  0  0  0  0  0  0  0  0  0  0  # atno 10763 bound_to 10752
  153.6793  135.3331  155.3175 H   0  0  0  0  0  0  0  0  0  0  0  0  # atno 10764 bound_to 10752
  154.8389  135.4518  154.1448 H   0  0  0  0  0  0  0  0  0  0  0  0  # atno 10765 bound_to 10752
  141.1638  133.6922  156.7413 H   0  0  0  0  0  0  0  0  0  0  0  0  # atno 11005 bound_to 11000
  145.1236  140.9477  143.4586 LP  0  0  0  0  0  0  0  0  0  0  0  0  # atno 17320 bound_to 7965
  145.0456  139.3223  143.5954 LP  0  0  0  0  0  0  0  0  0  0  0  0  # atno 17321 bound_to 7965
  140.1462  144.5156  150.6714 LP  0  0  0  0  0  0  0  0  0  0  0  0  # atno 17342 bound_to 10162
  140.6848  143.2345  151.5288 LP  0  0  0  0  0  0  0  0  0  0  0  0  # atno 17343 bound_to 10162
  156.9254  130.5330  149.5279 LP  0  0  0  0  0  0  0  0  0  0  0  0  # atno 17370 bound_to 10713
  156.0565  130.5625  150.9102 LP  0  0  0  0  0  0  0  0  0  0  0  0  # atno 17371 bound_to 10713
  140.2673  134.8420  157.3814 LP  0  0  0  0  0  0  0  0  0  0  0  0  # atno 17394 bound_to 11000
  140.1555  134.4795  155.7931 LP  0  0  0  0  0  0  0  0  0  0  0  0  # atno 17395 bound_to 11000

$$$$
