AV-unprocessed.smi:2751|AV-procd|sdf|10600|dock3
  -GOLD-   2272015 53D 1   1.00000     0.00000
 Structure written by MMmdl.
 34 35  0  0  0  0  0  0  0  0  1 V2000
  152.6747  139.9372  154.6583 O   0  0  0  0  0  0  0  0  0  0  0  0
  151.5745  139.5027  155.0139 C   0  0  0  0  0  0  0  0  0  0  0  0
  151.0851  139.7543  156.2375 N   0  0  0  0  0  0  0  0  0  0  0  0
  151.7511  140.5388  157.2717 C   0  0  0  0  0  0  0  0  0  0  0  0
  151.0758  141.9072  157.4666 C   0  0  0  0  0  0  0  0  0  0  0  0
  151.9447  142.8942  158.2624 C   0  0  1  0  0  0  0  0  0  0  0  0
  151.4743  144.3507  158.0806 C   0  0  0  0  0  0  0  0  0  0  0  0
  152.3085  145.3007  158.9476 C   0  0  0  0  0  0  0  0  0  0  0  0
  152.3029  144.8144  160.4007 C   0  0  0  0  0  0  0  0  0  0  0  0
  152.7247  143.3382  160.4704 C   0  0  0  0  0  0  0  0  0  0  0  0
  151.8713  142.5512  159.6452 O   0  0  0  0  0  0  0  0  0  0  0  0
  150.6779  138.7240  154.2961 N   0  0  0  0  0  0  0  0  0  0  0  0
  149.4755  139.1602  154.0800 C   0  0  0  0  0  0  0  0  0  0  0  0
  148.4578  138.5240  153.3872 N   0  0  0  0  0  0  0  0  0  0  0  0
  147.3603  139.3397  153.3984 C   0  0  0  0  0  0  0  0  0  0  0  0
  147.6718  140.4438  154.0711 C   0  0  0  0  0  0  0  0  0  0  0  0
  148.9615  140.3649  154.5025 O   0  0  0  0  0  0  0  0  0  0  0  0
  150.1804  139.3705  156.4698 H   0  0  0  0  0  0  0  0  0  0  0  0
  151.7729  139.9811  158.2094 H   0  0  0  0  0  0  0  0  0  0  0  0
  152.7897  140.6779  156.9711 H   0  0  0  0  0  0  0  0  0  0  0  0
  150.8554  142.3342  156.4873 H   0  0  0  0  0  0  0  0  0  0  0  0
  150.1161  141.7817  157.9692 H   0  0  0  0  0  0  0  0  0  0  0  0
  152.9785  142.8039  157.9241 H   0  0  0  0  0  0  0  0  0  0  0  0
  151.5468  144.6442  157.0330 H   0  0  0  0  0  0  0  0  0  0  0  0
  150.4225  144.4357  158.3571 H   0  0  0  0  0  0  0  0  0  0  0  0
  153.3331  145.3333  158.5752 H   0  0  0  0  0  0  0  0  0  0  0  0
  151.9180  146.3168  158.8842 H   0  0  0  0  0  0  0  0  0  0  0  0
  152.9692  145.4280  161.0076 H   0  0  0  0  0  0  0  0  0  0  0  0
  151.3031  144.9273  160.8215 H   0  0  0  0  0  0  0  0  0  0  0  0
  153.7635  143.2145  160.1604 H   0  0  0  0  0  0  0  0  0  0  0  0
  152.6541  142.9763  161.4962 H   0  0  0  0  0  0  0  0  0  0  0  0
  148.4776  137.6210  152.9356 H   0  0  0  0  0  0  0  0  0  0  0  0
  146.4476  139.0339  152.9086 H   0  0  0  0  0  0  0  0  0  0  0  0
  147.1145  141.3356  154.3172 H   0  0  0  0  0  0  0  0  0  0  0  0
  1  2  2  0  0  0  0
  2 12  1  0  0  0  0
  2  3  1  0  0  0  0
  3  4  1  0  0  0  0
  3 18  1  0  0  0  0
  4  5  1  0  0  0  0
  4 19  1  0  0  0  0
  4 20  1  0  0  0  0
  5  6  1  0  0  0  0
  5 21  1  0  0  0  0
  5 22  1  0  0  0  0
  6 11  1  0  0  0  0
  6  7  1  0  0  0  0
  6 23  1  0  0  0  0
  7  8  1  0  0  0  0
  7 24  1  0  0  0  0
  7 25  1  0  0  0  0
  8  9  1  0  0  0  0
  8 26  1  0  0  0  0
  8 27  1  0  0  0  0
  9 10  1  0  0  0  0
  9 28  1  0  0  0  0
  9 29  1  0  0  0  0
 10 11  1  0  0  0  0
 10 30  1  0  0  0  0
 10 31  1  0  0  0  0
 12 13  2  0  0  0  0
 13 17  1  0  0  0  0
 13 14  1  0  0  0  0
 14 32  1  0  0  0  0
 14 15  1  0  0  0  0
 15 33  1  0  0  0  0
 15 16  2  0  0  0  0
 16 34  1  0  0  0  0
 16 17  1  0  0  0  0
M  END
> <s_m_source_file>
AV-unprocessed.smi

> <i_m_source_file_index>
2751

> <i_lp_mmshare_version>
43012

> <i_f3d_flags>
0

> <s_epik_input>
bzFbY0hdW2NIXW5jMVtOSF1DKD1PKVtOSF1bQ0gyXVtDSDJdW0NAQEhdMltDSDJdW0NIMl1bQ0gyXVtDSDJdTzI=

> <s_epik_cmdline>
J2VwaWtfcHl0aG9uJywgJy1waCcsICc3LjAnLCAnLXRuJywgJzgnLCAnLW1hJywgJzIwMCcsICctbWV0YWxfYmluZGluZycsICctaW1hZScsICc8aW5maWxlLm1hZT4nLCAnLW9tYWUnLCAnPG91dGZpbGUubWFlPic=

> <r_lp_tautomer_probability>
0.107061

> <r_epik_Ionization_Penalty>
1.421

> <r_epik_Ionization_Penalty_Charging>
1.42064

> <r_epik_Ionization_Penalty_Neutral>
0.0003614

> <r_epik_State_Penalty>
2.61489

> <r_epik_Charging_Adjusted_Penalty>
4.03553

> <i_epik_Tot_Q>
0

> <i_epik_Tot_abs_Q>
0

> <r_epik_Metal_State_Penalty>
3.57288

> <b_epik_Metal_Only>
0

> <s_lp_Force_Field>
OPLS_2005

> <r_lp_Energy>
32.4841

> <b_lp_Chiralities_Consistent>
1

> <s_lp_Variant>
AV-unprocessed.smi:2751-6

> <Gold.Version>
5.8.1

> <Gold.Id.Protein>
6NUR|6NUR_protein|mol2

> <Gold.PLP.Fitness>
42.2831

> <Gold.PLP.PLP>
-37.7724

> <Gold.PLP.part.hbond>
-4.5311

> <Gold.PLP.part.metal>
0.0000

> <Gold.PLP.part.buried>
-3.4199

> <Gold.PLP.part.nonpolar>
-30.0297

> <Gold.PLP.part.repulsive>
0.4460

> <Gold.PLP.ligand.clash>
0.0000

> <Gold.PLP.ligand.torsion>
0.8208

> <Gold.PLP.Chemscore.Hbond>
2.0420

> <Gold.PLP.Chemscore.CHOScore>
0.0000

> <Gold.PLP.Chemscore.Metal>
0.0000

> <Gold.Chemscore.Hbonds>
donor molecule, donor type, donor heavy atom, donor atom, acceptor molecule, acceptor atom, score
      L1  H    14    32       P1  7948  1.00
      P1  H  7989  7998       L1     1  0.07
      P1  H  7997  8008       L1     1  0.65

> <Gold.PLP.Chemscore.Internal.Correction>
0.0262

> <Gold.Rescore>
     Score         DG    S(hbond)    S(metal)    S(lipo)     H(rot)  DE(clash)    DE(int)     intcor
     15.57     -17.87       1.99        0.00      84.76       1.63       0.04       2.26       ----

> <Gold.Chemscore.Fitness>
15.5735

> <Gold.Chemscore.DG>
-17.8730

> <Gold.Chemscore.ZeroCoef>
-5.4800

> <Gold.Chemscore.Hbond>
1.9930

> <Gold.Chemscore.Metal>
0.0000

> <Gold.Chemscore.Lipo>
84.7550

> <Gold.Chemscore.Internal_Hbond>
0.0000

> <Gold.Chemscore.DEClash>
0.0415

> <Gold.Chemscore.DEInternal>
2.2580

> <Gold.Chemscore.Rot>
1.6328

> <Gold.Chemscore.Internal.Correction>
   9.000000E+99

> <Gold.Chemscore.Hbonds>
donor molecule, donor type, donor heavy atom, donor atom, acceptor molecule, acceptor atom, score
      L1  H    14    32       P1  7948  1.00
      P1  H  7997  8008       L1     1  0.65

> <Gold.Chemscore.Hbond.Weighted>
-6.6566

> <Gold.Chemscore.Metal.Weighted>
-0.0000

> <Gold.Chemscore.Lipo.Weighted>
-9.9163

> <Gold.Chemscore.Internal_Hbond.Weighted>
0.0000

> <Gold.Chemscore.DEClash.Weighted>
0.0415

> <Gold.Chemscore.DEInternal.Weighted>
2.2580

> <Gold.Chemscore.Rot.Weighted>
4.1799

> <Gold.Chemscore.Internal.Correction.Weighted>
   9.000000E+99

> <Gold.Protein.RotatedTorsions>
[ 6907 6896 6895 6894 ] final -165.76 input  -60.11 | X-H torsion
[ 7974 7965 7964 7962 ] final -109.40 input  175.53 | X-H torsion
[ 8008 7997 7996 7995 ] final  -12.45 input   59.86 | X-H torsion
[ 10167 10162 10161 10158 ] final  -18.22 input  -65.29 | X-H torsion
[ 10718 10713 10712 10709 ] final   96.17 input   66.30 | X-H torsion
[ 10763 10752 10751 10750 ] final   51.27 input  -60.55 | X-H torsion
[ 11005 11000 10999 10996 ] final  -61.99 input  -57.11 | X-H torsion

> <Gold.Protein.ActiveResidues>
 VAL166  LYS551  ARG553  GLY616  TRP617  ASP618  TYR619  PRO620  LYS621  CYS622 
 ASP623  PHE694  ASN695  SER759  ASP760  ASP761  ALA762  ILE779  LEU786  VAL792 
 PHE793  MET794  SER795  GLU796  ALA797  LYS798  CYS799  TRP800  GLU811  SER814 

> <Gold.Protein.RotatedAtoms>
  151.4328  133.3665  159.2770 H   0  0  0  0  0  0  0  0  0  0  0  0  # atno 6907 bound_to 6896
  150.9213  134.8632  159.7501 H   0  0  0  0  0  0  0  0  0  0  0  0  # atno 6908 bound_to 6896
  152.4983  134.4266  159.9550 H   0  0  0  0  0  0  0  0  0  0  0  0  # atno 6909 bound_to 6896
  145.1810  140.8971  143.3480 H   0  0  0  0  0  0  0  0  0  0  0  0  # atno 7974 bound_to 7965
  154.5376  140.2276  155.8696 H   0  0  0  0  0  0  0  0  0  0  0  0  # atno 8008 bound_to 7997
  156.1827  140.3096  155.9142 H   0  0  0  0  0  0  0  0  0  0  0  0  # atno 8009 bound_to 7997
  155.3322  140.0446  157.3033 H   0  0  0  0  0  0  0  0  0  0  0  0  # atno 8010 bound_to 7997
  140.7256  143.4937  150.9958 H   0  0  0  0  0  0  0  0  0  0  0  0  # atno 10167 bound_to 10162
  157.6930  131.0569  150.4450 H   0  0  0  0  0  0  0  0  0  0  0  0  # atno 10718 bound_to 10713
  152.9785  135.5851  154.4389 H   0  0  0  0  0  0  0  0  0  0  0  0  # atno 10763 bound_to 10752
  154.3992  135.2768  155.2109 H   0  0  0  0  0  0  0  0  0  0  0  0  # atno 10764 bound_to 10752
  154.3947  135.6117  153.5917 H   0  0  0  0  0  0  0  0  0  0  0  0  # atno 10765 bound_to 10752
  141.1344  133.6635  156.5460 H   0  0  0  0  0  0  0  0  0  0  0  0  # atno 11005 bound_to 11000
  145.0136  139.3487  143.6107 LP  0  0  0  0  0  0  0  0  0  0  0  0  # atno 17320 bound_to 7965
  146.3453  139.9409  142.8741 LP  0  0  0  0  0  0  0  0  0  0  0  0  # atno 17321 bound_to 7965
  139.8643  143.7274  152.3171 LP  0  0  0  0  0  0  0  0  0  0  0  0  # atno 17342 bound_to 10162
  139.7500  144.7536  151.0521 LP  0  0  0  0  0  0  0  0  0  0  0  0  # atno 17343 bound_to 10162
  156.4806  130.4073  149.6464 LP  0  0  0  0  0  0  0  0  0  0  0  0  # atno 17370 bound_to 10713
  156.3511  130.7432  151.2392 LP  0  0  0  0  0  0  0  0  0  0  0  0  # atno 17371 bound_to 10713
  140.4102  134.7279  157.4831 LP  0  0  0  0  0  0  0  0  0  0  0  0  # atno 17394 bound_to 11000
  140.0433  134.6236  155.8953 LP  0  0  0  0  0  0  0  0  0  0  0  0  # atno 17395 bound_to 11000

$$$$
