AV-unprocessed.smi:2603|AV-procd|sdf|10188|dock3
  -GOLD-   2272014203D 1   1.00000     0.00000
 Structure written by MMmdl.
 35 36  0  0  0  0  0  0  0  0  1 V2000
  153.4971  141.9052  160.9491 C   0  0  0  0  0  0  0  0  0  0  0  0
  152.6211  142.7276  160.0014 C   0  0  0  0  0  0  0  0  0  0  0  0
  151.8997  141.8461  159.1585 O   0  0  0  0  0  0  0  0  0  0  0  0
  150.9749  142.5377  158.3393 C   0  0  1  0  0  0  0  0  0  0  0  0
  151.5969  143.6786  157.5863 C   0  0  0  0  0  0  0  0  0  0  0  0
  151.2492  142.3905  156.8605 C   0  0  2  0  0  0  0  0  0  0  0  0
  150.1234  142.4004  155.9862 N   0  0  0  0  0  0  0  0  0  0  0  0
  149.7810  141.4145  155.1442 C   0  0  0  0  0  0  0  0  0  0  0  0
  150.4217  140.3713  155.0161 O   0  0  0  0  0  0  0  0  0  0  0  0
  148.5084  141.6344  154.3269 C   0  0  0  0  0  0  0  0  0  0  0  0
  147.4103  140.7454  154.8521 C   0  0  0  0  0  0  0  0  0  0  0  0
  146.7009  139.7153  154.1679 C   0  0  0  0  0  0  0  0  0  0  0  0
  146.8542  139.2491  152.7483 C   0  0  0  0  0  0  0  0  0  0  0  0
  145.7935  139.1437  154.9413 N   0  0  0  0  0  0  0  0  0  0  0  0
  145.8817  139.7892  156.1784 O   0  0  0  0  0  0  0  0  0  0  0  0
  146.8479  140.7389  156.0987 C   0  0  0  0  0  0  0  0  0  0  0  0
  147.0936  141.5525  157.3242 C   0  0  0  0  0  0  0  0  0  0  0  0
  154.0643  142.5537  161.6169 H   0  0  0  0  0  0  0  0  0  0  0  0
  154.2079  141.2938  160.3929 H   0  0  0  0  0  0  0  0  0  0  0  0
  152.8904  141.2397  161.5637 H   0  0  0  0  0  0  0  0  0  0  0  0
  151.9308  143.3472  160.5760 H   0  0  0  0  0  0  0  0  0  0  0  0
  153.2429  143.3947  159.4027 H   0  0  0  0  0  0  0  0  0  0  0  0
  149.9594  142.6296  158.7219 H   0  0  0  0  0  0  0  0  0  0  0  0
  150.9757  144.5517  157.3966 H   0  0  0  0  0  0  0  0  0  0  0  0
  152.6503  143.8870  157.7624 H   0  0  0  0  0  0  0  0  0  0  0  0
  152.0921  141.7587  156.5827 H   0  0  0  0  0  0  0  0  0  0  0  0
  149.5305  143.2166  156.0208 H   0  0  0  0  0  0  0  0  0  0  0  0
  148.2286  142.6875  154.3692 H   0  0  0  0  0  0  0  0  0  0  0  0
  148.7208  141.4232  153.2782 H   0  0  0  0  0  0  0  0  0  0  0  0
  146.1275  139.7371  152.0985 H   0  0  0  0  0  0  0  0  0  0  0  0
  146.7062  138.1720  152.6651 H   0  0  0  0  0  0  0  0  0  0  0  0
  147.8478  139.4733  152.3610 H   0  0  0  0  0  0  0  0  0  0  0  0
  147.1090  142.6157  157.0838 H   0  0  0  0  0  0  0  0  0  0  0  0
  148.0529  141.2934  157.7722 H   0  0  0  0  0  0  0  0  0  0  0  0
  146.3158  141.3868  158.0699 H   0  0  0  0  0  0  0  0  0  0  0  0
  1  2  1  0  0  0  0
  1 18  1  0  0  0  0
  1 19  1  0  0  0  0
  1 20  1  0  0  0  0
  2  3  1  0  0  0  0
  2 21  1  0  0  0  0
  2 22  1  0  0  0  0
  3  4  1  0  0  0  0
  4  6  1  0  0  0  0
  4  5  1  0  0  0  0
  4 23  1  0  0  0  0
  5  6  1  0  0  0  0
  5 24  1  0  0  0  0
  5 25  1  0  0  0  0
  6  7  1  0  0  0  0
  6 26  1  0  0  0  0
  7  8  1  0  0  0  0
  7 27  1  0  0  0  0
  8  9  2  0  0  0  0
  8 10  1  0  0  0  0
 10 11  1  0  0  0  0
 10 28  1  0  0  0  0
 10 29  1  0  0  0  0
 11 16  2  0  0  0  0
 11 12  1  0  0  0  0
 12 13  1  0  0  0  0
 12 14  2  0  0  0  0
 13 30  1  0  0  0  0
 13 31  1  0  0  0  0
 13 32  1  0  0  0  0
 14 15  1  0  0  0  0
 15 16  1  0  0  0  0
 16 17  1  0  0  0  0
 17 33  1  0  0  0  0
 17 34  1  0  0  0  0
 17 35  1  0  0  0  0
M  END
> <s_m_source_file>
AV-unprocessed.smi

> <i_m_source_file_index>
2603

> <i_lp_mmshare_version>
43012

> <i_f3d_flags>
0

> <s_epik_input>
W0NIM11bQ0gyXU9bQ0BASF0xW0NIMl1bQ0BIXTFbTkhdQyg9TylbQ0gyXWMyYyhbQ0gzXSlub2MyW0NIM10=

> <s_epik_cmdline>
J2VwaWtfcHl0aG9uJywgJy1waCcsICc3LjAnLCAnLXRuJywgJzgnLCAnLW1hJywgJzIwMCcsICctbWV0YWxfYmluZGluZycsICctaW1hZScsICc8aW5maWxlLm1hZT4nLCAnLW9tYWUnLCAnPG91dGZpbGUubWFlPic=

> <r_lp_tautomer_probability>
1

> <r_epik_Ionization_Penalty>
2.37325e-08

> <r_epik_Ionization_Penalty_Charging>
0

> <r_epik_Ionization_Penalty_Neutral>
2.37325e-08

> <r_epik_State_Penalty>
-0

> <r_epik_Charging_Adjusted_Penalty>
0

> <i_epik_Tot_Q>
0

> <i_epik_Tot_abs_Q>
0

> <r_epik_Metal_State_Penalty>
-0

> <b_epik_Metal_Only>
0

> <s_lp_Force_Field>
OPLS_2005

> <r_lp_Energy>
9.74593

> <b_lp_Chiralities_Consistent>
1

> <s_lp_Variant>
AV-unprocessed.smi:2603-4

> <Gold.Version>
5.8.1

> <Gold.Id.Protein>
6NUR|6NUR_protein|mol2

> <Gold.PLP.Fitness>
36.1375

> <Gold.PLP.PLP>
-30.6142

> <Gold.PLP.part.hbond>
-2.0000

> <Gold.PLP.part.metal>
0.0000

> <Gold.PLP.part.buried>
-4.0111

> <Gold.PLP.part.nonpolar>
-24.4499

> <Gold.PLP.part.repulsive>
0.3234

> <Gold.PLP.ligand.clash>
0.0000

> <Gold.PLP.ligand.torsion>
0.5746

> <Gold.PLP.Chemscore.Hbond>
2.0000

> <Gold.PLP.Chemscore.CHOScore>
0.0000

> <Gold.PLP.Chemscore.Metal>
0.0000

> <Gold.Chemscore.Hbonds>
donor molecule, donor type, donor heavy atom, donor atom, acceptor molecule, acceptor atom, score
      L1  H     7    27       P1  8028  1.00
      P1  H  7989  7998       L1     9  1.00

> <Gold.PLP.Chemscore.Internal.Correction>
0.6726

> <Gold.Rescore>
     Score         DG    S(hbond)    S(metal)    S(lipo)     H(rot)  DE(clash)    DE(int)     intcor
     15.15     -16.02       1.69        0.00      78.90       1.69       0.16       0.71       ----

> <Gold.Chemscore.Fitness>
15.1513

> <Gold.Chemscore.DG>
-16.0223

> <Gold.Chemscore.ZeroCoef>
-5.4800

> <Gold.Chemscore.Hbond>
1.6903

> <Gold.Chemscore.Metal>
0.0000

> <Gold.Chemscore.Lipo>
78.9009

> <Gold.Chemscore.Internal_Hbond>
0.0000

> <Gold.Chemscore.DEClash>
0.1570

> <Gold.Chemscore.DEInternal>
0.7140

> <Gold.Chemscore.Rot>
1.6933

> <Gold.Chemscore.Internal.Correction>
   9.000000E+99

> <Gold.Chemscore.Hbonds>
donor molecule, donor type, donor heavy atom, donor atom, acceptor molecule, acceptor atom, score
      L1  H     7    27       P1  8028  1.00
      P1  H  7989  7998       L1     9  0.24

> <Gold.Chemscore.Hbond.Weighted>
-5.6457

> <Gold.Chemscore.Metal.Weighted>
-0.0000

> <Gold.Chemscore.Lipo.Weighted>
-9.2314

> <Gold.Chemscore.Internal_Hbond.Weighted>
0.0000

> <Gold.Chemscore.DEClash.Weighted>
0.1570

> <Gold.Chemscore.DEInternal.Weighted>
0.7140

> <Gold.Chemscore.Rot.Weighted>
4.3348

> <Gold.Chemscore.Internal.Correction.Weighted>
   9.000000E+99

> <Gold.Protein.RotatedTorsions>
[ 6907 6896 6895 6894 ] final -116.61 input  -60.11 | X-H torsion
[ 7974 7965 7964 7962 ] final   -1.05 input  175.53 | X-H torsion
[ 8008 7997 7996 7995 ] final -113.04 input   59.86 | X-H torsion
[ 10167 10162 10161 10158 ] final -111.17 input  -65.29 | X-H torsion
[ 10718 10713 10712 10709 ] final   63.94 input   66.30 | X-H torsion
[ 10763 10752 10751 10750 ] final -172.88 input  -60.55 | X-H torsion
[ 11005 11000 10999 10996 ] final  132.78 input  -57.11 | X-H torsion

> <Gold.Protein.ActiveResidues>
 VAL166  LYS551  ARG553  GLY616  TRP617  ASP618  TYR619  PRO620  LYS621  CYS622 
 ASP623  PHE694  ASN695  SER759  ASP760  ASP761  ALA762  ILE779  LEU786  VAL792 
 PHE793  MET794  SER795  GLU796  ALA797  LYS798  CYS799  TRP800  GLU811  SER814 

> <Gold.Protein.RotatedAtoms>
  150.8070  133.8493  159.3200 H   0  0  0  0  0  0  0  0  0  0  0  0  # atno 6907 bound_to 6896
  151.6289  135.1023  160.0127 H   0  0  0  0  0  0  0  0  0  0  0  0  # atno 6908 bound_to 6896
  152.4160  133.7000  159.6475 H   0  0  0  0  0  0  0  0  0  0  0  0  # atno 6909 bound_to 6896
  146.2421  140.1363  142.8336 H   0  0  0  0  0  0  0  0  0  0  0  0  # atno 7974 bound_to 7965
  155.0145  140.0393  157.2413 H   0  0  0  0  0  0  0  0  0  0  0  0  # atno 8008 bound_to 7997
  154.7431  140.2752  155.6333 H   0  0  0  0  0  0  0  0  0  0  0  0  # atno 8009 bound_to 7997
  156.2869  140.2661  156.2164 H   0  0  0  0  0  0  0  0  0  0  0  0  # atno 8010 bound_to 7997
  140.1364  143.4316  152.1592 H   0  0  0  0  0  0  0  0  0  0  0  0  # atno 10167 bound_to 10162
  157.6006  130.9133  149.9781 H   0  0  0  0  0  0  0  0  0  0  0  0  # atno 10718 bound_to 10713
  154.6142  135.2868  155.0398 H   0  0  0  0  0  0  0  0  0  0  0  0  # atno 10763 bound_to 10752
  154.1617  135.6487  153.4991 H   0  0  0  0  0  0  0  0  0  0  0  0  # atno 10764 bound_to 10752
  153.0208  135.5380  154.6907 H   0  0  0  0  0  0  0  0  0  0  0  0  # atno 10765 bound_to 10752
  139.9811  134.9548  156.9631 H   0  0  0  0  0  0  0  0  0  0  0  0  # atno 11005 bound_to 11000
  145.0284  140.8851  143.5124 LP  0  0  0  0  0  0  0  0  0  0  0  0  # atno 17320 bound_to 7965
  145.1423  139.2565  143.5484 LP  0  0  0  0  0  0  0  0  0  0  0  0  # atno 17321 bound_to 7965
  139.5493  144.7325  151.4483 LP  0  0  0  0  0  0  0  0  0  0  0  0  # atno 17342 bound_to 10162
  140.6786  143.8133  150.7091 LP  0  0  0  0  0  0  0  0  0  0  0  0  # atno 17343 bound_to 10162
  156.1078  130.3651  150.0102 LP  0  0  0  0  0  0  0  0  0  0  0  0  # atno 17370 bound_to 10713
  156.8206  130.9357  151.3641 LP  0  0  0  0  0  0  0  0  0  0  0  0  # atno 17371 bound_to 10713
  140.5095  134.1016  155.7267 LP  0  0  0  0  0  0  0  0  0  0  0  0  # atno 17394 bound_to 11000
  141.1483  133.9015  157.2162 LP  0  0  0  0  0  0  0  0  0  0  0  0  # atno 17395 bound_to 11000

$$$$
