#       Name:                AV-unprocessed.smi:392
#       Creating user name   scv26
#       Creation time:       Thu Mar 26 22:42:34 2020


#       File generated by GOLD software.
#

@<TRIPOS>MOLECULE
AV-unprocessed.smi:392
    35    37     1
SMALL
NO_CHARGES


@<TRIPOS>ATOM
      1 ****        -1.1407   3.1082  -0.3804 O.3            1 S1                 0.0000
      2 ****        -0.7580   1.7571  -0.2260 C.3            1 S1                 0.0000
      3 ****         0.7807   1.7032  -0.1415 C.3            1 S1                 0.0000
      4 ****         1.2970   0.3288  -0.1102 N.pl3          1 S1                 0.0000
      5 ****         1.7230  -0.4221   0.9417 C.2            1 S1                 0.0000
      6 ****         2.0875  -1.6410   0.4552 N.pl3          1 S1                 1.0000
      7 ****         1.8940  -1.6681  -0.9276 C.ar           1 S1                 0.0000
      8 ****         2.1151  -2.6767  -1.8604 C.ar           1 S1                 0.0000
      9 ****         1.8074  -2.3749  -3.2035 C.ar           1 S1                 0.0000
     10 ****         1.3029  -1.1118  -3.5762 C.ar           1 S1                 0.0000
     11 ****         1.0838  -0.0961  -2.6224 C.ar           1 S1                 0.0000
     12 ****         1.3889  -0.4038  -1.2975 C.ar           1 S1                 0.0000
     13 ****        -1.4226   1.0983   0.9777 C.ar           1 S1                 0.0000
     14 ****        -1.5052   1.7837   2.2105 C.ar           1 S1                 0.0000
     15 ****        -2.1004   1.1691   3.3290 C.ar           1 S1                 0.0000
     16 ****        -2.6150  -0.1367   3.2237 C.ar           1 S1                 0.0000
     17 ****        -2.5322  -0.8277   2.0000 C.ar           1 S1                 0.0000
     18 ****        -1.9371  -0.2150   0.8798 C.ar           1 S1                 0.0000
     19 ****        -1.8520  -0.9013  -0.2855 F              1 S1                 0.0000
     20 ****        -2.0735   3.1404  -0.5301 H              1 S1                 0.0000
     21 ****        -1.0858   1.2495  -1.1333 H              1 S1                 0.0000
     22 ****         1.2382   2.2168  -0.9884 H              1 S1                 0.0000
     23 ****         1.1342   2.2104   0.7575 H              1 S1                 0.0000
     24 ****         1.7554  -0.1109   1.9761 H              1 S1                 0.0000
     25 ****         2.5012  -3.6452  -1.5781 H              1 S1                 0.0000
     26 ****         1.9611  -3.1275  -3.9633 H              1 S1                 0.0000
     27 ****         1.0781  -0.9179  -4.6151 H              1 S1                 0.0000
     28 ****         0.6959   0.8682  -2.9161 H              1 S1                 0.0000
     29 ****        -1.1069   2.7834   2.3051 H              1 S1                 0.0000
     30 ****        -2.1603   1.6992   4.2681 H              1 S1                 0.0000
     31 ****        -3.0706  -0.6093   4.0814 H              1 S1                 0.0000
     32 ****        -2.9227  -1.8316   1.9215 H              1 S1                 0.0000
     33 ****         2.4396  -2.3975   1.0277 H              1 S1                 0.0000
     34 ****        -0.6598   3.5079  -1.1607 LP             1 S1                 0.0000
     35 ****        -0.9142   3.6198   0.4484 LP             1 S1                 0.0000
@<TRIPOS>BOND
    1    1    2 1     
    2    1   20 1     
    3    2    3 1     
    4    2   13 1     
    5    2   21 1     
    6    3    4 1     
    7    3   22 1     
    8    3   23 1     
    9    4   12 1     
   10    4    5 1     
   11    5    6 2     
   12    5   24 1     
   13    6    7 1     
   14    6   33 1     
   15    7   12 ar    
   16    7    8 ar    
   17    8    9 ar    
   18    8   25 1     
   19    9   10 ar    
   20    9   26 1     
   21   10   11 ar    
   22   10   27 1     
   23   11   12 ar    
   24   11   28 1     
   25   13   18 ar    
   26   13   14 ar    
   27   14   15 ar    
   28   14   29 1     
   29   15   16 ar    
   30   15   30 1     
   31   16   17 ar    
   32   16   31 1     
   33   17   18 ar    
   34   17   32 1     
   35   18   19 1     
   36    1   34 1     
   37    1   35 1     
@<TRIPOS>SUBSTRUCTURE
      1 S1             1
@<TRIPOS>SET
LONE_PAIRS      STATIC     ATOMS    <user>   **** ""
2 34 35
DONOR_HYDROGENS      STATIC     ATOMS    <user>   **** ""
2 20 33
ATOM$BLUE        STATIC     ATOMS    COLORGROUP SYSTEM
2 34 35
ATOM$RED        STATIC     ATOMS    COLORGROUP SYSTEM
2 20 33
