#       Name:                AV-unprocessed.smi:2061
#       Creating user name   scv26
#       Creation time:       Fri Mar 27 11:04:11 2020


#       File generated by GOLD software.
#

@<TRIPOS>MOLECULE
AV-unprocessed.smi:2061
    53    54     1
SMALL
NO_CHARGES


@<TRIPOS>ATOM
      1 ****        -3.7744   7.2240  -1.9624 C.3            1 S1                 0.0000
      2 ****        -3.2900   5.8478  -1.6588 C.2            1 S1                 0.0000
      3 ****        -3.1397   5.1509  -0.4929 C.2            1 S1                 0.0000
      4 ****        -2.6313   3.8995  -0.9319 C.2            1 S1                 0.0000
      5 ****        -2.3302   2.8710  -0.0032 N.am           1 S1                 0.0000
      6 ****        -1.8156   1.6574  -0.2636 C.2            1 S1                 0.0000
      7 ****        -1.5436   1.2251  -1.3839 O.2            1 S1                 0.0000
      8 ****        -1.6193   0.9586   0.8639 N.am           1 S1                 0.0000
      9 ****        -1.0424  -0.3814   0.9272 C.3            1 S1                 0.0000
     10 ****         0.4917  -0.4024   0.6786 C.3            1 S1                 0.0000
     11 ****         1.2047   0.5462   1.6744 C.3            1 S1                 0.0000
     12 ****         1.0165  -1.8077   0.7223 N.4            1 S1                 1.0000
     13 ****         0.6120  -2.6122  -0.4632 C.3            1 S1                 0.0000
     14 ****         1.0911  -4.0699  -0.3373 C.3            1 S1                 0.0000
     15 ****         0.7362  -4.9044  -1.5730 C.3            1 S1                 0.0000
     16 ****         2.5041  -4.0783  -0.1905 O.3            1 S1                 0.0000
     17 ****         2.9243  -3.4065   0.9887 C.3            1 S1                 0.0000
     18 ****         4.4458  -3.5544   1.1012 C.3            1 S1                 0.0000
     19 ****         2.4879  -1.9300   0.9200 C.3            1 S1                 0.0000
     20 ****        -2.4852   3.8372  -2.2465 N.2            1 S1                 0.0000
     21 ****        -2.9069   5.0858  -2.7192 O.3            1 S1                 0.0000
     22 ****        -4.0348   7.7559  -1.0472 H              1 S1                 0.0000
     23 ****        -4.6598   7.1903  -2.5975 H              1 S1                 0.0000
     24 ****        -3.0067   7.7989  -2.4806 H              1 S1                 0.0000
     25 ****        -3.3577   5.4862   0.5102 H              1 S1                 0.0000
     26 ****        -2.5083   3.0913   0.9655 H              1 S1                 0.0000
     27 ****        -1.8764   1.3866   1.7414 H              1 S1                 0.0000
     28 ****        -1.2602  -0.7918   1.9138 H              1 S1                 0.0000
     29 ****        -1.5838  -1.0026   0.2154 H              1 S1                 0.0000
     30 ****         0.6905  -0.0149  -0.3219 H              1 S1                 0.0000
     31 ****         0.7816   1.5502   1.6547 H              1 S1                 0.0000
     32 ****         2.2603   0.6742   1.4348 H              1 S1                 0.0000
     33 ****         1.1273   0.1800   2.6987 H              1 S1                 0.0000
     34 ****        -0.4693  -2.6207  -0.5839 H              1 S1                 0.0000
     35 ****         1.0255  -2.1597  -1.3663 H              1 S1                 0.0000
     36 ****         0.6326  -4.5352   0.5374 H              1 S1                 0.0000
     37 ****        -0.3428  -4.9400  -1.7267 H              1 S1                 0.0000
     38 ****         1.0896  -5.9301  -1.4646 H              1 S1                 0.0000
     39 ****         1.1892  -4.4896  -2.4741 H              1 S1                 0.0000
     40 ****         2.4661  -3.8839   1.8569 H              1 S1                 0.0000
     41 ****         4.8241  -3.0642   1.9986 H              1 S1                 0.0000
     42 ****         4.9505  -3.1137   0.2409 H              1 S1                 0.0000
     43 ****         4.7321  -4.6053   1.1518 H              1 S1                 0.0000
     44 ****         3.0069  -1.4175   0.1079 H              1 S1                 0.0000
     45 ****         2.7933  -1.4597   1.8540 H              1 S1                 0.0000
     46 ****         0.5934  -2.2420   1.5301 H              1 S1                 0.0000
     47 ****        -1.7040   1.7927  -2.1914 LP             1 S1                 0.0000
     48 ****        -1.1622   0.3064  -1.4863 LP             1 S1                 0.0000
     49 ****         2.9130  -3.6251  -0.9826 LP             1 S1                 0.0000
     50 ****         2.8182  -5.0268  -0.1502 LP             1 S1                 0.0000
     51 ****        -2.1469   3.0655  -2.7850 LP             1 S1                 0.0000
     52 ****        -2.1545   5.5345  -3.2015 LP             1 S1                 0.0000
     53 ****        -3.6787   4.9660  -3.3436 LP             1 S1                 0.0000
@<TRIPOS>BOND
    1    1    2 1     
    2    1   22 1     
    3    1   23 1     
    4    1   24 1     
    5    2   21 1     
    6    2    3 2     
    7    3    4 1     
    8    3   25 1     
    9    4    5 1     
   10    4   20 2     
   11    5    6 am    
   12    5   26 1     
   13    6    7 2     
   14    6    8 am    
   15    8    9 1     
   16    8   27 1     
   17    9   10 1     
   18    9   28 1     
   19    9   29 1     
   20   10   11 1     
   21   10   12 1     
   22   10   30 1     
   23   11   31 1     
   24   11   32 1     
   25   11   33 1     
   26   12   19 1     
   27   12   13 1     
   28   12   46 1     
   29   13   14 1     
   30   13   34 1     
   31   13   35 1     
   32   14   15 1     
   33   14   16 1     
   34   14   36 1     
   35   15   37 1     
   36   15   38 1     
   37   15   39 1     
   38   16   17 1     
   39   17   18 1     
   40   17   19 1     
   41   17   40 1     
   42   18   41 1     
   43   18   42 1     
   44   18   43 1     
   45   19   44 1     
   46   19   45 1     
   47   20   21 1     
   48    7   47 1     
   49    7   48 1     
   50   16   49 1     
   51   16   50 1     
   52   20   51 1     
   53   21   52 1     
   54   21   53 1     
@<TRIPOS>SUBSTRUCTURE
      1 S1             1
@<TRIPOS>SET
LONE_PAIRS      STATIC     ATOMS    <user>   **** ""
7 47 48 49 50 51 52 53
DONOR_HYDROGENS      STATIC     ATOMS    <user>   **** ""
3 26 27 46
ATOM$BLUE        STATIC     ATOMS    COLORGROUP SYSTEM
7 47 48 49 50 51 52 53
ATOM$RED        STATIC     ATOMS    COLORGROUP SYSTEM
3 26 27 46
