#       Name:                AV-unprocessed.smi:709
#       Creating user name   scv26
#       Creation time:       Fri Mar 27 00:44:56 2020


#       File generated by GOLD software.
#

@<TRIPOS>MOLECULE
AV-unprocessed.smi:709
    54    56     1
SMALL
NO_CHARGES


@<TRIPOS>ATOM
      1 ****        -5.3135   2.4794   2.5811 C.3            1 S1                 0.0000
      2 ****        -3.8143   2.7768   2.5112 C.3            1 S1                 0.0000
      3 ****        -3.1235   1.5769   2.2084 O.3            1 S1                 0.0000
      4 ****        -1.7172   1.7535   2.1445 C.3            1 S1                 0.0000
      5 ****        -1.2065   2.3849   0.8449 C.3            1 S1                 0.0000
      6 ****        -0.0142   1.4363   0.9871 C.3            1 S1                 0.0000
      7 ****         0.4678   0.9361  -0.2959 N.am           1 S1                 0.0000
      8 ****         1.5907   0.2219  -0.4526 C.2            1 S1                 0.0000
      9 ****         2.3283  -0.0824   0.4843 O.2            1 S1                 0.0000
     10 ****         1.7735  -0.1110  -1.7440 N.am           1 S1                 0.0000
     11 ****         2.8252  -0.8247  -2.3474 C.2            1 S1                 0.0000
     12 ****         3.9978  -1.1403  -1.7408 C.2            1 S1                 0.0000
     13 ****         5.0264  -1.8672  -2.4454 C.2            1 S1                 0.0000
     14 ****         4.8014  -2.2167  -3.7192 C.2            1 S1                 0.0000
     15 ****         3.5990  -1.8938  -4.3703 N.am           1 S1                 0.0000
     16 ****         3.4492  -2.3168  -5.7650 C.3            1 S1                 0.0000
     17 ****         2.5888  -1.2121  -3.7523 C.2            1 S1                 0.0000
     18 ****         1.5436  -0.9427  -4.3495 O.2            1 S1                 0.0000
     19 ****        -0.9448   0.4665   1.7606 C.3            1 S1                 0.0000
     20 ****        -1.7169  -0.6132   0.9902 C.3            1 S1                 0.0000
     21 ****        -2.2800  -1.5781   2.0352 C.3            1 S1                 0.0000
     22 ****        -1.3553  -1.4521   3.2504 C.3            1 S1                 0.0000
     23 ****        -0.3500  -0.3480   2.9044 C.3            1 S1                 0.0000
     24 ****        -5.8796   3.3823   2.8106 H              1 S1                 0.0000
     25 ****        -5.5302   1.7423   3.3546 H              1 S1                 0.0000
     26 ****        -5.6787   2.0873   1.6316 H              1 S1                 0.0000
     27 ****        -3.6190   3.5304   1.7471 H              1 S1                 0.0000
     28 ****        -3.4713   3.1776   3.4662 H              1 S1                 0.0000
     29 ****        -1.3049   2.2322   3.0363 H              1 S1                 0.0000
     30 ****        -1.8435   2.1721  -0.0159 H              1 S1                 0.0000
     31 ****        -0.9611   3.4446   0.9178 H              1 S1                 0.0000
     32 ****         0.7665   1.8636   1.6216 H              1 S1                 0.0000
     33 ****        -0.0912   1.1427  -1.1109 H              1 S1                 0.0000
     34 ****         1.0448   0.1725  -2.3830 H              1 S1                 0.0000
     35 ****         4.2140  -0.8527  -0.7253 H              1 S1                 0.0000
     36 ****         5.9556  -2.1224  -1.9576 H              1 S1                 0.0000
     37 ****         5.5216  -2.7599  -4.3136 H              1 S1                 0.0000
     38 ****         2.5958  -2.9878  -5.8720 H              1 S1                 0.0000
     39 ****         4.3265  -2.8431  -6.1425 H              1 S1                 0.0000
     40 ****         3.2862  -1.4534  -6.4118 H              1 S1                 0.0000
     41 ****        -2.5057  -0.2050   0.3575 H              1 S1                 0.0000
     42 ****        -1.0454  -1.1683   0.3346 H              1 S1                 0.0000
     43 ****        -3.2921  -1.2796   2.3111 H              1 S1                 0.0000
     44 ****        -2.3298  -2.5998   1.6573 H              1 S1                 0.0000
     45 ****        -1.9354  -1.1783   4.1324 H              1 S1                 0.0000
     46 ****        -0.8464  -2.3910   3.4711 H              1 S1                 0.0000
     47 ****         0.5884  -0.8026   2.5854 H              1 S1                 0.0000
     48 ****        -0.1195   0.2652   3.7760 H              1 S1                 0.0000
     49 ****        -3.4436   1.2384   1.3235 LP             1 S1                 0.0000
     50 ****        -3.3290   0.9022   2.9174 LP             1 S1                 0.0000
     51 ****         2.0998   0.2052   1.4144 LP             1 S1                 0.0000
     52 ****         3.1561  -0.6174   0.3156 LP             1 S1                 0.0000
     53 ****         0.8149  -0.4427  -3.8814 LP             1 S1                 0.0000
     54 ****         1.4249  -1.2244  -5.3016 LP             1 S1                 0.0000
@<TRIPOS>BOND
    1    1    2 1     
    2    1   24 1     
    3    1   25 1     
    4    1   26 1     
    5    2    3 1     
    6    2   27 1     
    7    2   28 1     
    8    3    4 1     
    9    4   19 1     
   10    4    5 1     
   11    4   29 1     
   12    5    6 1     
   13    5   30 1     
   14    5   31 1     
   15    6    7 1     
   16    6   19 1     
   17    6   32 1     
   18    7    8 am    
   19    7   33 1     
   20    8    9 2     
   21    8   10 am    
   22   10   11 1     
   23   10   34 1     
   24   11   17 1     
   25   11   12 2     
   26   12   13 1     
   27   12   35 1     
   28   13   14 2     
   29   13   36 1     
   30   14   15 1     
   31   14   37 1     
   32   15   16 1     
   33   15   17 am    
   34   16   38 1     
   35   16   39 1     
   36   16   40 1     
   37   17   18 2     
   38   19   23 1     
   39   19   20 1     
   40   20   21 1     
   41   20   41 1     
   42   20   42 1     
   43   21   22 1     
   44   21   43 1     
   45   21   44 1     
   46   22   23 1     
   47   22   45 1     
   48   22   46 1     
   49   23   47 1     
   50   23   48 1     
   51    3   49 1     
   52    3   50 1     
   53    9   51 1     
   54    9   52 1     
   55   18   53 1     
   56   18   54 1     
@<TRIPOS>SUBSTRUCTURE
      1 S1             1
@<TRIPOS>SET
LONE_PAIRS      STATIC     ATOMS    <user>   **** ""
6 49 50 51 52 53 54
DONOR_HYDROGENS      STATIC     ATOMS    <user>   **** ""
2 33 34
ATOM$BLUE        STATIC     ATOMS    COLORGROUP SYSTEM
6 49 50 51 52 53 54
ATOM$RED        STATIC     ATOMS    COLORGROUP SYSTEM
2 33 34
