AV-unprocessed.smi:1145|AV-procd|sdf|4885|dock9
  -GOLD-   22720 3453D 1   1.00000     0.00000
 Structure written by MMmdl.
 36 37  0  0  0  0  0  0  0  0  1 V2000
  145.9125  136.4029  153.7068 C   0  0  0  0  0  0  0  0  0  0  0  0
  146.0263  135.0370  153.0048 C   0  0  1  0  0  0  0  0  0  0  0  0
  145.6165  135.0846  151.5191 C   0  0  0  0  0  0  0  0  0  0  0  0
  145.4310  133.7670  150.9386 N   0  0  0  0  0  0  0  0  0  0  0  0
  144.2831  133.2160  150.4084 C   0  0  0  0  0  0  0  0  0  0  0  0
  144.5980  131.9593  149.9769 C   0  0  0  0  0  0  0  0  0  0  0  0
  145.9810  131.8321  150.2866 C   0  0  0  0  0  0  0  0  0  0  0  0
  146.4772  132.9166  150.8597 N   0  0  0  0  0  0  0  0  0  0  0  0
  147.3930  134.5319  153.1041 N   0  0  0  0  0  0  0  0  0  0  0  0
  147.7559  133.3661  153.6621 C   0  0  0  0  0  0  0  0  0  0  0  0
  146.9495  132.5834  154.1653 O   0  0  0  0  0  0  0  0  0  0  0  0
  149.2606  133.0357  153.6301 C   0  0  1  0  0  0  0  0  0  0  0  0
  150.1140  134.1286  154.2998 C   0  0  0  0  0  0  0  0  0  0  0  0
  149.9511  134.1729  155.8310 C   0  0  0  0  0  0  0  0  0  0  0  0
  149.9312  132.7866  156.4924 C   0  0  0  0  0  0  0  0  0  0  0  0
  150.0975  132.6952  157.7064 O   0  0  0  0  0  0  0  0  0  0  0  0
  149.6885  131.7031  155.7338 N   0  0  0  0  0  0  0  0  0  0  0  0
  149.5879  131.6693  154.2734 C   0  0  0  0  0  0  0  0  0  0  0  0
  144.8862  136.7704  153.7011 H   0  0  0  0  0  0  0  0  0  0  0  0
  146.5372  137.1517  153.2191 H   0  0  0  0  0  0  0  0  0  0  0  0
  146.2241  136.3383  154.7497 H   0  0  0  0  0  0  0  0  0  0  0  0
  145.3592  134.3371  153.5117 H   0  0  0  0  0  0  0  0  0  0  0  0
  144.6877  135.6449  151.4015 H   0  0  0  0  0  0  0  0  0  0  0  0
  146.3729  135.6107  150.9347 H   0  0  0  0  0  0  0  0  0  0  0  0
  143.3488  133.7569  150.3844 H   0  0  0  0  0  0  0  0  0  0  0  0
  143.9414  131.2404  149.5097 H   0  0  0  0  0  0  0  0  0  0  0  0
  146.6352  130.9908  150.1112 H   0  0  0  0  0  0  0  0  0  0  0  0
  148.1200  135.1129  152.7130 H   0  0  0  0  0  0  0  0  0  0  0  0
  149.5513  132.9781  152.5796 H   0  0  0  0  0  0  0  0  0  0  0  0
  151.1637  133.9541  154.0601 H   0  0  0  0  0  0  0  0  0  0  0  0
  149.8732  135.1054  153.8784 H   0  0  0  0  0  0  0  0  0  0  0  0
  150.7496  134.7714  156.2706 H   0  0  0  0  0  0  0  0  0  0  0  0
  149.0171  134.6739  156.0873 H   0  0  0  0  0  0  0  0  0  0  0  0
  149.6353  130.8125  156.2063 H   0  0  0  0  0  0  0  0  0  0  0  0
  148.8460  130.9213  153.9911 H   0  0  0  0  0  0  0  0  0  0  0  0
  150.5419  131.3087  153.8875 H   0  0  0  0  0  0  0  0  0  0  0  0
  1  2  1  0  0  0  0
  1 19  1  0  0  0  0
  1 20  1  0  0  0  0
  1 21  1  0  0  0  0
  2  3  1  0  0  0  0
  2  9  1  0  0  0  0
  2 22  1  0  0  0  0
  3  4  1  0  0  0  0
  3 23  1  0  0  0  0
  3 24  1  0  0  0  0
  4  8  1  0  0  0  0
  4  5  1  0  0  0  0
  5  6  2  0  0  0  0
  5 25  1  0  0  0  0
  6  7  1  0  0  0  0
  6 26  1  0  0  0  0
  7  8  2  0  0  0  0
  7 27  1  0  0  0  0
  9 10  1  0  0  0  0
  9 28  1  0  0  0  0
 10 11  2  0  0  0  0
 10 12  1  0  0  0  0
 12 18  1  0  0  0  0
 12 13  1  0  0  0  0
 12 29  1  0  0  0  0
 13 14  1  0  0  0  0
 13 30  1  0  0  0  0
 13 31  1  0  0  0  0
 14 15  1  0  0  0  0
 14 32  1  0  0  0  0
 14 33  1  0  0  0  0
 15 16  2  0  0  0  0
 15 17  1  0  0  0  0
 17 18  1  0  0  0  0
 17 34  1  0  0  0  0
 18 35  1  0  0  0  0
 18 36  1  0  0  0  0
M  END
> <s_m_source_file>
AV-unprocessed.smi

> <i_m_source_file_index>
1145

> <i_lp_mmshare_version>
43012

> <i_f3d_flags>
0

> <s_epik_input>
bjFbY0hdW2NIXVtjSF1uMVtDSDJdW0NAQEhdKFtDSDNdKVtOSF1DKD1PKVtDQEBIXTJbQ0gyXVtDSDJdQyg9TylbTkhdW0NIMl0y

> <s_epik_cmdline>
J2VwaWtfcHl0aG9uJywgJy1waCcsICc3LjAnLCAnLXRuJywgJzgnLCAnLW1hJywgJzIwMCcsICctbWV0YWxfYmluZGluZycsICctaW1hZScsICc8aW5maWxlLm1hZT4nLCAnLW9tYWUnLCAnPG91dGZpbGUubWFlPic=

> <r_lp_tautomer_probability>
1

> <r_epik_Ionization_Penalty>
0.000314064

> <r_epik_Ionization_Penalty_Charging>
0

> <r_epik_Ionization_Penalty_Neutral>
0.000314064

> <r_epik_State_Penalty>
-0

> <r_epik_Charging_Adjusted_Penalty>
0

> <i_epik_Tot_Q>
0

> <i_epik_Tot_abs_Q>
0

> <r_epik_Metal_State_Penalty>
-0

> <b_epik_Metal_Only>
0

> <s_lp_Force_Field>
OPLS_2005

> <r_lp_Energy>
8.22521

> <b_lp_Chiralities_Consistent>
1

> <s_lp_Variant>
AV-unprocessed.smi:1145-4

> <Gold.Version>
5.8.1

> <Gold.Id.Protein>
6NUR|6NUR_protein|mol2

> <Gold.PLP.Fitness>
41.1718

> <Gold.PLP.PLP>
-29.3542

> <Gold.PLP.part.hbond>
-1.9934

> <Gold.PLP.part.metal>
0.0000

> <Gold.PLP.part.buried>
-4.9599

> <Gold.PLP.part.nonpolar>
-23.4781

> <Gold.PLP.part.repulsive>
0.2651

> <Gold.PLP.ligand.clash>
0.0000

> <Gold.PLP.ligand.torsion>
0.1103

> <Gold.PLP.Chemscore.Hbond>
2.0000

> <Gold.PLP.Chemscore.CHOScore>
2.0000

> <Gold.PLP.Chemscore.Metal>
0.0000

> <Gold.Chemscore.Hbonds>
donor molecule, donor type, donor heavy atom, donor atom, acceptor molecule, acceptor atom, score
      L1  H     9    28       P1  7948  1.00
      P1  H  6896  6908       L1    16  1.00
      L1  C     5    25       P1 10186  0.90
      L1  C     7    27       P1 10747  1.00

> <Gold.PLP.Chemscore.Internal.Correction>
0.0381

> <Gold.Rescore>
     Score         DG    S(hbond)    S(metal)    S(lipo)     H(rot)  DE(clash)    DE(int)     intcor
     14.48     -14.58       2.00        0.00      60.14       1.80       0.01       0.10       ----

> <Gold.Chemscore.Fitness>
14.4769

> <Gold.Chemscore.DG>
-14.5836

> <Gold.Chemscore.ZeroCoef>
-5.4800

> <Gold.Chemscore.Hbond>
1.9972

> <Gold.Chemscore.Metal>
0.0000

> <Gold.Chemscore.Lipo>
60.1396

> <Gold.Chemscore.Internal_Hbond>
0.0000

> <Gold.Chemscore.DEClash>
0.0073

> <Gold.Chemscore.DEInternal>
0.0994

> <Gold.Chemscore.Rot>
1.7982

> <Gold.Chemscore.Internal.Correction>
   9.000000E+99

> <Gold.Chemscore.Hbonds>
donor molecule, donor type, donor heavy atom, donor atom, acceptor molecule, acceptor atom, score
      L1  H     9    28       P1  7948  0.91
      P1  H  6896  6908       L1    16  0.98

> <Gold.Chemscore.Hbond.Weighted>
-6.6707

> <Gold.Chemscore.Metal.Weighted>
-0.0000

> <Gold.Chemscore.Lipo.Weighted>
-7.0363

> <Gold.Chemscore.Internal_Hbond.Weighted>
0.0000

> <Gold.Chemscore.DEClash.Weighted>
0.0073

> <Gold.Chemscore.DEInternal.Weighted>
0.0994

> <Gold.Chemscore.Rot.Weighted>
4.6035

> <Gold.Chemscore.Internal.Correction.Weighted>
   9.000000E+99

> <Gold.Protein.RotatedTorsions>
[ 6907 6896 6895 6894 ] final  110.41 input  -60.11 | X-H torsion
[ 7974 7965 7964 7962 ] final -135.09 input  175.53 | X-H torsion
[ 8008 7997 7996 7995 ] final -136.40 input   59.86 | X-H torsion
[ 10167 10162 10161 10158 ] final -130.95 input  -65.29 | X-H torsion
[ 10718 10713 10712 10709 ] final  -78.06 input   66.30 | X-H torsion
[ 10763 10752 10751 10750 ] final   71.82 input  -60.55 | X-H torsion
[ 11005 11000 10999 10996 ] final -134.52 input  -57.11 | X-H torsion

> <Gold.Protein.ActiveResidues>
 VAL166  LYS551  ARG553  GLY616  TRP617  ASP618  TYR619  PRO620  LYS621  CYS622 
 ASP623  PHE694  ASN695  SER759  ASP760  ASP761  ALA762  ILE779  LEU786  VAL792 
 PHE793  MET794  SER795  GLU796  ALA797  LYS798  CYS799  TRP800  GLU811  SER814 

> <Gold.Protein.RotatedAtoms>
  152.5021  133.8804  159.7343 H   0  0  0  0  0  0  0  0  0  0  0  0  # atno 6907 bound_to 6896
  150.9268  133.6805  159.2826 H   0  0  0  0  0  0  0  0  0  0  0  0  # atno 6908 bound_to 6896
  151.4163  135.0996  159.9653 H   0  0  0  0  0  0  0  0  0  0  0  0  # atno 6909 bound_to 6896
  144.9044  140.6814  143.5064 H   0  0  0  0  0  0  0  0  0  0  0  0  # atno 7974 bound_to 7965
  155.3945  140.0502  157.3039 H   0  0  0  0  0  0  0  0  0  0  0  0  # atno 8008 bound_to 7997
  154.5020  140.2160  155.9288 H   0  0  0  0  0  0  0  0  0  0  0  0  # atno 8009 bound_to 7997
  156.1479  140.3141  155.8605 H   0  0  0  0  0  0  0  0  0  0  0  0  # atno 8010 bound_to 7997
  139.9239  143.6350  152.2547 H   0  0  0  0  0  0  0  0  0  0  0  0  # atno 10167 bound_to 10162
  156.0128  130.4508  150.3439 H   0  0  0  0  0  0  0  0  0  0  0  0  # atno 10718 bound_to 10713
  153.0422  135.5122  154.7651 H   0  0  0  0  0  0  0  0  0  0  0  0  # atno 10763 bound_to 10752
  154.6580  135.2934  154.9905 H   0  0  0  0  0  0  0  0  0  0  0  0  # atno 10764 bound_to 10752
  154.0766  135.6670  153.4884 H   0  0  0  0  0  0  0  0  0  0  0  0  # atno 10765 bound_to 10752
  140.8982  134.1724  157.4479 H   0  0  0  0  0  0  0  0  0  0  0  0  # atno 11005 bound_to 11000
  145.3560  139.1694  143.4409 LP  0  0  0  0  0  0  0  0  0  0  0  0  # atno 17320 bound_to 7965
  146.3126  140.3617  142.8665 LP  0  0  0  0  0  0  0  0  0  0  0  0  # atno 17321 bound_to 7965
  139.6838  144.7653  151.1561 LP  0  0  0  0  0  0  0  0  0  0  0  0  # atno 17342 bound_to 10162
  140.7655  143.5686  150.9020 LP  0  0  0  0  0  0  0  0  0  0  0  0  # atno 17343 bound_to 10162
  157.1533  131.0326  151.2875 LP  0  0  0  0  0  0  0  0  0  0  0  0  # atno 17370 bound_to 10713
  157.4373  130.7524  149.7040 LP  0  0  0  0  0  0  0  0  0  0  0  0  # atno 17371 bound_to 10713
  139.8738  134.9887  156.5425 LP  0  0  0  0  0  0  0  0  0  0  0  0  # atno 17394 bound_to 11000
  140.8262  133.8314  155.8941 LP  0  0  0  0  0  0  0  0  0  0  0  0  # atno 17395 bound_to 11000

$$$$
