AV-unprocessed.smi:2147|AV-procd|sdf|8744|dock1
  -GOLD-   2272011523D 1   1.00000     0.00000
 Structure written by MMmdl.
 42 44  0  0  0  0  0  0  0  0  2 V2000
  153.5593  142.2626  162.8865 C   0  0  0  0  0  0  0  0  0  0  0  0
  152.8284  143.3725  162.1329 C   0  0  0  0  0  0  0  0  0  0  0  0
  152.6009  144.4323  162.7160 O   0  0  0  0  0  0  0  0  0  0  0  0
  152.4287  143.1080  160.7213 C   0  0  0  0  0  0  0  0  0  0  0  0
  151.8448  144.1093  159.9113 C   0  0  0  0  0  0  0  0  0  0  0  0
  151.4803  143.8282  158.5807 C   0  0  0  0  0  0  0  0  0  0  0  0
  151.6881  142.5499  158.0266 C   0  0  0  0  0  0  0  0  0  0  0  0
  151.3037  142.3647  156.7160 O   0  0  0  0  0  0  0  0  0  0  0  0
  151.3944  141.0570  156.1661 C   0  0  0  0  0  0  0  0  0  0  0  0
  150.1133  140.7606  155.3726 C   0  0  2  0  0  0  0  0  0  0  0  0
  150.4423  139.9022  154.2985 O   0  0  0  0  0  0  0  0  0  0  0  0
  149.4426  142.0440  154.8422 C   0  0  0  0  0  0  0  0  0  0  0  0
  148.0113  141.8672  154.5578 N   0  0  0  0  0  0  0  0  0  0  0  0
  147.3982  141.4651  153.4116 C   0  0  0  0  0  0  0  0  0  0  0  0
  146.0565  141.4519  153.6448 N   0  3  0  0  0  0  0  0  0  0  0  0
  145.8075  141.8529  154.9590 C   0  0  0  0  0  0  0  0  0  0  0  0
  144.6118  141.9970  155.6560 C   0  0  0  0  0  0  0  0  0  0  0  0
  144.7076  142.4320  156.9942 C   0  0  0  0  0  0  0  0  0  0  0  0
  145.9560  142.7056  157.5899 C   0  0  0  0  0  0  0  0  0  0  0  0
  147.1619  142.5543  156.8743 C   0  0  0  0  0  0  0  0  0  0  0  0
  147.0593  142.1229  155.5519 C   0  0  0  0  0  0  0  0  0  0  0  0
  152.2711  141.5454  158.8371 C   0  0  0  0  0  0  0  0  0  0  0  0
  152.6368  141.8246  160.1682 C   0  0  0  0  0  0  0  0  0  0  0  0
  152.9364  141.3704  162.9519 H   0  0  0  0  0  0  0  0  0  0  0  0
  153.8013  142.5841  163.8997 H   0  0  0  0  0  0  0  0  0  0  0  0
  154.4895  142.0057  162.3796 H   0  0  0  0  0  0  0  0  0  0  0  0
  151.6666  145.1046  160.2897 H   0  0  0  0  0  0  0  0  0  0  0  0
  151.0362  144.6060  157.9770 H   0  0  0  0  0  0  0  0  0  0  0  0
  152.2656  140.9687  155.5145 H   0  0  0  0  0  0  0  0  0  0  0  0
  151.5021  140.3332  156.9760 H   0  0  0  0  0  0  0  0  0  0  0  0
  149.4134  140.2245  156.0148 H   0  0  0  0  0  0  0  0  0  0  0  0
  149.6421  139.6315  153.8743 H   0  0  0  0  0  0  0  0  0  0  0  0
  149.5216  142.8380  155.5858 H   0  0  0  0  0  0  0  0  0  0  0  0
  149.9444  142.4155  153.9485 H   0  0  0  0  0  0  0  0  0  0  0  0
  147.8882  141.2020  152.4852 H   0  0  0  0  0  0  0  0  0  0  0  0
  143.6541  141.7891  155.2019 H   0  0  0  0  0  0  0  0  0  0  0  0
  143.8055  142.5598  157.5748 H   0  0  0  0  0  0  0  0  0  0  0  0
  145.9902  143.0401  158.6166 H   0  0  0  0  0  0  0  0  0  0  0  0
  148.1121  142.7724  157.3388 H   0  0  0  0  0  0  0  0  0  0  0  0
  152.4498  140.5493  158.4622 H   0  0  0  0  0  0  0  0  0  0  0  0
  153.0805  141.0367  160.7599 H   0  0  0  0  0  0  0  0  0  0  0  0
  145.3638  141.1883  152.9558 H   0  0  0  0  0  0  0  0  0  0  0  0
  1  2  1  0  0  0  0
  1 24  1  0  0  0  0
  1 25  1  0  0  0  0
  1 26  1  0  0  0  0
  2  3  2  0  0  0  0
  2  4  1  0  0  0  0
  4 23  1  0  0  0  0
  4  5  2  0  0  0  0
  5  6  1  0  0  0  0
  5 27  1  0  0  0  0
  6  7  2  0  0  0  0
  6 28  1  0  0  0  0
  7  8  1  0  0  0  0
  7 22  1  0  0  0  0
  8  9  1  0  0  0  0
  9 10  1  0  0  0  0
  9 29  1  0  0  0  0
  9 30  1  0  0  0  0
 10 11  1  0  0  0  0
 10 12  1  0  0  0  0
 10 31  1  0  0  0  0
 11 32  1  0  0  0  0
 12 13  1  0  0  0  0
 12 33  1  0  0  0  0
 12 34  1  0  0  0  0
 13 21  1  0  0  0  0
 13 14  1  0  0  0  0
 14 15  2  0  0  0  0
 14 35  1  0  0  0  0
 15 16  1  0  0  0  0
 15 42  1  0  0  0  0
 16 21  2  0  0  0  0
 16 17  1  0  0  0  0
 17 18  2  0  0  0  0
 17 36  1  0  0  0  0
 18 19  1  0  0  0  0
 18 37  1  0  0  0  0
 19 20  2  0  0  0  0
 19 38  1  0  0  0  0
 20 21  1  0  0  0  0
 20 39  1  0  0  0  0
 22 23  2  0  0  0  0
 22 40  1  0  0  0  0
 23 41  1  0  0  0  0
M  CHG  1  15   1
M  END
> <s_m_source_file>
AV-unprocessed.smi

> <i_m_source_file_index>
2147

> <i_lp_mmshare_version>
43012

> <i_f3d_flags>
0

> <s_epik_input>
W0NIM11DKD1PKWMxW2NIXVtjSF1jKFtjSF1bY0hdMSlPW0NIMl1bQ0BIXShbT0hdKVtDSDJdbihbY0hdbjIpYyhjMjMpW2NIXVtjSF1bY0hdW2NIXTM=

> <s_epik_cmdline>
J2VwaWtfcHl0aG9uJywgJy1waCcsICc3LjAnLCAnLXRuJywgJzgnLCAnLW1hJywgJzIwMCcsICctbWV0YWxfYmluZGluZycsICctaW1hZScsICc8aW5maWxlLm1hZT4nLCAnLW9tYWUnLCAnPG91dGZpbGUubWFlPic=

> <r_lp_tautomer_probability>
0.99995

> <r_epik_Ionization_Penalty>
1.40272

> <r_epik_Ionization_Penalty_Charging>
1.40272

> <r_epik_Ionization_Penalty_Neutral>
2.3993e-06

> <r_epik_State_Penalty>
1.48501

> <r_epik_Charging_Adjusted_Penalty>
2.88772

> <i_epik_Tot_Q>
1

> <i_epik_Tot_abs_Q>
1

> <r_epik_Metal_State_Penalty>
5.5274

> <b_epik_Metal_Only>
0

> <s_lp_Force_Field>
OPLS_2005

> <r_lp_Energy>
26.2273

> <b_lp_Chiralities_Consistent>
1

> <s_lp_Variant>
AV-unprocessed.smi:2147-3

> <Gold.Version>
5.8.1

> <Gold.Id.Protein>
6NUR|6NUR_protein|mol2

> <Gold.PLP.Fitness>
52.0203

> <Gold.PLP.PLP>
-42.6117

> <Gold.PLP.part.hbond>
-2.2261

> <Gold.PLP.part.metal>
0.0000

> <Gold.PLP.part.buried>
-1.9246

> <Gold.PLP.part.nonpolar>
-38.7281

> <Gold.PLP.part.repulsive>
1.5336

> <Gold.PLP.ligand.clash>
0.0000

> <Gold.PLP.ligand.torsion>
1.3768

> <Gold.PLP.Chemscore.Hbond>
3.0000

> <Gold.PLP.Chemscore.CHOScore>
1.0000

> <Gold.PLP.Chemscore.Metal>
0.0000

> <Gold.Chemscore.Hbonds>
donor molecule, donor type, donor heavy atom, donor atom, acceptor molecule, acceptor atom, score
      L1  H    15    42       P1 10175  1.50
      P1  H  7989  7998       L1    11  1.00
      L1  C    14    35       P1  7957  1.00

> <Gold.PLP.Chemscore.Internal.Correction>
0.1622

> <Gold.Rescore>
     Score         DG    S(hbond)    S(metal)    S(lipo)     H(rot)  DE(clash)    DE(int)     intcor
     13.01     -16.94       1.65        0.00     105.33       2.48       2.48       1.44       ----

> <Gold.Chemscore.Fitness>
13.0107

> <Gold.Chemscore.DG>
-16.9396

> <Gold.Chemscore.ZeroCoef>
-5.4800

> <Gold.Chemscore.Hbond>
1.6455

> <Gold.Chemscore.Metal>
0.0000

> <Gold.Chemscore.Lipo>
105.3251

> <Gold.Chemscore.Internal_Hbond>
0.0000

> <Gold.Chemscore.DEClash>
2.4840

> <Gold.Chemscore.DEInternal>
1.4449

> <Gold.Chemscore.Rot>
2.4842

> <Gold.Chemscore.Internal.Correction>
   9.000000E+99

> <Gold.Chemscore.Hbonds>
donor molecule, donor type, donor heavy atom, donor atom, acceptor molecule, acceptor atom, score
      L1  H    15    42       P1 10175  0.09
      P1  H  7989  7998       L1    11  0.25

> <Gold.Chemscore.Hbond.Weighted>
-5.4960

> <Gold.Chemscore.Metal.Weighted>
-0.0000

> <Gold.Chemscore.Lipo.Weighted>
-12.3230

> <Gold.Chemscore.Internal_Hbond.Weighted>
0.0000

> <Gold.Chemscore.DEClash.Weighted>
2.4840

> <Gold.Chemscore.DEInternal.Weighted>
1.4449

> <Gold.Chemscore.Rot.Weighted>
6.3594

> <Gold.Chemscore.Internal.Correction.Weighted>
   9.000000E+99

> <Gold.Protein.RotatedTorsions>
[ 6907 6896 6895 6894 ] final  135.84 input  -60.11 | X-H torsion
[ 7974 7965 7964 7962 ] final -171.30 input  175.53 | X-H torsion
[ 8008 7997 7996 7995 ] final  164.13 input   59.86 | X-H torsion
[ 10167 10162 10161 10158 ] final   89.03 input  -65.29 | X-H torsion
[ 10718 10713 10712 10709 ] final -144.71 input   66.30 | X-H torsion
[ 10763 10752 10751 10750 ] final  121.25 input  -60.55 | X-H torsion
[ 11005 11000 10999 10996 ] final -136.36 input  -57.11 | X-H torsion

> <Gold.Protein.ActiveResidues>
 VAL166  LYS551  ARG553  GLY616  TRP617  ASP618  TYR619  PRO620  LYS621  CYS622 
 ASP623  PHE694  ASN695  SER759  ASP760  ASP761  ALA762  ILE779  LEU786  VAL792 
 PHE793  MET794  SER795  GLU796  ALA797  LYS798  CYS799  TRP800  GLU811  SER814 

> <Gold.Protein.RotatedAtoms>
  152.2960  133.5608  159.5587 H   0  0  0  0  0  0  0  0  0  0  0  0  # atno 6907 bound_to 6896
  150.7256  134.0360  159.3758 H   0  0  0  0  0  0  0  0  0  0  0  0  # atno 6908 bound_to 6896
  151.8263  135.0636  160.0482 H   0  0  0  0  0  0  0  0  0  0  0  0  # atno 6909 bound_to 6896
  144.7159  140.1942  143.6345 H   0  0  0  0  0  0  0  0  0  0  0  0  # atno 7974 bound_to 7965
  156.1904  140.1705  156.8104 H   0  0  0  0  0  0  0  0  0  0  0  0  # atno 8008 bound_to 7997
  154.5464  140.0726  156.8628 H   0  0  0  0  0  0  0  0  0  0  0  0  # atno 8009 bound_to 7997
  155.3114  140.3368  155.4246 H   0  0  0  0  0  0  0  0  0  0  0  0  # atno 8010 bound_to 7997
  139.8613  144.6542  150.9055 H   0  0  0  0  0  0  0  0  0  0  0  0  # atno 10167 bound_to 10162
  156.3735  130.7800  151.1984 H   0  0  0  0  0  0  0  0  0  0  0  0  # atno 10718 bound_to 10713
  153.6111  135.3430  155.2979 H   0  0  0  0  0  0  0  0  0  0  0  0  # atno 10763 bound_to 10752
  154.8618  135.4250  154.2308 H   0  0  0  0  0  0  0  0  0  0  0  0  # atno 10764 bound_to 10752
  153.3159  135.7035  153.7145 H   0  0  0  0  0  0  0  0  0  0  0  0  # atno 10765 bound_to 10752
  140.8812  134.1929  157.4589 H   0  0  0  0  0  0  0  0  0  0  0  0  # atno 11005 bound_to 11000
  145.8740  139.2287  143.1644 LP  0  0  0  0  0  0  0  0  0  0  0  0  # atno 17320 bound_to 7965
  146.0058  140.8480  142.9995 LP  0  0  0  0  0  0  0  0  0  0  0  0  # atno 17321 bound_to 7965
  140.7774  143.3742  151.1594 LP  0  0  0  0  0  0  0  0  0  0  0  0  # atno 17342 bound_to 10162
  139.7371  143.8982  152.3038 LP  0  0  0  0  0  0  0  0  0  0  0  0  # atno 17343 bound_to 10162
  157.7486  131.0365  150.4413 LP  0  0  0  0  0  0  0  0  0  0  0  0  # atno 17370 bound_to 10713
  156.4644  130.4039  149.6556 LP  0  0  0  0  0  0  0  0  0  0  0  0  # atno 17371 bound_to 10713
  139.8720  134.9818  156.5131 LP  0  0  0  0  0  0  0  0  0  0  0  0  # atno 17394 bound_to 11000
  140.8458  133.8170  155.9120 LP  0  0  0  0  0  0  0  0  0  0  0  0  # atno 17395 bound_to 11000

$$$$
