AV-unprocessed.smi:1260|AV-procd|sdf|5295|dock1
  -GOLD-   22720 4413D 1   1.00000     0.00000
 Structure written by MMmdl.
 37 39  0  0  0  0  0  0  0  0  2 V2000
  151.4743  139.9090  154.4922 O   0  0  0  0  0  0  0  0  0  0  0  0
  150.6464  139.0812  154.8706 C   0  0  0  0  0  0  0  0  0  0  0  0
  150.8449  137.5993  154.5445 C   0  0  0  0  0  0  0  0  0  0  0  0
  151.0509  136.8117  155.7461 N   0  0  0  0  0  0  0  0  0  0  0  0
  150.2987  136.6666  156.8389 C   0  0  0  0  0  0  0  0  0  0  0  0
  150.8664  135.8569  157.7194 N   0  0  0  0  0  0  0  0  0  0  0  0
  152.0473  135.4917  157.0950 N   0  0  0  0  0  0  0  0  0  0  0  0
  152.1625  136.0551  155.9237 N   0  0  0  0  0  0  0  0  0  0  0  0
  149.5410  139.4060  155.5599 N   0  0  0  0  0  0  0  0  0  0  0  0
  149.1718  140.7560  155.9737 C   0  0  2  0  0  0  0  0  0  0  0  0
  148.9660  140.8801  157.4939 C   0  0  0  0  0  0  0  0  0  0  0  0
  147.7677  141.8340  157.6690 C   0  0  0  0  0  0  0  0  0  0  0  0
  147.4249  142.2852  156.3069 N   0  3  2  0  0  0  0  0  0  0  0  0
  146.0381  142.7470  156.0794 C   0  0  0  0  0  0  0  0  0  0  0  0
  145.9012  143.2510  154.6286 C   0  0  0  0  0  0  0  0  0  0  0  0
  146.3774  142.1967  153.6084 C   0  0  0  0  0  0  0  0  0  0  0  0
  147.7901  141.6869  153.9527 C   0  0  0  0  0  0  0  0  0  0  0  0
  147.8170  141.1892  155.4077 C   0  0  1  0  0  0  0  0  0  0  0  0
  149.9692  137.2188  154.0171 H   0  0  0  0  0  0  0  0  0  0  0  0
  151.7024  137.4691  153.8823 H   0  0  0  0  0  0  0  0  0  0  0  0
  149.3475  137.1550  156.9905 H   0  0  0  0  0  0  0  0  0  0  0  0
  148.9151  138.6601  155.8279 H   0  0  0  0  0  0  0  0  0  0  0  0
  149.9388  141.4731  155.6728 H   0  0  0  0  0  0  0  0  0  0  0  0
  148.7368  139.9143  157.9470 H   0  0  0  0  0  0  0  0  0  0  0  0
  149.8638  141.2636  157.9800 H   0  0  0  0  0  0  0  0  0  0  0  0
  146.9258  141.2980  158.1100 H   0  0  0  0  0  0  0  0  0  0  0  0
  148.0016  142.6838  158.3109 H   0  0  0  0  0  0  0  0  0  0  0  0
  145.3387  141.9314  156.2684 H   0  0  0  0  0  0  0  0  0  0  0  0
  145.7988  143.5474  156.7804 H   0  0  0  0  0  0  0  0  0  0  0  0
  144.8660  143.5270  154.4251 H   0  0  0  0  0  0  0  0  0  0  0  0
  146.4914  144.1599  154.5060 H   0  0  0  0  0  0  0  0  0  0  0  0
  145.6811  141.3571  153.6037 H   0  0  0  0  0  0  0  0  0  0  0  0
  146.3635  142.6151  152.6014 H   0  0  0  0  0  0  0  0  0  0  0  0
  148.0706  140.8846  153.2699 H   0  0  0  0  0  0  0  0  0  0  0  0
  148.5190  142.4865  153.8143 H   0  0  0  0  0  0  0  0  0  0  0  0
  147.1021  140.3711  155.5247 H   0  0  0  0  0  0  0  0  0  0  0  0
  148.0389  143.0595  156.0972 H   0  0  0  0  0  0  0  0  0  0  0  0
  1  2  2  0  0  0  0
  2  3  1  0  0  0  0
  2  9  1  0  0  0  0
  3  4  1  0  0  0  0
  3 19  1  0  0  0  0
  3 20  1  0  0  0  0
  4  8  1  0  0  0  0
  4  5  1  0  0  0  0
  5  6  2  0  0  0  0
  5 21  1  0  0  0  0
  6  7  1  0  0  0  0
  7  8  2  0  0  0  0
  9 10  1  0  0  0  0
  9 22  1  0  0  0  0
 10 18  1  0  0  0  0
 10 11  1  0  0  0  0
 10 23  1  0  0  0  0
 11 12  1  0  0  0  0
 11 24  1  0  0  0  0
 11 25  1  0  0  0  0
 12 13  1  0  0  0  0
 12 26  1  0  0  0  0
 12 27  1  0  0  0  0
 13 18  1  0  0  0  0
 13 14  1  0  0  0  0
 13 37  1  0  0  0  0
 14 15  1  0  0  0  0
 14 28  1  0  0  0  0
 14 29  1  0  0  0  0
 15 16  1  0  0  0  0
 15 30  1  0  0  0  0
 15 31  1  0  0  0  0
 16 17  1  0  0  0  0
 16 32  1  0  0  0  0
 16 33  1  0  0  0  0
 17 18  1  0  0  0  0
 17 34  1  0  0  0  0
 17 35  1  0  0  0  0
 18 36  1  0  0  0  0
M  CHG  1  13   1
M  END
> <s_m_source_file>
AV-unprocessed.smi

> <i_m_source_file_index>
1260

> <i_lp_mmshare_version>
43012

> <i_f3d_flags>
0

> <s_epik_input>
bjFubltjSF1uMVtDSDJdQyg9TylbTkhdW0NASF0oW0NIMl1bQ0gyXTIpW0NAQEhdKE4yMylbQ0gyXVtDSDJdW0NIMl1bQ0gyXTM=

> <s_epik_cmdline>
J2VwaWtfcHl0aG9uJywgJy1waCcsICc3LjAnLCAnLXRuJywgJzgnLCAnLW1hJywgJzIwMCcsICctbWV0YWxfYmluZGluZycsICctaW1hZScsICc8aW5maWxlLm1hZT4nLCAnLW9tYWUnLCAnPG91dGZpbGUubWFlPic=

> <r_lp_tautomer_probability>
1

> <r_epik_Ionization_Penalty>
0.00234324

> <r_epik_Ionization_Penalty_Charging>
0.00233897

> <r_epik_Ionization_Penalty_Neutral>
4.26861e-06

> <r_epik_State_Penalty>
0.00161477

> <r_epik_Charging_Adjusted_Penalty>
0.00395374

> <i_epik_Tot_Q>
1

> <i_epik_Tot_abs_Q>
1

> <r_epik_Metal_State_Penalty>
-0

> <b_epik_Metal_Only>
0

> <s_lp_Force_Field>
OPLS_2005

> <r_lp_Energy>
37.0555

> <b_lp_Chiralities_Consistent>
1

> <s_lp_Variant>
AV-unprocessed.smi:1260-3

> <Gold.Version>
5.8.1

> <Gold.Id.Protein>
6NUR|6NUR_protein|mol2

> <Gold.PLP.Fitness>
40.9873

> <Gold.PLP.PLP>
-27.4253

> <Gold.PLP.part.hbond>
-4.8914

> <Gold.PLP.part.metal>
0.0000

> <Gold.PLP.part.buried>
-6.3542

> <Gold.PLP.part.nonpolar>
-16.9486

> <Gold.PLP.part.repulsive>
0.1249

> <Gold.PLP.ligand.clash>
0.0000

> <Gold.PLP.ligand.torsion>
0.0425

> <Gold.PLP.Chemscore.Hbond>
4.5440

> <Gold.PLP.Chemscore.CHOScore>
0.0000

> <Gold.PLP.Chemscore.Metal>
0.0000

> <Gold.Chemscore.Hbonds>
donor molecule, donor type, donor heavy atom, donor atom, acceptor molecule, acceptor atom, score
      L1  H    13    37       P1  8028  2.00
      P1  H  6896  6907       L1     6  0.29
      P1  H  7989  7998       L1     1  0.63
      P1  H 10752 10763       L1     8  0.85

> <Gold.PLP.Chemscore.Internal.Correction>
0.0150

> <Gold.Rescore>
     Score         DG    S(hbond)    S(metal)    S(lipo)     H(rot)  DE(clash)    DE(int)     intcor
     16.39     -16.50       3.27        0.00      44.04       1.98       0.01       0.10       ----

> <Gold.Chemscore.Fitness>
16.3860

> <Gold.Chemscore.DG>
-16.4970

> <Gold.Chemscore.ZeroCoef>
-5.4800

> <Gold.Chemscore.Hbond>
3.2702

> <Gold.Chemscore.Metal>
0.0000

> <Gold.Chemscore.Lipo>
44.0383

> <Gold.Chemscore.Internal_Hbond>
0.0000

> <Gold.Chemscore.DEClash>
0.0086

> <Gold.Chemscore.DEInternal>
0.1025

> <Gold.Chemscore.Rot>
1.9757

> <Gold.Chemscore.Internal.Correction>
   9.000000E+99

> <Gold.Chemscore.Hbonds>
donor molecule, donor type, donor heavy atom, donor atom, acceptor molecule, acceptor atom, score
      L1  H    13    37       P1  8028  0.55
      P1  H  6896  6907       L1     6  0.16
      P1  H  7989  7998       L1     1  0.65
      P1  H 10752 10763       L1     8  0.41

> <Gold.Chemscore.Hbond.Weighted>
-10.9223

> <Gold.Chemscore.Metal.Weighted>
-0.0000

> <Gold.Chemscore.Lipo.Weighted>
-5.1525

> <Gold.Chemscore.Internal_Hbond.Weighted>
0.0000

> <Gold.Chemscore.DEClash.Weighted>
0.0086

> <Gold.Chemscore.DEInternal.Weighted>
0.1025

> <Gold.Chemscore.Rot.Weighted>
5.0578

> <Gold.Chemscore.Internal.Correction.Weighted>
   9.000000E+99

> <Gold.Protein.RotatedTorsions>
[ 6907 6896 6895 6894 ] final  -54.50 input  -60.11 | X-H torsion
[ 7974 7965 7964 7962 ] final  -31.68 input  175.53 | X-H torsion
[ 8008 7997 7996 7995 ] final   16.69 input   59.86 | X-H torsion
[ 10167 10162 10161 10158 ] final   35.43 input  -65.29 | X-H torsion
[ 10718 10713 10712 10709 ] final   -9.25 input   66.30 | X-H torsion
[ 10763 10752 10751 10750 ] final  111.91 input  -60.55 | X-H torsion
[ 11005 11000 10999 10996 ] final -150.95 input  -57.11 | X-H torsion

> <Gold.Protein.ActiveResidues>
 VAL166  LYS551  ARG553  GLY616  TRP617  ASP618  TYR619  PRO620  LYS621  CYS622 
 ASP623  PHE694  ASN695  SER759  ASP760  ASP761  ALA762  ILE779  LEU786  VAL792 
 PHE793  MET794  SER795  GLU796  ALA797  LYS798  CYS799  TRP800  GLU811  SER814 

> <Gold.Protein.RotatedAtoms>
  150.8332  134.7594  159.6870 H   0  0  0  0  0  0  0  0  0  0  0  0  # atno 6907 bound_to 6896
  152.4433  134.5543  159.9885 H   0  0  0  0  0  0  0  0  0  0  0  0  # atno 6908 bound_to 6896
  151.5699  133.3354  159.3023 H   0  0  0  0  0  0  0  0  0  0  0  0  # atno 6909 bound_to 6896
  146.1049  140.5697  142.8804 H   0  0  0  0  0  0  0  0  0  0  0  0  # atno 7974 bound_to 7965
  154.8806  140.2972  155.5428 H   0  0  0  0  0  0  0  0  0  0  0  0  # atno 8008 bound_to 7997
  156.3022  140.2443  156.3741 H   0  0  0  0  0  0  0  0  0  0  0  0  # atno 8009 bound_to 7997
  154.8721  140.0401  157.1720 H   0  0  0  0  0  0  0  0  0  0  0  0  # atno 8010 bound_to 7997
  140.4223  144.1443  150.6149 H   0  0  0  0  0  0  0  0  0  0  0  0  # atno 10167 bound_to 10162
  156.6908  130.5064  149.5944 H   0  0  0  0  0  0  0  0  0  0  0  0  # atno 10718 bound_to 10713
  153.4701  135.3702  155.2386 H   0  0  0  0  0  0  0  0  0  0  0  0  # atno 10763 bound_to 10752
  154.8757  135.3929  154.3822 H   0  0  0  0  0  0  0  0  0  0  0  0  # atno 10764 bound_to 10752
  153.4409  135.7084  153.6234 H   0  0  0  0  0  0  0  0  0  0  0  0  # atno 10765 bound_to 10752
  140.7348  134.3581  157.5159 H   0  0  0  0  0  0  0  0  0  0  0  0  # atno 11005 bound_to 11000
  144.7463  140.5075  143.6834 LP  0  0  0  0  0  0  0  0  0  0  0  0  # atno 17320 bound_to 7965
  145.5781  139.1487  143.3251 LP  0  0  0  0  0  0  0  0  0  0  0  0  # atno 17321 bound_to 7965
  140.4520  143.2483  151.9335 LP  0  0  0  0  0  0  0  0  0  0  0  0  # atno 17342 bound_to 10162
  139.4783  144.5552  151.8324 LP  0  0  0  0  0  0  0  0  0  0  0  0  # atno 17343 bound_to 10162
  156.1799  130.6492  151.0939 LP  0  0  0  0  0  0  0  0  0  0  0  0  # atno 17370 bound_to 10713
  157.7009  131.0776  150.6822 LP  0  0  0  0  0  0  0  0  0  0  0  0  # atno 17371 bound_to 10713
  139.8818  134.9042  156.2872 LP  0  0  0  0  0  0  0  0  0  0  0  0  # atno 17394 bound_to 11000
  140.9889  133.7221  156.0784 LP  0  0  0  0  0  0  0  0  0  0  0  0  # atno 17395 bound_to 11000

$$$$
