AV-unprocessed.smi:1735|AV-procd|sdf|6989|dock2
  -GOLD-   22720 8203D 1   1.00000     0.00000
 Structure written by MMmdl.
 32 33  0  0  0  0  0  0  0  0  1 V2000
  150.8516  140.7211  156.3614 O   0  0  0  0  0  0  0  0  0  0  0  0
  150.0834  141.6748  156.2337 C   0  0  0  0  0  0  0  0  0  0  0  0
  148.9742  141.6769  155.4763 N   0  0  0  0  0  0  0  0  0  0  0  0
  148.4596  140.6072  154.7008 C   0  0  0  0  0  0  0  0  0  0  0  0
  147.2462  140.6535  153.9621 C   0  0  0  0  0  0  0  0  0  0  0  0
  147.0172  139.5080  153.3360 N   0  0  0  0  0  0  0  0  0  0  0  0
  148.0730  138.7312  153.6678 N   0  0  0  0  0  0  0  0  0  0  0  0
  148.9766  139.3587  154.4967 C   0  0  0  0  0  0  0  0  0  0  0  0
  150.2554  142.8542  156.8476 N   0  0  0  0  0  0  0  0  0  0  0  0
  151.3523  143.1822  157.7535 C   0  0  2  0  0  0  0  0  0  0  0  0
  151.2905  142.3032  159.0193 C   0  0  0  0  0  0  0  0  0  0  0  0
  152.3923  142.6799  160.0251 C   0  0  0  0  0  0  0  0  0  0  0  0
  152.3692  144.1776  160.3842 C   0  0  2  0  0  0  0  0  0  0  0  0
  151.2263  144.4719  161.1632 O   0  0  0  0  0  0  0  0  0  0  0  0
  152.3895  145.0618  159.1232 C   0  0  0  0  0  0  0  0  0  0  0  0
  151.2861  144.6754  158.1225 C   0  0  0  0  0  0  0  0  0  0  0  0
  148.1618  137.7851  153.3251 H   0  0  0  0  0  0  0  0  0  0  0  0
  148.4353  142.5304  155.4601 H   0  0  0  0  0  0  0  0  0  0  0  0
  146.5385  141.4633  153.8623 H   0  0  0  0  0  0  0  0  0  0  0  0
  149.8725  138.8704  154.8509 H   0  0  0  0  0  0  0  0  0  0  0  0
  149.5721  143.5791  156.6834 H   0  0  0  0  0  0  0  0  0  0  0  0
  152.3008  143.0013  157.2438 H   0  0  0  0  0  0  0  0  0  0  0  0
  150.3135  142.4075  159.4935 H   0  0  0  0  0  0  0  0  0  0  0  0
  151.3899  141.2507  158.7520 H   0  0  0  0  0  0  0  0  0  0  0  0
  152.3011  142.0725  160.9264 H   0  0  0  0  0  0  0  0  0  0  0  0
  153.3626  142.4344  159.5915 H   0  0  0  0  0  0  0  0  0  0  0  0
  153.2402  144.4112  160.9973 H   0  0  0  0  0  0  0  0  0  0  0  0
  150.4567  144.3257  160.6347 H   0  0  0  0  0  0  0  0  0  0  0  0
  152.2962  146.1134  159.3970 H   0  0  0  0  0  0  0  0  0  0  0  0
  153.3594  144.9605  158.6344 H   0  0  0  0  0  0  0  0  0  0  0  0
  151.3801  145.2857  157.2236 H   0  0  0  0  0  0  0  0  0  0  0  0
  150.3102  144.9084  158.5507 H   0  0  0  0  0  0  0  0  0  0  0  0
  1  2  2  0  0  0  0
  2  3  1  0  0  0  0
  2  9  1  0  0  0  0
  3  4  1  0  0  0  0
  3 18  1  0  0  0  0
  4  8  2  0  0  0  0
  4  5  1  0  0  0  0
  5  6  2  0  0  0  0
  5 19  1  0  0  0  0
  6  7  1  0  0  0  0
  7 17  1  0  0  0  0
  7  8  1  0  0  0  0
  8 20  1  0  0  0  0
  9 10  1  0  0  0  0
  9 21  1  0  0  0  0
 10 16  1  0  0  0  0
 10 11  1  0  0  0  0
 10 22  1  0  0  0  0
 11 12  1  0  0  0  0
 11 23  1  0  0  0  0
 11 24  1  0  0  0  0
 12 13  1  0  0  0  0
 12 25  1  0  0  0  0
 12 26  1  0  0  0  0
 13 14  1  0  0  0  0
 13 15  1  0  0  0  0
 13 27  1  0  0  0  0
 14 28  1  0  0  0  0
 15 16  1  0  0  0  0
 15 29  1  0  0  0  0
 15 30  1  0  0  0  0
 16 31  1  0  0  0  0
 16 32  1  0  0  0  0
M  END
> <s_m_source_file>
AV-unprocessed.smi

> <i_m_source_file_index>
1735

> <i_lp_mmshare_version>
43012

> <i_f3d_flags>
0

> <s_epik_input>
W2NIXTFbbkhdbltjSF1jMVtOSF1DKD1PKVtOSF1bQ0BASF0yW0NIMl1bQ0gyXVtDQEBIXShbT0hdKVtDSDJdW0NIMl0y

> <s_epik_cmdline>
J2VwaWtfcHl0aG9uJywgJy1waCcsICc3LjAnLCAnLXRuJywgJzgnLCAnLW1hJywgJzIwMCcsICctbWV0YWxfYmluZGluZycsICctaW1hZScsICc8aW5maWxlLm1hZT4nLCAnLW9tYWUnLCAnPG91dGZpbGUubWFlPic=

> <r_lp_tautomer_probability>
1

> <r_epik_Ionization_Penalty>
5.59555e-05

> <r_epik_Ionization_Penalty_Charging>
0

> <r_epik_Ionization_Penalty_Neutral>
5.59555e-05

> <r_epik_State_Penalty>
-0

> <r_epik_Charging_Adjusted_Penalty>
0

> <i_epik_Tot_Q>
0

> <i_epik_Tot_abs_Q>
0

> <r_epik_Metal_State_Penalty>
-0

> <b_epik_Metal_Only>
0

> <s_lp_Force_Field>
OPLS_2005

> <r_lp_Energy>
12.246

> <b_lp_Chiralities_Consistent>
1

> <s_lp_Variant>
AV-unprocessed.smi:1735-2

> <Gold.Version>
5.8.1

> <Gold.Id.Protein>
6NUR|6NUR_protein|mol2

> <Gold.PLP.Fitness>
43.7182

> <Gold.PLP.PLP>
-35.9567

> <Gold.PLP.part.hbond>
-4.8432

> <Gold.PLP.part.metal>
0.0000

> <Gold.PLP.part.buried>
-6.1509

> <Gold.PLP.part.nonpolar>
-26.8672

> <Gold.PLP.part.repulsive>
2.4856

> <Gold.PLP.ligand.clash>
0.0000

> <Gold.PLP.ligand.torsion>
0.0299

> <Gold.PLP.Chemscore.Hbond>
2.6062

> <Gold.PLP.Chemscore.CHOScore>
0.0000

> <Gold.PLP.Chemscore.Metal>
0.0000

> <Gold.Chemscore.Hbonds>
donor molecule, donor type, donor heavy atom, donor atom, acceptor molecule, acceptor atom, score
      L1  H     3    18       P1  8028  0.37
      L1  H     7    17       P1  7948  0.41
      L1  H     9    21       P1  8028  1.00

> <Gold.PLP.Chemscore.Internal.Correction>
0.0030

> <Gold.Rescore>
     Score         DG    S(hbond)    S(metal)    S(lipo)     H(rot)  DE(clash)    DE(int)     intcor
     17.86     -19.85       2.26        0.00      91.46       1.51       0.66       1.33       ----

> <Gold.Chemscore.Fitness>
17.8647

> <Gold.Chemscore.DG>
-19.8536

> <Gold.Chemscore.ZeroCoef>
-5.4800

> <Gold.Chemscore.Hbond>
2.2597

> <Gold.Chemscore.Metal>
0.0000

> <Gold.Chemscore.Lipo>
91.4606

> <Gold.Chemscore.Internal_Hbond>
0.0000

> <Gold.Chemscore.DEClash>
0.6566

> <Gold.Chemscore.DEInternal>
1.3323

> <Gold.Chemscore.Rot>
1.5135

> <Gold.Chemscore.Internal.Correction>
   9.000000E+99

> <Gold.Chemscore.Hbonds>
donor molecule, donor type, donor heavy atom, donor atom, acceptor molecule, acceptor atom, score
      L1  H     3    18       P1  8028  0.37
      L1  H     7    17       P1  7948  0.40
      L1  H     9    21       P1  8028  0.94

> <Gold.Chemscore.Hbond.Weighted>
-7.5473

> <Gold.Chemscore.Metal.Weighted>
-0.0000

> <Gold.Chemscore.Lipo.Weighted>
-10.7009

> <Gold.Chemscore.Internal_Hbond.Weighted>
0.0000

> <Gold.Chemscore.DEClash.Weighted>
0.6566

> <Gold.Chemscore.DEInternal.Weighted>
1.3323

> <Gold.Chemscore.Rot.Weighted>
3.8745

> <Gold.Chemscore.Internal.Correction.Weighted>
   9.000000E+99

> <Gold.Protein.RotatedTorsions>
[ 6907 6896 6895 6894 ] final  -70.45 input  -60.11 | X-H torsion
[ 7974 7965 7964 7962 ] final  -78.61 input  175.53 | X-H torsion
[ 8008 7997 7996 7995 ] final   50.46 input   59.86 | X-H torsion
[ 10167 10162 10161 10158 ] final  139.97 input  -65.29 | X-H torsion
[ 10718 10713 10712 10709 ] final  -16.31 input   66.30 | X-H torsion
[ 10763 10752 10751 10750 ] final  -15.37 input  -60.55 | X-H torsion
[ 11005 11000 10999 10996 ] final   45.08 input  -57.11 | X-H torsion

> <Gold.Protein.ActiveResidues>
 VAL166  LYS551  ARG553  GLY616  TRP617  ASP618  TYR619  PRO620  LYS621  CYS622 
 ASP623  PHE694  ASN695  SER759  ASP760  ASP761  ALA762  ILE779  LEU786  VAL792 
 PHE793  MET794  SER795  GLU796  ALA797  LYS798  CYS799  TRP800  GLU811  SER814 

> <Gold.Protein.RotatedAtoms>
  150.7257  134.5451  159.5766 H   0  0  0  0  0  0  0  0  0  0  0  0  # atno 6907 bound_to 6896
  152.2952  134.7672  160.0378 H   0  0  0  0  0  0  0  0  0  0  0  0  # atno 6908 bound_to 6896
  151.8272  133.3367  159.3639 H   0  0  0  0  0  0  0  0  0  0  0  0  # atno 6909 bound_to 6896
  145.5841  140.9442  143.1328 H   0  0  0  0  0  0  0  0  0  0  0  0  # atno 7974 bound_to 7965
  155.4191  140.3445  155.4270 H   0  0  0  0  0  0  0  0  0  0  0  0  # atno 8008 bound_to 7997
  156.1403  140.1540  156.8961 H   0  0  0  0  0  0  0  0  0  0  0  0  # atno 8009 bound_to 7997
  154.4966  140.0826  156.7689 H   0  0  0  0  0  0  0  0  0  0  0  0  # atno 8010 bound_to 7997
  139.5063  144.6263  151.5929 H   0  0  0  0  0  0  0  0  0  0  0  0  # atno 10167 bound_to 10162
  156.5894  130.4795  149.6286 H   0  0  0  0  0  0  0  0  0  0  0  0  # atno 10718 bound_to 10713
  153.5423  135.7013  153.5631 H   0  0  0  0  0  0  0  0  0  0  0  0  # atno 10763 bound_to 10752
  153.3591  135.3974  155.1704 H   0  0  0  0  0  0  0  0  0  0  0  0  # atno 10764 bound_to 10752
  154.8672  135.3784  154.4928 H   0  0  0  0  0  0  0  0  0  0  0  0  # atno 10765 bound_to 10752
  140.1492  134.4483  155.8393 H   0  0  0  0  0  0  0  0  0  0  0  0  # atno 11005 bound_to 11000
  144.7380  139.7529  143.7321 LP  0  0  0  0  0  0  0  0  0  0  0  0  # atno 17320 bound_to 7965
  146.1694  139.4839  142.9937 LP  0  0  0  0  0  0  0  0  0  0  0  0  # atno 17321 bound_to 7965
  140.5981  143.9660  150.6367 LP  0  0  0  0  0  0  0  0  0  0  0  0  # atno 17342 bound_to 10162
  140.2862  143.3355  152.1105 LP  0  0  0  0  0  0  0  0  0  0  0  0  # atno 17343 bound_to 10162
  156.2562  130.6936  151.1690 LP  0  0  0  0  0  0  0  0  0  0  0  0  # atno 17370 bound_to 10713
  157.7307  131.0614  150.5713 LP  0  0  0  0  0  0  0  0  0  0  0  0  # atno 17371 bound_to 10713
  141.2197  133.6865  156.7391 LP  0  0  0  0  0  0  0  0  0  0  0  0  # atno 17394 bound_to 11000
  140.2625  134.8455  157.3772 LP  0  0  0  0  0  0  0  0  0  0  0  0  # atno 17395 bound_to 11000

$$$$
