AV-unprocessed.smi:1667|AV-procd|sdf|6676|dock9
  -GOLD-   22720 7393D 1   1.00000     0.00000
 Structure written by MMmdl.
 45 47  0  0  0  0  0  0  0  0  1 V2000
  152.8065  144.4921  158.9873 C   0  0  0  0  0  0  0  0  0  0  0  0
  152.4809  143.0107  159.1417 C   0  0  0  0  0  0  0  0  0  0  0  0
  152.9479  142.3757  160.0858 O   0  0  0  0  0  0  0  0  0  0  0  0
  151.6780  142.4858  158.2008 N   0  0  0  0  0  0  0  0  0  0  0  0
  151.2089  141.1028  158.0827 C   0  0  2  0  0  0  0  0  0  0  0  0
  152.3498  140.0694  158.0101 C   0  0  0  0  0  0  0  0  0  0  0  0
  150.2033  140.9973  156.9603 C   0  0  0  0  0  0  0  0  0  0  0  0
  150.3825  140.1684  155.9292 N   0  0  0  0  0  0  0  0  0  0  0  0
  149.2982  140.4363  155.1212 C   0  0  0  0  0  0  0  0  0  0  0  0
  148.9223  139.8794  153.8780 C   0  0  0  0  0  0  0  0  0  0  0  0
  147.7587  140.3259  153.2189 C   0  0  0  0  0  0  0  0  0  0  0  0
  146.9579  141.3347  153.7918 C   0  0  0  0  0  0  0  0  0  0  0  0
  147.3162  141.9027  155.0295 C   0  0  0  0  0  0  0  0  0  0  0  0
  148.4766  141.4502  155.6871 C   0  0  0  0  0  0  0  0  0  0  0  0
  149.0987  141.7896  156.8867 N   0  0  0  0  0  0  0  0  0  0  0  0
  148.6421  142.8129  157.8252 C   0  0  0  0  0  0  0  0  0  0  0  0
  147.1557  142.6822  158.2347 C   0  0  1  0  0  0  0  0  0  0  0  0
  146.8101  141.3231  158.4142 O   0  0  0  0  0  0  0  0  0  0  0  0
  146.7883  143.5462  159.4342 C   0  0  0  0  0  0  0  0  0  0  0  0
  147.6811  144.5246  159.9276 C   0  0  0  0  0  0  0  0  0  0  0  0
  147.3195  145.3263  161.0275 C   0  0  0  0  0  0  0  0  0  0  0  0
  146.0624  145.1588  161.6388 C   0  0  0  0  0  0  0  0  0  0  0  0
  145.1682  144.1866  161.1515 C   0  0  0  0  0  0  0  0  0  0  0  0
  143.9575  144.0271  161.7360 F   0  0  0  0  0  0  0  0  0  0  0  0
  145.5311  143.3814  160.0544 C   0  0  0  0  0  0  0  0  0  0  0  0
  150.6996  140.8948  159.0199 H   0  0  0  0  0  0  0  0  0  0  0  0
  151.9013  145.0920  159.0854 H   0  0  0  0  0  0  0  0  0  0  0  0
  153.2469  144.6863  158.0088 H   0  0  0  0  0  0  0  0  0  0  0  0
  153.5155  144.8152  159.7502 H   0  0  0  0  0  0  0  0  0  0  0  0
  151.3613  143.1143  157.4771 H   0  0  0  0  0  0  0  0  0  0  0  0
  151.9539  139.0542  158.0303 H   0  0  0  0  0  0  0  0  0  0  0  0
  153.0262  140.1744  158.8586 H   0  0  0  0  0  0  0  0  0  0  0  0
  152.9417  140.1688  157.1004 H   0  0  0  0  0  0  0  0  0  0  0  0
  149.5327  139.1095  153.4294 H   0  0  0  0  0  0  0  0  0  0  0  0
  147.4811  139.8941  152.2686 H   0  0  0  0  0  0  0  0  0  0  0  0
  146.0685  141.6728  153.2805 H   0  0  0  0  0  0  0  0  0  0  0  0
  146.7038  142.6756  155.4690 H   0  0  0  0  0  0  0  0  0  0  0  0
  149.2833  142.8131  158.7062 H   0  0  0  0  0  0  0  0  0  0  0  0
  148.8022  143.7856  157.3582 H   0  0  0  0  0  0  0  0  0  0  0  0
  146.5526  143.0270  157.3938 H   0  0  0  0  0  0  0  0  0  0  0  0
  146.1335  141.1015  157.7927 H   0  0  0  0  0  0  0  0  0  0  0  0
  148.6428  144.6730  159.4588 H   0  0  0  0  0  0  0  0  0  0  0  0
  148.0044  146.0747  161.3981 H   0  0  0  0  0  0  0  0  0  0  0  0
  145.7839  145.7766  162.4796 H   0  0  0  0  0  0  0  0  0  0  0  0
  144.8365  142.6415  159.6844 H   0  0  0  0  0  0  0  0  0  0  0  0
  1  2  1  0  0  0  0
  1 27  1  0  0  0  0
  1 28  1  0  0  0  0
  1 29  1  0  0  0  0
  2  3  2  0  0  0  0
  2  4  1  0  0  0  0
  4  5  1  0  0  0  0
  4 30  1  0  0  0  0
  5 26  1  0  0  0  0
  5  6  1  0  0  0  0
  5  7  1  0  0  0  0
  6 31  1  0  0  0  0
  6 32  1  0  0  0  0
  6 33  1  0  0  0  0
  7 15  1  0  0  0  0
  7  8  2  0  0  0  0
  8  9  1  0  0  0  0
  9 14  2  0  0  0  0
  9 10  1  0  0  0  0
 10 11  2  0  0  0  0
 10 34  1  0  0  0  0
 11 12  1  0  0  0  0
 11 35  1  0  0  0  0
 12 13  2  0  0  0  0
 12 36  1  0  0  0  0
 13 14  1  0  0  0  0
 13 37  1  0  0  0  0
 14 15  1  0  0  0  0
 15 16  1  0  0  0  0
 16 17  1  0  0  0  0
 16 38  1  0  0  0  0
 16 39  1  0  0  0  0
 17 18  1  0  0  0  0
 17 19  1  0  0  0  0
 17 40  1  0  0  0  0
 18 41  1  0  0  0  0
 19 25  1  0  0  0  0
 19 20  2  0  0  0  0
 20 21  1  0  0  0  0
 20 42  1  0  0  0  0
 21 22  2  0  0  0  0
 21 43  1  0  0  0  0
 22 23  1  0  0  0  0
 22 44  1  0  0  0  0
 23 24  1  0  0  0  0
 23 25  2  0  0  0  0
 25 45  1  0  0  0  0
M  END
> <s_m_source_file>
AV-unprocessed.smi

> <i_m_source_file_index>
1667

> <i_lp_mmshare_version>
43012

> <i_f3d_flags>
0

> <s_epik_input>
W0NIM11DKD1PKVtOSF1bQ0BASF0oW0NIM10pYyhuMSluKGMoYzEyKVtjSF1bY0hdW2NIXVtjSF0yKVtDSDJdW0NASF0oW09IXSljM1tjSF1bY0hdW2NIXWMoRilbY0hdMw==

> <s_epik_cmdline>
J2VwaWtfcHl0aG9uJywgJy1waCcsICc3LjAnLCAnLXRuJywgJzgnLCAnLW1hJywgJzIwMCcsICctbWV0YWxfYmluZGluZycsICctaW1hZScsICc8aW5maWxlLm1hZT4nLCAnLW9tYWUnLCAnPG91dGZpbGUubWFlPic=

> <r_epik_Ionization_Penalty>
0.133011

> <r_epik_Ionization_Penalty_Charging>
0

> <r_epik_Ionization_Penalty_Neutral>
0.133011

> <r_epik_State_Penalty>
0.122384

> <r_epik_Charging_Adjusted_Penalty>
0.122384

> <i_epik_Tot_Q>
0

> <i_epik_Tot_abs_Q>
0

> <r_epik_Metal_State_Penalty>
0.0997374

> <b_epik_Metal_Only>
0

> <s_lp_Force_Field>
OPLS_2005

> <r_lp_Energy>
8.29393

> <b_lp_Chiralities_Consistent>
1

> <s_lp_Variant>
AV-unprocessed.smi:1667-4

> <Gold.Version>
5.8.1

> <Gold.Id.Protein>
6NUR|6NUR_protein|mol2

> <Gold.PLP.Fitness>
41.4379

> <Gold.PLP.PLP>
-42.1089

> <Gold.PLP.part.hbond>
-1.0000

> <Gold.PLP.part.metal>
0.0000

> <Gold.PLP.part.buried>
0.5345

> <Gold.PLP.part.nonpolar>
-41.6668

> <Gold.PLP.part.repulsive>
0.0715

> <Gold.PLP.ligand.clash>
0.0000

> <Gold.PLP.ligand.torsion>
0.6072

> <Gold.PLP.Chemscore.Hbond>
0.1114

> <Gold.PLP.Chemscore.CHOScore>
0.0000

> <Gold.PLP.Chemscore.Metal>
0.0000

> <Gold.Chemscore.Hbonds>
donor molecule, donor type, donor heavy atom, donor atom, acceptor molecule, acceptor atom, score
      P1  H  6934  6946       L1    18  0.11

> <Gold.PLP.Chemscore.Internal.Correction>
0.2093

> <Gold.Rescore>
     Score         DG    S(hbond)    S(metal)    S(lipo)     H(rot)  DE(clash)    DE(int)     intcor
      8.06     -10.62       0.06        0.00      96.57       2.48       1.80       0.77       ----

> <Gold.Chemscore.Fitness>
8.0550

> <Gold.Chemscore.DG>
-10.6243

> <Gold.Chemscore.ZeroCoef>
-5.4800

> <Gold.Chemscore.Hbond>
0.0551

> <Gold.Chemscore.Metal>
0.0000

> <Gold.Chemscore.Lipo>
96.5700

> <Gold.Chemscore.Internal_Hbond>
0.0000

> <Gold.Chemscore.DEClash>
1.8003

> <Gold.Chemscore.DEInternal>
0.7690

> <Gold.Chemscore.Rot>
2.4760

> <Gold.Chemscore.Internal.Correction>
   9.000000E+99

> <Gold.Chemscore.Hbonds>
donor molecule, donor type, donor heavy atom, donor atom, acceptor molecule, acceptor atom, score
      P1  H  6934  6946       L1    18  0.09

> <Gold.Chemscore.Hbond.Weighted>
-0.1841

> <Gold.Chemscore.Metal.Weighted>
-0.0000

> <Gold.Chemscore.Lipo.Weighted>
-11.2987

> <Gold.Chemscore.Internal_Hbond.Weighted>
0.0000

> <Gold.Chemscore.DEClash.Weighted>
1.8003

> <Gold.Chemscore.DEInternal.Weighted>
0.7690

> <Gold.Chemscore.Rot.Weighted>
6.3385

> <Gold.Chemscore.Internal.Correction.Weighted>
   9.000000E+99

> <Gold.Protein.RotatedTorsions>
[ 6907 6896 6895 6894 ] final  -54.82 input  -60.11 | X-H torsion
[ 7974 7965 7964 7962 ] final   24.87 input  175.53 | X-H torsion
[ 8008 7997 7996 7995 ] final  157.41 input   59.86 | X-H torsion
[ 10167 10162 10161 10158 ] final  168.94 input  -65.29 | X-H torsion
[ 10718 10713 10712 10709 ] final  175.82 input   66.30 | X-H torsion
[ 10763 10752 10751 10750 ] final  -40.93 input  -60.55 | X-H torsion
[ 11005 11000 10999 10996 ] final -169.12 input  -57.11 | X-H torsion

> <Gold.Protein.ActiveResidues>
 VAL166  LYS551  ARG553  GLY616  TRP617  ASP618  TYR619  PRO620  LYS621  CYS622 
 ASP623  PHE694  ASN695  SER759  ASP760  ASP761  ALA762  ILE779  LEU786  VAL792 
 PHE793  MET794  SER795  GLU796  ALA797  LYS798  CYS799  TRP800  GLU811  SER814 

> <Gold.Protein.RotatedAtoms>
  150.8305  134.7556  159.6849 H   0  0  0  0  0  0  0  0  0  0  0  0  # atno 6907 bound_to 6896
  152.4410  134.5587  159.9898 H   0  0  0  0  0  0  0  0  0  0  0  0  # atno 6908 bound_to 6896
  151.5750  133.3347  159.3033 H   0  0  0  0  0  0  0  0  0  0  0  0  # atno 6909 bound_to 6896
  146.1916  139.7544  142.8827 H   0  0  0  0  0  0  0  0  0  0  0  0  # atno 7974 bound_to 7965
  156.2365  140.1886  156.7104 H   0  0  0  0  0  0  0  0  0  0  0  0  # atno 8008 bound_to 7997
  154.6117  140.0621  156.9529 H   0  0  0  0  0  0  0  0  0  0  0  0  # atno 8009 bound_to 7997
  155.2005  140.3292  155.4346 H   0  0  0  0  0  0  0  0  0  0  0  0  # atno 8010 bound_to 7997
  139.4980  144.3760  151.9673 H   0  0  0  0  0  0  0  0  0  0  0  0  # atno 10167 bound_to 10162
  156.9293  130.9966  151.2990 H   0  0  0  0  0  0  0  0  0  0  0  0  # atno 10718 bound_to 10713
  153.9541  135.6747  153.4744 H   0  0  0  0  0  0  0  0  0  0  0  0  # atno 10763 bound_to 10752
  153.0870  135.4894  154.8613 H   0  0  0  0  0  0  0  0  0  0  0  0  # atno 10764 bound_to 10752
  154.7309  135.3138  154.8852 H   0  0  0  0  0  0  0  0  0  0  0  0  # atno 10765 bound_to 10752
  140.5344  134.5585  157.5083 H   0  0  0  0  0  0  0  0  0  0  0  0  # atno 11005 bound_to 11000
  145.3774  141.0353  143.3197 LP  0  0  0  0  0  0  0  0  0  0  0  0  # atno 17320 bound_to 7965
  144.8498  139.5339  143.6861 LP  0  0  0  0  0  0  0  0  0  0  0  0  # atno 17321 bound_to 7965
  140.3196  144.3443  150.6013 LP  0  0  0  0  0  0  0  0  0  0  0  0  # atno 17342 bound_to 10162
  140.5733  143.2179  151.7560 LP  0  0  0  0  0  0  0  0  0  0  0  0  # atno 17343 bound_to 10162
  157.5857  130.8408  149.8586 LP  0  0  0  0  0  0  0  0  0  0  0  0  # atno 17370 bound_to 10713
  156.0454  130.3729  150.1329 LP  0  0  0  0  0  0  0  0  0  0  0  0  # atno 17371 bound_to 10713
  139.9537  134.7572  156.0390 LP  0  0  0  0  0  0  0  0  0  0  0  0  # atno 17394 bound_to 11000
  141.1263  133.6598  156.3346 LP  0  0  0  0  0  0  0  0  0  0  0  0  # atno 17395 bound_to 11000

$$$$
