AV-unprocessed.smi:838|AV-procd|sdf|3909|dock5
  -GOLD-   22720 1373D 1   1.00000     0.00000
 Structure written by MMmdl.
 46 47  0  0  0  0  0  0  0  0  2 V2000
  152.0389  140.4002  158.0584 C   0  0  0  0  0  0  0  0  0  0  0  0
  151.9412  140.0033  156.5836 C   0  0  0  0  0  0  0  0  0  0  0  0
  152.8589  139.3402  156.1010 O   0  0  0  0  0  0  0  0  0  0  0  0
  150.8611  140.3888  155.8623 N   0  0  0  0  0  0  0  0  0  0  0  0
  149.6947  141.1031  156.3899 C   0  0  0  0  0  0  0  0  0  0  0  0
  148.4669  140.1763  156.3249 C   0  0  0  0  0  0  0  0  0  0  0  0
  148.2381  139.6678  154.9454 N   0  3  0  0  0  0  0  0  0  0  0  0
  147.0475  138.7853  154.8652 C   0  0  0  0  0  0  0  0  0  0  0  0
  146.4698  138.7027  153.4390 C   0  0  0  0  0  0  0  0  0  0  0  0
  146.7710  137.4200  152.8139 N   0  0  0  0  0  0  0  0  0  0  0  0
  145.8544  136.5071  152.4610 C   0  0  0  0  0  0  0  0  0  0  0  0
  144.6451  136.6664  152.6302 O   0  0  0  0  0  0  0  0  0  0  0  0
  146.4308  135.4265  151.9054 N   0  0  0  0  0  0  0  0  0  0  0  0
  145.8066  134.2484  151.4060 C   0  0  0  0  0  0  0  0  0  0  0  0
  144.6305  134.2745  150.7301 N   0  0  0  0  0  0  0  0  0  0  0  0
  144.0915  133.1200  150.2879 C   0  0  0  0  0  0  0  0  0  0  0  0
  144.6916  131.8655  150.4908 C   0  0  0  0  0  0  0  0  0  0  0  0
  145.9109  131.8205  151.1880 C   0  0  0  0  0  0  0  0  0  0  0  0
  146.4822  133.0235  151.6550 C   0  0  0  0  0  0  0  0  0  0  0  0
  147.8013  132.9760  152.4094 C   0  0  0  0  0  0  0  0  0  0  0  0
  149.4619  139.0651  154.3471 C   0  0  0  0  0  0  0  0  0  0  0  0
  150.6686  140.0153  154.4582 C   0  0  0  0  0  0  0  0  0  0  0  0
  151.2070  139.9845  158.6276 H   0  0  0  0  0  0  0  0  0  0  0  0
  152.0388  141.4849  158.1684 H   0  0  0  0  0  0  0  0  0  0  0  0
  152.9631  140.0225  158.4971 H   0  0  0  0  0  0  0  0  0  0  0  0
  149.8249  141.4653  157.4086 H   0  0  0  0  0  0  0  0  0  0  0  0
  149.5213  141.9937  155.7840 H   0  0  0  0  0  0  0  0  0  0  0  0
  148.6039  139.3320  157.0029 H   0  0  0  0  0  0  0  0  0  0  0  0
  147.5846  140.7187  156.6664 H   0  0  0  0  0  0  0  0  0  0  0  0
  147.3022  137.7952  155.2467 H   0  0  0  0  0  0  0  0  0  0  0  0
  146.2679  139.1754  155.5215 H   0  0  0  0  0  0  0  0  0  0  0  0
  145.3861  138.8182  153.4695 H   0  0  0  0  0  0  0  0  0  0  0  0
  146.8502  139.5047  152.8058 H   0  0  0  0  0  0  0  0  0  0  0  0
  147.7440  137.2104  152.6434 H   0  0  0  0  0  0  0  0  0  0  0  0
  147.4368  135.4455  151.8282 H   0  0  0  0  0  0  0  0  0  0  0  0
  143.1541  133.1997  149.7577 H   0  0  0  0  0  0  0  0  0  0  0  0
  144.2285  130.9625  150.1214 H   0  0  0  0  0  0  0  0  0  0  0  0
  146.3985  130.8725  151.3614 H   0  0  0  0  0  0  0  0  0  0  0  0
  148.1789  131.9559  152.4855 H   0  0  0  0  0  0  0  0  0  0  0  0
  147.6762  133.3634  153.4209 H   0  0  0  0  0  0  0  0  0  0  0  0
  148.5559  133.5744  151.8982 H   0  0  0  0  0  0  0  0  0  0  0  0
  149.6873  138.1248  154.8529 H   0  0  0  0  0  0  0  0  0  0  0  0
  149.2931  138.8266  153.2977 H   0  0  0  0  0  0  0  0  0  0  0  0
  150.4911  140.9171  153.8702 H   0  0  0  0  0  0  0  0  0  0  0  0
  151.5492  139.5445  154.0190 H   0  0  0  0  0  0  0  0  0  0  0  0
  148.0233  140.4833  154.3897 H   0  0  0  0  0  0  0  0  0  0  0  0
  1  2  1  0  0  0  0
  1 23  1  0  0  0  0
  1 24  1  0  0  0  0
  1 25  1  0  0  0  0
  2  3  2  0  0  0  0
  2  4  1  0  0  0  0
  4 22  1  0  0  0  0
  4  5  1  0  0  0  0
  5  6  1  0  0  0  0
  5 26  1  0  0  0  0
  5 27  1  0  0  0  0
  6  7  1  0  0  0  0
  6 28  1  0  0  0  0
  6 29  1  0  0  0  0
  7  8  1  0  0  0  0
  7 21  1  0  0  0  0
  7 46  1  0  0  0  0
  8  9  1  0  0  0  0
  8 30  1  0  0  0  0
  8 31  1  0  0  0  0
  9 10  1  0  0  0  0
  9 32  1  0  0  0  0
  9 33  1  0  0  0  0
 10 11  1  0  0  0  0
 10 34  1  0  0  0  0
 11 12  2  0  0  0  0
 11 13  1  0  0  0  0
 13 14  1  0  0  0  0
 13 35  1  0  0  0  0
 14 19  1  0  0  0  0
 14 15  2  0  0  0  0
 15 16  1  0  0  0  0
 16 17  2  0  0  0  0
 16 36  1  0  0  0  0
 17 18  1  0  0  0  0
 17 37  1  0  0  0  0
 18 19  2  0  0  0  0
 18 38  1  0  0  0  0
 19 20  1  0  0  0  0
 20 39  1  0  0  0  0
 20 40  1  0  0  0  0
 20 41  1  0  0  0  0
 21 22  1  0  0  0  0
 21 42  1  0  0  0  0
 21 43  1  0  0  0  0
 22 44  1  0  0  0  0
 22 45  1  0  0  0  0
M  CHG  1   7   1
M  END
> <s_m_source_file>
AV-unprocessed.smi

> <i_m_source_file_index>
838

> <i_lp_mmshare_version>
43012

> <i_f3d_flags>
0

> <s_epik_input>
W0NIM11DKD1PKU4xW0NIMl1bQ0gyXU4oW0NIMl1bQ0gyXTEpW0NIMl1bQ0gyXVtOSF1DKD1PKVtOSF1jMm5bY0hdW2NIXVtjSF1jMltDSDNd

> <s_epik_cmdline>
J2VwaWtfcHl0aG9uJywgJy1waCcsICc3LjAnLCAnLXRuJywgJzgnLCAnLW1hJywgJzIwMCcsICctbWV0YWxfYmluZGluZycsICctaW1hZScsICc8aW5maWxlLm1hZT4nLCAnLW9tYWUnLCAnPG91dGZpbGUubWFlPic=

> <r_epik_Ionization_Penalty>
0.630076

> <r_epik_Ionization_Penalty_Charging>
0.630034

> <r_epik_Ionization_Penalty_Neutral>
4.2229e-05

> <r_epik_State_Penalty>
0.646805

> <r_epik_Charging_Adjusted_Penalty>
1.27684

> <i_epik_Tot_Q>
1

> <i_epik_Tot_abs_Q>
1

> <r_epik_Metal_State_Penalty>
0.64681

> <b_epik_Metal_Only>
0

> <s_lp_Force_Field>
OPLS_2005

> <r_lp_Energy>
41.2384

> <b_lp_Chiralities_Consistent>
1

> <s_lp_Variant>
AV-unprocessed.smi:838-2

> <Gold.Version>
5.8.1

> <Gold.Id.Protein>
6NUR|6NUR_protein|mol2

> <Gold.PLP.Fitness>
44.1977

> <Gold.PLP.PLP>
-33.8068

> <Gold.PLP.part.hbond>
-3.0000

> <Gold.PLP.part.metal>
0.0000

> <Gold.PLP.part.buried>
-2.7562

> <Gold.PLP.part.nonpolar>
-29.3190

> <Gold.PLP.part.repulsive>
0.4786

> <Gold.PLP.ligand.clash>
0.0000

> <Gold.PLP.ligand.torsion>
0.7982

> <Gold.PLP.Chemscore.Hbond>
2.9760

> <Gold.PLP.Chemscore.CHOScore>
1.0000

> <Gold.PLP.Chemscore.Metal>
0.0000

> <Gold.Chemscore.Hbonds>
donor molecule, donor type, donor heavy atom, donor atom, acceptor molecule, acceptor atom, score
      L1  H    10    34       P1  7948  0.99
      L1  H    13    35       P1  7948  1.00
      P1  H  7997  8008       L1     3  1.00
      L1  C    16    36       P1 10186  1.00

> <Gold.PLP.Chemscore.Internal.Correction>
0.0593

> <Gold.Rescore>
     Score         DG    S(hbond)    S(metal)    S(lipo)     H(rot)  DE(clash)    DE(int)     intcor
     17.70     -19.45       2.89        0.00      71.53       1.58       0.89       0.86       ----

> <Gold.Chemscore.Fitness>
17.7025

> <Gold.Chemscore.DG>
-19.4489

> <Gold.Chemscore.ZeroCoef>
-5.4800

> <Gold.Chemscore.Hbond>
2.8866

> <Gold.Chemscore.Metal>
0.0000

> <Gold.Chemscore.Lipo>
71.5317

> <Gold.Chemscore.Internal_Hbond>
0.0000

> <Gold.Chemscore.DEClash>
0.8874

> <Gold.Chemscore.DEInternal>
0.8591

> <Gold.Chemscore.Rot>
1.5788

> <Gold.Chemscore.Internal.Correction>
   9.000000E+99

> <Gold.Chemscore.Hbonds>
donor molecule, donor type, donor heavy atom, donor atom, acceptor molecule, acceptor atom, score
      L1  H    10    34       P1  7948  0.93
      L1  H    13    35       P1  7948  0.97
      P1  H  7997  8008       L1     3  0.70

> <Gold.Chemscore.Hbond.Weighted>
-9.6414

> <Gold.Chemscore.Metal.Weighted>
-0.0000

> <Gold.Chemscore.Lipo.Weighted>
-8.3692

> <Gold.Chemscore.Internal_Hbond.Weighted>
0.0000

> <Gold.Chemscore.DEClash.Weighted>
0.8874

> <Gold.Chemscore.DEInternal.Weighted>
0.8591

> <Gold.Chemscore.Rot.Weighted>
4.0416

> <Gold.Chemscore.Internal.Correction.Weighted>
   9.000000E+99

> <Gold.Protein.RotatedTorsions>
[ 6907 6896 6895 6894 ] final -169.80 input  -60.11 | X-H torsion
[ 7974 7965 7964 7962 ] final  138.63 input  175.53 | X-H torsion
[ 8008 7997 7996 7995 ] final  -53.74 input   59.86 | X-H torsion
[ 10167 10162 10161 10158 ] final  -87.19 input  -65.29 | X-H torsion
[ 10718 10713 10712 10709 ] final   99.64 input   66.30 | X-H torsion
[ 10763 10752 10751 10750 ] final   -8.78 input  -60.55 | X-H torsion
[ 11005 11000 10999 10996 ] final -122.06 input  -57.11 | X-H torsion

> <Gold.Protein.ActiveResidues>
 VAL166  LYS551  ARG553  GLY616  TRP617  ASP618  TYR619  PRO620  LYS621  CYS622 
 ASP623  PHE694  ASN695  SER759  ASP760  ASP761  ALA762  ILE779  LEU786  VAL792 
 PHE793  MET794  SER795  GLU796  ALA797  LYS798  CYS799  TRP800  GLU811  SER814 

> <Gold.Protein.RotatedAtoms>
  151.4974  133.3511  159.2863 H   0  0  0  0  0  0  0  0  0  0  0  0  # atno 6907 bound_to 6896
  150.8795  134.8186  159.7225 H   0  0  0  0  0  0  0  0  0  0  0  0  # atno 6908 bound_to 6896
  152.4753  134.4870  159.9735 H   0  0  0  0  0  0  0  0  0  0  0  0  # atno 6909 bound_to 6896
  144.9354  139.4995  143.5597 H   0  0  0  0  0  0  0  0  0  0  0  0  # atno 7974 bound_to 7965
  154.4142  140.1193  156.5202 H   0  0  0  0  0  0  0  0  0  0  0  0  # atno 8008 bound_to 7997
  155.6710  140.3496  155.4799 H   0  0  0  0  0  0  0  0  0  0  0  0  # atno 8009 bound_to 7997
  155.9633  140.1127  157.0867 H   0  0  0  0  0  0  0  0  0  0  0  0  # atno 8010 bound_to 7997
  140.3868  143.2723  151.9314 H   0  0  0  0  0  0  0  0  0  0  0  0  # atno 10167 bound_to 10162
  157.6871  131.0675  150.4980 H   0  0  0  0  0  0  0  0  0  0  0  0  # atno 10718 bound_to 10713
  153.4453  135.7014  153.6143 H   0  0  0  0  0  0  0  0  0  0  0  0  # atno 10763 bound_to 10752
  153.4500  135.3760  155.2278 H   0  0  0  0  0  0  0  0  0  0  0  0  # atno 10764 bound_to 10752
  154.8728  135.3994  154.3858 H   0  0  0  0  0  0  0  0  0  0  0  0  # atno 10765 bound_to 10752
  141.0024  134.0384  157.3521 H   0  0  0  0  0  0  0  0  0  0  0  0  # atno 11005 bound_to 11000
  146.3264  139.8335  142.8904 LP  0  0  0  0  0  0  0  0  0  0  0  0  # atno 17320 bound_to 7965
  145.3075  141.0211  143.3573 LP  0  0  0  0  0  0  0  0  0  0  0  0  # atno 17321 bound_to 7965
  139.4791  144.5765  151.8002 LP  0  0  0  0  0  0  0  0  0  0  0  0  # atno 17342 bound_to 10162
  140.4880  144.1352  150.5945 LP  0  0  0  0  0  0  0  0  0  0  0  0  # atno 17343 bound_to 10162
  156.5303  130.4183  149.6205 LP  0  0  0  0  0  0  0  0  0  0  0  0  # atno 17370 bound_to 10713
  156.3075  130.7211  151.2096 LP  0  0  0  0  0  0  0  0  0  0  0  0  # atno 17371 bound_to 10713
  139.9045  135.0175  156.7424 LP  0  0  0  0  0  0  0  0  0  0  0  0  # atno 17394 bound_to 11000
  140.6868  133.9425  155.7942 LP  0  0  0  0  0  0  0  0  0  0  0  0  # atno 17395 bound_to 11000

$$$$
