AV-unprocessed.smi:219|AV-procd|sdf|1678|dock9
  -GOLD-   2262020113D 1   1.00000     0.00000
 Structure written by MMmdl.
 50 53  0  0  0  0  0  0  0  0  1 V2000
  147.9525  139.8975  153.2933 N   0  0  0  0  0  0  0  0  0  0  0  0
  147.8921  140.4610  154.5028 C   0  0  0  0  0  0  0  0  0  0  0  0
  146.9606  140.2509  155.2765 O   0  0  0  0  0  0  0  0  0  0  0  0
  149.0468  141.3931  154.8971 C   0  0  0  0  0  0  0  0  0  0  0  0
  149.5833  141.2174  156.3495 C   0  0  2  0  0  0  0  0  0  0  0  0
  149.6305  142.6016  157.0370 C   0  0  0  0  0  0  0  0  0  0  0  0
  150.1629  142.5164  158.4741 C   0  0  0  0  0  0  0  0  0  0  0  0
  151.5340  141.8325  158.4835 C   0  0  0  0  0  0  0  0  0  0  0  0
  151.4457  140.4595  157.8047 C   0  0  0  0  0  0  0  0  0  0  0  0
  150.9079  140.5712  156.4472 N   0  0  0  0  0  0  0  0  0  0  0  0
  151.0693  139.4244  155.7491 C   0  0  0  0  0  0  0  0  0  0  0  0
  151.8994  139.3926  154.6730 N   0  0  0  0  0  0  0  0  0  0  0  0
  152.0950  138.2448  154.0169 C   0  0  0  0  0  0  0  0  0  0  0  0
  151.5773  137.0402  154.2685 N   0  0  0  0  0  0  0  0  0  0  0  0
  150.7407  137.0744  155.3455 C   0  0  0  0  0  0  0  0  0  0  0  0
  150.4239  138.2186  156.1281 C   0  0  0  0  0  0  0  0  0  0  0  0
  149.5363  137.8771  157.1401 N   0  0  0  0  0  0  0  0  0  0  0  0
  149.3436  136.5978  156.9700 C   0  0  0  0  0  0  0  0  0  0  0  0
  150.0429  136.0308  155.9276 N   0  0  0  0  0  0  0  0  0  0  0  0
  150.0405  134.6309  155.5342 C   0  0  0  0  0  0  0  0  0  0  0  0
  148.7966  134.2332  154.7050 C   0  0  1  0  0  0  0  0  0  0  0  0
  148.1676  135.4058  154.2171 O   0  0  0  0  0  0  0  0  0  0  0  0
  149.1038  133.3230  153.5180 C   0  0  0  0  0  0  0  0  0  0  0  0
  147.8587  132.4524  153.4231 C   0  0  0  0  0  0  0  0  0  0  0  0
  147.5479  132.2151  154.7850 O   0  0  0  0  0  0  0  0  0  0  0  0
  147.7621  133.4215  155.5105 C   0  0  0  0  0  0  0  0  0  0  0  0
  147.2199  139.2682  152.9981 H   0  0  0  0  0  0  0  0  0  0  0  0
  148.7335  140.0920  152.6838 H   0  0  0  0  0  0  0  0  0  0  0  0
  149.8664  141.3151  154.1811 H   0  0  0  0  0  0  0  0  0  0  0  0
  148.6506  142.4023  154.7799 H   0  0  0  0  0  0  0  0  0  0  0  0
  148.8815  140.5998  156.9126 H   0  0  0  0  0  0  0  0  0  0  0  0
  150.2646  143.2753  156.4585 H   0  0  0  0  0  0  0  0  0  0  0  0
  148.6360  143.0492  157.0491 H   0  0  0  0  0  0  0  0  0  0  0  0
  150.2358  143.5135  158.9092 H   0  0  0  0  0  0  0  0  0  0  0  0
  149.4641  141.9533  159.0940 H   0  0  0  0  0  0  0  0  0  0  0  0
  152.2624  142.4551  157.9622 H   0  0  0  0  0  0  0  0  0  0  0  0
  151.8923  141.7222  159.5073 H   0  0  0  0  0  0  0  0  0  0  0  0
  152.4361  140.0021  157.7757 H   0  0  0  0  0  0  0  0  0  0  0  0
  150.8079  139.8020  158.3972 H   0  0  0  0  0  0  0  0  0  0  0  0
  152.7695  138.2975  153.1751 H   0  0  0  0  0  0  0  0  0  0  0  0
  148.6910  136.0264  157.6139 H   0  0  0  0  0  0  0  0  0  0  0  0
  150.9498  134.4384  154.9631 H   0  0  0  0  0  0  0  0  0  0  0  0
  150.1085  134.0178  156.4340 H   0  0  0  0  0  0  0  0  0  0  0  0
  148.3816  135.5026  153.3016 H   0  0  0  0  0  0  0  0  0  0  0  0
  149.3266  133.8595  152.5945 H   0  0  0  0  0  0  0  0  0  0  0  0
  149.9576  132.6831  153.7442 H   0  0  0  0  0  0  0  0  0  0  0  0
  147.0379  132.9878  152.9434 H   0  0  0  0  0  0  0  0  0  0  0  0
  148.0324  131.5229  152.8803 H   0  0  0  0  0  0  0  0  0  0  0  0
  148.1123  133.1780  156.5142 H   0  0  0  0  0  0  0  0  0  0  0  0
  146.8151  133.9538  155.6162 H   0  0  0  0  0  0  0  0  0  0  0  0
  1  2  1  0  0  0  0
  1 27  1  0  0  0  0
  1 28  1  0  0  0  0
  2  3  2  0  0  0  0
  2  4  1  0  0  0  0
  4  5  1  0  0  0  0
  4 29  1  0  0  0  0
  4 30  1  0  0  0  0
  5 10  1  0  0  0  0
  5  6  1  0  0  0  0
  5 31  1  0  0  0  0
  6  7  1  0  0  0  0
  6 32  1  0  0  0  0
  6 33  1  0  0  0  0
  7  8  1  0  0  0  0
  7 34  1  0  0  0  0
  7 35  1  0  0  0  0
  8  9  1  0  0  0  0
  8 36  1  0  0  0  0
  8 37  1  0  0  0  0
  9 10  1  0  0  0  0
  9 38  1  0  0  0  0
  9 39  1  0  0  0  0
 10 11  1  0  0  0  0
 11 16  1  0  0  0  0
 11 12  2  0  0  0  0
 12 13  1  0  0  0  0
 13 14  2  0  0  0  0
 13 40  1  0  0  0  0
 14 15  1  0  0  0  0
 15 19  1  0  0  0  0
 15 16  2  0  0  0  0
 16 17  1  0  0  0  0
 17 18  2  0  0  0  0
 18 19  1  0  0  0  0
 18 41  1  0  0  0  0
 19 20  1  0  0  0  0
 20 21  1  0  0  0  0
 20 42  1  0  0  0  0
 20 43  1  0  0  0  0
 21 26  1  0  0  0  0
 21 22  1  0  0  0  0
 21 23  1  0  0  0  0
 22 44  1  0  0  0  0
 23 24  1  0  0  0  0
 23 45  1  0  0  0  0
 23 46  1  0  0  0  0
 24 25  1  0  0  0  0
 24 47  1  0  0  0  0
 24 48  1  0  0  0  0
 25 26  1  0  0  0  0
 26 49  1  0  0  0  0
 26 50  1  0  0  0  0
M  END
> <s_m_source_file>
AV-unprocessed.smi

> <i_m_source_file_index>
219

> <i_lp_mmshare_version>
43012

> <i_f3d_flags>
0

> <s_epik_input>
W05IMl1DKD1PKVtDSDJdW0NAQEhdMVtDSDJdW0NIMl1bQ0gyXVtDSDJdTjFjKG5bY0hdbjIpYyhjMjMpbltjSF1uM1tDSDJdW0NAQF00KFtPSF0pW0NIMl1bQ0gyXU9bQ0gyXTQ=

> <s_epik_cmdline>
J2VwaWtfcHl0aG9uJywgJy1waCcsICc3LjAnLCAnLXRuJywgJzgnLCAnLW1hJywgJzIwMCcsICctbWV0YWxfYmluZGluZycsICctaW1hZScsICc8aW5maWxlLm1hZT4nLCAnLW9tYWUnLCAnPG91dGZpbGUubWFlPic=

> <r_lp_tautomer_probability>
1

> <r_epik_Ionization_Penalty>
0.00228532

> <r_epik_Ionization_Penalty_Charging>
0

> <r_epik_Ionization_Penalty_Neutral>
0.00228532

> <r_epik_State_Penalty>
0.00140978

> <r_epik_Charging_Adjusted_Penalty>
0.00140978

> <i_epik_Tot_Q>
0

> <i_epik_Tot_abs_Q>
0

> <r_epik_Metal_State_Penalty>
-0

> <b_epik_Metal_Only>
0

> <s_lp_Force_Field>
OPLS_2005

> <r_lp_Energy>
33.2766

> <b_lp_Chiralities_Consistent>
1

> <s_lp_Variant>
AV-unprocessed.smi:219-1

> <Gold.Version>
5.8.1

> <Gold.Id.Protein>
6NUR|6NUR_protein|mol2

> <Gold.PLP.Fitness>
39.9907

> <Gold.PLP.PLP>
-32.4286

> <Gold.PLP.part.hbond>
-3.8020

> <Gold.PLP.part.metal>
0.0000

> <Gold.PLP.part.buried>
-4.6197

> <Gold.PLP.part.nonpolar>
-25.9208

> <Gold.PLP.part.repulsive>
0.9574

> <Gold.PLP.ligand.clash>
0.0000

> <Gold.PLP.ligand.torsion>
2.2240

> <Gold.PLP.Chemscore.Hbond>
3.9200

> <Gold.PLP.Chemscore.CHOScore>
0.0000

> <Gold.PLP.Chemscore.Metal>
0.0000

> <Gold.Chemscore.Hbonds>
donor molecule, donor type, donor heavy atom, donor atom, acceptor molecule, acceptor atom, score
      L1  H     1    28       P1  7957  1.00
      L1  H    22    44       P1  7948  1.00
      P1  H  7989  7998       L1    12  0.98
      P1  H 10752 10765       L1    14  1.00

> <Gold.PLP.Chemscore.Internal.Correction>
0.2502

> <Gold.Rescore>
     Score         DG    S(hbond)    S(metal)    S(lipo)     H(rot)  DE(clash)    DE(int)     intcor
     11.81     -16.15       3.54        0.00      63.86       3.37       2.08       2.25       ----

> <Gold.Chemscore.Fitness>
11.8120

> <Gold.Chemscore.DG>
-16.1475

> <Gold.Chemscore.ZeroCoef>
-5.4800

> <Gold.Chemscore.Hbond>
3.5397

> <Gold.Chemscore.Metal>
0.0000

> <Gold.Chemscore.Lipo>
63.8576

> <Gold.Chemscore.Internal_Hbond>
0.0000

> <Gold.Chemscore.DEClash>
2.0834

> <Gold.Chemscore.DEInternal>
2.2521

> <Gold.Chemscore.Rot>
3.3697

> <Gold.Chemscore.Internal.Correction>
   9.000000E+99

> <Gold.Chemscore.Hbonds>
donor molecule, donor type, donor heavy atom, donor atom, acceptor molecule, acceptor atom, score
      L1  H     1    28       P1  7957  0.98
      L1  H    22    44       P1  7948  0.99
      P1  H  7989  7998       L1    12  0.68
      P1  H 10752 10765       L1    14  0.71

> <Gold.Chemscore.Hbond.Weighted>
-11.8225

> <Gold.Chemscore.Metal.Weighted>
-0.0000

> <Gold.Chemscore.Lipo.Weighted>
-7.4713

> <Gold.Chemscore.Internal_Hbond.Weighted>
0.0000

> <Gold.Chemscore.DEClash.Weighted>
2.0834

> <Gold.Chemscore.DEInternal.Weighted>
2.2521

> <Gold.Chemscore.Rot.Weighted>
8.6264

> <Gold.Chemscore.Internal.Correction.Weighted>
   9.000000E+99

> <Gold.Protein.RotatedTorsions>
[ 6907 6896 6895 6894 ] final  105.07 input  -60.11 | X-H torsion
[ 7974 7965 7964 7962 ] final  -78.05 input  175.53 | X-H torsion
[ 8008 7997 7996 7995 ] final -158.65 input   59.86 | X-H torsion
[ 10167 10162 10161 10158 ] final -174.21 input  -65.29 | X-H torsion
[ 10718 10713 10712 10709 ] final    3.02 input   66.30 | X-H torsion
[ 10763 10752 10751 10750 ] final  157.43 input  -60.55 | X-H torsion
[ 11005 11000 10999 10996 ] final   81.90 input  -57.11 | X-H torsion

> <Gold.Protein.ActiveResidues>
 VAL166  LYS551  ARG553  GLY616  TRP617  ASP618  TYR619  PRO620  LYS621  CYS622 
 ASP623  PHE694  ASN695  SER759  ASP760  ASP761  ALA762  ILE779  LEU786  VAL792 
 PHE793  MET794  SER795  GLU796  ALA797  LYS798  CYS799  TRP800  GLU811  SER814 

> <Gold.Protein.RotatedAtoms>
  152.5243  133.9583  159.7704 H   0  0  0  0  0  0  0  0  0  0  0  0  # atno 6907 bound_to 6896
  150.9879  133.6171  159.2719 H   0  0  0  0  0  0  0  0  0  0  0  0  # atno 6908 bound_to 6896
  151.3325  135.0851  159.9396 H   0  0  0  0  0  0  0  0  0  0  0  0  # atno 6909 bound_to 6896
  145.5915  140.9428  143.1289 H   0  0  0  0  0  0  0  0  0  0  0  0  # atno 7974 bound_to 7965
  155.7508  140.0826  157.2202 H   0  0  0  0  0  0  0  0  0  0  0  0  # atno 8008 bound_to 7997
  154.4012  140.1561  156.2778 H   0  0  0  0  0  0  0  0  0  0  0  0  # atno 8009 bound_to 7997
  155.8932  140.3414  155.5974 H   0  0  0  0  0  0  0  0  0  0  0  0  # atno 8010 bound_to 7997
  139.5646  144.1787  152.1292 H   0  0  0  0  0  0  0  0  0  0  0  0  # atno 10167 bound_to 10162
  156.8716  130.5622  149.5657 H   0  0  0  0  0  0  0  0  0  0  0  0  # atno 10718 bound_to 10713
  154.2001  135.2790  155.2993 H   0  0  0  0  0  0  0  0  0  0  0  0  # atno 10763 bound_to 10752
  154.5861  135.5574  153.7236 H   0  0  0  0  0  0  0  0  0  0  0  0  # atno 10764 bound_to 10752
  153.0090  135.6356  154.2139 H   0  0  0  0  0  0  0  0  0  0  0  0  # atno 10765 bound_to 10752
  139.9082  134.8031  156.2103 H   0  0  0  0  0  0  0  0  0  0  0  0  # atno 11005 bound_to 11000
  144.7349  139.7615  143.7333 LP  0  0  0  0  0  0  0  0  0  0  0  0  # atno 17320 bound_to 7965
  146.1643  139.4769  142.9968 LP  0  0  0  0  0  0  0  0  0  0  0  0  # atno 17321 bound_to 7965
  140.1307  144.5291  150.6804 LP  0  0  0  0  0  0  0  0  0  0  0  0  # atno 17342 bound_to 10162
  140.6928  143.2386  151.5083 LP  0  0  0  0  0  0  0  0  0  0  0  0  # atno 17343 bound_to 10162
  156.0723  130.5753  150.9407 LP  0  0  0  0  0  0  0  0  0  0  0  0  # atno 17370 bound_to 10713
  157.6192  131.0931  150.8654 LP  0  0  0  0  0  0  0  0  0  0  0  0  # atno 17371 bound_to 10713
  141.0470  133.6908  156.1701 LP  0  0  0  0  0  0  0  0  0  0  0  0  # atno 17394 bound_to 11000
  140.6869  134.4707  157.5589 LP  0  0  0  0  0  0  0  0  0  0  0  0  # atno 17395 bound_to 11000

$$$$
