AV-unprocessed.smi:697|AV-procd|sdf|3394|dock1
  -GOLD-   22720 0373D 1   1.00000     0.00000
 Structure written by MMmdl.
 43 44  0  0  0  0  0  0  0  0  2 V2000
  143.0670  132.1706  149.8262 C   0  0  0  0  0  0  0  0  0  0  0  0
  143.4608  133.0851  150.8421 O   0  0  0  0  0  0  0  0  0  0  0  0
  144.4338  134.0796  150.4929 C   0  0  2  0  0  0  0  0  0  0  0  0
  143.9696  134.8818  149.2706 C   0  0  0  0  0  0  0  0  0  0  0  0
  145.8478  133.4676  150.5016 C   0  0  0  0  0  0  0  0  0  0  0  0
  145.8600  133.7008  152.0109 C   0  0  1  0  0  0  0  0  0  0  0  0
  147.1669  134.1231  152.5034 N   0  0  0  0  0  0  0  0  0  0  0  0
  147.7939  133.5785  153.5543 C   0  0  0  0  0  0  0  0  0  0  0  0
  147.3257  132.6477  154.2096 O   0  0  0  0  0  0  0  0  0  0  0  0
  148.9627  134.2019  153.7872 N   0  0  0  0  0  0  0  0  0  0  0  0
  149.9365  133.9368  154.7646 C   0  0  0  0  0  0  0  0  0  0  0  0
  150.3073  132.6923  155.1754 C   0  0  0  0  0  0  0  0  0  0  0  0
  151.3384  132.4788  156.1835 C   0  0  0  0  0  0  0  0  0  0  0  0
  151.8323  131.1068  156.6069 C   0  0  0  0  0  0  0  0  0  0  0  0
  151.2916  130.1486  155.8537 F   0  0  0  0  0  0  0  0  0  0  0  0
  153.1564  131.0406  156.4754 F   0  0  0  0  0  0  0  0  0  0  0  0
  151.5281  130.8611  157.8815 F   0  0  0  0  0  0  0  0  0  0  0  0
  151.8907  133.6644  156.6276 C   0  0  0  0  0  0  0  0  0  0  0  0
  151.5772  134.9319  156.2805 N   0  5  0  0  0  0  0  0  0  0  0  0
  150.6061  135.1202  155.3427 C   0  0  0  0  0  0  0  0  0  0  0  0
  150.2787  136.2484  154.9726 O   0  0  0  0  0  0  0  0  0  0  0  0
  144.8417  134.8493  151.7919 C   0  0  0  0  0  0  0  0  0  0  0  0
  145.4245  136.2606  151.5852 C   0  0  0  0  0  0  0  0  0  0  0  0
  143.7599  134.9992  152.8670 C   0  0  0  0  0  0  0  0  0  0  0  0
  142.4503  131.3900  150.2710 H   0  0  0  0  0  0  0  0  0  0  0  0
  143.9184  131.6866  149.3489 H   0  0  0  0  0  0  0  0  0  0  0  0
  142.4648  132.6567  149.0591 H   0  0  0  0  0  0  0  0  0  0  0  0
  144.6434  135.7083  149.0480 H   0  0  0  0  0  0  0  0  0  0  0  0
  142.9766  135.3036  149.4276 H   0  0  0  0  0  0  0  0  0  0  0  0
  143.9361  134.2700  148.3696 H   0  0  0  0  0  0  0  0  0  0  0  0
  145.9204  132.4199  150.2118 H   0  0  0  0  0  0  0  0  0  0  0  0
  146.5750  134.0743  149.9589 H   0  0  0  0  0  0  0  0  0  0  0  0
  145.4350  132.8522  152.5521 H   0  0  0  0  0  0  0  0  0  0  0  0
  147.6169  134.8866  152.0201 H   0  0  0  0  0  0  0  0  0  0  0  0
  149.1697  134.9999  153.2044 H   0  0  0  0  0  0  0  0  0  0  0  0
  149.8560  131.8118  154.7487 H   0  0  0  0  0  0  0  0  0  0  0  0
  152.7134  133.5819  157.3697 H   0  0  0  0  0  0  0  0  0  0  0  0
  145.8434  136.6623  152.5085 H   0  0  0  0  0  0  0  0  0  0  0  0
  144.6613  136.9620  151.2470 H   0  0  0  0  0  0  0  0  0  0  0  0
  146.2235  136.2725  150.8437 H   0  0  0  0  0  0  0  0  0  0  0  0
  144.1477  135.4865  153.7621 H   0  0  0  0  0  0  0  0  0  0  0  0
  143.3641  134.0346  153.1854 H   0  0  0  0  0  0  0  0  0  0  0  0
  142.9188  135.5915  152.5054 H   0  0  0  0  0  0  0  0  0  0  0  0
  1  2  1  0  0  0  0
  1 25  1  0  0  0  0
  1 26  1  0  0  0  0
  1 27  1  0  0  0  0
  2  3  1  0  0  0  0
  3 22  1  0  0  0  0
  3  4  1  0  0  0  0
  3  5  1  0  0  0  0
  4 28  1  0  0  0  0
  4 29  1  0  0  0  0
  4 30  1  0  0  0  0
  5  6  1  0  0  0  0
  5 31  1  0  0  0  0
  5 32  1  0  0  0  0
  6  7  1  0  0  0  0
  6 22  1  0  0  0  0
  6 33  1  0  0  0  0
  7  8  1  0  0  0  0
  7 34  1  0  0  0  0
  8  9  2  0  0  0  0
  8 10  1  0  0  0  0
 10 11  1  0  0  0  0
 10 35  1  0  0  0  0
 11 20  1  0  0  0  0
 11 12  2  0  0  0  0
 12 13  1  0  0  0  0
 12 36  1  0  0  0  0
 13 14  1  0  0  0  0
 13 18  2  0  0  0  0
 14 15  1  0  0  0  0
 14 16  1  0  0  0  0
 14 17  1  0  0  0  0
 18 19  1  0  0  0  0
 18 37  1  0  0  0  0
 19 20  1  0  0  0  0
 20 21  2  0  0  0  0
 22 23  1  0  0  0  0
 22 24  1  0  0  0  0
 23 38  1  0  0  0  0
 23 39  1  0  0  0  0
 23 40  1  0  0  0  0
 24 41  1  0  0  0  0
 24 42  1  0  0  0  0
 24 43  1  0  0  0  0
M  CHG  1  19  -1
M  END
> <s_m_source_file>
AV-unprocessed.smi

> <i_m_source_file_index>
697

> <i_lp_mmshare_version>
43012

> <i_f3d_flags>
0

> <s_epik_input>
W0NIM11PW0NAQF0xKFtDSDNdKVtDSDJdW0NASF0oQzEoW0NIM10pW0NIM10pW05IXUMoPU8pW05IXWMyW2NIXWMoQyhGKShGKUYpW2NIXVtuSF1jMj1P

> <s_epik_cmdline>
J2VwaWtfcHl0aG9uJywgJy1waCcsICc3LjAnLCAnLXRuJywgJzgnLCAnLW1hJywgJzIwMCcsICctbWV0YWxfYmluZGluZycsICctaW1hZScsICc8aW5maWxlLm1hZT4nLCAnLW9tYWUnLCAnPG91dGZpbGUubWFlPic=

> <r_lp_tautomer_probability>
1

> <r_epik_Ionization_Penalty>
3.20094

> <r_epik_Ionization_Penalty_Charging>
0.180017

> <r_epik_Ionization_Penalty_Neutral>
3.02092

> <r_epik_State_Penalty>
3.01726

> <r_epik_Charging_Adjusted_Penalty>
3.19727

> <i_epik_Tot_Q>
-1

> <i_epik_Tot_abs_Q>
1

> <r_epik_Metal_State_Penalty>
0.455096

> <b_epik_Metal_Only>
1

> <s_lp_Force_Field>
OPLS_2005

> <r_lp_Energy>
36.2607

> <b_lp_Chiralities_Consistent>
1

> <s_lp_Variant>
AV-unprocessed.smi:697-6

> <Gold.Version>
5.8.1

> <Gold.Id.Protein>
6NUR|6NUR_protein|mol2

> <Gold.PLP.Fitness>
37.4505

> <Gold.PLP.PLP>
-27.8856

> <Gold.PLP.part.hbond>
-3.0000

> <Gold.PLP.part.metal>
0.0000

> <Gold.PLP.part.buried>
5.4816

> <Gold.PLP.part.nonpolar>
-30.0180

> <Gold.PLP.part.repulsive>
0.4471

> <Gold.PLP.ligand.clash>
0.0000

> <Gold.PLP.ligand.torsion>
0.6929

> <Gold.PLP.Chemscore.Hbond>
3.5050

> <Gold.PLP.Chemscore.CHOScore>
0.0000

> <Gold.PLP.Chemscore.Metal>
0.0000

> <Gold.Chemscore.Hbonds>
donor molecule, donor type, donor heavy atom, donor atom, acceptor molecule, acceptor atom, score
      L1  H     7    34       P1  7948  1.00
      L1  H    10    35       P1  7948  0.75
      P1  H 10752 10763       L1    19  1.63

> <Gold.PLP.Chemscore.Internal.Correction>
0.4357

> <Gold.Rescore>
     Score         DG    S(hbond)    S(metal)    S(lipo)     H(rot)  DE(clash)    DE(int)     intcor
     12.11     -13.68       1.08        0.00      67.68       1.30       0.78       0.79       ----

> <Gold.Chemscore.Fitness>
12.1071

> <Gold.Chemscore.DG>
-13.6756

> <Gold.Chemscore.ZeroCoef>
-5.4800

> <Gold.Chemscore.Hbond>
1.0772

> <Gold.Chemscore.Metal>
0.0000

> <Gold.Chemscore.Lipo>
67.6801

> <Gold.Chemscore.Internal_Hbond>
0.0000

> <Gold.Chemscore.DEClash>
0.7817

> <Gold.Chemscore.DEInternal>
0.7868

> <Gold.Chemscore.Rot>
1.2973

> <Gold.Chemscore.Internal.Correction>
   9.000000E+99

> <Gold.Chemscore.Hbonds>
donor molecule, donor type, donor heavy atom, donor atom, acceptor molecule, acceptor atom, score
      L1  H     7    34       P1  7948  0.76
      L1  H    10    35       P1  7948  0.09
      P1  H 10752 10763       L1    19  0.04

> <Gold.Chemscore.Hbond.Weighted>
-3.5980

> <Gold.Chemscore.Metal.Weighted>
-0.0000

> <Gold.Chemscore.Lipo.Weighted>
-7.9186

> <Gold.Chemscore.Internal_Hbond.Weighted>
0.0000

> <Gold.Chemscore.DEClash.Weighted>
0.7817

> <Gold.Chemscore.DEInternal.Weighted>
0.7868

> <Gold.Chemscore.Rot.Weighted>
3.3210

> <Gold.Chemscore.Internal.Correction.Weighted>
   9.000000E+99

> <Gold.Protein.RotatedTorsions>
[ 6907 6896 6895 6894 ] final   31.11 input  -60.11 | X-H torsion
[ 7974 7965 7964 7962 ] final -113.33 input  175.53 | X-H torsion
[ 8008 7997 7996 7995 ] final -101.33 input   59.86 | X-H torsion
[ 10167 10162 10161 10158 ] final -176.07 input  -65.29 | X-H torsion
[ 10718 10713 10712 10709 ] final  -19.17 input   66.30 | X-H torsion
[ 10763 10752 10751 10750 ] final   96.11 input  -60.55 | X-H torsion
[ 11005 11000 10999 10996 ] final   64.49 input  -57.11 | X-H torsion

> <Gold.Protein.ActiveResidues>
 VAL166  LYS551  ARG553  GLY616  TRP617  ASP618  TYR619  PRO620  LYS621  CYS622 
 ASP623  PHE694  ASN695  SER759  ASP760  ASP761  ALA762  ILE779  LEU786  VAL792 
 PHE793  MET794  SER795  GLU796  ALA797  LYS798  CYS799  TRP800  GLU811  SER814 

> <Gold.Protein.RotatedAtoms>
  152.0556  134.9626  160.0574 H   0  0  0  0  0  0  0  0  0  0  0  0  # atno 6907 bound_to 6896
  152.1009  133.4245  159.4595 H   0  0  0  0  0  0  0  0  0  0  0  0  # atno 6908 bound_to 6896
  150.6839  134.2680  159.4620 H   0  0  0  0  0  0  0  0  0  0  0  0  # atno 6909 bound_to 6896
  145.1334  140.8737  143.3745 H   0  0  0  0  0  0  0  0  0  0  0  0  # atno 7974 bound_to 7965
  154.8410  140.0435  157.1541 H   0  0  0  0  0  0  0  0  0  0  0  0  # atno 8008 bound_to 7997
  154.9047  140.3005  155.5278 H   0  0  0  0  0  0  0  0  0  0  0  0  # atno 8009 bound_to 7997
  156.2992  140.2369  156.4079 H   0  0  0  0  0  0  0  0  0  0  0  0  # atno 8010 bound_to 7997
  139.5548  144.2016  152.1141 H   0  0  0  0  0  0  0  0  0  0  0  0  # atno 10167 bound_to 10162
  156.5494  130.4698  149.6459 H   0  0  0  0  0  0  0  0  0  0  0  0  # atno 10718 bound_to 10713
  153.2610  135.4230  155.0894 H   0  0  0  0  0  0  0  0  0  0  0  0  # atno 10763 bound_to 10752
  154.8420  135.3449  154.6377 H   0  0  0  0  0  0  0  0  0  0  0  0  # atno 10764 bound_to 10752
  153.6797  135.7039  153.5179 H   0  0  0  0  0  0  0  0  0  0  0  0  # atno 10765 bound_to 10752
  139.9956  134.6523  156.0017 H   0  0  0  0  0  0  0  0  0  0  0  0  # atno 11005 bound_to 11000
  145.0611  139.3105  143.5880 LP  0  0  0  0  0  0  0  0  0  0  0  0  # atno 17320 bound_to 7965
  146.3512  140.0053  142.8672 LP  0  0  0  0  0  0  0  0  0  0  0  0  # atno 17321 bound_to 7965
  140.1518  144.5107  150.6683 LP  0  0  0  0  0  0  0  0  0  0  0  0  # atno 17342 bound_to 10162
  140.6819  143.2331  151.5362 LP  0  0  0  0  0  0  0  0  0  0  0  0  # atno 17343 bound_to 10162
  156.2898  130.7118  151.1964 LP  0  0  0  0  0  0  0  0  0  0  0  0  # atno 17370 bound_to 10713
  157.7390  131.0534  150.5257 LP  0  0  0  0  0  0  0  0  0  0  0  0  # atno 17371 bound_to 10713
  141.1601  133.6539  156.4291 LP  0  0  0  0  0  0  0  0  0  0  0  0  # atno 17394 bound_to 11000
  140.4825  134.6651  157.5177 LP  0  0  0  0  0  0  0  0  0  0  0  0  # atno 17395 bound_to 11000

$$$$
