AV-unprocessed.smi:644|AV-procd|sdf|3157|dock6
  -GOLD-   22720 0 83D 1   1.00000     0.00000
 Structure written by MMmdl.
 38 40  0  0  0  0  0  0  0  0  2 V2000
  151.9639  144.7648  160.3884 C   0  0  0  0  0  0  0  0  0  0  0  0
  151.8401  143.6406  159.3741 C   0  0  0  0  0  0  0  0  0  0  0  0
  150.9594  143.8119  158.2820 C   0  0  0  0  0  0  0  0  0  0  0  0
  150.8677  142.7659  157.3715 C   0  0  0  0  0  0  0  0  0  0  0  0
  150.1059  142.6278  156.2089 N   0  3  0  0  0  0  0  0  0  0  0  0
  150.3554  141.4141  155.6440 C   0  0  0  0  0  0  0  0  0  0  0  0
  151.2650  140.7761  156.4292 N   0  0  0  0  0  0  0  0  0  0  0  0
  151.8796  139.4512  156.2746 C   0  0  0  0  0  0  0  0  0  0  0  0
  151.8610  138.6271  157.5766 C   0  0  2  0  0  0  0  0  0  0  0  0
  152.5404  137.4032  157.3698 O   0  0  0  0  0  0  0  0  0  0  0  0
  150.4281  138.3360  158.0492 C   0  0  0  0  0  0  0  0  0  0  0  0
  150.4014  137.3545  159.5813 S   0  0  0  0  0  0  0  0  0  0  0  0
  148.6970  136.9004  159.6299 C   0  0  0  0  0  0  0  0  0  0  0  0
  147.8533  137.1693  160.6368 N   0  0  0  0  0  0  0  0  0  0  0  0
  146.5729  136.6900  160.3958 N   0  0  0  0  0  0  0  0  0  0  0  0
  146.4959  136.0753  159.2133 C   0  0  0  0  0  0  0  0  0  0  0  0
  147.9818  136.0212  158.2838 S   0  0  0  0  0  0  0  0  0  0  0  0
  151.6138  141.5807  157.5184 C   0  0  0  0  0  0  0  0  0  0  0  0
  152.4861  141.3949  158.5878 C   0  0  0  0  0  0  0  0  0  0  0  0
  152.5933  142.4473  159.5251 C   0  0  0  0  0  0  0  0  0  0  0  0
  153.5357  142.2739  160.7040 C   0  0  0  0  0  0  0  0  0  0  0  0
  151.3393  145.6168  160.1180 H   0  0  0  0  0  0  0  0  0  0  0  0
  152.9945  145.1150  160.4503 H   0  0  0  0  0  0  0  0  0  0  0  0
  151.6530  144.4240  161.3764 H   0  0  0  0  0  0  0  0  0  0  0  0
  150.3826  144.7172  158.1607 H   0  0  0  0  0  0  0  0  0  0  0  0
  149.9163  141.0287  154.7350 H   0  0  0  0  0  0  0  0  0  0  0  0
  151.3675  138.9239  155.4688 H   0  0  0  0  0  0  0  0  0  0  0  0
  152.9064  139.6057  155.9397 H   0  0  0  0  0  0  0  0  0  0  0  0
  152.3888  139.1765  158.3570 H   0  0  0  0  0  0  0  0  0  0  0  0
  152.2571  137.0409  156.5438 H   0  0  0  0  0  0  0  0  0  0  0  0
  149.9069  139.2757  158.2361 H   0  0  0  0  0  0  0  0  0  0  0  0
  149.8751  137.8093  157.2702 H   0  0  0  0  0  0  0  0  0  0  0  0
  145.5583  135.6499  158.8871 H   0  0  0  0  0  0  0  0  0  0  0  0
  153.0593  140.4864  158.7001 H   0  0  0  0  0  0  0  0  0  0  0  0
  154.0323  141.3034  160.6784 H   0  0  0  0  0  0  0  0  0  0  0  0
  152.9886  142.3429  161.6446 H   0  0  0  0  0  0  0  0  0  0  0  0
  154.3080  143.0435  160.6940 H   0  0  0  0  0  0  0  0  0  0  0  0
  149.4644  143.3103  155.8256 H   0  0  0  0  0  0  0  0  0  0  0  0
  1  2  1  0  0  0  0
  1 22  1  0  0  0  0
  1 23  1  0  0  0  0
  1 24  1  0  0  0  0
  2 20  1  0  0  0  0
  2  3  2  0  0  0  0
  3  4  1  0  0  0  0
  3 25  1  0  0  0  0
  4 18  2  0  0  0  0
  4  5  1  0  0  0  0
  5  6  2  0  0  0  0
  5 38  1  0  0  0  0
  6  7  1  0  0  0  0
  6 26  1  0  0  0  0
  7  8  1  0  0  0  0
  7 18  1  0  0  0  0
  8  9  1  0  0  0  0
  8 27  1  0  0  0  0
  8 28  1  0  0  0  0
  9 10  1  0  0  0  0
  9 11  1  0  0  0  0
  9 29  1  0  0  0  0
 10 30  1  0  0  0  0
 11 12  1  0  0  0  0
 11 31  1  0  0  0  0
 11 32  1  0  0  0  0
 12 13  1  0  0  0  0
 13 17  1  0  0  0  0
 13 14  2  0  0  0  0
 14 15  1  0  0  0  0
 15 16  2  0  0  0  0
 16 17  1  0  0  0  0
 16 33  1  0  0  0  0
 18 19  1  0  0  0  0
 19 20  2  0  0  0  0
 19 34  1  0  0  0  0
 20 21  1  0  0  0  0
 21 35  1  0  0  0  0
 21 36  1  0  0  0  0
 21 37  1  0  0  0  0
M  CHG  1   5   1
M  END
> <s_m_source_file>
AV-unprocessed.smi

> <i_m_source_file_index>
644

> <i_lp_mmshare_version>
43012

> <i_f3d_flags>
0

> <s_epik_input>
W0NIM11jKFtjSF0xKWMoW0NIM10pW2NIXWMoYzEyKW4oW2NIXW4yKVtDSDJdW0NASF0oW09IXSlbQ0gyXVNjM25uW2NIXXMz

> <s_epik_cmdline>
J2VwaWtfcHl0aG9uJywgJy1waCcsICc3LjAnLCAnLXRuJywgJzgnLCAnLW1hJywgJzIwMCcsICctbWV0YWxfYmluZGluZycsICctaW1hZScsICc8aW5maWxlLm1hZT4nLCAnLW9tYWUnLCAnPG91dGZpbGUubWFlPic=

> <r_lp_tautomer_probability>
1

> <r_epik_Ionization_Penalty>
1.07492

> <r_epik_Ionization_Penalty_Charging>
1.07491

> <r_epik_Ionization_Penalty_Neutral>
3.80549e-06

> <r_epik_State_Penalty>
1.12982

> <r_epik_Charging_Adjusted_Penalty>
2.20473

> <i_epik_Tot_Q>
1

> <i_epik_Tot_abs_Q>
1

> <r_epik_Metal_State_Penalty>
1.2206

> <b_epik_Metal_Only>
0

> <s_lp_Force_Field>
OPLS_2005

> <r_lp_Energy>
11.8761

> <b_lp_Chiralities_Consistent>
1

> <s_lp_Variant>
AV-unprocessed.smi:644-3

> <Gold.Version>
5.8.1

> <Gold.Id.Protein>
6NUR|6NUR_protein|mol2

> <Gold.PLP.Fitness>
48.9502

> <Gold.PLP.PLP>
-39.2209

> <Gold.PLP.part.hbond>
-2.8411

> <Gold.PLP.part.metal>
0.0000

> <Gold.PLP.part.buried>
-4.0293

> <Gold.PLP.part.nonpolar>
-32.7824

> <Gold.PLP.part.repulsive>
0.1102

> <Gold.PLP.ligand.clash>
0.0000

> <Gold.PLP.ligand.torsion>
0.1927

> <Gold.PLP.Chemscore.Hbond>
3.3601

> <Gold.PLP.Chemscore.CHOScore>
0.0000

> <Gold.PLP.Chemscore.Metal>
0.0000

> <Gold.Chemscore.Hbonds>
donor molecule, donor type, donor heavy atom, donor atom, acceptor molecule, acceptor atom, score
      L1  H     5    38       P1  8028  2.00
      P1  H  6931  6943       L1    14  0.81
      P1  H  6934  6947       L1    14  0.55

> <Gold.PLP.Chemscore.Internal.Correction>
0.0346

> <Gold.Rescore>
     Score         DG    S(hbond)    S(metal)    S(lipo)     H(rot)  DE(clash)    DE(int)     intcor
     17.37     -17.52       1.92        0.00     103.38       2.53       0.06       0.08       ----

> <Gold.Chemscore.Fitness>
17.3716

> <Gold.Chemscore.DG>
-17.5151

> <Gold.Chemscore.ZeroCoef>
-5.4800

> <Gold.Chemscore.Hbond>
1.9222

> <Gold.Chemscore.Metal>
0.0000

> <Gold.Chemscore.Lipo>
103.3803

> <Gold.Chemscore.Internal_Hbond>
0.0000

> <Gold.Chemscore.DEClash>
0.0632

> <Gold.Chemscore.DEInternal>
0.0803

> <Gold.Chemscore.Rot>
2.5315

> <Gold.Chemscore.Internal.Correction>
   9.000000E+99

> <Gold.Chemscore.Hbonds>
donor molecule, donor type, donor heavy atom, donor atom, acceptor molecule, acceptor atom, score
      L1  H     5    38       P1  8028  0.91
      P1  H  6931  6943       L1    14  0.26
      P1  H  6934  6947       L1    14  0.04

> <Gold.Chemscore.Hbond.Weighted>
-6.4201

> <Gold.Chemscore.Metal.Weighted>
-0.0000

> <Gold.Chemscore.Lipo.Weighted>
-12.0955

> <Gold.Chemscore.Internal_Hbond.Weighted>
0.0000

> <Gold.Chemscore.DEClash.Weighted>
0.0632

> <Gold.Chemscore.DEInternal.Weighted>
0.0803

> <Gold.Chemscore.Rot.Weighted>
6.4805

> <Gold.Chemscore.Internal.Correction.Weighted>
   9.000000E+99

> <Gold.Protein.RotatedTorsions>
[ 6907 6896 6895 6894 ] final   44.50 input  -60.11 | X-H torsion
[ 7974 7965 7964 7962 ] final   85.65 input  175.53 | X-H torsion
[ 8008 7997 7996 7995 ] final  -30.15 input   59.86 | X-H torsion
[ 10167 10162 10161 10158 ] final  121.64 input  -65.29 | X-H torsion
[ 10718 10713 10712 10709 ] final  -48.05 input   66.30 | X-H torsion
[ 10763 10752 10751 10750 ] final  135.49 input  -60.55 | X-H torsion
[ 11005 11000 10999 10996 ] final  125.71 input  -57.11 | X-H torsion

> <Gold.Protein.ActiveResidues>
 VAL166  LYS551  ARG553  GLY616  TRP617  ASP618  TYR619  PRO620  LYS621  CYS622 
 ASP623  PHE694  ASN695  SER759  ASP760  ASP761  ALA762  ILE779  LEU786  VAL792 
 PHE793  MET794  SER795  GLU796  ALA797  LYS798  CYS799  TRP800  GLU811  SER814 

> <Gold.Protein.RotatedAtoms>
  152.2332  134.8301  160.0470 H   0  0  0  0  0  0  0  0  0  0  0  0  # atno 6907 bound_to 6896
  151.9042  133.3540  159.3849 H   0  0  0  0  0  0  0  0  0  0  0  0  # atno 6908 bound_to 6896
  150.7032  134.4723  159.5475 H   0  0  0  0  0  0  0  0  0  0  0  0  # atno 6909 bound_to 6896
  145.5827  139.2327  143.2343 H   0  0  0  0  0  0  0  0  0  0  0  0  # atno 7974 bound_to 7965
  154.4262  140.1799  156.1361 H   0  0  0  0  0  0  0  0  0  0  0  0  # atno 8008 bound_to 7997
  156.0029  140.3358  155.6839 H   0  0  0  0  0  0  0  0  0  0  0  0  # atno 8009 bound_to 7997
  155.6218  140.0660  157.2666 H   0  0  0  0  0  0  0  0  0  0  0  0  # atno 8010 bound_to 7997
  139.5907  144.7024  151.3297 H   0  0  0  0  0  0  0  0  0  0  0  0  # atno 10167 bound_to 10162
  156.2025  130.4157  149.9221 H   0  0  0  0  0  0  0  0  0  0  0  0  # atno 10718 bound_to 10713
  153.8409  135.3091  155.3426 H   0  0  0  0  0  0  0  0  0  0  0  0  # atno 10763 bound_to 10752
  154.7933  135.4770  154.0105 H   0  0  0  0  0  0  0  0  0  0  0  0  # atno 10764 bound_to 10752
  153.1576  135.6855  153.8881 H   0  0  0  0  0  0  0  0  0  0  0  0  # atno 10765 bound_to 10752
  139.9420  134.9634  156.8598 H   0  0  0  0  0  0  0  0  0  0  0  0  # atno 11005 bound_to 11000
  146.1704  140.6654  142.9236 LP  0  0  0  0  0  0  0  0  0  0  0  0  # atno 17320 bound_to 7965
  144.7386  140.4880  143.6885 LP  0  0  0  0  0  0  0  0  0  0  0  0  # atno 17321 bound_to 7965
  140.7170  143.7238  150.7675 LP  0  0  0  0  0  0  0  0  0  0  0  0  # atno 17342 bound_to 10162
  140.0793  143.4984  152.2538 LP  0  0  0  0  0  0  0  0  0  0  0  0  # atno 17343 bound_to 10162
  156.6926  130.8902  151.3590 LP  0  0  0  0  0  0  0  0  0  0  0  0  # atno 17370 bound_to 10713
  157.6994  130.9316  150.0740 LP  0  0  0  0  0  0  0  0  0  0  0  0  # atno 17371 bound_to 10713
  140.5929  134.0245  155.7506 LP  0  0  0  0  0  0  0  0  0  0  0  0  # atno 17394 bound_to 11000
  141.1057  133.9697  157.3000 LP  0  0  0  0  0  0  0  0  0  0  0  0  # atno 17395 bound_to 11000

$$$$
