#       Name:                AV-unprocessed.smi:287
#       Creating user name   scv26
#       Creation time:       Thu Mar 26 21:57:12 2020


#       File generated by GOLD software.
#

@<TRIPOS>MOLECULE
AV-unprocessed.smi:287
    70    73     1
SMALL
NO_CHARGES


@<TRIPOS>ATOM
      1 ****         0.3146   4.9687   4.3081 C.3            1 S1                 0.0000
      2 ****        -0.1551   4.8366   2.8999 C.2            1 S1                 0.0000
      3 ****        -0.7031   3.8162   2.1789 C.2            1 S1                 0.0000
      4 ****        -0.9387   4.3051   0.8589 C.2            1 S1                 0.0000
      5 ****        -1.5485   3.5196  -0.2941 C.3            1 S1                 0.0000
      6 ****        -3.0760   3.4611  -0.1294 C.3            1 S1                 0.0000
      7 ****        -1.3267   4.1301  -1.5511 O.3            1 S1                 0.0000
      8 ****        -0.9733   2.0894  -0.4053 C.3            1 S1                 0.0000
      9 ****         0.4809   2.0535  -0.3158 N.pl3          1 S1                 0.0000
     10 ****         1.1461   0.8810  -0.2549 C.ar           1 S1                 0.0000
     11 ****         2.4933   0.9799  -0.1533 N.ar           1 S1                 0.0000
     12 ****         3.2456  -0.1219  -0.0824 C.ar           1 S1                 0.0000
     13 ****         2.8584  -1.3986  -0.0954 N.ar           1 S1                 0.0000
     14 ****         1.5023  -1.5058  -0.1973 C.ar           1 S1                 0.0000
     15 ****         0.5769  -0.4270  -0.2840 C.ar           1 S1                 0.0000
     16 ****        -0.7125  -0.9405  -0.3786 N.2            1 S1                 0.0000
     17 ****        -0.5523  -2.2355  -0.3456 C.2            1 S1                 0.0000
     18 ****         0.7545  -2.6614  -0.2462 N.pl3          1 S1                 0.0000
     19 ****         1.3024  -4.0561  -0.1803 C.3            1 S1                 0.0000
     20 ****         0.2514  -4.9301   0.1026 O.3            1 S1                 0.0000
     21 ****        -0.1762  -5.5663  -1.0963 C.3            1 S1                 0.0000
     22 ****        -0.9964  -6.8328  -0.7983 C.3            1 S1                 0.0000
     23 ****        -2.3375  -6.4841  -0.5284 O.3            1 S1                 0.0000
     24 ****         1.1502  -5.7901  -1.8322 C.3            1 S1                 0.0000
     25 ****         1.8252  -6.9257  -1.3219 O.3            1 S1                 0.0000
     26 ****         1.9295  -4.5169  -1.5206 C.3            1 S1                 0.0000
     27 ****         1.7741  -3.5909  -2.5828 O.3            1 S1                 0.0000
     28 ****        -0.5203   5.6137   0.8905 C.2            1 S1                 0.0000
     29 ****        -0.4908   6.7173  -0.1148 C.3            1 S1                 0.0000
     30 ****        -0.0388   5.9418   2.1219 O.3            1 S1                 0.0000
     31 ****         2.0084  -4.0335   0.6508 H              1 S1                 0.0000
     32 ****        -0.7739  -4.8662  -1.6832 H              1 S1                 0.0000
     33 ****         1.0002  -5.9411  -2.9023 H              1 S1                 0.0000
     34 ****         2.9945  -4.7077  -1.3811 H              1 S1                 0.0000
     35 ****         0.2970   4.0046   4.8167 H              1 S1                 0.0000
     36 ****        -0.3225   5.6563   4.8645 H              1 S1                 0.0000
     37 ****         1.3355   5.3494   4.3415 H              1 S1                 0.0000
     38 ****        -0.9086   2.8246   2.5547 H              1 S1                 0.0000
     39 ****        -3.3535   2.9697   0.8038 H              1 S1                 0.0000
     40 ****        -3.5459   2.9065  -0.9427 H              1 S1                 0.0000
     41 ****        -3.5119   4.4610  -0.1155 H              1 S1                 0.0000
     42 ****        -1.7311   3.5973  -2.2186 H              1 S1                 0.0000
     43 ****        -1.3655   1.4991   0.4236 H              1 S1                 0.0000
     44 ****        -1.3066   1.6069  -1.3254 H              1 S1                 0.0000
     45 ****         0.9390   2.9533  -0.2895 H              1 S1                 0.0000
     46 ****         4.3101   0.0436  -0.0044 H              1 S1                 0.0000
     47 ****        -1.3932  -2.9121  -0.3916 H              1 S1                 0.0000
     48 ****        -0.9982  -7.4913  -1.6675 H              1 S1                 0.0000
     49 ****        -0.5763  -7.3946   0.0365 H              1 S1                 0.0000
     50 ****        -2.8282  -7.2762  -0.3708 H              1 S1                 0.0000
     51 ****         1.9376  -6.8133  -0.3904 H              1 S1                 0.0000
     52 ****         2.1829  -2.7769  -2.3299 H              1 S1                 0.0000
     53 ****        -1.4641   6.8321  -0.5920 H              1 S1                 0.0000
     54 ****         0.2462   6.5115  -0.8913 H              1 S1                 0.0000
     55 ****        -0.2328   7.6690   0.3505 H              1 S1                 0.0000
     56 ****        -0.3441   4.1991  -1.7239 LP             1 S1                 0.0000
     57 ****        -1.7314   5.0444  -1.5581 LP             1 S1                 0.0000
     58 ****         2.9264   1.8810  -0.1313 LP             1 S1                 0.0000
     59 ****         3.4828  -2.1777  -0.0378 LP             1 S1                 0.0000
     60 ****        -1.5699  -0.4316  -0.4548 LP             1 S1                 0.0000
     61 ****        -0.5109  -4.4172   0.4974 LP             1 S1                 0.0000
     62 ****         0.5606  -5.6224   0.7547 LP             1 S1                 0.0000
     63 ****        -2.7239  -5.9986  -1.3125 LP             1 S1                 0.0000
     64 ****        -2.3769  -5.8967   0.2799 LP             1 S1                 0.0000
     65 ****         2.7191  -7.0129  -1.7616 LP             1 S1                 0.0000
     66 ****         1.2846  -7.7480  -1.4998 LP             1 S1                 0.0000
     67 ****         0.8016  -3.4400  -2.7600 LP             1 S1                 0.0000
     68 ****         2.2121  -3.9469  -3.4083 LP             1 S1                 0.0000
     69 ****         0.9209   6.2147   2.0540 LP             1 S1                 0.0000
     70 ****        -0.5723   6.6931   2.5104 LP             1 S1                 0.0000
@<TRIPOS>BOND
    1    1    2 1     
    2    1   35 1     
    3    1   36 1     
    4    1   37 1     
    5    2   30 1     
    6    2    3 2     
    7    3    4 1     
    8    3   38 1     
    9    4    5 1     
   10    4   28 2     
   11    5    6 1     
   12    5    7 1     
   13    5    8 1     
   14    6   39 1     
   15    6   40 1     
   16    6   41 1     
   17    7   42 1     
   18    8    9 1     
   19    8   43 1     
   20    8   44 1     
   21    9   10 1     
   22    9   45 1     
   23   10   15 ar    
   24   10   11 ar    
   25   11   12 ar    
   26   12   13 ar    
   27   12   46 1     
   28   13   14 ar    
   29   14   18 1     
   30   14   15 ar    
   31   15   16 1     
   32   16   17 2     
   33   17   18 1     
   34   17   47 1     
   35   18   19 1     
   36   19   31 1     
   37   19   26 1     
   38   19   20 1     
   39   20   21 1     
   40   21   32 1     
   41   21   22 1     
   42   21   24 1     
   43   22   23 1     
   44   22   48 1     
   45   22   49 1     
   46   23   50 1     
   47   24   33 1     
   48   24   25 1     
   49   24   26 1     
   50   25   51 1     
   51   26   34 1     
   52   26   27 1     
   53   27   52 1     
   54   28   29 1     
   55   28   30 1     
   56   29   53 1     
   57   29   54 1     
   58   29   55 1     
   59    7   56 1     
   60    7   57 1     
   61   11   58 1     
   62   13   59 1     
   63   16   60 1     
   64   20   61 1     
   65   20   62 1     
   66   23   63 1     
   67   23   64 1     
   68   25   65 1     
   69   25   66 1     
   70   27   67 1     
   71   27   68 1     
   72   30   69 1     
   73   30   70 1     
@<TRIPOS>SUBSTRUCTURE
      1 S1             1
@<TRIPOS>SET
LONE_PAIRS      STATIC     ATOMS    <user>   **** ""
15 56 57 58 59 60 61 62 63 64 65 66 67 68 69 70
DONOR_HYDROGENS      STATIC     ATOMS    <user>   **** ""
5 42 45 50 51 52
ATOM$BLUE        STATIC     ATOMS    COLORGROUP SYSTEM
15 56 57 58 59 60 61 62 63 64 65 66 67 68 69 70
ATOM$RED        STATIC     ATOMS    COLORGROUP SYSTEM
5 42 45 50 51 52
