AV-unprocessed.smi:1538|AV-procd|sdf|6193|dock3
  -GOLD-   22720 6363D 1   1.00000     0.00000
 Structure written by MMmdl.
 37 38  0  0  0  0  0  0  0  0  2 V2000
  151.8279  145.1615  160.6713 C   0  0  0  0  0  0  0  0  0  0  0  0
  152.4672  143.8555  160.5044 N   0  0  0  0  0  0  0  0  0  0  0  0
  152.7215  143.1270  161.7553 C   0  0  0  0  0  0  0  0  0  0  0  0
  153.7429  141.9918  161.6082 C   0  0  0  0  0  0  0  0  0  0  0  0
  153.4032  141.1348  160.3823 C   0  0  2  0  0  0  0  0  0  0  0  0
  154.3763  139.9539  160.2606 C   0  0  0  0  0  0  0  0  0  0  0  0
  155.1255  139.8603  159.2878 O   0  0  0  0  0  0  0  0  0  0  0  0
  154.3610  139.0590  161.2591 N   0  0  0  0  0  0  0  0  0  0  0  0
  155.2198  137.8849  161.3194 C   0  0  0  0  0  0  0  0  0  0  0  0
  154.3878  136.6151  161.5422 C   0  0  0  0  0  0  0  0  0  0  0  0
  154.4538  136.1638  162.9336 N   0  0  0  0  0  0  0  0  0  0  0  0
  154.8495  134.9323  163.3892 C   0  0  0  0  0  0  0  0  0  0  0  0
  154.7536  134.9726  164.7565 C   0  0  0  0  0  0  0  0  0  0  0  0
  154.3036  136.2254  165.0770 N   0  3  0  0  0  0  0  0  0  0  0  0
  154.1229  136.9489  163.9670 C   0  0  0  0  0  0  0  0  0  0  0  0
  153.4320  142.0121  159.1144 C   0  0  0  0  0  0  0  0  0  0  0  0
  152.7235  143.3690  159.2658 C   0  0  0  0  0  0  0  0  0  0  0  0
  152.4364  143.9881  158.2408 O   0  0  0  0  0  0  0  0  0  0  0  0
  150.9189  145.2326  160.0717 H   0  0  0  0  0  0  0  0  0  0  0  0
  152.5058  145.9572  160.3601 H   0  0  0  0  0  0  0  0  0  0  0  0
  151.5452  145.3515  161.7074 H   0  0  0  0  0  0  0  0  0  0  0  0
  153.0667  143.8166  162.5269 H   0  0  0  0  0  0  0  0  0  0  0  0
  151.7719  142.7189  162.1039 H   0  0  0  0  0  0  0  0  0  0  0  0
  154.7430  142.4167  161.5055 H   0  0  0  0  0  0  0  0  0  0  0  0
  153.7539  141.3861  162.5153 H   0  0  0  0  0  0  0  0  0  0  0  0
  152.3927  140.7406  160.5071 H   0  0  0  0  0  0  0  0  0  0  0  0
  153.7175  139.2045  162.0235 H   0  0  0  0  0  0  0  0  0  0  0  0
  155.7869  137.8036  160.3905 H   0  0  0  0  0  0  0  0  0  0  0  0
  155.9413  138.0076  162.1289 H   0  0  0  0  0  0  0  0  0  0  0  0
  153.3410  136.7849  161.2844 H   0  0  0  0  0  0  0  0  0  0  0  0
  154.7476  135.8015  160.9109 H   0  0  0  0  0  0  0  0  0  0  0  0
  155.1633  134.1404  162.7244 H   0  0  0  0  0  0  0  0  0  0  0  0
  154.9670  134.2234  165.5052 H   0  0  0  0  0  0  0  0  0  0  0  0
  153.7784  137.9667  163.9167 H   0  0  0  0  0  0  0  0  0  0  0  0
  154.4611  142.2239  158.8196 H   0  0  0  0  0  0  0  0  0  0  0  0
  152.9790  141.4710  158.2825 H   0  0  0  0  0  0  0  0  0  0  0  0
  154.1327  136.5592  166.0175 H   0  0  0  0  0  0  0  0  0  0  0  0
  1  2  1  0  0  0  0
  1 19  1  0  0  0  0
  1 20  1  0  0  0  0
  1 21  1  0  0  0  0
  2 17  1  0  0  0  0
  2  3  1  0  0  0  0
  3  4  1  0  0  0  0
  3 22  1  0  0  0  0
  3 23  1  0  0  0  0
  4  5  1  0  0  0  0
  4 24  1  0  0  0  0
  4 25  1  0  0  0  0
  5  6  1  0  0  0  0
  5 16  1  0  0  0  0
  5 26  1  0  0  0  0
  6  7  2  0  0  0  0
  6  8  1  0  0  0  0
  8  9  1  0  0  0  0
  8 27  1  0  0  0  0
  9 10  1  0  0  0  0
  9 28  1  0  0  0  0
  9 29  1  0  0  0  0
 10 11  1  0  0  0  0
 10 30  1  0  0  0  0
 10 31  1  0  0  0  0
 11 15  1  0  0  0  0
 11 12  1  0  0  0  0
 12 13  2  0  0  0  0
 12 32  1  0  0  0  0
 13 14  1  0  0  0  0
 13 33  1  0  0  0  0
 14 15  2  0  0  0  0
 14 37  1  0  0  0  0
 15 34  1  0  0  0  0
 16 17  1  0  0  0  0
 16 35  1  0  0  0  0
 16 36  1  0  0  0  0
 17 18  2  0  0  0  0
M  CHG  1  14   1
M  END
> <s_m_source_file>
AV-unprocessed.smi

> <i_m_source_file_index>
1538

> <i_lp_mmshare_version>
43012

> <i_f3d_flags>
0

> <s_epik_input>
W0NIM11OMVtDSDJdW0NIMl1bQ0BIXShbQ0gyXUMxPU8pQyg9TylbTkhdW0NIMl1bQ0gyXW4yW2NIXVtjSF1uW2NIXTI=

> <s_epik_cmdline>
J2VwaWtfcHl0aG9uJywgJy1waCcsICc3LjAnLCAnLXRuJywgJzgnLCAnLW1hJywgJzIwMCcsICctbWV0YWxfYmluZGluZycsICctaW1hZScsICc8aW5maWxlLm1hZT4nLCAnLW9tYWUnLCAnPG91dGZpbGUubWFlPic=

> <r_lp_tautomer_probability>
1

> <r_epik_Ionization_Penalty>
0.272873

> <r_epik_Ionization_Penalty_Charging>
0

> <r_epik_Ionization_Penalty_Neutral>
0.272873

> <r_epik_State_Penalty>
0.265096

> <r_epik_Charging_Adjusted_Penalty>
0.265096

> <i_epik_Tot_Q>
1

> <i_epik_Tot_abs_Q>
1

> <r_epik_Metal_State_Penalty>
0.549113

> <b_epik_Metal_Only>
0

> <s_lp_Force_Field>
OPLS_2005

> <r_lp_Energy>
17.9959

> <b_lp_Chiralities_Consistent>
1

> <s_lp_Variant>
AV-unprocessed.smi:1538-2

> <Gold.Version>
5.8.1

> <Gold.Id.Protein>
6NUR|6NUR_protein|mol2

> <Gold.PLP.Fitness>
45.6696

> <Gold.PLP.PLP>
-43.4169

> <Gold.PLP.part.hbond>
-2.0000

> <Gold.PLP.part.metal>
0.0000

> <Gold.PLP.part.buried>
-4.8850

> <Gold.PLP.part.nonpolar>
-35.6490

> <Gold.PLP.part.repulsive>
0.1689

> <Gold.PLP.ligand.clash>
0.0000

> <Gold.PLP.ligand.torsion>
0.3829

> <Gold.PLP.Chemscore.Hbond>
1.0000

> <Gold.PLP.Chemscore.CHOScore>
0.0000

> <Gold.PLP.Chemscore.Metal>
0.0000

> <Gold.Chemscore.Hbonds>
donor molecule, donor type, donor heavy atom, donor atom, acceptor molecule, acceptor atom, score
      P1  H  7997  8010       L1     7  1.00

> <Gold.PLP.Chemscore.Internal.Correction>
0.0186

> <Gold.Rescore>
     Score         DG    S(hbond)    S(metal)    S(lipo)     H(rot)  DE(clash)    DE(int)     intcor
     12.50     -13.00       0.97        0.00      81.45       2.05       0.24       0.26       ----

> <Gold.Chemscore.Fitness>
12.5027

> <Gold.Chemscore.DG>
-13.0029

> <Gold.Chemscore.ZeroCoef>
-5.4800

> <Gold.Chemscore.Hbond>
0.9688

> <Gold.Chemscore.Metal>
0.0000

> <Gold.Chemscore.Lipo>
81.4479

> <Gold.Chemscore.Internal_Hbond>
0.0000

> <Gold.Chemscore.DEClash>
0.2433

> <Gold.Chemscore.DEInternal>
0.2568

> <Gold.Chemscore.Rot>
2.0478

> <Gold.Chemscore.Internal.Correction>
   9.000000E+99

> <Gold.Chemscore.Hbonds>
donor molecule, donor type, donor heavy atom, donor atom, acceptor molecule, acceptor atom, score
      P1  H  7997  8010       L1     7  0.98

> <Gold.Chemscore.Hbond.Weighted>
-3.2358

> <Gold.Chemscore.Metal.Weighted>
-0.0000

> <Gold.Chemscore.Lipo.Weighted>
-9.5294

> <Gold.Chemscore.Internal_Hbond.Weighted>
0.0000

> <Gold.Chemscore.DEClash.Weighted>
0.2433

> <Gold.Chemscore.DEInternal.Weighted>
0.2568

> <Gold.Chemscore.Rot.Weighted>
5.2423

> <Gold.Chemscore.Internal.Correction.Weighted>
   9.000000E+99

> <Gold.Protein.RotatedTorsions>
[ 6907 6896 6895 6894 ] final  133.38 input  -60.11 | X-H torsion
[ 7974 7965 7964 7962 ] final -173.93 input  175.53 | X-H torsion
[ 8008 7997 7996 7995 ] final   -7.03 input   59.86 | X-H torsion
[ 10167 10162 10161 10158 ] final  -87.74 input  -65.29 | X-H torsion
[ 10718 10713 10712 10709 ] final  122.99 input   66.30 | X-H torsion
[ 10763 10752 10751 10750 ] final  -57.97 input  -60.55 | X-H torsion
[ 11005 11000 10999 10996 ] final -164.86 input  -57.11 | X-H torsion

> <Gold.Protein.ActiveResidues>
 VAL166  LYS551  ARG553  GLY616  TRP617  ASP618  TYR619  PRO620  LYS621  CYS622 
 ASP623  PHE694  ASN695  SER759  ASP760  ASP761  ALA762  ILE779  LEU786  VAL792 
 PHE793  MET794  SER795  GLU796  ALA797  LYS798  CYS799  TRP800  GLU811  SER814 

> <Gold.Protein.RotatedAtoms>
  152.3225  133.5870  159.5754 H   0  0  0  0  0  0  0  0  0  0  0  0  # atno 6907 bound_to 6896
  150.7379  133.9989  159.3640 H   0  0  0  0  0  0  0  0  0  0  0  0  # atno 6908 bound_to 6896
  151.7872  135.0746  160.0433 H   0  0  0  0  0  0  0  0  0  0  0  0  # atno 6909 bound_to 6896
  144.7135  140.1548  143.6381 H   0  0  0  0  0  0  0  0  0  0  0  0  # atno 7974 bound_to 7965
  154.5878  140.2417  155.7962 H   0  0  0  0  0  0  0  0  0  0  0  0  # atno 8008 bound_to 7997
  156.2226  140.2993  155.9943 H   0  0  0  0  0  0  0  0  0  0  0  0  # atno 8009 bound_to 7997
  155.2427  140.0407  157.2967 H   0  0  0  0  0  0  0  0  0  0  0  0  # atno 8010 bound_to 7997
  140.3815  143.2747  151.9378 H   0  0  0  0  0  0  0  0  0  0  0  0  # atno 10167 bound_to 10162
  157.5699  131.1084  150.8385 H   0  0  0  0  0  0  0  0  0  0  0  0  # atno 10718 bound_to 10713
  154.2307  135.6361  153.5174 H   0  0  0  0  0  0  0  0  0  0  0  0  # atno 10763 bound_to 10752
  152.9949  135.5519  154.6015 H   0  0  0  0  0  0  0  0  0  0  0  0  # atno 10764 bound_to 10752
  154.5497  135.2900  155.0994 H   0  0  0  0  0  0  0  0  0  0  0  0  # atno 10765 bound_to 10752
  140.5821  134.5130  157.5180 H   0  0  0  0  0  0  0  0  0  0  0  0  # atno 11005 bound_to 11000
  145.9084  139.2472  143.1452 LP  0  0  0  0  0  0  0  0  0  0  0  0  # atno 17320 bound_to 7965
  145.9741  140.8736  143.0148 LP  0  0  0  0  0  0  0  0  0  0  0  0  # atno 17321 bound_to 7965
  139.4795  144.5814  151.7926 LP  0  0  0  0  0  0  0  0  0  0  0  0  # atno 17342 bound_to 10162
  140.4933  144.1278  150.5955 LP  0  0  0  0  0  0  0  0  0  0  0  0  # atno 17343 bound_to 10162
  156.8860  130.5196  149.5288 LP  0  0  0  0  0  0  0  0  0  0  0  0  # atno 17370 bound_to 10713
  156.0745  130.5770  150.9448 LP  0  0  0  0  0  0  0  0  0  0  0  0  # atno 17371 bound_to 10713
  139.9312  134.7960  156.0926 LP  0  0  0  0  0  0  0  0  0  0  0  0  # atno 17394 bound_to 11000
  141.0989  133.6685  156.2709 LP  0  0  0  0  0  0  0  0  0  0  0  0  # atno 17395 bound_to 11000

$$$$
