AV-unprocessed.smi:1592|AV-procd|sdf|6406|dock8
  -GOLD-   22720 7 43D 1   1.00000     0.00000
 Structure written by MMmdl.
 26 27  0  0  0  0  0  0  0  0  2 V2000
  150.0226  142.8436  158.1980 O   0  0  0  0  0  0  0  0  0  0  0  0
  151.2144  142.6048  157.9815 C   0  0  0  0  0  0  0  0  0  0  0  0
  151.7855  141.6265  157.1711 N   0  0  0  0  0  0  0  0  0  0  0  0
  151.1439  141.0185  156.2105 C   0  0  0  0  0  0  0  0  0  0  0  0
  149.8046  141.2917  155.8821 N   0  0  0  0  0  0  0  0  0  0  0  0
  149.1351  140.6532  154.8597 C   0  0  0  0  0  0  0  0  0  0  0  0
  149.7280  139.7200  154.1136 C   0  0  0  0  0  0  0  0  0  0  0  0
  151.1074  139.3753  154.3903 C   0  0  0  0  0  0  0  0  0  0  0  0
  151.8383  139.9915  155.4129 C   0  0  0  0  0  0  0  0  0  0  0  0
  153.0304  139.6633  155.6150 O   0  5  0  0  0  0  0  0  0  0  0  0
  152.2899  143.4568  158.6776 C   0  0  1  0  0  0  0  0  0  0  0  0
  151.7022  144.4637  159.6871 C   0  0  0  0  0  0  0  0  0  0  0  0
  152.3635  144.1048  161.0064 C   0  0  0  0  0  0  0  0  0  0  0  0
  152.7510  142.6480  160.8025 C   0  0  0  0  0  0  0  0  0  0  0  0
  153.1597  142.6207  159.4434 O   0  0  0  0  0  0  0  0  0  0  0  0
  148.1122  140.9696  154.7197 H   0  0  0  0  0  0  0  0  0  0  0  0
  149.1896  139.2302  153.3157 H   0  0  0  0  0  0  0  0  0  0  0  0
  151.5770  138.6173  153.7800 H   0  0  0  0  0  0  0  0  0  0  0  0
  149.2794  141.9840  156.3956 H   0  0  0  0  0  0  0  0  0  0  0  0
  152.8865  143.9672  157.9202 H   0  0  0  0  0  0  0  0  0  0  0  0
  151.9106  145.4955  159.4030 H   0  0  0  0  0  0  0  0  0  0  0  0
  150.6192  144.3637  159.7774 H   0  0  0  0  0  0  0  0  0  0  0  0
  153.2601  144.7091  161.1485 H   0  0  0  0  0  0  0  0  0  0  0  0
  151.7111  144.2552  161.8667 H   0  0  0  0  0  0  0  0  0  0  0  0
  153.5495  142.3252  161.4706 H   0  0  0  0  0  0  0  0  0  0  0  0
  151.8922  141.9902  160.9459 H   0  0  0  0  0  0  0  0  0  0  0  0
  1  2  2  0  0  0  0
  2  3  1  0  0  0  0
  2 11  1  0  0  0  0
  3  4  2  0  0  0  0
  4  9  1  0  0  0  0
  4  5  1  0  0  0  0
  5 19  1  0  0  0  0
  5  6  1  0  0  0  0
  6 16  1  0  0  0  0
  6  7  2  0  0  0  0
  7 17  1  0  0  0  0
  7  8  1  0  0  0  0
  8  9  2  0  0  0  0
  8 18  1  0  0  0  0
  9 10  1  0  0  0  0
 11 15  1  0  0  0  0
 11 12  1  0  0  0  0
 11 20  1  0  0  0  0
 12 13  1  0  0  0  0
 12 21  1  0  0  0  0
 12 22  1  0  0  0  0
 13 14  1  0  0  0  0
 13 23  1  0  0  0  0
 13 24  1  0  0  0  0
 14 15  1  0  0  0  0
 14 25  1  0  0  0  0
 14 26  1  0  0  0  0
M  CHG  1  10  -1
M  END
> <s_m_source_file>
AV-unprocessed.smi

> <i_m_source_file_index>
1592

> <i_lp_mmshare_version>
43012

> <i_f3d_flags>
0

> <s_epik_input>
TzFbQ0gyXVtDSDJdW0NIMl1bQ0BIXTFDKD1PKVtOSF1jMm5bY0hdW2NIXVtjSF1jMltPSF0=

> <s_epik_cmdline>
J2VwaWtfcHl0aG9uJywgJy1waCcsICc3LjAnLCAnLXRuJywgJzgnLCAnLW1hJywgJzIwMCcsICctbWV0YWxfYmluZGluZycsICctaW1hZScsICc8aW5maWxlLm1hZT4nLCAnLW9tYWUnLCAnPG91dGZpbGUubWFlPic=

> <r_epik_Ionization_Penalty>
0.780127

> <r_epik_Ionization_Penalty_Charging>
0.780127

> <r_epik_Ionization_Penalty_Neutral>
6.55423e-13

> <r_epik_State_Penalty>
1.4426

> <r_epik_Charging_Adjusted_Penalty>
2.22273

> <i_epik_Tot_Q>
-1

> <i_epik_Tot_abs_Q>
1

> <r_epik_Metal_State_Penalty>
1.40439

> <b_epik_Metal_Only>
0

> <s_lp_Force_Field>
OPLS_2005

> <r_lp_Energy>
49.5573

> <b_lp_Chiralities_Consistent>
1

> <s_lp_Variant>
AV-unprocessed.smi:1592-6

> <Gold.Version>
5.8.1

> <Gold.Id.Protein>
6NUR|6NUR_protein|mol2

> <Gold.PLP.Fitness>
39.1392

> <Gold.PLP.PLP>
-33.3663

> <Gold.PLP.part.hbond>
-1.0000

> <Gold.PLP.part.metal>
0.0000

> <Gold.PLP.part.buried>
-2.8725

> <Gold.PLP.part.nonpolar>
-29.5542

> <Gold.PLP.part.repulsive>
0.8628

> <Gold.PLP.ligand.clash>
0.0000

> <Gold.PLP.ligand.torsion>
0.1172

> <Gold.PLP.Chemscore.Hbond>
2.0000

> <Gold.PLP.Chemscore.CHOScore>
0.0000

> <Gold.PLP.Chemscore.Metal>
0.0000

> <Gold.Chemscore.Hbonds>
donor molecule, donor type, donor heavy atom, donor atom, acceptor molecule, acceptor atom, score
      P1  H  7997  8009       L1    10  1.31

> <Gold.PLP.Chemscore.Internal.Correction>
0.0073

> <Gold.Rescore>
     Score         DG    S(hbond)    S(metal)    S(lipo)     H(rot)  DE(clash)    DE(int)     intcor
     14.79     -15.27       1.00        0.00      77.10       1.00       0.07       0.41       ----

> <Gold.Chemscore.Fitness>
14.7914

> <Gold.Chemscore.DG>
-15.2651

> <Gold.Chemscore.ZeroCoef>
-5.4800

> <Gold.Chemscore.Hbond>
0.9955

> <Gold.Chemscore.Metal>
0.0000

> <Gold.Chemscore.Lipo>
77.0959

> <Gold.Chemscore.Internal_Hbond>
0.0000

> <Gold.Chemscore.DEClash>
0.0668

> <Gold.Chemscore.DEInternal>
0.4069

> <Gold.Chemscore.Rot>
1.0000

> <Gold.Chemscore.Internal.Correction>
   9.000000E+99

> <Gold.Chemscore.Hbonds>
donor molecule, donor type, donor heavy atom, donor atom, acceptor molecule, acceptor atom, score
      P1  H  7997  8009       L1    10  0.66

> <Gold.Chemscore.Hbond.Weighted>
-3.3249

> <Gold.Chemscore.Metal.Weighted>
-0.0000

> <Gold.Chemscore.Lipo.Weighted>
-9.0202

> <Gold.Chemscore.Internal_Hbond.Weighted>
0.0000

> <Gold.Chemscore.DEClash.Weighted>
0.0668

> <Gold.Chemscore.DEInternal.Weighted>
0.4069

> <Gold.Chemscore.Rot.Weighted>
2.5600

> <Gold.Chemscore.Internal.Correction.Weighted>
   9.000000E+99

> <Gold.Protein.RotatedTorsions>
[ 6907 6896 6895 6894 ] final  129.92 input  -60.11 | X-H torsion
[ 7974 7965 7964 7962 ] final   63.93 input  175.53 | X-H torsion
[ 8008 7997 7996 7995 ] final  179.66 input   59.86 | X-H torsion
[ 10167 10162 10161 10158 ] final   -2.21 input  -65.29 | X-H torsion
[ 10718 10713 10712 10709 ] final    5.36 input   66.30 | X-H torsion
[ 10763 10752 10751 10750 ] final   85.93 input  -60.55 | X-H torsion
[ 11005 11000 10999 10996 ] final  -72.47 input  -57.11 | X-H torsion

> <Gold.Protein.ActiveResidues>
 VAL166  LYS551  ARG553  GLY616  TRP617  ASP618  TYR619  PRO620  LYS621  CYS622 
 ASP623  PHE694  ASN695  SER759  ASP760  ASP761  ALA762  ILE779  LEU786  VAL792 
 PHE793  MET794  SER795  GLU796  ALA797  LYS798  CYS799  TRP800  GLU811  SER814 

> <Gold.Protein.RotatedAtoms>
  152.3577  133.6258  159.5991 H   0  0  0  0  0  0  0  0  0  0  0  0  # atno 6907 bound_to 6896
  150.7580  133.9473  159.3483 H   0  0  0  0  0  0  0  0  0  0  0  0  # atno 6908 bound_to 6896
  151.7316  135.0874  160.0352 H   0  0  0  0  0  0  0  0  0  0  0  0  # atno 6909 bound_to 6896
  145.8561  139.3284  143.0847 H   0  0  0  0  0  0  0  0  0  0  0  0  # atno 7974 bound_to 7965
  156.0408  140.1303  157.0157 H   0  0  0  0  0  0  0  0  0  0  0  0  # atno 8008 bound_to 7997
  154.4390  140.1030  156.6305 H   0  0  0  0  0  0  0  0  0  0  0  0  # atno 8009 bound_to 7997
  155.5669  140.3466  155.4507 H   0  0  0  0  0  0  0  0  0  0  0  0  # atno 8010 bound_to 7997
  140.6842  143.6683  150.8207 H   0  0  0  0  0  0  0  0  0  0  0  0  # atno 10167 bound_to 10162
  156.9063  130.5740  149.5647 H   0  0  0  0  0  0  0  0  0  0  0  0  # atno 10718 bound_to 10713
  153.1522  135.4599  154.9652 H   0  0  0  0  0  0  0  0  0  0  0  0  # atno 10763 bound_to 10752
  154.7833  135.3195  154.7944 H   0  0  0  0  0  0  0  0  0  0  0  0  # atno 10764 bound_to 10752
  153.8447  135.6927  153.4853 H   0  0  0  0  0  0  0  0  0  0  0  0  # atno 10765 bound_to 10752
  141.1609  133.6848  156.7064 H   0  0  0  0  0  0  0  0  0  0  0  0  # atno 11005 bound_to 11000
  145.9302  140.9054  143.0360 LP  0  0  0  0  0  0  0  0  0  0  0  0  # atno 17320 bound_to 7965
  144.6727  140.1408  143.7437 LP  0  0  0  0  0  0  0  0  0  0  0  0  # atno 17321 bound_to 7965
  140.0388  143.5367  152.2727 LP  0  0  0  0  0  0  0  0  0  0  0  0  # atno 17342 bound_to 10162
  139.6187  144.7625  151.2788 LP  0  0  0  0  0  0  0  0  0  0  0  0  # atno 17343 bound_to 10162
  156.0558  130.5619  150.9087 LP  0  0  0  0  0  0  0  0  0  0  0  0  # atno 17370 bound_to 10713
  157.5995  131.0942  150.8984 LP  0  0  0  0  0  0  0  0  0  0  0  0  # atno 17371 bound_to 10713
  140.2920  134.8233  157.4025 LP  0  0  0  0  0  0  0  0  0  0  0  0  # atno 17394 bound_to 11000
  140.1338  134.5060  155.8084 LP  0  0  0  0  0  0  0  0  0  0  0  0  # atno 17395 bound_to 11000

$$$$
