#       Name:                AV-unprocessed.smi:1572
#       Creating user name   scv26
#       Creation time:       Fri Mar 27 06:54:07 2020


#       File generated by GOLD software.
#

@<TRIPOS>MOLECULE
AV-unprocessed.smi:1572
    48    49     1
SMALL
NO_CHARGES


@<TRIPOS>ATOM
      1 ****        -1.8282  -3.1287   1.5951 C.3            1 S1                 0.0000
      2 ****        -1.1210  -1.8470   1.8200 N.4            1 S1                 1.0000
      3 ****        -1.9576  -0.6502   1.5709 C.3            1 S1                 0.0000
      4 ****        -2.1184  -0.3668   0.0624 C.3            1 S1                 0.0000
      5 ****        -0.7952  -0.1755  -0.5505 N.3            1 S1                 0.0000
      6 ****        -0.7828   0.3887  -1.9253 C.3            1 S1                 0.0000
      7 ****        -1.2975  -0.6378  -2.9614 C.3            1 S1                 0.0000
      8 ****        -1.6782   1.6522  -2.0000 C.3            1 S1                 0.0000
      9 ****         0.6676   0.8206  -2.2989 C.3            1 S1                 0.0000
     10 ****         1.2219   1.8012  -1.3634 N.am           1 S1                 0.0000
     11 ****         2.1166   1.5640  -0.3930 C.2            1 S1                 0.0000
     12 ****         2.6204   0.4450  -0.2733 O.2            1 S1                 0.0000
     13 ****         2.3601   2.6356   0.3945 N.pl3          1 S1                -1.0000
     14 ****         3.1876   2.5186   1.4459 C.2            1 S1                 0.0000
     15 ****         4.4681   2.9191   1.4029 N.2            1 S1                 0.0000
     16 ****         5.1454   2.7108   2.5968 N.2            1 S1                 0.0000
     17 ****         4.3514   2.1633   3.5166 C.2            1 S1                 0.0000
     18 ****         2.7056   1.8496   3.0078 S.3            1 S1                 0.0000
     19 ****        -0.0591  -1.4406  -0.3993 C.3            1 S1                 0.0000
     20 ****         0.1661  -1.7366   1.0955 C.3            1 S1                 0.0000
     21 ****        -2.1264  -3.2524   0.5539 H              1 S1                 0.0000
     22 ****        -2.7255  -3.1824   2.2124 H              1 S1                 0.0000
     23 ****        -1.1897  -3.9696   1.8673 H              1 S1                 0.0000
     24 ****        -2.9326  -0.7709   2.0441 H              1 S1                 0.0000
     25 ****        -1.4868   0.2078   2.0534 H              1 S1                 0.0000
     26 ****        -2.6629  -1.1702  -0.4342 H              1 S1                 0.0000
     27 ****        -2.7296   0.5292  -0.0225 H              1 S1                 0.0000
     28 ****        -1.3439  -0.1920  -3.9555 H              1 S1                 0.0000
     29 ****        -2.3008  -0.9912  -2.7233 H              1 S1                 0.0000
     30 ****        -0.6461  -1.5083  -3.0408 H              1 S1                 0.0000
     31 ****        -1.5162   2.1932  -2.9329 H              1 S1                 0.0000
     32 ****        -1.4726   2.3468  -1.1843 H              1 S1                 0.0000
     33 ****        -2.7407   1.4098  -1.9748 H              1 S1                 0.0000
     34 ****         1.3348  -0.0325  -2.4210 H              1 S1                 0.0000
     35 ****         0.6596   1.2953  -3.2806 H              1 S1                 0.0000
     36 ****         0.8485   2.7374  -1.4204 H              1 S1                 0.0000
     37 ****         4.7375   1.9432   4.5007 H              1 S1                 0.0000
     38 ****        -0.5995  -2.2596  -0.8744 H              1 S1                 0.0000
     39 ****         0.9141  -1.3983  -0.8812 H              1 S1                 0.0000
     40 ****         0.7544  -0.9340   1.5437 H              1 S1                 0.0000
     41 ****         0.7467  -2.6509   1.2223 H              1 S1                 0.0000
     42 ****        -0.8935  -1.8349   2.8040 H              1 S1                 0.0000
     43 ****        -0.3244   0.5592  -0.0621 LP             1 S1                 0.0000
     44 ****         2.3621  -0.2894  -0.9010 LP             1 S1                 0.0000
     45 ****         3.2872   0.2718   0.4515 LP             1 S1                 0.0000
     46 ****         1.9250   3.5135   0.1946 LP             1 S1                 0.0000
     47 ****         4.8911   3.3260   0.5933 LP             1 S1                 0.0000
     48 ****         6.1065   2.9421   2.7474 LP             1 S1                 0.0000
@<TRIPOS>BOND
    1    1    2 1     
    2    1   21 1     
    3    1   22 1     
    4    1   23 1     
    5    2   20 1     
    6    2    3 1     
    7    2   42 1     
    8    3    4 1     
    9    3   24 1     
   10    3   25 1     
   11    4    5 1     
   12    4   26 1     
   13    4   27 1     
   14    5    6 1     
   15    5   19 1     
   16    6    7 1     
   17    6    8 1     
   18    6    9 1     
   19    7   28 1     
   20    7   29 1     
   21    7   30 1     
   22    8   31 1     
   23    8   32 1     
   24    8   33 1     
   25    9   10 1     
   26    9   34 1     
   27    9   35 1     
   28   10   11 am    
   29   10   36 1     
   30   11   12 2     
   31   11   13 1     
   32   13   14 1     
   33   14   18 1     
   34   14   15 2     
   35   15   16 1     
   36   16   17 2     
   37   17   18 1     
   38   17   37 1     
   39   19   20 1     
   40   19   38 1     
   41   19   39 1     
   42   20   40 1     
   43   20   41 1     
   44    5   43 1     
   45   12   44 1     
   46   12   45 1     
   47   13   46 1     
   48   15   47 1     
   49   16   48 1     
@<TRIPOS>SUBSTRUCTURE
      1 S1             1
@<TRIPOS>SET
LONE_PAIRS      STATIC     ATOMS    <user>   **** ""
6 43 44 45 46 47 48
DONOR_HYDROGENS      STATIC     ATOMS    <user>   **** ""
2 42 36
ATOM$BLUE        STATIC     ATOMS    COLORGROUP SYSTEM
6 43 44 45 46 47 48
ATOM$RED        STATIC     ATOMS    COLORGROUP SYSTEM
2 42 36
