AV-unprocessed.smi:2339|AV-procd|sdf|9341|dock1
  -GOLD-   2272012563D 1   1.00000     0.00000
 Structure written by MMmdl.
 49 52  0  0  0  0  0  0  0  0  1 V2000
  148.9302  131.1509  160.3250 C   0  0  0  0  0  0  0  0  0  0  0  0
  147.5479  131.7499  160.6069 C   0  0  0  0  0  0  0  0  0  0  0  0
  147.6277  133.1715  160.9102 N   0  0  0  0  0  0  0  0  0  0  0  0
  147.2328  133.6705  162.1472 C   0  0  0  0  0  0  0  0  0  0  0  0
  147.2426  134.9777  162.4720 C   0  0  0  0  0  0  0  0  0  0  0  0
  147.6906  135.9681  161.4723 C   0  0  0  0  0  0  0  0  0  0  0  0
  147.7238  137.1698  161.7383 O   0  0  0  0  0  0  0  0  0  0  0  0
  148.0968  135.4362  160.1450 C   0  0  0  0  0  0  0  0  0  0  0  0
  148.5241  136.3867  159.2051 N   0  0  0  0  0  0  0  0  0  0  0  0
  149.6871  137.0651  159.1302 C   0  0  0  0  0  0  0  0  0  0  0  0
  150.6468  136.9226  159.8844 O   0  0  0  0  0  0  0  0  0  0  0  0
  149.7238  137.9551  158.1232 N   0  0  0  0  0  0  0  0  0  0  0  0
  150.8356  138.8516  157.7650 C   0  0  1  0  0  0  0  0  0  0  0  0
  151.3378  138.6904  156.3247 C   0  0  1  0  0  0  0  0  0  0  0  0
  151.2686  137.6285  155.2861 C   0  0  0  0  0  0  0  0  0  0  0  0
  150.9627  138.5525  154.0785 C   0  0  0  0  0  0  0  0  0  0  0  0
  150.6822  139.8604  154.6386 O   0  0  0  0  0  0  0  0  0  0  0  0
  150.1806  139.5844  155.9326 C   0  0  2  0  0  0  0  0  0  0  0  0
  150.3879  140.2892  157.2946 C   0  0  0  0  0  0  0  0  0  0  0  0
  151.4322  141.4241  157.3380 C   0  0  0  0  0  0  0  0  0  0  0  0
  150.8168  142.6214  158.0645 C   0  0  0  0  0  0  0  0  0  0  0  0
  149.3151  142.4210  157.9252 C   0  0  0  0  0  0  0  0  0  0  0  0
  149.1493  140.9047  157.9569 C   0  0  0  0  0  0  0  0  0  0  0  0
  148.0420  134.0938  159.9514 C   0  0  0  0  0  0  0  0  0  0  0  0
  148.8522  130.0880  160.0964 H   0  0  0  0  0  0  0  0  0  0  0  0
  149.5895  131.2591  161.1866 H   0  0  0  0  0  0  0  0  0  0  0  0
  149.4058  131.6403  159.4746 H   0  0  0  0  0  0  0  0  0  0  0  0
  146.8952  131.5980  159.7464 H   0  0  0  0  0  0  0  0  0  0  0  0
  147.0799  131.2252  161.4408 H   0  0  0  0  0  0  0  0  0  0  0  0
  146.9144  132.9149  162.8510 H   0  0  0  0  0  0  0  0  0  0  0  0
  146.9297  135.3193  163.4477 H   0  0  0  0  0  0  0  0  0  0  0  0
  147.8447  136.5957  158.4877 H   0  0  0  0  0  0  0  0  0  0  0  0
  148.8990  138.0203  157.5442 H   0  0  0  0  0  0  0  0  0  0  0  0
  151.6344  138.8768  158.5080 H   0  0  0  0  0  0  0  0  0  0  0  0
  152.3024  139.2019  156.2436 H   0  0  0  0  0  0  0  0  0  0  0  0
  152.2057  137.0828  155.1736 H   0  0  0  0  0  0  0  0  0  0  0  0
  150.4602  136.9199  155.4696 H   0  0  0  0  0  0  0  0  0  0  0  0
  151.8077  138.6209  153.3930 H   0  0  0  0  0  0  0  0  0  0  0  0
  150.1011  138.1860  153.5192 H   0  0  0  0  0  0  0  0  0  0  0  0
  149.2163  139.0705  155.8659 H   0  0  0  0  0  0  0  0  0  0  0  0
  152.3568  141.1160  157.8276 H   0  0  0  0  0  0  0  0  0  0  0  0
  151.7032  141.7250  156.3253 H   0  0  0  0  0  0  0  0  0  0  0  0
  151.0920  142.5897  159.1196 H   0  0  0  0  0  0  0  0  0  0  0  0
  151.1531  143.5772  157.6616 H   0  0  0  0  0  0  0  0  0  0  0  0
  148.7467  142.9256  158.7070 H   0  0  0  0  0  0  0  0  0  0  0  0
  148.9795  142.8074  156.9620 H   0  0  0  0  0  0  0  0  0  0  0  0
  148.2215  140.6012  157.4707 H   0  0  0  0  0  0  0  0  0  0  0  0
  149.0816  140.5779  158.9954 H   0  0  0  0  0  0  0  0  0  0  0  0
  148.3346  133.6200  159.0281 H   0  0  0  0  0  0  0  0  0  0  0  0
  1  2  1  0  0  0  0
  1 25  1  0  0  0  0
  1 26  1  0  0  0  0
  1 27  1  0  0  0  0
  2  3  1  0  0  0  0
  2 28  1  0  0  0  0
  2 29  1  0  0  0  0
  3 24  1  0  0  0  0
  3  4  1  0  0  0  0
  4  5  2  0  0  0  0
  4 30  1  0  0  0  0
  5  6  1  0  0  0  0
  5 31  1  0  0  0  0
  6  7  2  0  0  0  0
  6  8  1  0  0  0  0
  8  9  1  0  0  0  0
  8 24  2  0  0  0  0
  9 10  1  0  0  0  0
  9 32  1  0  0  0  0
 10 11  2  0  0  0  0
 10 12  1  0  0  0  0
 12 13  1  0  0  0  0
 12 33  1  0  0  0  0
 13 19  1  0  0  0  0
 13 14  1  0  0  0  0
 13 34  1  0  0  0  0
 14 18  1  0  0  0  0
 14 15  1  0  0  0  0
 14 35  1  0  0  0  0
 15 16  1  0  0  0  0
 15 36  1  0  0  0  0
 15 37  1  0  0  0  0
 16 17  1  0  0  0  0
 16 38  1  0  0  0  0
 16 39  1  0  0  0  0
 17 18  1  0  0  0  0
 18 19  1  0  0  0  0
 18 40  1  0  0  0  0
 19 23  1  0  0  0  0
 19 20  1  0  0  0  0
 20 21  1  0  0  0  0
 20 41  1  0  0  0  0
 20 42  1  0  0  0  0
 21 22  1  0  0  0  0
 21 43  1  0  0  0  0
 21 44  1  0  0  0  0
 22 23  1  0  0  0  0
 22 45  1  0  0  0  0
 22 46  1  0  0  0  0
 23 47  1  0  0  0  0
 23 48  1  0  0  0  0
 24 49  1  0  0  0  0
M  END
> <s_m_source_file>
AV-unprocessed.smi

> <i_m_source_file_index>
2339

> <i_lp_mmshare_version>
43012

> <i_f3d_flags>
0

> <s_epik_input>
W0NIM11bQ0gyXW4xW2NIXVtjSF1jKD1PKWMoW2NIXTEpW05IXUMoPU8pW05IXVtDQEBIXTJbQ0BASF0oW0NIMl1bQ0gyXU8zKVtDQEBIXTNDMjRbQ0gyXVtDSDJdW0NIMl1bQ0gyXTQ=

> <s_epik_cmdline>
J2VwaWtfcHl0aG9uJywgJy1waCcsICc3LjAnLCAnLXRuJywgJzgnLCAnLW1hJywgJzIwMCcsICctbWV0YWxfYmluZGluZycsICctaW1hZScsICc8aW5maWxlLm1hZT4nLCAnLW9tYWUnLCAnPG91dGZpbGUubWFlPic=

> <r_lp_tautomer_probability>
1

> <r_epik_Ionization_Penalty>
0.00145966

> <r_epik_Ionization_Penalty_Charging>
0.00143969

> <r_epik_Ionization_Penalty_Neutral>
1.99697e-05

> <r_epik_State_Penalty>
0.000961843

> <r_epik_Charging_Adjusted_Penalty>
0.00240153

> <i_epik_Tot_Q>
0

> <i_epik_Tot_abs_Q>
0

> <r_epik_Metal_State_Penalty>
-0

> <b_epik_Metal_Only>
0

> <s_lp_Force_Field>
OPLS_2005

> <r_lp_Energy>
82.1358

> <b_lp_Chiralities_Consistent>
1

> <s_lp_Variant>
AV-unprocessed.smi:2339-6

> <Gold.Version>
5.8.1

> <Gold.Id.Protein>
6NUR|6NUR_protein|mol2

> <Gold.PLP.Fitness>
48.9112

> <Gold.PLP.PLP>
-39.3486

> <Gold.PLP.part.hbond>
-4.2772

> <Gold.PLP.part.metal>
0.0000

> <Gold.PLP.part.buried>
-5.8027

> <Gold.PLP.part.nonpolar>
-29.4483

> <Gold.PLP.part.repulsive>
0.3530

> <Gold.PLP.ligand.clash>
0.0000

> <Gold.PLP.ligand.torsion>
0.8819

> <Gold.PLP.Chemscore.Hbond>
3.6820

> <Gold.PLP.Chemscore.CHOScore>
0.0000

> <Gold.PLP.Chemscore.Metal>
0.0000

> <Gold.Chemscore.Hbonds>
donor molecule, donor type, donor heavy atom, donor atom, acceptor molecule, acceptor atom, score
      P1  H  6896  6908       L1    11  1.00
      P1  H  6931  6943       L1     7  1.00
      P1  H  6934  6947       L1     7  0.59
      P1  H  7989  7998       L1    17  0.95

> <Gold.PLP.Chemscore.Internal.Correction>
0.2804

> <Gold.Rescore>
     Score         DG    S(hbond)    S(metal)    S(lipo)     H(rot)  DE(clash)    DE(int)     intcor
     23.96     -24.96       3.66        0.00      87.43       1.17       0.07       0.93       ----

> <Gold.Chemscore.Fitness>
23.9620

> <Gold.Chemscore.DG>
-24.9550

> <Gold.Chemscore.ZeroCoef>
-5.4800

> <Gold.Chemscore.Hbond>
3.6626

> <Gold.Chemscore.Metal>
0.0000

> <Gold.Chemscore.Lipo>
87.4292

> <Gold.Chemscore.Internal_Hbond>
0.0000

> <Gold.Chemscore.DEClash>
0.0654

> <Gold.Chemscore.DEInternal>
0.9276

> <Gold.Chemscore.Rot>
1.1670

> <Gold.Chemscore.Internal.Correction>
   9.000000E+99

> <Gold.Chemscore.Hbonds>
donor molecule, donor type, donor heavy atom, donor atom, acceptor molecule, acceptor atom, score
      P1  H  6896  6908       L1    11  0.55
      P1  H  6931  6943       L1     7  0.96
      P1  H  6934  6947       L1     7  0.59
      P1  H  7989  7998       L1    17  0.22

> <Gold.Chemscore.Hbond.Weighted>
-12.2332

> <Gold.Chemscore.Metal.Weighted>
-0.0000

> <Gold.Chemscore.Lipo.Weighted>
-10.2292

> <Gold.Chemscore.Internal_Hbond.Weighted>
0.0000

> <Gold.Chemscore.DEClash.Weighted>
0.0654

> <Gold.Chemscore.DEInternal.Weighted>
0.9276

> <Gold.Chemscore.Rot.Weighted>
2.9874

> <Gold.Chemscore.Internal.Correction.Weighted>
   9.000000E+99

> <Gold.Protein.RotatedTorsions>
[ 6907 6896 6895 6894 ] final -152.17 input  -60.11 | X-H torsion
[ 7974 7965 7964 7962 ] final -107.35 input  175.53 | X-H torsion
[ 8008 7997 7996 7995 ] final  -75.78 input   59.86 | X-H torsion
[ 10167 10162 10161 10158 ] final -127.36 input  -65.29 | X-H torsion
[ 10718 10713 10712 10709 ] final -104.66 input   66.30 | X-H torsion
[ 10763 10752 10751 10750 ] final  -30.61 input  -60.55 | X-H torsion
[ 11005 11000 10999 10996 ] final   45.58 input  -57.11 | X-H torsion

> <Gold.Protein.ActiveResidues>
 VAL166  LYS551  ARG553  GLY616  TRP617  ASP618  TYR619  PRO620  LYS621  CYS622 
 ASP623  PHE694  ASN695  SER759  ASP760  ASP761  ALA762  ILE779  LEU786  VAL792 
 PHE793  MET794  SER795  GLU796  ALA797  LYS798  CYS799  TRP800  GLU811  SER814 

> <Gold.Protein.RotatedAtoms>
  151.2238  133.4488  159.2601 H   0  0  0  0  0  0  0  0  0  0  0  0  # atno 6907 bound_to 6896
  151.0859  134.9887  159.8389 H   0  0  0  0  0  0  0  0  0  0  0  0  # atno 6908 bound_to 6896
  152.5429  134.2175  159.8827 H   0  0  0  0  0  0  0  0  0  0  0  0  # atno 6909 bound_to 6896
  145.2064  140.9078  143.3339 H   0  0  0  0  0  0  0  0  0  0  0  0  # atno 7974 bound_to 7965
  154.5447  140.0738  156.8569 H   0  0  0  0  0  0  0  0  0  0  0  0  # atno 8008 bound_to 7997
  155.3111  140.3390  155.4226 H   0  0  0  0  0  0  0  0  0  0  0  0  # atno 8009 bound_to 7997
  156.1907  140.1685  156.8084 H   0  0  0  0  0  0  0  0  0  0  0  0  # atno 8010 bound_to 7997
  139.9617  143.5942  152.2443 H   0  0  0  0  0  0  0  0  0  0  0  0  # atno 10167 bound_to 10162
  156.0313  130.5526  150.7428 H   0  0  0  0  0  0  0  0  0  0  0  0  # atno 10718 bound_to 10713
  153.7838  135.6903  153.4883 H   0  0  0  0  0  0  0  0  0  0  0  0  # atno 10763 bound_to 10752
  153.1794  135.4512  155.0006 H   0  0  0  0  0  0  0  0  0  0  0  0  # atno 10764 bound_to 10752
  154.8071  135.3361  154.7339 H   0  0  0  0  0  0  0  0  0  0  0  0  # atno 10765 bound_to 10752
  140.1447  134.4539  155.8424 H   0  0  0  0  0  0  0  0  0  0  0  0  # atno 11005 bound_to 11000
  144.9897  139.3701  143.6221 LP  0  0  0  0  0  0  0  0  0  0  0  0  # atno 17320 bound_to 7965
  146.3407  139.9075  142.8785 LP  0  0  0  0  0  0  0  0  0  0  0  0  # atno 17321 bound_to 7965
  139.6549  144.7662  151.2076 LP  0  0  0  0  0  0  0  0  0  0  0  0  # atno 17342 bound_to 10162
  140.7551  143.6102  150.8613 LP  0  0  0  0  0  0  0  0  0  0  0  0  # atno 17343 bound_to 10162
  157.4992  131.0917  151.0335 LP  0  0  0  0  0  0  0  0  0  0  0  0  # atno 17370 bound_to 10713
  157.0720  130.5868  149.5404 LP  0  0  0  0  0  0  0  0  0  0  0  0  # atno 17371 bound_to 10713
  141.2191  133.6847  156.7311 LP  0  0  0  0  0  0  0  0  0  0  0  0  # atno 17394 bound_to 11000
  140.2679  134.8415  157.3820 LP  0  0  0  0  0  0  0  0  0  0  0  0  # atno 17395 bound_to 11000

$$$$
