#       Name:                AV-unprocessed.smi:1969
#       Creating user name   scv26
#       Creation time:       Fri Mar 27 10:12:55 2020


#       File generated by GOLD software.
#

@<TRIPOS>MOLECULE
AV-unprocessed.smi:1969
    52    53     1
SMALL
NO_CHARGES


@<TRIPOS>ATOM
      1 ****        -5.4194  -0.5718   2.7004 C.3            1 S1                 0.0000
      2 ****        -4.7273  -0.4154   1.3426 C.3            1 S1                 0.0000
      3 ****        -3.1941  -0.3537   1.4784 C.3            1 S1                 0.0000
      4 ****        -2.5779  -0.0843   0.1822 N.3            1 S1                 0.0000
      5 ****        -1.1813  -0.2794   0.1200 C.ar           1 S1                 0.0000
      6 ****        -0.6173  -1.5111   0.5275 C.ar           1 S1                 0.0000
      7 ****         0.7781  -1.6864   0.4620 C.ar           1 S1                 0.0000
      8 ****         1.5793  -0.6259  -0.0200 C.ar           1 S1                 0.0000
      9 ****         2.9965  -0.6693  -0.1093 N.am           1 S1                 0.0000
     10 ****         3.8029  -1.7441  -0.1905 C.2            1 S1                 0.0000
     11 ****         3.4132  -2.9106  -0.2217 O.2            1 S1                 0.0000
     12 ****         5.3041  -1.4575  -0.2489 C.3            1 S1                 0.0000
     13 ****         5.5340  -0.2703  -0.9931 O.3            1 S1                 0.0000
     14 ****         6.9095   0.0669  -1.0756 C.3            1 S1                 0.0000
     15 ****         7.0723   1.3572  -1.8881 C.3            1 S1                 0.0000
     16 ****         8.3665   1.6620  -1.9742 F              1 S1                 0.0000
     17 ****         6.5890   1.1905  -3.1189 F              1 S1                 0.0000
     18 ****         6.4347   2.3624  -1.2890 F              1 S1                 0.0000
     19 ****         0.9283   0.5657  -0.3957 C.ar           1 S1                 0.0000
     20 ****        -0.4087   0.7368  -0.3364 N.ar           1 S1                 0.0000
     21 ****        -3.1365   1.0869  -0.4895 C.3            1 S1                 0.0000
     22 ****        -4.6708   0.9807  -0.5697 C.3            1 S1                 0.0000
     23 ****        -5.3059   2.2437  -1.1601 C.3            1 S1                 0.0000
     24 ****        -5.1947   0.7887   0.7411 O.3            1 S1                 0.0000
     25 ****        -5.0995  -1.4858   3.2011 H              1 S1                 0.0000
     26 ****        -6.5020  -0.6189   2.5817 H              1 S1                 0.0000
     27 ****        -5.1922   0.2678   3.3580 H              1 S1                 0.0000
     28 ****        -5.0056  -1.2619   0.7124 H              1 S1                 0.0000
     29 ****        -2.9095   0.4391   2.1715 H              1 S1                 0.0000
     30 ****        -2.8376  -1.2900   1.9056 H              1 S1                 0.0000
     31 ****        -1.2356  -2.3233   0.8791 H              1 S1                 0.0000
     32 ****         1.2019  -2.6213   0.7937 H              1 S1                 0.0000
     33 ****         3.4548   0.2276  -0.1830 H              1 S1                 0.0000
     34 ****         5.6825  -1.3501   0.7687 H              1 S1                 0.0000
     35 ****         5.8205  -2.3000  -0.7122 H              1 S1                 0.0000
     36 ****         7.3212   0.2041  -0.0744 H              1 S1                 0.0000
     37 ****         7.4646  -0.7442  -1.5494 H              1 S1                 0.0000
     38 ****         1.4961   1.4095  -0.7595 H              1 S1                 0.0000
     39 ****        -2.8489   1.9859   0.0576 H              1 S1                 0.0000
     40 ****        -2.7263   1.1718  -1.4966 H              1 S1                 0.0000
     41 ****        -4.9482   0.1292  -1.1938 H              1 S1                 0.0000
     42 ****        -4.9447   2.4283  -2.1721 H              1 S1                 0.0000
     43 ****        -5.0736   3.1210  -0.5559 H              1 S1                 0.0000
     44 ****        -6.3910   2.1484  -1.2061 H              1 S1                 0.0000
     45 ****        -2.8667  -0.8313  -0.4166 LP             1 S1                 0.0000
     46 ****         2.4343  -3.1118  -0.1861 LP             1 S1                 0.0000
     47 ****         4.0753  -3.6575  -0.2827 LP             1 S1                 0.0000
     48 ****         5.0458   0.4831  -0.5524 LP             1 S1                 0.0000
     49 ****         5.1803  -0.3999  -1.9194 LP             1 S1                 0.0000
     50 ****        -0.8234   1.5999  -0.6247 LP             1 S1                 0.0000
     51 ****        -4.9194   1.5613   1.3132 LP             1 S1                 0.0000
     52 ****        -6.1926   0.7537   0.6860 LP             1 S1                 0.0000
@<TRIPOS>BOND
    1    1    2 1     
    2    1   25 1     
    3    1   26 1     
    4    1   27 1     
    5    2   24 1     
    6    2    3 1     
    7    2   28 1     
    8    3    4 1     
    9    3   29 1     
   10    3   30 1     
   11    4    5 1     
   12    4   21 1     
   13    5   20 ar    
   14    5    6 ar    
   15    6    7 ar    
   16    6   31 1     
   17    7    8 ar    
   18    7   32 1     
   19    8    9 1     
   20    8   19 ar    
   21    9   10 am    
   22    9   33 1     
   23   10   11 2     
   24   10   12 1     
   25   12   13 1     
   26   12   34 1     
   27   12   35 1     
   28   13   14 1     
   29   14   15 1     
   30   14   36 1     
   31   14   37 1     
   32   15   16 1     
   33   15   17 1     
   34   15   18 1     
   35   19   20 ar    
   36   19   38 1     
   37   21   22 1     
   38   21   39 1     
   39   21   40 1     
   40   22   23 1     
   41   22   24 1     
   42   22   41 1     
   43   23   42 1     
   44   23   43 1     
   45   23   44 1     
   46    4   45 1     
   47   11   46 1     
   48   11   47 1     
   49   13   48 1     
   50   13   49 1     
   51   20   50 1     
   52   24   51 1     
   53   24   52 1     
@<TRIPOS>SUBSTRUCTURE
      1 S1             1
@<TRIPOS>SET
LONE_PAIRS      STATIC     ATOMS    <user>   **** ""
8 45 46 47 48 49 50 51 52
DONOR_HYDROGENS      STATIC     ATOMS    <user>   **** ""
1 33
ATOM$BLUE        STATIC     ATOMS    COLORGROUP SYSTEM
8 45 46 47 48 49 50 51 52
ATOM$RED        STATIC     ATOMS    COLORGROUP SYSTEM
1 33
