#       Name:                AV-unprocessed.smi:1368
#       Creating user name   scv26
#       Creation time:       Fri Mar 27 05:17:32 2020


#       File generated by GOLD software.
#

@<TRIPOS>MOLECULE
AV-unprocessed.smi:1368
    53    55     1
SMALL
NO_CHARGES


@<TRIPOS>ATOM
      1 ****        -8.7425   1.8053   0.0525 C.3            1 S1                 0.0000
      2 ****        -7.3340   1.2910   0.3320 C.2            1 S1                 0.0000
      3 ****        -7.1644   0.4278   1.1922 O.2            1 S1                 0.0000
      4 ****        -6.3540   1.8559  -0.3969 N.am           1 S1                 0.0000
      5 ****        -4.9585   1.5887  -0.3614 C.ar           1 S1                 0.0000
      6 ****        -4.0909   2.6116  -0.7932 C.ar           1 S1                 0.0000
      7 ****        -2.6975   2.4110  -0.7984 C.ar           1 S1                 0.0000
      8 ****        -2.1429   1.1832  -0.3855 C.ar           1 S1                 0.0000
      9 ****        -0.7693   1.0726  -0.4205 O.3            1 S1                 0.0000
     10 ****        -0.1827  -0.1545  -0.0070 C.3            1 S1                 0.0000
     11 ****         1.3450  -0.0402  -0.1261 C.3            1 S1                 0.0000
     12 ****         1.8311   0.6462   1.0106 O.3            1 S1                 0.0000
     13 ****         2.0170  -1.4253  -0.2112 C.3            1 S1                 0.0000
     14 ****         3.4807  -1.3476  -0.3491 N.pl3          1 S1                 0.0000
     15 ****         4.2460  -1.1857  -1.4660 C.2            1 S1                 0.0000
     16 ****         3.7571  -1.0398  -2.8678 C.3            1 S1                 0.0000
     17 ****         5.5492  -1.1848  -1.0675 N.pl3          1 S1                 1.0000
     18 ****         5.6195  -1.3453   0.3169 C.ar           1 S1                 0.0000
     19 ****         6.7162  -1.4062   1.1713 C.ar           1 S1                 0.0000
     20 ****         6.4403  -1.5725   2.5443 C.ar           1 S1                 0.0000
     21 ****         5.1168  -1.6706   3.0202 C.ar           1 S1                 0.0000
     22 ****         4.0131  -1.6098   2.1440 C.ar           1 S1                 0.0000
     23 ****         4.2938  -1.4474   0.7871 C.ar           1 S1                 0.0000
     24 ****        -3.0165   0.1475   0.0300 C.ar           1 S1                 0.0000
     25 ****        -4.4107   0.3468   0.0378 C.ar           1 S1                 0.0000
     26 ****        -8.7565   2.8953   0.0214 H              1 S1                 0.0000
     27 ****        -9.4355   1.4793   0.8291 H              1 S1                 0.0000
     28 ****        -9.0998   1.4270  -0.9056 H              1 S1                 0.0000
     29 ****        -6.6341   2.6163  -0.9990 H              1 S1                 0.0000
     30 ****        -4.4909   3.5618  -1.1162 H              1 S1                 0.0000
     31 ****        -2.0468   3.2093  -1.1243 H              1 S1                 0.0000
     32 ****        -0.4721  -0.4194   1.0118 H              1 S1                 0.0000
     33 ****        -0.5381  -0.9441  -0.6713 H              1 S1                 0.0000
     34 ****         1.6002   0.5324  -1.0186 H              1 S1                 0.0000
     35 ****         1.4207   1.4974   1.0424 H              1 S1                 0.0000
     36 ****         1.7668  -2.0409   0.6530 H              1 S1                 0.0000
     37 ****         1.6428  -1.9650  -1.0819 H              1 S1                 0.0000
     38 ****         4.5911  -0.8678  -3.5487 H              1 S1                 0.0000
     39 ****         3.0703  -0.1967  -2.9421 H              1 S1                 0.0000
     40 ****         3.2352  -1.9443  -3.1802 H              1 S1                 0.0000
     41 ****         7.7308  -1.3295   0.8088 H              1 S1                 0.0000
     42 ****         7.2600  -1.6240   3.2462 H              1 S1                 0.0000
     43 ****         4.9435  -1.7940   4.0796 H              1 S1                 0.0000
     44 ****         3.0040  -1.6795   2.5218 H              1 S1                 0.0000
     45 ****        -2.6433  -0.8151   0.3445 H              1 S1                 0.0000
     46 ****        -5.0419  -0.4740   0.3413 H              1 S1                 0.0000
     47 ****         6.3328  -1.0813  -1.6992 H              1 S1                 0.0000
     48 ****        -7.9466   0.0691   1.7016 LP             1 S1                 0.0000
     49 ****        -6.2444   0.0849   1.3819 LP             1 S1                 0.0000
     50 ****        -0.3990   1.7912   0.1681 LP             1 S1                 0.0000
     51 ****        -0.4829   1.2346  -1.3648 LP             1 S1                 0.0000
     52 ****         2.8232   0.7517   0.9430 LP             1 S1                 0.0000
     53 ****         1.6062   0.1315   1.8379 LP             1 S1                 0.0000
@<TRIPOS>BOND
    1    1    2 1     
    2    1   26 1     
    3    1   27 1     
    4    1   28 1     
    5    2    3 2     
    6    2    4 am    
    7    4    5 1     
    8    4   29 1     
    9    5   25 ar    
   10    5    6 ar    
   11    6    7 ar    
   12    6   30 1     
   13    7    8 ar    
   14    7   31 1     
   15    8    9 1     
   16    8   24 ar    
   17    9   10 1     
   18   10   11 1     
   19   10   32 1     
   20   10   33 1     
   21   11   12 1     
   22   11   13 1     
   23   11   34 1     
   24   12   35 1     
   25   13   14 1     
   26   13   36 1     
   27   13   37 1     
   28   14   23 1     
   29   14   15 1     
   30   15   16 1     
   31   15   17 2     
   32   16   38 1     
   33   16   39 1     
   34   16   40 1     
   35   17   18 1     
   36   17   47 1     
   37   18   23 ar    
   38   18   19 ar    
   39   19   20 ar    
   40   19   41 1     
   41   20   21 ar    
   42   20   42 1     
   43   21   22 ar    
   44   21   43 1     
   45   22   23 ar    
   46   22   44 1     
   47   24   25 ar    
   48   24   45 1     
   49   25   46 1     
   50    3   48 1     
   51    3   49 1     
   52    9   50 1     
   53    9   51 1     
   54   12   52 1     
   55   12   53 1     
@<TRIPOS>SUBSTRUCTURE
      1 S1             1
@<TRIPOS>SET
LONE_PAIRS      STATIC     ATOMS    <user>   **** ""
6 48 49 50 51 52 53
DONOR_HYDROGENS      STATIC     ATOMS    <user>   **** ""
3 29 35 47
ATOM$BLUE        STATIC     ATOMS    COLORGROUP SYSTEM
6 48 49 50 51 52 53
ATOM$RED        STATIC     ATOMS    COLORGROUP SYSTEM
3 29 35 47
