AV-unprocessed.smi:2759|AV-procd|sdf|10627|dock7
  -GOLD-   2272015 73D 1   1.00000     0.00000
 Structure written by MMmdl.
 43 44  0  0  0  0  0  0  0  0  1 V2000
  151.8755  143.0278  160.3554 C   0  0  0  0  0  0  0  0  0  0  0  0
  151.9029  143.6771  158.9591 C   0  0  0  0  0  0  0  0  0  0  0  0
  151.2229  145.0580  159.0379 C   0  0  0  0  0  0  0  0  0  0  0  0
  151.2616  142.7810  157.8657 C   0  0  1  0  0  0  0  0  0  0  0  0
  151.4975  143.3735  156.6013 O   0  0  0  0  0  0  0  0  0  0  0  0
  151.8264  141.3441  157.8114 C   0  0  0  0  0  0  0  0  0  0  0  0
  151.4081  140.5954  156.5876 C   0  0  0  0  0  0  0  0  0  0  0  0
  151.7716  139.3651  156.2339 N   0  0  0  0  0  0  0  0  0  0  0  0
  151.1301  139.2352  155.0392 C   0  0  0  0  0  0  0  0  0  0  0  0
  151.2010  137.9899  154.2111 C   0  0  0  0  0  0  0  0  0  0  0  0
  150.6886  136.7638  154.9765 C   0  0  0  0  0  0  0  0  0  0  0  0
  151.2434  136.3890  156.0107 O   0  0  0  0  0  0  0  0  0  0  0  0
  149.6231  136.1410  154.4491 N   0  0  0  0  0  0  0  0  0  0  0  0
  148.9701  134.9645  155.0180 C   0  0  0  0  0  0  0  0  0  0  0  0
  149.9988  133.8590  155.3249 C   0  0  0  0  0  0  0  0  0  0  0  0
  149.4274  132.5712  154.7290 C   0  0  0  0  0  0  0  0  0  0  0  0
  148.5919  133.0426  153.5434 C   0  0  0  0  0  0  0  0  0  0  0  0
  147.9620  134.3489  154.0274 C   0  0  0  0  0  0  0  0  0  0  0  0
  150.4428  140.2973  154.6332 N   0  0  0  0  0  0  0  0  0  0  0  0
  150.6304  141.2211  155.6714 O   0  0  0  0  0  0  0  0  0  0  0  0
  150.8613  142.7488  160.6430 H   0  0  0  0  0  0  0  0  0  0  0  0
  152.2556  143.7138  161.1131 H   0  0  0  0  0  0  0  0  0  0  0  0
  152.4988  142.1362  160.4068 H   0  0  0  0  0  0  0  0  0  0  0  0
  152.9489  143.8420  158.6954 H   0  0  0  0  0  0  0  0  0  0  0  0
  150.1612  144.9632  159.2681 H   0  0  0  0  0  0  0  0  0  0  0  0
  151.3127  145.6098  158.1021 H   0  0  0  0  0  0  0  0  0  0  0  0
  151.6755  145.6757  159.8142 H   0  0  0  0  0  0  0  0  0  0  0  0
  150.1842  142.7400  158.0335 H   0  0  0  0  0  0  0  0  0  0  0  0
  150.6688  143.6429  156.2348 H   0  0  0  0  0  0  0  0  0  0  0  0
  152.9156  141.3552  157.8726 H   0  0  0  0  0  0  0  0  0  0  0  0
  151.4804  140.7595  158.6618 H   0  0  0  0  0  0  0  0  0  0  0  0
  150.6212  138.1332  153.2979 H   0  0  0  0  0  0  0  0  0  0  0  0
  152.2329  137.8110  153.9074 H   0  0  0  0  0  0  0  0  0  0  0  0
  149.2294  136.5124  153.5967 H   0  0  0  0  0  0  0  0  0  0  0  0
  148.4521  135.2388  155.9391 H   0  0  0  0  0  0  0  0  0  0  0  0
  150.9552  134.0771  154.8467 H   0  0  0  0  0  0  0  0  0  0  0  0
  150.1899  133.7611  156.3941 H   0  0  0  0  0  0  0  0  0  0  0  0
  150.2027  131.8602  154.4422 H   0  0  0  0  0  0  0  0  0  0  0  0
  148.7815  132.0831  155.4600 H   0  0  0  0  0  0  0  0  0  0  0  0
  149.2427  133.2410  152.6906 H   0  0  0  0  0  0  0  0  0  0  0  0
  147.8487  132.3074  153.2331 H   0  0  0  0  0  0  0  0  0  0  0  0
  147.0333  134.1260  154.5544 H   0  0  0  0  0  0  0  0  0  0  0  0
  147.7062  135.0099  153.1981 H   0  0  0  0  0  0  0  0  0  0  0  0
  1  2  1  0  0  0  0
  1 21  1  0  0  0  0
  1 22  1  0  0  0  0
  1 23  1  0  0  0  0
  2  3  1  0  0  0  0
  2  4  1  0  0  0  0
  2 24  1  0  0  0  0
  3 25  1  0  0  0  0
  3 26  1  0  0  0  0
  3 27  1  0  0  0  0
  4  5  1  0  0  0  0
  4  6  1  0  0  0  0
  4 28  1  0  0  0  0
  5 29  1  0  0  0  0
  6  7  1  0  0  0  0
  6 30  1  0  0  0  0
  6 31  1  0  0  0  0
  7 20  1  0  0  0  0
  7  8  2  0  0  0  0
  8  9  1  0  0  0  0
  9 10  1  0  0  0  0
  9 19  2  0  0  0  0
 10 11  1  0  0  0  0
 10 32  1  0  0  0  0
 10 33  1  0  0  0  0
 11 12  2  0  0  0  0
 11 13  1  0  0  0  0
 13 14  1  0  0  0  0
 13 34  1  0  0  0  0
 14 18  1  0  0  0  0
 14 15  1  0  0  0  0
 14 35  1  0  0  0  0
 15 16  1  0  0  0  0
 15 36  1  0  0  0  0
 15 37  1  0  0  0  0
 16 17  1  0  0  0  0
 16 38  1  0  0  0  0
 16 39  1  0  0  0  0
 17 18  1  0  0  0  0
 17 40  1  0  0  0  0
 17 41  1  0  0  0  0
 18 42  1  0  0  0  0
 18 43  1  0  0  0  0
 19 20  1  0  0  0  0
M  END
> <s_m_source_file>
AV-unprocessed.smi

> <i_m_source_file_index>
2759

> <i_lp_mmshare_version>
43012

> <i_f3d_flags>
0

> <s_epik_input>
W0NIM11bQ0hdKFtDSDNdKVtDQEhdKFtPSF0pW0NIMl1jMW5jKG5vMSlbQ0gyXUMoPU8pW05IXVtDSF0yW0NIMl1bQ0gyXVtDSDJdW0NIMl0y

> <s_epik_cmdline>
J2VwaWtfcHl0aG9uJywgJy1waCcsICc3LjAnLCAnLXRuJywgJzgnLCAnLW1hJywgJzIwMCcsICctbWV0YWxfYmluZGluZycsICctaW1hZScsICc8aW5maWxlLm1hZT4nLCAnLW9tYWUnLCAnPG91dGZpbGUubWFlPic=

> <r_lp_tautomer_probability>
1

> <r_epik_Ionization_Penalty>
1.20032e-07

> <r_epik_Ionization_Penalty_Charging>
0

> <r_epik_Ionization_Penalty_Neutral>
1.20032e-07

> <r_epik_State_Penalty>
-0

> <r_epik_Charging_Adjusted_Penalty>
0

> <i_epik_Tot_Q>
0

> <i_epik_Tot_abs_Q>
0

> <r_epik_Metal_State_Penalty>
-0

> <b_epik_Metal_Only>
0

> <s_lp_Force_Field>
OPLS_2005

> <r_lp_Energy>
21.2868

> <b_lp_Chiralities_Consistent>
1

> <s_lp_Variant>
AV-unprocessed.smi:2759-2

> <Gold.Version>
5.8.1

> <Gold.Id.Protein>
6NUR|6NUR_protein|mol2

> <Gold.PLP.Fitness>
50.2799

> <Gold.PLP.PLP>
-40.8000

> <Gold.PLP.part.hbond>
-4.3655

> <Gold.PLP.part.metal>
0.0000

> <Gold.PLP.part.buried>
-5.0698

> <Gold.PLP.part.nonpolar>
-31.0786

> <Gold.PLP.part.repulsive>
0.2316

> <Gold.PLP.ligand.clash>
0.0051

> <Gold.PLP.ligand.torsion>
0.2208

> <Gold.PLP.Chemscore.Hbond>
3.2920

> <Gold.PLP.Chemscore.CHOScore>
0.0000

> <Gold.PLP.Chemscore.Metal>
0.0000

> <Gold.Chemscore.Hbonds>
donor molecule, donor type, donor heavy atom, donor atom, acceptor molecule, acceptor atom, score
      L1  H     5    29       P1  8028  0.71
      L1  H    13    34       P1  7948  0.90
      P1  H  7989  7998       L1    19  0.85
      P1  H 10752 10763       L1    12  0.27

> <Gold.PLP.Chemscore.Internal.Correction>
0.0507

> <Gold.Rescore>
     Score         DG    S(hbond)    S(metal)    S(lipo)     H(rot)  DE(clash)    DE(int)     intcor
     14.21     -17.25       2.55        0.00      85.83       2.65       0.20       2.84       ----

> <Gold.Chemscore.Fitness>
14.2091

> <Gold.Chemscore.DG>
-17.2478

> <Gold.Chemscore.ZeroCoef>
-5.4800

> <Gold.Chemscore.Hbond>
2.5509

> <Gold.Chemscore.Metal>
0.0000

> <Gold.Chemscore.Lipo>
85.8343

> <Gold.Chemscore.Internal_Hbond>
0.0000

> <Gold.Chemscore.DEClash>
0.2012

> <Gold.Chemscore.DEInternal>
2.8374

> <Gold.Chemscore.Rot>
2.6543

> <Gold.Chemscore.Internal.Correction>
   9.000000E+99

> <Gold.Chemscore.Hbonds>
donor molecule, donor type, donor heavy atom, donor atom, acceptor molecule, acceptor atom, score
      L1  H     5    29       P1  8028  0.71
      L1  H    13    34       P1  7948  0.84
      P1  H  7989  7998       L1    19  0.04
      P1  H 10752 10763       L1    12  0.03

> <Gold.Chemscore.Hbond.Weighted>
-8.5202

> <Gold.Chemscore.Metal.Weighted>
-0.0000

> <Gold.Chemscore.Lipo.Weighted>
-10.0426

> <Gold.Chemscore.Internal_Hbond.Weighted>
0.0000

> <Gold.Chemscore.DEClash.Weighted>
0.2012

> <Gold.Chemscore.DEInternal.Weighted>
2.8374

> <Gold.Chemscore.Rot.Weighted>
6.7950

> <Gold.Chemscore.Internal.Correction.Weighted>
   9.000000E+99

> <Gold.Protein.RotatedTorsions>
[ 6907 6896 6895 6894 ] final  -58.84 input  -60.11 | X-H torsion
[ 7974 7965 7964 7962 ] final -151.34 input  175.53 | X-H torsion
[ 8008 7997 7996 7995 ] final  155.32 input   59.86 | X-H torsion
[ 10167 10162 10161 10158 ] final   48.72 input  -65.29 | X-H torsion
[ 10718 10713 10712 10709 ] final    2.15 input   66.30 | X-H torsion
[ 10763 10752 10751 10750 ] final   81.44 input  -60.55 | X-H torsion
[ 11005 11000 10999 10996 ] final   14.54 input  -57.11 | X-H torsion

> <Gold.Protein.ActiveResidues>
 VAL166  LYS551  ARG553  GLY616  TRP617  ASP618  TYR619  PRO620  LYS621  CYS622 
 ASP623  PHE694  ASN695  SER759  ASP760  ASP761  ALA762  ILE779  LEU786  VAL792 
 PHE793  MET794  SER795  GLU796  ALA797  LYS798  CYS799  TRP800  GLU811  SER814 

> <Gold.Protein.RotatedAtoms>
  150.7976  134.7046  159.6569 H   0  0  0  0  0  0  0  0  0  0  0  0  # atno 6907 bound_to 6896
  152.4090  134.6154  160.0046 H   0  0  0  0  0  0  0  0  0  0  0  0  # atno 6908 bound_to 6896
  151.6403  133.3289  159.3165 H   0  0  0  0  0  0  0  0  0  0  0  0  # atno 6909 bound_to 6896
  144.7855  140.4811  143.5809 H   0  0  0  0  0  0  0  0  0  0  0  0  # atno 7974 bound_to 7965
  156.2485  140.1943  156.6782 H   0  0  0  0  0  0  0  0  0  0  0  0  # atno 8008 bound_to 7997
  154.6341  140.0592  156.9794 H   0  0  0  0  0  0  0  0  0  0  0  0  # atno 8009 bound_to 7997
  155.1664  140.3264  155.4404 H   0  0  0  0  0  0  0  0  0  0  0  0  # atno 8010 bound_to 7997
  140.2903  144.3053  150.6242 H   0  0  0  0  0  0  0  0  0  0  0  0  # atno 10167 bound_to 10162
  156.8587  130.5579  149.5664 H   0  0  0  0  0  0  0  0  0  0  0  0  # atno 10718 bound_to 10713
  153.1117  135.4765  154.9047 H   0  0  0  0  0  0  0  0  0  0  0  0  # atno 10763 bound_to 10752
  154.7488  135.3100  154.8599 H   0  0  0  0  0  0  0  0  0  0  0  0  # atno 10764 bound_to 10752
  153.9186  135.6857  153.4802 H   0  0  0  0  0  0  0  0  0  0  0  0  # atno 10765 bound_to 10752
  140.4684  134.1056  155.7728 H   0  0  0  0  0  0  0  0  0  0  0  0  # atno 11005 bound_to 11000
  145.5932  139.1497  143.3170 LP  0  0  0  0  0  0  0  0  0  0  0  0  # atno 17320 bound_to 7965
  146.2085  140.6057  142.9070 LP  0  0  0  0  0  0  0  0  0  0  0  0  # atno 17321 bound_to 7965
  140.5738  143.2178  151.7552 LP  0  0  0  0  0  0  0  0  0  0  0  0  # atno 17342 bound_to 10162
  139.4939  144.4179  152.0009 LP  0  0  0  0  0  0  0  0  0  0  0  0  # atno 17343 bound_to 10162
  156.0788  130.5804  150.9525 LP  0  0  0  0  0  0  0  0  0  0  0  0  # atno 17370 bound_to 10713
  157.6262  131.0925  150.8528 LP  0  0  0  0  0  0  0  0  0  0  0  0  # atno 17371 bound_to 10713
  141.1588  133.8831  157.1903 LP  0  0  0  0  0  0  0  0  0  0  0  0  # atno 17394 bound_to 11000
  139.9901  135.0068  156.9954 LP  0  0  0  0  0  0  0  0  0  0  0  0  # atno 17395 bound_to 11000

$$$$
