AV-unprocessed.smi:21|AV-procd|sdf|127|dock2
  -GOLD-   2262015303D 1   1.00000     0.00000
 Structure written by MMmdl.
 62 65  0  0  0  0  0  0  0  0  2 V2000
  151.9877  143.7747  158.1691 C   0  0  0  0  0  0  0  0  0  0  0  0
  150.7651  143.0620  158.2705 O   0  0  0  0  0  0  0  0  0  0  0  0
  150.8159  141.7540  157.7157 C   0  0  1  0  0  0  0  0  0  0  0  0
  149.4814  141.0617  157.9618 C   0  0  0  0  0  0  0  0  0  0  0  0
  148.5644  141.5966  156.8529 C   0  0  2  0  0  0  0  0  0  0  0  0
  147.4125  140.6265  156.4827 C   0  0  0  0  0  0  0  0  0  0  0  0
  146.3416  140.6021  157.4788 N   0  0  0  0  0  0  0  0  0  0  0  0
  145.5701  141.8272  157.6871 C   0  0  0  0  0  0  0  0  0  0  0  0
  145.8415  139.4182  157.9446 C   0  0  0  0  0  0  0  0  0  0  0  0
  144.4897  139.2591  157.9707 N   0  0  0  0  0  0  0  0  0  0  0  0
  143.9360  138.1225  158.3992 C   0  0  0  0  0  0  0  0  0  0  0  0
  144.5378  137.0206  158.8437 N   0  0  0  0  0  0  0  0  0  0  0  0
  145.8926  137.1633  158.8321 C   0  0  0  0  0  0  0  0  0  0  0  0
  146.6235  138.3133  158.4101 C   0  0  0  0  0  0  0  0  0  0  0  0
  147.9860  138.0670  158.5623 N   0  0  0  0  0  0  0  0  0  0  0  0
  148.0539  136.8528  159.0334 C   0  0  0  0  0  0  0  0  0  0  0  0
  146.8412  136.2323  159.2141 N   0  0  0  0  0  0  0  0  0  0  0  0
  146.6130  134.8884  159.7128 C   0  0  0  0  0  0  0  0  0  0  0  0
  147.3904  134.5633  161.0165 C   0  0  1  0  0  0  0  0  0  0  0  0
  147.0163  135.5198  162.1782 C   0  0  0  0  0  0  0  0  0  0  0  0
  147.5514  136.8153  161.9980 O   0  0  0  0  0  0  0  0  0  0  0  0
  147.1712  133.0804  161.4172 C   0  0  2  0  0  0  0  0  0  0  0  0
  147.6529  132.0583  160.3994 C   0  0  0  0  0  0  0  0  0  0  0  0
  146.8973  130.7997  160.8112 C   0  0  0  0  0  0  0  0  0  0  0  0
  145.6638  131.2504  161.3569 O   0  0  0  0  0  0  0  0  0  0  0  0
  145.7006  132.6616  161.5401 C   0  0  0  0  0  0  0  0  0  0  0  0
  149.4695  141.9892  155.7334 N   0  3  2  0  0  0  0  0  0  0  0  0
  149.2065  141.4149  154.3932 C   0  0  0  0  0  0  0  0  0  0  0  0
  150.8672  141.8091  156.1864 C   0  0  0  0  0  0  0  0  0  0  0  0
  151.6401  141.1807  158.1443 H   0  0  0  0  0  0  0  0  0  0  0  0
  148.1378  142.5364  157.2041 H   0  0  0  0  0  0  0  0  0  0  0  0
  151.8653  144.7683  158.5995 H   0  0  0  0  0  0  0  0  0  0  0  0
  152.3030  143.8964  157.1329 H   0  0  0  0  0  0  0  0  0  0  0  0
  152.7827  143.2688  158.7184 H   0  0  0  0  0  0  0  0  0  0  0  0
  149.6128  139.9845  157.8489 H   0  0  0  0  0  0  0  0  0  0  0  0
  149.0871  141.2429  158.9624 H   0  0  0  0  0  0  0  0  0  0  0  0
  146.9827  140.8579  155.5107 H   0  0  0  0  0  0  0  0  0  0  0  0
  147.8121  139.6177  156.3767 H   0  0  0  0  0  0  0  0  0  0  0  0
  145.3785  141.9864  158.7489 H   0  0  0  0  0  0  0  0  0  0  0  0
  144.6134  141.7752  157.1660 H   0  0  0  0  0  0  0  0  0  0  0  0
  146.1041  142.7023  157.3168 H   0  0  0  0  0  0  0  0  0  0  0  0
  142.8566  138.0915  158.3807 H   0  0  0  0  0  0  0  0  0  0  0  0
  148.9952  136.3705  159.2536 H   0  0  0  0  0  0  0  0  0  0  0  0
  145.5424  134.7530  159.8708 H   0  0  0  0  0  0  0  0  0  0  0  0
  146.8934  134.2036  158.9128 H   0  0  0  0  0  0  0  0  0  0  0  0
  148.4563  134.6837  160.8159 H   0  0  0  0  0  0  0  0  0  0  0  0
  145.9341  135.5838  162.2949 H   0  0  0  0  0  0  0  0  0  0  0  0
  147.4117  135.1621  163.1272 H   0  0  0  0  0  0  0  0  0  0  0  0
  146.8355  137.4302  161.9478 H   0  0  0  0  0  0  0  0  0  0  0  0
  147.6686  132.8832  162.3683 H   0  0  0  0  0  0  0  0  0  0  0  0
  147.3599  132.3566  159.3915 H   0  0  0  0  0  0  0  0  0  0  0  0
  148.7320  131.9053  160.4105 H   0  0  0  0  0  0  0  0  0  0  0  0
  146.7392  130.1171  159.9761 H   0  0  0  0  0  0  0  0  0  0  0  0
  147.4444  130.2643  161.5882 H   0  0  0  0  0  0  0  0  0  0  0  0
  145.2656  132.9364  162.5013 H   0  0  0  0  0  0  0  0  0  0  0  0
  145.1005  133.1226  160.7542 H   0  0  0  0  0  0  0  0  0  0  0  0
  149.2804  140.3267  154.4016 H   0  0  0  0  0  0  0  0  0  0  0  0
  149.9345  141.7943  153.6757 H   0  0  0  0  0  0  0  0  0  0  0  0
  148.2189  141.7007  154.0310 H   0  0  0  0  0  0  0  0  0  0  0  0
  151.5181  142.5904  155.7957 H   0  0  0  0  0  0  0  0  0  0  0  0
  151.2442  140.8547  155.8153 H   0  0  0  0  0  0  0  0  0  0  0  0
  149.3406  142.9863  155.6360 H   0  0  0  0  0  0  0  0  0  0  0  0
  1  2  1  0  0  0  0
  1 32  1  0  0  0  0
  1 33  1  0  0  0  0
  1 34  1  0  0  0  0
  2  3  1  0  0  0  0
  3 30  1  0  0  0  0
  3 29  1  0  0  0  0
  3  4  1  0  0  0  0
  4  5  1  0  0  0  0
  4 35  1  0  0  0  0
  4 36  1  0  0  0  0
  5 31  1  0  0  0  0
  5  6  1  0  0  0  0
  5 27  1  0  0  0  0
  6  7  1  0  0  0  0
  6 37  1  0  0  0  0
  6 38  1  0  0  0  0
  7  8  1  0  0  0  0
  7  9  1  0  0  0  0
  8 39  1  0  0  0  0
  8 40  1  0  0  0  0
  8 41  1  0  0  0  0
  9 14  1  0  0  0  0
  9 10  2  0  0  0  0
 10 11  1  0  0  0  0
 11 12  2  0  0  0  0
 11 42  1  0  0  0  0
 12 13  1  0  0  0  0
 13 17  1  0  0  0  0
 13 14  2  0  0  0  0
 14 15  1  0  0  0  0
 15 16  2  0  0  0  0
 16 17  1  0  0  0  0
 16 43  1  0  0  0  0
 17 18  1  0  0  0  0
 18 19  1  0  0  0  0
 18 44  1  0  0  0  0
 18 45  1  0  0  0  0
 19 20  1  0  0  0  0
 19 22  1  0  0  0  0
 19 46  1  0  0  0  0
 20 21  1  0  0  0  0
 20 47  1  0  0  0  0
 20 48  1  0  0  0  0
 21 49  1  0  0  0  0
 22 26  1  0  0  0  0
 22 23  1  0  0  0  0
 22 50  1  0  0  0  0
 23 24  1  0  0  0  0
 23 51  1  0  0  0  0
 23 52  1  0  0  0  0
 24 25  1  0  0  0  0
 24 53  1  0  0  0  0
 24 54  1  0  0  0  0
 25 26  1  0  0  0  0
 26 55  1  0  0  0  0
 26 56  1  0  0  0  0
 27 28  1  0  0  0  0
 27 29  1  0  0  0  0
 27 62  1  0  0  0  0
 28 57  1  0  0  0  0
 28 58  1  0  0  0  0
 28 59  1  0  0  0  0
 29 60  1  0  0  0  0
 29 61  1  0  0  0  0
M  CHG  1  27   1
M  END
> <s_m_source_file>
AV-unprocessed.smi

> <i_m_source_file_index>
21

> <i_lp_mmshare_version>
43012

> <i_f3d_flags>
0

> <s_epik_input>
W0NIM11PW0NASF0xW0NIMl1bQ0BIXShOKFtDSDNdKVtDSDJdMSlbQ0gyXU4oW0NIM10pYyhuW2NIXW4yKWMoYzIzKW5bY0hdbjNbQ0gyXVtDQEhdKFtDSDJdW09IXSlbQ0BASF00W0NIMl1bQ0gyXU9bQ0gyXTQ=

> <s_epik_cmdline>
J2VwaWtfcHl0aG9uJywgJy1waCcsICc3LjAnLCAnLXRuJywgJzgnLCAnLW1hJywgJzIwMCcsICctbWV0YWxfYmluZGluZycsICctaW1hZScsICc8aW5maWxlLm1hZT4nLCAnLW9tYWUnLCAnPG91dGZpbGUubWFlPic=

> <r_lp_tautomer_probability>
1

> <r_epik_Ionization_Penalty>
0.0157465

> <r_epik_Ionization_Penalty_Charging>
0.015354

> <r_epik_Ionization_Penalty_Neutral>
0.000392529

> <r_epik_State_Penalty>
0.0120612

> <r_epik_Charging_Adjusted_Penalty>
0.0274152

> <i_epik_Tot_Q>
1

> <i_epik_Tot_abs_Q>
1

> <r_epik_Metal_State_Penalty>
0.0121253

> <b_epik_Metal_Only>
0

> <s_lp_Force_Field>
OPLS_2005

> <r_lp_Energy>
61.4457

> <b_lp_Chiralities_Consistent>
1

> <s_lp_Variant>
AV-unprocessed.smi:21-7

> <Gold.Version>
5.8.1

> <Gold.Id.Protein>
6NUR|6NUR_protein|mol2

> <Gold.PLP.Fitness>
45.2365

> <Gold.PLP.PLP>
-37.7042

> <Gold.PLP.part.hbond>
-3.8240

> <Gold.PLP.part.metal>
0.0000

> <Gold.PLP.part.buried>
-3.8710

> <Gold.PLP.part.nonpolar>
-29.6717

> <Gold.PLP.part.repulsive>
0.3467

> <Gold.PLP.ligand.clash>
0.0000

> <Gold.PLP.ligand.torsion>
1.1492

> <Gold.PLP.Chemscore.Hbond>
2.9920

> <Gold.PLP.Chemscore.CHOScore>
0.0000

> <Gold.PLP.Chemscore.Metal>
0.0000

> <Gold.Chemscore.Hbonds>
donor molecule, donor type, donor heavy atom, donor atom, acceptor molecule, acceptor atom, score
      L1  H    27    62       P1  8028  2.00
      P1  H  6931  6943       L1    21  0.69

> <Gold.PLP.Chemscore.Internal.Correction>
0.8546

> <Gold.Rescore>
     Score         DG    S(hbond)    S(metal)    S(lipo)     H(rot)  DE(clash)    DE(int)     intcor
     11.29     -13.51       1.69        0.00      87.72       3.08       0.00       2.21       ----

> <Gold.Chemscore.Fitness>
11.2945

> <Gold.Chemscore.DG>
-13.5110

> <Gold.Chemscore.ZeroCoef>
-5.4800

> <Gold.Chemscore.Hbond>
1.6892

> <Gold.Chemscore.Metal>
0.0000

> <Gold.Chemscore.Lipo>
87.7204

> <Gold.Chemscore.Internal_Hbond>
0.0000

> <Gold.Chemscore.DEClash>
0.0021

> <Gold.Chemscore.DEInternal>
2.2144

> <Gold.Chemscore.Rot>
3.0758

> <Gold.Chemscore.Internal.Correction>
   9.000000E+99

> <Gold.Chemscore.Hbonds>
donor molecule, donor type, donor heavy atom, donor atom, acceptor molecule, acceptor atom, score
      L1  H    27    62       P1  8028  1.00
      P1  H  6931  6943       L1    21  0.08

> <Gold.Chemscore.Hbond.Weighted>
-5.6419

> <Gold.Chemscore.Metal.Weighted>
-0.0000

> <Gold.Chemscore.Lipo.Weighted>
-10.2633

> <Gold.Chemscore.Internal_Hbond.Weighted>
0.0000

> <Gold.Chemscore.DEClash.Weighted>
0.0021

> <Gold.Chemscore.DEInternal.Weighted>
2.2144

> <Gold.Chemscore.Rot.Weighted>
7.8741

> <Gold.Chemscore.Internal.Correction.Weighted>
   9.000000E+99

> <Gold.Protein.RotatedTorsions>
[ 6907 6896 6895 6894 ] final   70.04 input  -60.11 | X-H torsion
[ 7974 7965 7964 7962 ] final   81.59 input  175.53 | X-H torsion
[ 8008 7997 7996 7995 ] final   -0.31 input   59.86 | X-H torsion
[ 10167 10162 10161 10158 ] final   69.45 input  -65.29 | X-H torsion
[ 10718 10713 10712 10709 ] final   17.23 input   66.30 | X-H torsion
[ 10763 10752 10751 10750 ] final   26.89 input  -60.55 | X-H torsion
[ 11005 11000 10999 10996 ] final   93.10 input  -57.11 | X-H torsion

> <Gold.Protein.ActiveResidues>
 VAL166  LYS551  ARG553  GLY616  TRP617  ASP618  TYR619  PRO620  LYS621  CYS622 
 ASP623  PHE694  ASN695  SER759  ASP760  ASP761  ALA762  ILE779  LEU786  VAL792 
 PHE793  MET794  SER795  GLU796  ALA797  LYS798  CYS799  TRP800  GLU811  SER814 

> <Gold.Protein.RotatedAtoms>
  152.4724  134.4927  159.9700 H   0  0  0  0  0  0  0  0  0  0  0  0  # atno 6907 bound_to 6896
  151.4951  133.3510  159.2867 H   0  0  0  0  0  0  0  0  0  0  0  0  # atno 6908 bound_to 6896
  150.8742  134.8149  159.7239 H   0  0  0  0  0  0  0  0  0  0  0  0  # atno 6909 bound_to 6896
  145.6361  139.2415  143.2057 H   0  0  0  0  0  0  0  0  0  0  0  0  # atno 7974 bound_to 7965
  154.6595  140.2587  155.7124 H   0  0  0  0  0  0  0  0  0  0  0  0  # atno 8008 bound_to 7997
  156.2612  140.2851  156.0983 H   0  0  0  0  0  0  0  0  0  0  0  0  # atno 8009 bound_to 7997
  155.1329  140.0379  157.2769 H   0  0  0  0  0  0  0  0  0  0  0  0  # atno 8010 bound_to 7997
  140.0677  144.5179  150.7249 H   0  0  0  0  0  0  0  0  0  0  0  0  # atno 10167 bound_to 10162
  157.0791  130.6380  149.5822 H   0  0  0  0  0  0  0  0  0  0  0  0  # atno 10718 bound_to 10713
  153.0592  135.6549  154.0504 H   0  0  0  0  0  0  0  0  0  0  0  0  # atno 10763 bound_to 10752
  154.0175  135.2923  155.3386 H   0  0  0  0  0  0  0  0  0  0  0  0  # atno 10764 bound_to 10752
  154.6922  135.5278  153.8476 H   0  0  0  0  0  0  0  0  0  0  0  0  # atno 10765 bound_to 10752
  139.8814  134.8771  156.3668 H   0  0  0  0  0  0  0  0  0  0  0  0  # atno 11005 bound_to 11000
  146.1318  140.7176  142.9409 LP  0  0  0  0  0  0  0  0  0  0  0  0  # atno 17320 bound_to 7965
  144.7175  140.4259  143.7033 LP  0  0  0  0  0  0  0  0  0  0  0  0  # atno 17321 bound_to 7965
  140.7141  143.2529  151.4490 LP  0  0  0  0  0  0  0  0  0  0  0  0  # atno 17342 bound_to 10162
  139.5855  144.1614  152.2023 LP  0  0  0  0  0  0  0  0  0  0  0  0  # atno 17343 bound_to 10162
  155.9928  130.4988  150.7357 LP  0  0  0  0  0  0  0  0  0  0  0  0  # atno 17370 bound_to 10713
  157.4815  131.0903  151.0531 LP  0  0  0  0  0  0  0  0  0  0  0  0  # atno 17371 bound_to 10713
  140.9491  133.7463  156.0248 LP  0  0  0  0  0  0  0  0  0  0  0  0  # atno 17394 bound_to 11000
  140.8127  134.3381  157.5407 LP  0  0  0  0  0  0  0  0  0  0  0  0  # atno 17395 bound_to 11000

$$$$
