AV-unprocessed.smi:2471|AV-procd|sdf|9739|dock2
  -GOLD-   2272013383D 1   1.00000     0.00000
 Structure written by MMmdl.
 40 41  0  0  0  0  0  0  0  0  1 V2000
  151.9168  139.8838  155.7918 C   0  0  0  0  0  0  0  0  0  0  0  0
  150.5357  140.1034  155.2108 C   0  0  0  0  0  0  0  0  0  0  0  0
  149.8938  141.3529  155.3194 C   0  0  0  0  0  0  0  0  0  0  0  0
  148.6142  141.4920  154.7527 C   0  0  0  0  0  0  0  0  0  0  0  0
  148.0332  140.3843  154.1059 C   0  0  0  0  0  0  0  0  0  0  0  0
  148.7437  139.1644  154.0431 C   0  0  0  0  0  0  0  0  0  0  0  0
  148.0691  138.1104  153.3721 N   0  0  0  0  0  0  0  0  0  0  0  0
  146.7450  137.8947  153.2800 C   0  0  0  0  0  0  0  0  0  0  0  0
  145.8700  138.6038  153.7779 O   0  0  0  0  0  0  0  0  0  0  0  0
  146.4840  136.7905  152.5660 N   0  0  0  0  0  0  0  0  0  0  0  0
  145.1507  136.2720  152.2756 C   0  0  0  0  0  0  0  0  0  0  0  0
  145.1540  134.7629  151.9382 C   0  0  2  0  0  0  0  0  0  0  0  0
  146.5234  134.2556  151.4309 C   0  0  0  0  0  0  0  0  0  0  0  0
  146.4973  132.7442  151.1512 C   0  0  0  0  0  0  0  0  0  0  0  0
  145.3831  132.3741  150.1611 C   0  0  0  0  0  0  0  0  0  0  0  0
  144.0128  132.8748  150.6499 C   0  0  0  0  0  0  0  0  0  0  0  0
  144.0213  134.3860  150.9521 C   0  0  2  0  0  0  0  0  0  0  0  0
  144.1431  135.1013  149.7367 O   0  0  0  0  0  0  0  0  0  0  0  0
  149.9782  139.0407  154.5913 N   0  0  0  0  0  0  0  0  0  0  0  0
  152.2363  140.7403  156.3859 H   0  0  0  0  0  0  0  0  0  0  0  0
  152.6429  139.7334  154.9925 H   0  0  0  0  0  0  0  0  0  0  0  0
  151.9254  139.0030  156.4346 H   0  0  0  0  0  0  0  0  0  0  0  0
  150.3668  142.1837  155.8220 H   0  0  0  0  0  0  0  0  0  0  0  0
  148.0859  142.4320  154.8122 H   0  0  0  0  0  0  0  0  0  0  0  0
  147.0509  140.4746  153.6654 H   0  0  0  0  0  0  0  0  0  0  0  0
  148.6650  137.4438  152.9041 H   0  0  0  0  0  0  0  0  0  0  0  0
  147.2639  136.2682  152.1944 H   0  0  0  0  0  0  0  0  0  0  0  0
  144.4918  136.4687  153.1230 H   0  0  0  0  0  0  0  0  0  0  0  0
  144.7509  136.8444  151.4385 H   0  0  0  0  0  0  0  0  0  0  0  0
  144.9431  134.2288  152.8660 H   0  0  0  0  0  0  0  0  0  0  0  0
  146.8071  134.7927  150.5249 H   0  0  0  0  0  0  0  0  0  0  0  0
  147.3015  134.4634  152.1657 H   0  0  0  0  0  0  0  0  0  0  0  0
  147.4632  132.4229  150.7603 H   0  0  0  0  0  0  0  0  0  0  0  0
  146.3480  132.2034  152.0867 H   0  0  0  0  0  0  0  0  0  0  0  0
  145.6060  132.8021  149.1831 H   0  0  0  0  0  0  0  0  0  0  0  0
  145.3541  131.2930  150.0228 H   0  0  0  0  0  0  0  0  0  0  0  0
  143.2431  132.6401  149.9137 H   0  0  0  0  0  0  0  0  0  0  0  0
  143.7404  132.3323  151.5562 H   0  0  0  0  0  0  0  0  0  0  0  0
  143.0604  134.6607  151.3890 H   0  0  0  0  0  0  0  0  0  0  0  0
  144.8737  134.7463  149.2536 H   0  0  0  0  0  0  0  0  0  0  0  0
  1  2  1  0  0  0  0
  1 20  1  0  0  0  0
  1 21  1  0  0  0  0
  1 22  1  0  0  0  0
  2 19  1  0  0  0  0
  2  3  2  0  0  0  0
  3  4  1  0  0  0  0
  3 23  1  0  0  0  0
  4  5  2  0  0  0  0
  4 24  1  0  0  0  0
  5  6  1  0  0  0  0
  5 25  1  0  0  0  0
  6  7  1  0  0  0  0
  6 19  2  0  0  0  0
  7  8  1  0  0  0  0
  7 26  1  0  0  0  0
  8  9  2  0  0  0  0
  8 10  1  0  0  0  0
 10 11  1  0  0  0  0
 10 27  1  0  0  0  0
 11 12  1  0  0  0  0
 11 28  1  0  0  0  0
 11 29  1  0  0  0  0
 12 17  1  0  0  0  0
 12 13  1  0  0  0  0
 12 30  1  0  0  0  0
 13 14  1  0  0  0  0
 13 31  1  0  0  0  0
 13 32  1  0  0  0  0
 14 15  1  0  0  0  0
 14 33  1  0  0  0  0
 14 34  1  0  0  0  0
 15 16  1  0  0  0  0
 15 35  1  0  0  0  0
 15 36  1  0  0  0  0
 16 17  1  0  0  0  0
 16 37  1  0  0  0  0
 16 38  1  0  0  0  0
 17 18  1  0  0  0  0
 17 39  1  0  0  0  0
 18 40  1  0  0  0  0
M  END
> <s_m_source_file>
AV-unprocessed.smi

> <i_m_source_file_index>
2471

> <i_lp_mmshare_version>
43012

> <i_f3d_flags>
0

> <s_epik_input>
W0NIM11jMVtjSF1bY0hdW2NIXWMobjEpW05IXUMoPU8pW05IXVtDSDJdW0NAQEhdMltDSDJdW0NIMl1bQ0gyXVtDSDJdW0NASF0yW09IXQ==

> <s_epik_cmdline>
J2VwaWtfcHl0aG9uJywgJy1waCcsICc3LjAnLCAnLXRuJywgJzgnLCAnLW1hJywgJzIwMCcsICctbWV0YWxfYmluZGluZycsICctaW1hZScsICc8aW5maWxlLm1hZT4nLCAnLW9tYWUnLCAnPG91dGZpbGUubWFlPic=

> <r_lp_tautomer_probability>
1

> <r_epik_Ionization_Penalty>
8.52237e-05

> <r_epik_Ionization_Penalty_Charging>
0

> <r_epik_Ionization_Penalty_Neutral>
8.52237e-05

> <r_epik_State_Penalty>
-0

> <r_epik_Charging_Adjusted_Penalty>
0

> <i_epik_Tot_Q>
0

> <i_epik_Tot_abs_Q>
0

> <r_epik_Metal_State_Penalty>
-0

> <b_epik_Metal_Only>
0

> <s_lp_Force_Field>
OPLS_2005

> <r_lp_Energy>
16.1084

> <b_lp_Chiralities_Consistent>
1

> <s_lp_Variant>
AV-unprocessed.smi:2471-3

> <Gold.Version>
5.8.1

> <Gold.Id.Protein>
6NUR|6NUR_protein|mol2

> <Gold.PLP.Fitness>
41.9259

> <Gold.PLP.PLP>
-34.6483

> <Gold.PLP.part.hbond>
-3.5158

> <Gold.PLP.part.metal>
0.0000

> <Gold.PLP.part.buried>
-2.2746

> <Gold.PLP.part.nonpolar>
-29.3417

> <Gold.PLP.part.repulsive>
0.3906

> <Gold.PLP.ligand.clash>
0.0000

> <Gold.PLP.ligand.torsion>
0.7956

> <Gold.PLP.Chemscore.Hbond>
2.9520

> <Gold.PLP.Chemscore.CHOScore>
0.0000

> <Gold.PLP.Chemscore.Metal>
0.0000

> <Gold.Chemscore.Hbonds>
donor molecule, donor type, donor heavy atom, donor atom, acceptor molecule, acceptor atom, score
      L1  H     7    26       P1  7948  1.00
      L1  H    10    27       P1  7948  0.96
      L1  H    18    40       P1  7921  0.93

> <Gold.PLP.Chemscore.Internal.Correction>
0.0128

> <Gold.Rescore>
     Score         DG    S(hbond)    S(metal)    S(lipo)     H(rot)  DE(clash)    DE(int)     intcor
     17.56     -19.88       2.84        0.00      79.95       1.73       0.11       2.21       ----

> <Gold.Chemscore.Fitness>
17.5564

> <Gold.Chemscore.DG>
-19.8785

> <Gold.Chemscore.ZeroCoef>
-5.4800

> <Gold.Chemscore.Hbond>
2.8392

> <Gold.Chemscore.Metal>
0.0000

> <Gold.Chemscore.Lipo>
79.9515

> <Gold.Chemscore.Internal_Hbond>
0.0000

> <Gold.Chemscore.DEClash>
0.1075

> <Gold.Chemscore.DEInternal>
2.2146

> <Gold.Chemscore.Rot>
1.7339

> <Gold.Chemscore.Internal.Correction>
   9.000000E+99

> <Gold.Chemscore.Hbonds>
donor molecule, donor type, donor heavy atom, donor atom, acceptor molecule, acceptor atom, score
      L1  H     7    26       P1  7948  0.97
      L1  H    10    27       P1  7948  0.92
      L1  H    18    40       P1  7921  0.85

> <Gold.Chemscore.Hbond.Weighted>
-9.4829

> <Gold.Chemscore.Metal.Weighted>
-0.0000

> <Gold.Chemscore.Lipo.Weighted>
-9.3543

> <Gold.Chemscore.Internal_Hbond.Weighted>
0.0000

> <Gold.Chemscore.DEClash.Weighted>
0.1075

> <Gold.Chemscore.DEInternal.Weighted>
2.2146

> <Gold.Chemscore.Rot.Weighted>
4.4387

> <Gold.Chemscore.Internal.Correction.Weighted>
   9.000000E+99

> <Gold.Protein.RotatedTorsions>
[ 6907 6896 6895 6894 ] final -123.45 input  -60.11 | X-H torsion
[ 7974 7965 7964 7962 ] final  132.79 input  175.53 | X-H torsion
[ 8008 7997 7996 7995 ] final  -18.16 input   59.86 | X-H torsion
[ 10167 10162 10161 10158 ] final  154.04 input  -65.29 | X-H torsion
[ 10718 10713 10712 10709 ] final   78.12 input   66.30 | X-H torsion
[ 10763 10752 10751 10750 ] final  -26.53 input  -60.55 | X-H torsion
[ 11005 11000 10999 10996 ] final   57.11 input  -57.11 | X-H torsion

> <Gold.Protein.ActiveResidues>
 VAL166  LYS551  ARG553  GLY616  TRP617  ASP618  TYR619  PRO620  LYS621  CYS622 
 ASP623  PHE694  ASN695  SER759  ASP760  ASP761  ALA762  ILE779  LEU786  VAL792 
 PHE793  MET794  SER795  GLU796  ALA797  LYS798  CYS799  TRP800  GLU811  SER814 

> <Gold.Protein.RotatedAtoms>
  150.8672  133.7557  159.2972 H   0  0  0  0  0  0  0  0  0  0  0  0  # atno 6907 bound_to 6896
  151.5181  135.1065  159.9881 H   0  0  0  0  0  0  0  0  0  0  0  0  # atno 6908 bound_to 6896
  152.4669  133.7899  159.6952 H   0  0  0  0  0  0  0  0  0  0  0  0  # atno 6909 bound_to 6896
  144.9931  139.4386  143.5329 H   0  0  0  0  0  0  0  0  0  0  0  0  # atno 7974 bound_to 7965
  154.4926  140.2123  155.9516 H   0  0  0  0  0  0  0  0  0  0  0  0  # atno 8008 bound_to 7997
  156.1326  140.3194  155.8340 H   0  0  0  0  0  0  0  0  0  0  0  0  # atno 8009 bound_to 7997
  155.4269  140.0501  157.3012 H   0  0  0  0  0  0  0  0  0  0  0  0  # atno 8010 bound_to 7997
  139.4824  144.5221  151.7859 H   0  0  0  0  0  0  0  0  0  0  0  0  # atno 10167 bound_to 10162
  157.6734  130.9853  150.1741 H   0  0  0  0  0  0  0  0  0  0  0  0  # atno 10718 bound_to 10713
  153.7174  135.6947  153.5021 H   0  0  0  0  0  0  0  0  0  0  0  0  # atno 10763 bound_to 10752
  153.2228  135.4364  155.0508 H   0  0  0  0  0  0  0  0  0  0  0  0  # atno 10764 bound_to 10752
  154.8295  135.3465  154.6709 H   0  0  0  0  0  0  0  0  0  0  0  0  # atno 10765 bound_to 10752
  140.0477  134.5781  155.9302 H   0  0  0  0  0  0  0  0  0  0  0  0  # atno 11005 bound_to 11000
  146.3436  139.9275  142.8758 LP  0  0  0  0  0  0  0  0  0  0  0  0  # atno 17320 bound_to 7965
  145.2257  140.9953  143.4020 LP  0  0  0  0  0  0  0  0  0  0  0  0  # atno 17321 bound_to 7965
  140.4736  144.1551  150.5921 LP  0  0  0  0  0  0  0  0  0  0  0  0  # atno 17342 bound_to 10162
  140.4355  143.2549  151.9541 LP  0  0  0  0  0  0  0  0  0  0  0  0  # atno 17343 bound_to 10162
  156.2488  130.3698  149.8255 LP  0  0  0  0  0  0  0  0  0  0  0  0  # atno 17370 bound_to 10713
  156.6034  130.8556  151.3437 LP  0  0  0  0  0  0  0  0  0  0  0  0  # atno 17371 bound_to 10713
  141.1915  133.6572  156.5460 LP  0  0  0  0  0  0  0  0  0  0  0  0  # atno 17394 bound_to 11000
  140.3967  134.7393  157.4754 LP  0  0  0  0  0  0  0  0  0  0  0  0  # atno 17395 bound_to 11000

$$$$
