AV-unprocessed.smi:557|AV-procd|sdf|2917|dock1
  -GOLD-   2262023413D 1   1.00000     0.00000
 Structure written by MMmdl.
 47 49  0  0  0  0  0  0  0  0  2 V2000
  152.8472  142.9189  161.9339 C   0  0  0  0  0  0  0  0  0  0  0  0
  152.4362  142.8389  160.5488 N   0  0  0  0  0  0  0  0  0  0  0  0
  152.0944  141.7230  159.8158 C   0  0  0  0  0  0  0  0  0  0  0  0
  151.7765  142.1426  158.5549 C   0  0  0  0  0  0  0  0  0  0  0  0
  151.3331  141.3236  157.3752 C   0  0  0  0  0  0  0  0  0  0  0  0
  150.9583  142.2141  156.1835 C   0  0  0  0  0  0  0  0  0  0  0  0
  149.5604  142.0149  155.8111 N   0  0  0  0  0  0  0  0  0  0  0  0
  149.0719  141.1123  154.9439 C   0  0  0  0  0  0  0  0  0  0  0  0
  149.8009  140.3252  154.3439 O   0  0  0  0  0  0  0  0  0  0  0  0
  147.7375  141.1512  154.7912 N   0  0  0  0  0  0  0  0  0  0  0  0
  146.9628  140.2857  153.9074 C   0  0  1  0  0  0  0  0  0  0  0  0
  147.3233  140.4582  152.4366 C   0  0  0  0  0  0  0  0  0  0  0  0
  146.7917  139.1635  151.8205 C   0  0  0  0  0  0  0  0  0  0  0  0
  146.9803  138.1178  152.8514 N   0  3  2  0  0  0  0  0  0  0  0  0
  145.9380  137.0624  152.8598 C   0  0  0  0  0  0  0  0  0  0  0  0
  146.2282  136.0245  153.9588 C   0  0  0  0  0  0  0  0  0  0  0  0
  146.4685  136.6629  155.3427 C   0  0  0  0  0  0  0  0  0  0  0  0
  146.3808  138.1971  155.3080 C   0  0  0  0  0  0  0  0  0  0  0  0
  147.2270  138.7908  154.1589 C   0  0  2  0  0  0  0  0  0  0  0  0
  151.9631  143.5530  158.6194 C   0  0  0  0  0  0  0  0  0  0  0  0
  152.3560  143.9663  159.8130 N   0  0  0  0  0  0  0  0  0  0  0  0
  152.7547  141.9418  162.4089 H   0  0  0  0  0  0  0  0  0  0  0  0
  152.2178  143.6323  162.4669 H   0  0  0  0  0  0  0  0  0  0  0  0
  153.8861  143.2445  161.9907 H   0  0  0  0  0  0  0  0  0  0  0  0
  152.1034  140.7328  160.2473 H   0  0  0  0  0  0  0  0  0  0  0  0
  152.1211  140.6320  157.0746 H   0  0  0  0  0  0  0  0  0  0  0  0
  150.4790  140.7010  157.6443 H   0  0  0  0  0  0  0  0  0  0  0  0
  151.1195  143.2630  156.4381 H   0  0  0  0  0  0  0  0  0  0  0  0
  151.5999  141.9815  155.3317 H   0  0  0  0  0  0  0  0  0  0  0  0
  148.8920  142.6301  156.2528 H   0  0  0  0  0  0  0  0  0  0  0  0
  147.2222  141.8320  155.3303 H   0  0  0  0  0  0  0  0  0  0  0  0
  145.8965  140.4961  154.0143 H   0  0  0  0  0  0  0  0  0  0  0  0
  146.8827  141.3506  151.9912 H   0  0  0  0  0  0  0  0  0  0  0  0
  148.4058  140.5140  152.3109 H   0  0  0  0  0  0  0  0  0  0  0  0
  145.7293  139.2812  151.6003 H   0  0  0  0  0  0  0  0  0  0  0  0
  147.2980  138.9032  150.8908 H   0  0  0  0  0  0  0  0  0  0  0  0
  144.9562  137.5121  153.0173 H   0  0  0  0  0  0  0  0  0  0  0  0
  145.9078  136.5751  151.8847 H   0  0  0  0  0  0  0  0  0  0  0  0
  145.4043  135.3126  154.0152 H   0  0  0  0  0  0  0  0  0  0  0  0
  147.1072  135.4429  153.6781 H   0  0  0  0  0  0  0  0  0  0  0  0
  145.7521  136.2714  156.0657 H   0  0  0  0  0  0  0  0  0  0  0  0
  147.4540  136.3681  155.7053 H   0  0  0  0  0  0  0  0  0  0  0  0
  145.3371  138.4935  155.1940 H   0  0  0  0  0  0  0  0  0  0  0  0
  146.7054  138.6058  156.2649 H   0  0  0  0  0  0  0  0  0  0  0  0
  148.2849  138.6402  154.3808 H   0  0  0  0  0  0  0  0  0  0  0  0
  151.8231  144.2852  157.8380 H   0  0  0  0  0  0  0  0  0  0  0  0
  147.8478  137.6516  152.6271 H   0  0  0  0  0  0  0  0  0  0  0  0
  1  2  1  0  0  0  0
  1 22  1  0  0  0  0
  1 23  1  0  0  0  0
  1 24  1  0  0  0  0
  2 21  1  0  0  0  0
  2  3  1  0  0  0  0
  3  4  2  0  0  0  0
  3 25  1  0  0  0  0
  4  5  1  0  0  0  0
  4 20  1  0  0  0  0
  5  6  1  0  0  0  0
  5 26  1  0  0  0  0
  5 27  1  0  0  0  0
  6  7  1  0  0  0  0
  6 28  1  0  0  0  0
  6 29  1  0  0  0  0
  7  8  1  0  0  0  0
  7 30  1  0  0  0  0
  8  9  2  0  0  0  0
  8 10  1  0  0  0  0
 10 11  1  0  0  0  0
 10 31  1  0  0  0  0
 11 19  1  0  0  0  0
 11 12  1  0  0  0  0
 11 32  1  0  0  0  0
 12 13  1  0  0  0  0
 12 33  1  0  0  0  0
 12 34  1  0  0  0  0
 13 14  1  0  0  0  0
 13 35  1  0  0  0  0
 13 36  1  0  0  0  0
 14 19  1  0  0  0  0
 14 15  1  0  0  0  0
 14 47  1  0  0  0  0
 15 16  1  0  0  0  0
 15 37  1  0  0  0  0
 15 38  1  0  0  0  0
 16 17  1  0  0  0  0
 16 39  1  0  0  0  0
 16 40  1  0  0  0  0
 17 18  1  0  0  0  0
 17 41  1  0  0  0  0
 17 42  1  0  0  0  0
 18 19  1  0  0  0  0
 18 43  1  0  0  0  0
 18 44  1  0  0  0  0
 19 45  1  0  0  0  0
 20 21  2  0  0  0  0
 20 46  1  0  0  0  0
M  CHG  1  14   1
M  END
> <s_m_source_file>
AV-unprocessed.smi

> <i_m_source_file_index>
557

> <i_lp_mmshare_version>
43012

> <i_f3d_flags>
0

> <s_epik_input>
W0NIM11uMVtjSF1jKFtjSF1uMSlbQ0gyXVtDSDJdW05IXUMoPU8pW05IXVtDQEhdKFtDSDJdW0NIMl0yKVtDQEhdKE4yMylbQ0gyXVtDSDJdW0NIMl1bQ0gyXTM=

> <s_epik_cmdline>
J2VwaWtfcHl0aG9uJywgJy1waCcsICc3LjAnLCAnLXRuJywgJzgnLCAnLW1hJywgJzIwMCcsICctbWV0YWxfYmluZGluZycsICctaW1hZScsICc8aW5maWxlLm1hZT4nLCAnLW9tYWUnLCAnPG91dGZpbGUubWFlPic=

> <r_lp_tautomer_probability>
1

> <r_epik_Ionization_Penalty>
0.000956547

> <r_epik_Ionization_Penalty_Charging>
0.000435796

> <r_epik_Ionization_Penalty_Neutral>
0.000520752

> <r_epik_State_Penalty>
-0

> <r_epik_Charging_Adjusted_Penalty>
0.000435796

> <i_epik_Tot_Q>
1

> <i_epik_Tot_abs_Q>
1

> <r_epik_Metal_State_Penalty>
-0

> <b_epik_Metal_Only>
0

> <s_lp_Force_Field>
OPLS_2005

> <r_lp_Energy>
44.9241

> <b_lp_Chiralities_Consistent>
1

> <s_lp_Variant>
AV-unprocessed.smi:557-4

> <Gold.Version>
5.8.1

> <Gold.Id.Protein>
6NUR|6NUR_protein|mol2

> <Gold.PLP.Fitness>
42.8041

> <Gold.PLP.PLP>
-34.7905

> <Gold.PLP.part.hbond>
-3.0000

> <Gold.PLP.part.metal>
0.0000

> <Gold.PLP.part.buried>
-2.1508

> <Gold.PLP.part.nonpolar>
-28.8451

> <Gold.PLP.part.repulsive>
0.3627

> <Gold.PLP.ligand.clash>
0.0000

> <Gold.PLP.ligand.torsion>
0.6074

> <Gold.PLP.Chemscore.Hbond>
3.0712

> <Gold.PLP.Chemscore.CHOScore>
0.0000

> <Gold.PLP.Chemscore.Metal>
0.0000

> <Gold.Chemscore.Hbonds>
donor molecule, donor type, donor heavy atom, donor atom, acceptor molecule, acceptor atom, score
      L1  H     7    30       P1  8028  0.24
      L1  H    14    47       P1  7948  2.00
      P1  H  7989  7998       L1     9  0.74

> <Gold.PLP.Chemscore.Internal.Correction>
0.0147

> <Gold.Rescore>
     Score         DG    S(hbond)    S(metal)    S(lipo)     H(rot)  DE(clash)    DE(int)     intcor
     15.71     -19.09       2.09        0.00      91.76       1.60       1.81       1.57       ----

> <Gold.Chemscore.Fitness>
15.7121

> <Gold.Chemscore.DG>
-19.0907

> <Gold.Chemscore.ZeroCoef>
-5.4800

> <Gold.Chemscore.Hbond>
2.0884

> <Gold.Chemscore.Metal>
0.0000

> <Gold.Chemscore.Lipo>
91.7608

> <Gold.Chemscore.Internal_Hbond>
0.0000

> <Gold.Chemscore.DEClash>
1.8071

> <Gold.Chemscore.DEInternal>
1.5715

> <Gold.Chemscore.Rot>
1.6018

> <Gold.Chemscore.Internal.Correction>
   9.000000E+99

> <Gold.Chemscore.Hbonds>
donor molecule, donor type, donor heavy atom, donor atom, acceptor molecule, acceptor atom, score
      L1  H     7    30       P1  8028  0.23
      L1  H    14    47       P1  7948  0.97
      P1  H  7989  7998       L1     9  0.72

> <Gold.Chemscore.Hbond.Weighted>
-6.9753

> <Gold.Chemscore.Metal.Weighted>
-0.0000

> <Gold.Chemscore.Lipo.Weighted>
-10.7360

> <Gold.Chemscore.Internal_Hbond.Weighted>
0.0000

> <Gold.Chemscore.DEClash.Weighted>
1.8071

> <Gold.Chemscore.DEInternal.Weighted>
1.5715

> <Gold.Chemscore.Rot.Weighted>
4.1006

> <Gold.Chemscore.Internal.Correction.Weighted>
   9.000000E+99

> <Gold.Protein.RotatedTorsions>
[ 6907 6896 6895 6894 ] final    8.92 input  -60.11 | X-H torsion
[ 7974 7965 7964 7962 ] final   -2.11 input  175.53 | X-H torsion
[ 8008 7997 7996 7995 ] final  123.21 input   59.86 | X-H torsion
[ 10167 10162 10161 10158 ] final  124.82 input  -65.29 | X-H torsion
[ 10718 10713 10712 10709 ] final  161.60 input   66.30 | X-H torsion
[ 10763 10752 10751 10750 ] final -175.72 input  -60.55 | X-H torsion
[ 11005 11000 10999 10996 ] final -158.90 input  -57.11 | X-H torsion

> <Gold.Protein.ActiveResidues>
 VAL166  LYS551  ARG553  GLY616  TRP617  ASP618  TYR619  PRO620  LYS621  CYS622 
 ASP623  PHE694  ASN695  SER759  ASP760  ASP761  ALA762  ILE779  LEU786  VAL792 
 PHE793  MET794  SER795  GLU796  ALA797  LYS798  CYS799  TRP800  GLU811  SER814 

> <Gold.Protein.RotatedAtoms>
  151.7139  135.0907  160.0272 H   0  0  0  0  0  0  0  0  0  0  0  0  # atno 6907 bound_to 6896
  152.3645  133.6334  159.6048 H   0  0  0  0  0  0  0  0  0  0  0  0  # atno 6908 bound_to 6896
  150.7628  133.9287  159.3462 H   0  0  0  0  0  0  0  0  0  0  0  0  # atno 6909 bound_to 6896
  146.2409  140.1521  142.8334 H   0  0  0  0  0  0  0  0  0  0  0  0  # atno 7974 bound_to 7965
  156.2757  140.2768  156.1591 H   0  0  0  0  0  0  0  0  0  0  0  0  # atno 8008 bound_to 7997
  155.0773  140.0387  157.2645 H   0  0  0  0  0  0  0  0  0  0  0  0  # atno 8009 bound_to 7997
  154.6992  140.2645  155.6742 H   0  0  0  0  0  0  0  0  0  0  0  0  # atno 8010 bound_to 7997
  139.5720  144.6944  151.3754 H   0  0  0  0  0  0  0  0  0  0  0  0  # atno 10167 bound_to 10162
  157.1342  131.0524  151.2357 H   0  0  0  0  0  0  0  0  0  0  0  0  # atno 10718 bound_to 10713
  154.5811  135.2836  155.0732 H   0  0  0  0  0  0  0  0  0  0  0  0  # atno 10763 bound_to 10752
  154.2068  135.6415  153.5107 H   0  0  0  0  0  0  0  0  0  0  0  0  # atno 10764 bound_to 10752
  153.0088  135.5482  154.6465 H   0  0  0  0  0  0  0  0  0  0  0  0  # atno 10765 bound_to 10752
  140.6485  134.4476  157.5234 H   0  0  0  0  0  0  0  0  0  0  0  0  # atno 11005 bound_to 11000
  145.0159  140.8753  143.5196 LP  0  0  0  0  0  0  0  0  0  0  0  0  # atno 17320 bound_to 7965
  145.1562  139.2485  143.5415 LP  0  0  0  0  0  0  0  0  0  0  0  0  # atno 17321 bound_to 7965
  140.7004  143.7646  150.7394 LP  0  0  0  0  0  0  0  0  0  0  0  0  # atno 17342 bound_to 10162
  140.1155  143.4660  152.2345 LP  0  0  0  0  0  0  0  0  0  0  0  0  # atno 17343 bound_to 10162
  157.4365  130.7520  149.7033 LP  0  0  0  0  0  0  0  0  0  0  0  0  # atno 17370 bound_to 10713
  155.9801  130.4032  150.3545 LP  0  0  0  0  0  0  0  0  0  0  0  0  # atno 17371 bound_to 10713
  139.9054  134.8460  156.1726 LP  0  0  0  0  0  0  0  0  0  0  0  0  # atno 17394 bound_to 11000
  141.0554  133.6867  156.1851 LP  0  0  0  0  0  0  0  0  0  0  0  0  # atno 17395 bound_to 11000

$$$$
