#       Name:                AV-unprocessed.smi:2098
#       Creating user name   scv26
#       Creation time:       Fri Mar 27 11:29:33 2020


#       File generated by GOLD software.
#

@<TRIPOS>MOLECULE
AV-unprocessed.smi:2098
    41    43     1
SMALL
NO_CHARGES


@<TRIPOS>ATOM
      1 ****        -0.6335  -0.6605  -0.9889 O.3            1 S1                 0.0000
      2 ****        -0.2052  -0.2986   0.3096 C.3            1 S1                 0.0000
      3 ****         1.3307  -0.2450   0.3165 C.3            1 S1                 0.0000
      4 ****         1.8386  -1.5649   0.4616 O.3            1 S1                 0.0000
      5 ****         3.2059  -1.7404   0.4723 C.ar           1 S1                 0.0000
      6 ****         3.6801  -3.0608   0.6175 C.ar           1 S1                 0.0000
      7 ****         5.0616  -3.3332   0.6355 C.ar           1 S1                 0.0000
      8 ****         5.9872  -2.2815   0.5075 C.ar           1 S1                 0.0000
      9 ****         7.3160  -2.5415   0.5219 F              1 S1                 0.0000
     10 ****         5.5289  -0.9589   0.3643 C.ar           1 S1                 0.0000
     11 ****         4.1470  -0.6864   0.3474 C.ar           1 S1                 0.0000
     12 ****        -0.8259   1.0616   0.6829 C.3            1 S1                 0.0000
     13 ****        -2.2782   1.0390   0.6635 N.pl3          1 S1                 0.0000
     14 ****        -3.0925   0.5379   1.6121 C.2            1 S1                 0.0000
     15 ****        -4.4025   0.6235   1.3990 N.2            1 S1                 0.0000
     16 ****        -4.4441   1.2546   0.1675 C.ar           1 S1                 0.0000
     17 ****        -5.5469   1.6448  -0.6259 C.ar           1 S1                 0.0000
     18 ****        -5.3439   2.2841  -1.8667 C.ar           1 S1                 0.0000
     19 ****        -4.0383   2.5421  -2.3328 C.ar           1 S1                 0.0000
     20 ****        -2.9242   2.1634  -1.5596 C.ar           1 S1                 0.0000
     21 ****        -3.1307   1.5273  -0.3213 C.ar           1 S1                 0.0000
     22 ****        -0.2657  -1.5053  -1.1997 H              1 S1                 0.0000
     23 ****        -0.5501  -1.0524   1.0188 H              1 S1                 0.0000
     24 ****         1.7022   0.2349  -0.5908 H              1 S1                 0.0000
     25 ****         1.6690   0.3464   1.1692 H              1 S1                 0.0000
     26 ****         2.9764  -3.8745   0.7158 H              1 S1                 0.0000
     27 ****         5.4102  -4.3493   0.7467 H              1 S1                 0.0000
     28 ****         6.2384  -0.1504   0.2668 H              1 S1                 0.0000
     29 ****         3.8355   0.3410   0.2369 H              1 S1                 0.0000
     30 ****        -0.5061   1.3591   1.6824 H              1 S1                 0.0000
     31 ****        -0.4780   1.8397   0.0022 H              1 S1                 0.0000
     32 ****        -2.7008   0.0848   2.5111 H              1 S1                 0.0000
     33 ****        -6.5510   1.4520  -0.2787 H              1 S1                 0.0000
     34 ****        -6.1944   2.5780  -2.4642 H              1 S1                 0.0000
     35 ****        -3.8928   3.0315  -3.2847 H              1 S1                 0.0000
     36 ****        -1.9230   2.3575  -1.9148 H              1 S1                 0.0000
     37 ****        -0.3180   0.0198  -1.6505 LP             1 S1                 0.0000
     38 ****        -1.6319  -0.7112  -1.0134 LP             1 S1                 0.0000
     39 ****         1.4763  -2.1068  -0.2967 LP             1 S1                 0.0000
     40 ****         1.4870  -1.9243   1.3260 LP             1 S1                 0.0000
     41 ****        -5.1581   0.3137   1.9761 LP             1 S1                 0.0000
@<TRIPOS>BOND
    1    1    2 1     
    2    1   22 1     
    3    2    3 1     
    4    2   12 1     
    5    2   23 1     
    6    3    4 1     
    7    3   24 1     
    8    3   25 1     
    9    4    5 1     
   10    5   11 ar    
   11    5    6 ar    
   12    6    7 ar    
   13    6   26 1     
   14    7    8 ar    
   15    7   27 1     
   16    8    9 1     
   17    8   10 ar    
   18   10   11 ar    
   19   10   28 1     
   20   11   29 1     
   21   12   13 1     
   22   12   30 1     
   23   12   31 1     
   24   13   21 1     
   25   13   14 1     
   26   14   15 2     
   27   14   32 1     
   28   15   16 1     
   29   16   21 ar    
   30   16   17 ar    
   31   17   18 ar    
   32   17   33 1     
   33   18   19 ar    
   34   18   34 1     
   35   19   20 ar    
   36   19   35 1     
   37   20   21 ar    
   38   20   36 1     
   39    1   37 1     
   40    1   38 1     
   41    4   39 1     
   42    4   40 1     
   43   15   41 1     
@<TRIPOS>SUBSTRUCTURE
      1 S1             1
@<TRIPOS>SET
LONE_PAIRS      STATIC     ATOMS    <user>   **** ""
5 37 38 39 40 41
DONOR_HYDROGENS      STATIC     ATOMS    <user>   **** ""
1 22
ATOM$BLUE        STATIC     ATOMS    COLORGROUP SYSTEM
5 37 38 39 40 41
ATOM$RED        STATIC     ATOMS    COLORGROUP SYSTEM
1 22
