AV-unprocessed.smi:720|AV-procd|sdf|3501|dock2
  -GOLD-   22720 0493D 1   1.00000     0.00000
 Structure written by MMmdl.
 46 48  0  0  0  0  0  0  0  0  1 V2000
  149.0481  136.6584  155.1782 C   0  0  0  0  0  0  0  0  0  0  0  0
  150.2938  136.0501  154.7264 N   0  0  0  0  0  0  0  0  0  0  0  0
  150.5169  134.8399  155.5064 C   0  0  0  0  0  0  0  0  0  0  0  0
  151.4380  136.9461  154.9017 C   0  0  0  0  0  0  0  0  0  0  0  0
  151.5102  138.0716  153.8474 C   0  0  0  0  0  0  0  0  0  0  0  0
  150.6343  139.1940  154.1383 N   0  0  0  0  0  0  0  0  0  0  0  0
  149.4522  139.5438  153.5152 C   0  0  0  0  0  0  0  0  0  0  0  0
  148.9655  140.6531  154.1465 C   0  0  0  0  0  0  0  0  0  0  0  0
  149.9293  140.8996  155.1622 C   0  0  0  0  0  0  0  0  0  0  0  0
  149.7760  141.9912  156.0539 N   0  0  0  0  0  0  0  0  0  0  0  0
  150.3346  142.1476  157.2702 C   0  0  0  0  0  0  0  0  0  0  0  0
  151.1092  141.3473  157.7915 O   0  0  0  0  0  0  0  0  0  0  0  0
  149.9882  143.2884  157.8931 N   0  0  0  0  0  0  0  0  0  0  0  0
  150.4144  143.7599  159.2127 C   0  0  2  0  0  0  0  0  0  0  0  0
  150.2891  145.2926  159.3800 C   0  0  0  0  0  0  0  0  0  0  0  0
  151.7271  145.7180  159.7295 C   0  0  1  0  0  0  0  0  0  0  0  0
  152.0910  145.2022  161.1357 C   0  0  0  0  0  0  0  0  0  0  0  0
  152.2546  143.6855  160.9128 C   0  0  0  0  0  0  0  0  0  0  0  0
  151.9278  143.5301  159.4159 C   0  0  2  0  0  0  0  0  0  0  0  0
  152.5461  144.7983  158.8346 C   0  0  0  0  0  0  0  0  0  0  0  0
  150.9211  140.0202  155.1679 N   0  0  0  0  0  0  0  0  0  0  0  0
  148.7739  137.5057  154.5528 H   0  0  0  0  0  0  0  0  0  0  0  0
  149.1221  136.9999  156.2118 H   0  0  0  0  0  0  0  0  0  0  0  0
  148.2282  135.9421  155.1145 H   0  0  0  0  0  0  0  0  0  0  0  0
  151.4219  134.3286  155.1760 H   0  0  0  0  0  0  0  0  0  0  0  0
  149.6858  134.1445  155.3832 H   0  0  0  0  0  0  0  0  0  0  0  0
  150.6197  135.0644  156.5693 H   0  0  0  0  0  0  0  0  0  0  0  0
  151.4703  137.3450  155.9167 H   0  0  0  0  0  0  0  0  0  0  0  0
  152.3420  136.3468  154.7847 H   0  0  0  0  0  0  0  0  0  0  0  0
  152.5270  138.4646  153.8178 H   0  0  0  0  0  0  0  0  0  0  0  0
  151.3040  137.6849  152.8476 H   0  0  0  0  0  0  0  0  0  0  0  0
  149.0606  138.9800  152.6815 H   0  0  0  0  0  0  0  0  0  0  0  0
  148.0619  141.1988  153.9180 H   0  0  0  0  0  0  0  0  0  0  0  0
  149.1769  142.7379  155.7344 H   0  0  0  0  0  0  0  0  0  0  0  0
  149.3800  143.9113  157.3814 H   0  0  0  0  0  0  0  0  0  0  0  0
  149.8503  143.2288  159.9816 H   0  0  0  0  0  0  0  0  0  0  0  0
  149.9672  145.7733  158.4546 H   0  0  0  0  0  0  0  0  0  0  0  0
  149.5764  145.5664  160.1587 H   0  0  0  0  0  0  0  0  0  0  0  0
  151.9143  146.7831  159.5906 H   0  0  0  0  0  0  0  0  0  0  0  0
  153.0273  145.6417  161.4816 H   0  0  0  0  0  0  0  0  0  0  0  0
  151.3201  145.4339  161.8715 H   0  0  0  0  0  0  0  0  0  0  0  0
  153.2802  143.3767  161.1191 H   0  0  0  0  0  0  0  0  0  0  0  0
  151.5947  143.0953  161.5497 H   0  0  0  0  0  0  0  0  0  0  0  0
  152.2984  142.5974  158.9889 H   0  0  0  0  0  0  0  0  0  0  0  0
  152.3412  144.9344  157.7713 H   0  0  0  0  0  0  0  0  0  0  0  0
  153.6219  144.8735  159.0039 H   0  0  0  0  0  0  0  0  0  0  0  0
  1  2  1  0  0  0  0
  1 22  1  0  0  0  0
  1 23  1  0  0  0  0
  1 24  1  0  0  0  0
  2  3  1  0  0  0  0
  2  4  1  0  0  0  0
  3 25  1  0  0  0  0
  3 26  1  0  0  0  0
  3 27  1  0  0  0  0
  4  5  1  0  0  0  0
  4 28  1  0  0  0  0
  4 29  1  0  0  0  0
  5  6  1  0  0  0  0
  5 30  1  0  0  0  0
  5 31  1  0  0  0  0
  6 21  1  0  0  0  0
  6  7  1  0  0  0  0
  7  8  2  0  0  0  0
  7 32  1  0  0  0  0
  8  9  1  0  0  0  0
  8 33  1  0  0  0  0
  9 10  1  0  0  0  0
  9 21  2  0  0  0  0
 10 11  1  0  0  0  0
 10 34  1  0  0  0  0
 11 12  2  0  0  0  0
 11 13  1  0  0  0  0
 13 14  1  0  0  0  0
 13 35  1  0  0  0  0
 14 19  1  0  0  0  0
 14 15  1  0  0  0  0
 14 36  1  0  0  0  0
 15 16  1  0  0  0  0
 15 37  1  0  0  0  0
 15 38  1  0  0  0  0
 16 20  1  0  0  0  0
 16 17  1  0  0  0  0
 16 39  1  0  0  0  0
 17 18  1  0  0  0  0
 17 40  1  0  0  0  0
 17 41  1  0  0  0  0
 18 19  1  0  0  0  0
 18 42  1  0  0  0  0
 18 43  1  0  0  0  0
 19 20  1  0  0  0  0
 19 44  1  0  0  0  0
 20 45  1  0  0  0  0
 20 46  1  0  0  0  0
M  END
> <s_m_source_file>
AV-unprocessed.smi

> <i_m_source_file_index>
720

> <i_lp_mmshare_version>
43012

> <i_f3d_flags>
0

> <s_epik_input>
W0NIM11OKFtDSDNdKVtDSDJdW0NIMl1uMVtjSF1bY0hdYyhuMSlbTkhdQyg9TylbTkhdW0NASF0oW0NIMl1bQ0BIXTIzKVtDQEhdKFtDSDJdMylbQ0gyXVtDSDJdMg==

> <s_epik_cmdline>
J2VwaWtfcHl0aG9uJywgJy1waCcsICc3LjAnLCAnLXRuJywgJzgnLCAnLW1hJywgJzIwMCcsICctbWV0YWxfYmluZGluZycsICctaW1hZScsICc8aW5maWxlLm1hZT4nLCAnLW9tYWUnLCAnPG91dGZpbGUubWFlPic=

> <r_lp_tautomer_probability>
1

> <r_epik_Ionization_Penalty>
1.83819

> <r_epik_Ionization_Penalty_Charging>
0

> <r_epik_Ionization_Penalty_Neutral>
1.83819

> <r_epik_State_Penalty>
1.95467

> <r_epik_Charging_Adjusted_Penalty>
1.95467

> <i_epik_Tot_Q>
0

> <i_epik_Tot_abs_Q>
0

> <r_epik_Metal_State_Penalty>
1.95467

> <b_epik_Metal_Only>
0

> <s_lp_Force_Field>
OPLS_2005

> <r_lp_Energy>
62.6494

> <b_lp_Chiralities_Consistent>
1

> <s_lp_Variant>
AV-unprocessed.smi:720-7

> <Gold.Version>
5.8.1

> <Gold.Id.Protein>
6NUR|6NUR_protein|mol2

> <Gold.PLP.Fitness>
47.6678

> <Gold.PLP.PLP>
-40.5512

> <Gold.PLP.part.hbond>
-2.2225

> <Gold.PLP.part.metal>
0.0000

> <Gold.PLP.part.buried>
0.5827

> <Gold.PLP.part.nonpolar>
-39.6274

> <Gold.PLP.part.repulsive>
0.3370

> <Gold.PLP.ligand.clash>
0.0000

> <Gold.PLP.ligand.torsion>
0.7251

> <Gold.PLP.Chemscore.Hbond>
1.9913

> <Gold.PLP.Chemscore.CHOScore>
0.8355

> <Gold.PLP.Chemscore.Metal>
0.0000

> <Gold.Chemscore.Hbonds>
donor molecule, donor type, donor heavy atom, donor atom, acceptor molecule, acceptor atom, score
      L1  H    10    34       P1  8028  0.93
      L1  H    13    35       P1  8028  0.99
      L1  C     7    32       P1  7948  0.25
      L1  C     7    32       P1  7957  0.34

> <Gold.PLP.Chemscore.Internal.Correction>
0.0864

> <Gold.Rescore>
     Score         DG    S(hbond)    S(metal)    S(lipo)     H(rot)  DE(clash)    DE(int)     intcor
     14.95     -20.69       1.60        0.00     117.94       1.53       3.32       2.42       ----

> <Gold.Chemscore.Fitness>
14.9527

> <Gold.Chemscore.DG>
-20.6937

> <Gold.Chemscore.ZeroCoef>
-5.4800

> <Gold.Chemscore.Hbond>
1.5972

> <Gold.Chemscore.Metal>
0.0000

> <Gold.Chemscore.Lipo>
117.9404

> <Gold.Chemscore.Internal_Hbond>
0.0000

> <Gold.Chemscore.DEClash>
3.3174

> <Gold.Chemscore.DEInternal>
2.4236

> <Gold.Chemscore.Rot>
1.5312

> <Gold.Chemscore.Internal.Correction>
   9.000000E+99

> <Gold.Chemscore.Hbonds>
donor molecule, donor type, donor heavy atom, donor atom, acceptor molecule, acceptor atom, score
      L1  H    10    34       P1  8028  0.87
      L1  H    13    35       P1  8028  0.32

> <Gold.Chemscore.Hbond.Weighted>
-5.3345

> <Gold.Chemscore.Metal.Weighted>
-0.0000

> <Gold.Chemscore.Lipo.Weighted>
-13.7990

> <Gold.Chemscore.Internal_Hbond.Weighted>
0.0000

> <Gold.Chemscore.DEClash.Weighted>
3.3174

> <Gold.Chemscore.DEInternal.Weighted>
2.4236

> <Gold.Chemscore.Rot.Weighted>
3.9199

> <Gold.Chemscore.Internal.Correction.Weighted>
   9.000000E+99

> <Gold.Protein.RotatedTorsions>
[ 6907 6896 6895 6894 ] final  -39.85 input  -60.11 | X-H torsion
[ 7974 7965 7964 7962 ] final -148.85 input  175.53 | X-H torsion
[ 8008 7997 7996 7995 ] final  159.06 input   59.86 | X-H torsion
[ 10167 10162 10161 10158 ] final   55.13 input  -65.29 | X-H torsion
[ 10718 10713 10712 10709 ] final  -32.07 input   66.30 | X-H torsion
[ 10763 10752 10751 10750 ] final   28.36 input  -60.55 | X-H torsion
[ 11005 11000 10999 10996 ] final -130.63 input  -57.11 | X-H torsion

> <Gold.Protein.ActiveResidues>
 VAL166  LYS551  ARG553  GLY616  TRP617  ASP618  TYR619  PRO620  LYS621  CYS622 
 ASP623  PHE694  ASN695  SER759  ASP760  ASP761  ALA762  ILE779  LEU786  VAL792 
 PHE793  MET794  SER795  GLU796  ALA797  LYS798  CYS799  TRP800  GLU811  SER814 

> <Gold.Protein.RotatedAtoms>
  150.9854  134.9200  159.7868 H   0  0  0  0  0  0  0  0  0  0  0  0  # atno 6907 bound_to 6896
  152.5235  134.3353  159.9208 H   0  0  0  0  0  0  0  0  0  0  0  0  # atno 6908 bound_to 6896
  151.3360  133.3940  159.2701 H   0  0  0  0  0  0  0  0  0  0  0  0  # atno 6909 bound_to 6896
  144.8004  140.5142  143.5711 H   0  0  0  0  0  0  0  0  0  0  0  0  # atno 7974 bound_to 7965
  156.2263  140.1841  156.7354 H   0  0  0  0  0  0  0  0  0  0  0  0  # atno 8008 bound_to 7997
  154.5947  140.0645  156.9315 H   0  0  0  0  0  0  0  0  0  0  0  0  # atno 8009 bound_to 7997
  155.2276  140.3312  155.4310 H   0  0  0  0  0  0  0  0  0  0  0  0  # atno 8010 bound_to 7997
  140.2227  144.3771  150.6444 H   0  0  0  0  0  0  0  0  0  0  0  0  # atno 10167 bound_to 10162
  156.3794  130.4353  149.7481 H   0  0  0  0  0  0  0  0  0  0  0  0  # atno 10718 bound_to 10713
  153.0497  135.6515  154.0726 H   0  0  0  0  0  0  0  0  0  0  0  0  # atno 10763 bound_to 10752
  154.0417  135.2903  155.3355 H   0  0  0  0  0  0  0  0  0  0  0  0  # atno 10764 bound_to 10752
  154.6777  135.5332  153.8288 H   0  0  0  0  0  0  0  0  0  0  0  0  # atno 10765 bound_to 10752
  140.9329  134.1295  157.4219 H   0  0  0  0  0  0  0  0  0  0  0  0  # atno 11005 bound_to 11000
  145.5568  139.1478  143.3363 LP  0  0  0  0  0  0  0  0  0  0  0  0  # atno 17320 bound_to 7965
  146.2283  140.5705  142.8986 LP  0  0  0  0  0  0  0  0  0  0  0  0  # atno 17321 bound_to 7965
  140.6243  143.2179  151.6629 LP  0  0  0  0  0  0  0  0  0  0  0  0  # atno 17342 bound_to 10162
  139.5138  144.3430  152.0722 LP  0  0  0  0  0  0  0  0  0  0  0  0  # atno 17343 bound_to 10162
  156.4578  130.7937  151.2958 LP  0  0  0  0  0  0  0  0  0  0  0  0  # atno 17370 bound_to 10713
  157.7491  131.0075  150.3193 LP  0  0  0  0  0  0  0  0  0  0  0  0  # atno 17371 bound_to 10713
  139.8801  135.0011  156.6048 LP  0  0  0  0  0  0  0  0  0  0  0  0  # atno 17394 bound_to 11000
  140.7838  133.8638  155.8589 LP  0  0  0  0  0  0  0  0  0  0  0  0  # atno 17395 bound_to 11000

$$$$
