AV-unprocessed.smi:739|AV-procd|sdf|3544|dock6
  -GOLD-   22720 0533D 1   1.00000     0.00000
 Structure written by MMmdl.
 33 35  0  0  0  0  0  0  0  0  2 V2000
  149.1361  142.8528  157.5150 O   0  0  0  0  0  0  0  0  0  0  0  0
  150.4210  142.3120  157.7397 C   0  0  2  0  0  0  0  0  0  0  0  0
  151.4429  143.4648  157.6789 C   0  0  0  0  0  0  0  0  0  0  0  0
  151.6201  144.1311  158.9753 N   0  0  0  0  0  0  0  0  0  0  0  0
  151.1555  145.3337  159.4111 C   0  0  0  0  0  0  0  0  0  0  0  0
  151.6000  145.5074  160.6868 N   0  3  0  0  0  0  0  0  0  0  0  0
  152.3571  144.3984  161.0723 C   0  0  0  0  0  0  0  0  0  0  0  0
  153.0133  144.1108  162.2648 C   0  0  0  0  0  0  0  0  0  0  0  0
  153.7025  142.8816  162.3303 C   0  0  0  0  0  0  0  0  0  0  0  0
  154.3579  142.5517  163.4683 F   0  0  0  0  0  0  0  0  0  0  0  0
  153.7223  141.9917  161.2350 C   0  0  0  0  0  0  0  0  0  0  0  0
  154.3970  140.8224  161.3395 F   0  0  0  0  0  0  0  0  0  0  0  0
  153.0532  142.2947  160.0308 C   0  0  0  0  0  0  0  0  0  0  0  0
  152.3740  143.5106  159.9766 C   0  0  0  0  0  0  0  0  0  0  0  0
  150.7542  141.1938  156.7615 C   0  0  0  0  0  0  0  0  0  0  0  0
  151.9601  140.4682  156.8820 C   0  0  0  0  0  0  0  0  0  0  0  0
  152.2543  139.4256  155.9819 C   0  0  0  0  0  0  0  0  0  0  0  0
  151.3448  139.1014  154.9572 C   0  0  0  0  0  0  0  0  0  0  0  0
  151.6271  138.0983  154.0928 F   0  0  0  0  0  0  0  0  0  0  0  0
  150.1397  139.8193  154.8340 C   0  0  0  0  0  0  0  0  0  0  0  0
  149.8449  140.8619  155.7340 C   0  0  0  0  0  0  0  0  0  0  0  0
  149.2148  143.5708  156.9053 H   0  0  0  0  0  0  0  0  0  0  0  0
  150.4071  141.8986  158.7489 H   0  0  0  0  0  0  0  0  0  0  0  0
  152.4190  143.0985  157.3575 H   0  0  0  0  0  0  0  0  0  0  0  0
  151.1405  144.2179  156.9497 H   0  0  0  0  0  0  0  0  0  0  0  0
  150.5498  146.0267  158.8446 H   0  0  0  0  0  0  0  0  0  0  0  0
  153.0018  144.7891  163.1049 H   0  0  0  0  0  0  0  0  0  0  0  0
  153.0747  141.6072  159.1983 H   0  0  0  0  0  0  0  0  0  0  0  0
  152.6630  140.7069  157.6668 H   0  0  0  0  0  0  0  0  0  0  0  0
  153.1779  138.8739  156.0786 H   0  0  0  0  0  0  0  0  0  0  0  0
  149.4407  139.5696  154.0493 H   0  0  0  0  0  0  0  0  0  0  0  0
  148.9156  141.4034  155.6340 H   0  0  0  0  0  0  0  0  0  0  0  0
  151.3991  146.3240  161.2500 H   0  0  0  0  0  0  0  0  0  0  0  0
  1  2  1  0  0  0  0
  1 22  1  0  0  0  0
  2  3  1  0  0  0  0
  2 15  1  0  0  0  0
  2 23  1  0  0  0  0
  3  4  1  0  0  0  0
  3 24  1  0  0  0  0
  3 25  1  0  0  0  0
  4 14  1  0  0  0  0
  4  5  1  0  0  0  0
  5  6  2  0  0  0  0
  5 26  1  0  0  0  0
  6  7  1  0  0  0  0
  6 33  1  0  0  0  0
  7 14  2  0  0  0  0
  7  8  1  0  0  0  0
  8  9  2  0  0  0  0
  8 27  1  0  0  0  0
  9 10  1  0  0  0  0
  9 11  1  0  0  0  0
 11 12  1  0  0  0  0
 11 13  2  0  0  0  0
 13 14  1  0  0  0  0
 13 28  1  0  0  0  0
 15 21  1  0  0  0  0
 15 16  2  0  0  0  0
 16 17  1  0  0  0  0
 16 29  1  0  0  0  0
 17 18  2  0  0  0  0
 17 30  1  0  0  0  0
 18 19  1  0  0  0  0
 18 20  1  0  0  0  0
 20 21  2  0  0  0  0
 20 31  1  0  0  0  0
 21 32  1  0  0  0  0
M  CHG  1   6   1
M  END
> <s_m_source_file>
AV-unprocessed.smi

> <i_m_source_file_index>
739

> <i_lp_mmshare_version>
43012

> <i_f3d_flags>
0

> <s_epik_input>
W2NIXTFbY0hdYyhGKVtjSF1bY0hdYzFbQ0BIXShbT0hdKVtDSDJdbihbY0hdbjIpYyhjMjMpW2NIXWMoRiljKEYpW2NIXTM=

> <s_epik_cmdline>
J2VwaWtfcHl0aG9uJywgJy1waCcsICc3LjAnLCAnLXRuJywgJzgnLCAnLW1hJywgJzIwMCcsICctbWV0YWxfYmluZGluZycsICctaW1hZScsICc8aW5maWxlLm1hZT4nLCAnLW9tYWUnLCAnPG91dGZpbGUubWFlPic=

> <r_epik_Ionization_Penalty>
2.16139

> <r_epik_Ionization_Penalty_Charging>
2.16138

> <r_epik_Ionization_Penalty_Neutral>
1.79538e-06

> <r_epik_State_Penalty>
2.30198

> <r_epik_Charging_Adjusted_Penalty>
4.46337

> <i_epik_Tot_Q>
1

> <i_epik_Tot_abs_Q>
1

> <r_epik_Metal_State_Penalty>
6.38245

> <b_epik_Metal_Only>
0

> <s_lp_Force_Field>
OPLS_2005

> <r_lp_Energy>
16.88

> <b_lp_Chiralities_Consistent>
1

> <s_lp_Variant>
AV-unprocessed.smi:739-3

> <Gold.Version>
5.8.1

> <Gold.Id.Protein>
6NUR|6NUR_protein|mol2

> <Gold.PLP.Fitness>
61.6304

> <Gold.PLP.PLP>
-59.7844

> <Gold.PLP.part.hbond>
-2.1754

> <Gold.PLP.part.metal>
0.0000

> <Gold.PLP.part.buried>
-5.3671

> <Gold.PLP.part.nonpolar>
-50.8020

> <Gold.PLP.part.repulsive>
0.1513

> <Gold.PLP.ligand.clash>
0.0000

> <Gold.PLP.ligand.torsion>
0.5845

> <Gold.PLP.Chemscore.Hbond>
1.0000

> <Gold.PLP.Chemscore.CHOScore>
0.0000

> <Gold.PLP.Chemscore.Metal>
0.0000

> <Gold.Chemscore.Hbonds>
donor molecule, donor type, donor heavy atom, donor atom, acceptor molecule, acceptor atom, score
      L1  H     1    22       P1  8028  1.00

> <Gold.PLP.Chemscore.Internal.Correction>
0.0150

> <Gold.Rescore>
     Score         DG    S(hbond)    S(metal)    S(lipo)     H(rot)  DE(clash)    DE(int)     intcor
     15.93     -17.58       0.92        0.00     123.43       2.12       0.76       0.89       ----

> <Gold.Chemscore.Fitness>
15.9305

> <Gold.Chemscore.DG>
-17.5842

> <Gold.Chemscore.ZeroCoef>
-5.4800

> <Gold.Chemscore.Hbond>
0.9235

> <Gold.Chemscore.Metal>
0.0000

> <Gold.Chemscore.Lipo>
123.4260

> <Gold.Chemscore.Internal_Hbond>
0.0000

> <Gold.Chemscore.DEClash>
0.7611

> <Gold.Chemscore.DEInternal>
0.8926

> <Gold.Chemscore.Rot>
2.1176

> <Gold.Chemscore.Internal.Correction>
   9.000000E+99

> <Gold.Chemscore.Hbonds>
donor molecule, donor type, donor heavy atom, donor atom, acceptor molecule, acceptor atom, score
      L1  H     1    22       P1  8028  0.85

> <Gold.Chemscore.Hbond.Weighted>
-3.0844

> <Gold.Chemscore.Metal.Weighted>
-0.0000

> <Gold.Chemscore.Lipo.Weighted>
-14.4408

> <Gold.Chemscore.Internal_Hbond.Weighted>
0.0000

> <Gold.Chemscore.DEClash.Weighted>
0.7611

> <Gold.Chemscore.DEInternal.Weighted>
0.8926

> <Gold.Chemscore.Rot.Weighted>
5.4211

> <Gold.Chemscore.Internal.Correction.Weighted>
   9.000000E+99

> <Gold.Protein.RotatedTorsions>
[ 6907 6896 6895 6894 ] final  -13.53 input  -60.11 | X-H torsion
[ 7974 7965 7964 7962 ] final  148.31 input  175.53 | X-H torsion
[ 8008 7997 7996 7995 ] final -171.24 input   59.86 | X-H torsion
[ 10167 10162 10161 10158 ] final   22.12 input  -65.29 | X-H torsion
[ 10718 10713 10712 10709 ] final  -22.66 input   66.30 | X-H torsion
[ 10763 10752 10751 10750 ] final  -37.61 input  -60.55 | X-H torsion
[ 11005 11000 10999 10996 ] final   97.38 input  -57.11 | X-H torsion

> <Gold.Protein.ActiveResidues>
 VAL166  LYS551  ARG553  GLY616  TRP617  ASP618  TYR619  PRO620  LYS621  CYS622 
 ASP623  PHE694  ASN695  SER759  ASP760  ASP761  ALA762  ILE779  LEU786  VAL792 
 PHE793  MET794  SER795  GLU796  ALA797  LYS798  CYS799  TRP800  GLU811  SER814 

> <Gold.Protein.RotatedAtoms>
  151.3534  135.0889  159.9410 H   0  0  0  0  0  0  0  0  0  0  0  0  # atno 6907 bound_to 6896
  152.5181  133.9329  159.7600 H   0  0  0  0  0  0  0  0  0  0  0  0  # atno 6908 bound_to 6896
  150.9709  133.6291  159.2767 H   0  0  0  0  0  0  0  0  0  0  0  0  # atno 6909 bound_to 6896
  144.8523  139.6138  143.5968 H   0  0  0  0  0  0  0  0  0  0  0  0  # atno 7974 bound_to 7965
  155.9290  140.1088  157.1147 H   0  0  0  0  0  0  0  0  0  0  0  0  # atno 8008 bound_to 7997
  154.4067  140.1241  156.4843 H   0  0  0  0  0  0  0  0  0  0  0  0  # atno 8009 bound_to 7997
  155.7103  140.3471  155.4973 H   0  0  0  0  0  0  0  0  0  0  0  0  # atno 8010 bound_to 7997
  140.5374  143.9737  150.6499 H   0  0  0  0  0  0  0  0  0  0  0  0  # atno 10167 bound_to 10162
  156.5016  130.4589  149.6698 H   0  0  0  0  0  0  0  0  0  0  0  0  # atno 10718 bound_to 10713
  153.8991  135.6804  153.4756 H   0  0  0  0  0  0  0  0  0  0  0  0  # atno 10763 bound_to 10752
  153.1139  135.4770  154.9080 H   0  0  0  0  0  0  0  0  0  0  0  0  # atno 10764 bound_to 10752
  154.7584  135.3204  154.8379 H   0  0  0  0  0  0  0  0  0  0  0  0  # atno 10765 bound_to 10752
  139.8776  134.8998  156.4299 H   0  0  0  0  0  0  0  0  0  0  0  0  # atno 11005 bound_to 11000
  146.2795  139.6840  142.9239 LP  0  0  0  0  0  0  0  0  0  0  0  0  # atno 17320 bound_to 7965
  145.4475  141.0426  143.2823 LP  0  0  0  0  0  0  0  0  0  0  0  0  # atno 17321 bound_to 7965
  140.3129  143.3187  152.0861 LP  0  0  0  0  0  0  0  0  0  0  0  0  # atno 17342 bound_to 10162
  139.4976  144.6625  151.6433 LP  0  0  0  0  0  0  0  0  0  0  0  0  # atno 17343 bound_to 10162
  156.3327  130.7340  151.2272 LP  0  0  0  0  0  0  0  0  0  0  0  0  # atno 17370 bound_to 10713
  157.7462  131.0425  150.4699 LP  0  0  0  0  0  0  0  0  0  0  0  0  # atno 17371 bound_to 10713
  140.9074  133.7736  155.9751 LP  0  0  0  0  0  0  0  0  0  0  0  0  # atno 17394 bound_to 11000
  140.8584  134.2870  157.5245 LP  0  0  0  0  0  0  0  0  0  0  0  0  # atno 17395 bound_to 11000

$$$$
