AV-unprocessed.smi:997|AV-procd|sdf|4348|dock8
  -GOLD-   22720 2243D 1   1.00000     0.00000
 Structure written by MMmdl.
 33 35  0  0  0  0  0  0  0  0  2 V2000
  152.4093  138.2149  156.5463 C   0  0  0  0  0  0  0  0  0  0  0  0
  151.7940  139.5680  156.7405 C   0  0  0  0  0  0  0  0  0  0  0  0
  150.8327  139.9547  155.9328 N   0  0  0  0  0  0  0  0  0  0  0  0
  150.4382  141.1808  156.3521 N   0  0  0  0  0  0  0  0  0  0  0  0
  149.3752  141.8585  155.6327 C   0  0  0  0  0  0  0  0  0  0  0  0
  148.8120  140.9795  154.5082 C   0  0  0  0  0  0  0  0  0  0  0  0
  149.7863  140.8052  153.5024 O   0  0  0  0  0  0  0  0  0  0  0  0
  151.1504  141.6227  157.4517 C   0  0  0  0  0  0  0  0  0  0  0  0
  150.9899  142.8039  158.1135 N   0  0  0  0  0  0  0  0  0  0  0  0
  151.8122  142.9752  159.1686 C   0  0  0  0  0  0  0  0  0  0  0  0
  151.6367  144.2716  159.8970 C   0  0  0  0  0  0  0  0  0  0  0  0
  150.5252  145.2323  159.5359 C   0  0  0  0  0  0  0  0  0  0  0  0
  151.9578  145.5878  159.2259 C   0  0  0  0  0  0  0  0  0  0  0  0
  152.7873  142.0365  159.5627 C   0  0  0  0  0  0  0  0  0  0  0  0
  152.9439  140.8264  158.8444 C   0  0  0  0  0  0  0  0  0  0  0  0
  154.0160  139.8615  159.2776 C   0  0  0  0  0  0  0  0  0  0  0  0
  154.4341  138.9991  158.4772 O   0  0  0  0  0  0  0  0  0  0  0  0
  154.4851  139.9706  160.4328 O   0  5  0  0  0  0  0  0  0  0  0  0
  152.0796  140.5814  157.7350 C   0  0  0  0  0  0  0  0  0  0  0  0
  152.4363  137.6547  157.4810 H   0  0  0  0  0  0  0  0  0  0  0  0
  153.4275  138.2950  156.1658 H   0  0  0  0  0  0  0  0  0  0  0  0
  151.8461  137.6135  155.8317 H   0  0  0  0  0  0  0  0  0  0  0  0
  148.5871  142.1323  156.3358 H   0  0  0  0  0  0  0  0  0  0  0  0
  149.7714  142.7901  155.2267 H   0  0  0  0  0  0  0  0  0  0  0  0
  148.5208  140.0018  154.8935 H   0  0  0  0  0  0  0  0  0  0  0  0
  147.9245  141.4365  154.0694 H   0  0  0  0  0  0  0  0  0  0  0  0
  149.4712  140.1601  152.8879 H   0  0  0  0  0  0  0  0  0  0  0  0
  151.8892  144.1649  160.9502 H   0  0  0  0  0  0  0  0  0  0  0  0
  149.8824  144.9840  158.6933 H   0  0  0  0  0  0  0  0  0  0  0  0
  150.0469  145.7818  160.3437 H   0  0  0  0  0  0  0  0  0  0  0  0
  152.4128  146.3687  159.8313 H   0  0  0  0  0  0  0  0  0  0  0  0
  152.2632  145.5657  158.1816 H   0  0  0  0  0  0  0  0  0  0  0  0
  153.4225  142.2577  160.4085 H   0  0  0  0  0  0  0  0  0  0  0  0
  1  2  1  0  0  0  0
  1 20  1  0  0  0  0
  1 21  1  0  0  0  0
  1 22  1  0  0  0  0
  2 19  1  0  0  0  0
  2  3  2  0  0  0  0
  3  4  1  0  0  0  0
  4  5  1  0  0  0  0
  4  8  1  0  0  0  0
  5  6  1  0  0  0  0
  5 23  1  0  0  0  0
  5 24  1  0  0  0  0
  6  7  1  0  0  0  0
  6 25  1  0  0  0  0
  6 26  1  0  0  0  0
  7 27  1  0  0  0  0
  8 19  1  0  0  0  0
  8  9  2  0  0  0  0
  9 10  1  0  0  0  0
 10 11  1  0  0  0  0
 10 14  2  0  0  0  0
 11 13  1  0  0  0  0
 11 12  1  0  0  0  0
 11 28  1  0  0  0  0
 12 13  1  0  0  0  0
 12 29  1  0  0  0  0
 12 30  1  0  0  0  0
 13 31  1  0  0  0  0
 13 32  1  0  0  0  0
 14 15  1  0  0  0  0
 14 33  1  0  0  0  0
 15 16  1  0  0  0  0
 15 19  2  0  0  0  0
 16 17  2  0  0  0  0
 16 18  1  0  0  0  0
M  CHG  1  18  -1
M  END
> <s_m_source_file>
AV-unprocessed.smi

> <i_m_source_file_index>
997

> <i_lp_mmshare_version>
43012

> <i_f3d_flags>
0

> <s_epik_input>
W09IXVtDSDJdW0NIMl1uMW5jKFtDSDNdKWMoYzEyKWMoQyg9TylbT0hdKVtjSF1jKG4yKVtDSF0zW0NIMl1bQ0gyXTM=

> <s_epik_cmdline>
J2VwaWtfcHl0aG9uJywgJy1waCcsICc3LjAnLCAnLXRuJywgJzgnLCAnLW1hJywgJzIwMCcsICctbWV0YWxfYmluZGluZycsICctaW1hZScsICc8aW5maWxlLm1hZT4nLCAnLW9tYWUnLCAnPG91dGZpbGUubWFlPic=

> <r_epik_Ionization_Penalty>
0.00209497

> <r_epik_Ionization_Penalty_Charging>
0.0019185

> <r_epik_Ionization_Penalty_Neutral>
0.000176473

> <r_epik_State_Penalty>
0.00130684

> <r_epik_Charging_Adjusted_Penalty>
0.00322534

> <i_epik_Tot_Q>
-1

> <i_epik_Tot_abs_Q>
1

> <r_epik_Metal_State_Penalty>
-0

> <b_epik_Metal_Only>
0

> <s_lp_Force_Field>
OPLS_2005

> <r_lp_Energy>
10.3232

> <b_lp_Chiralities_Consistent>
1

> <s_lp_Variant>
AV-unprocessed.smi:997-1

> <Gold.Version>
5.8.1

> <Gold.Id.Protein>
6NUR|6NUR_protein|mol2

> <Gold.PLP.Fitness>
48.4799

> <Gold.PLP.PLP>
-36.8702

> <Gold.PLP.part.hbond>
-3.4551

> <Gold.PLP.part.metal>
0.0000

> <Gold.PLP.part.buried>
-1.0288

> <Gold.PLP.part.nonpolar>
-31.1607

> <Gold.PLP.part.repulsive>
0.0908

> <Gold.PLP.ligand.clash>
0.0000

> <Gold.PLP.ligand.torsion>
0.2510

> <Gold.PLP.Chemscore.Hbond>
3.9920

> <Gold.PLP.Chemscore.CHOScore>
0.0000

> <Gold.PLP.Chemscore.Metal>
0.0000

> <Gold.Chemscore.Hbonds>
donor molecule, donor type, donor heavy atom, donor atom, acceptor molecule, acceptor atom, score
      L1  H     7    27       P1  7957  0.62
      P1  H  7989  7998       L1     7  0.35
      P1  H  7997  8009       L1    17  2.00
      P1  H  8011  8017       L1     7  1.00

> <Gold.PLP.Chemscore.Internal.Correction>
0.1358

> <Gold.Rescore>
     Score         DG    S(hbond)    S(metal)    S(lipo)     H(rot)  DE(clash)    DE(int)     intcor
     16.93     -18.50       2.21        0.00      92.81       2.04       0.28       1.30       ----

> <Gold.Chemscore.Fitness>
16.9257

> <Gold.Chemscore.DG>
-18.5047

> <Gold.Chemscore.ZeroCoef>
-5.4800

> <Gold.Chemscore.Hbond>
2.2099

> <Gold.Chemscore.Metal>
0.0000

> <Gold.Chemscore.Lipo>
92.8116

> <Gold.Chemscore.Internal_Hbond>
0.0000

> <Gold.Chemscore.DEClash>
0.2785

> <Gold.Chemscore.DEInternal>
1.3006

> <Gold.Chemscore.Rot>
2.0372

> <Gold.Chemscore.Internal.Correction>
   9.000000E+99

> <Gold.Chemscore.Hbonds>
donor molecule, donor type, donor heavy atom, donor atom, acceptor molecule, acceptor atom, score
      L1  H     7    27       P1  7957  0.64
      P1  H  7989  7998       L1     7  0.25
      P1  H  7997  8009       L1    17  0.25
      P1  H  8011  8017       L1     7  0.17

> <Gold.Chemscore.Hbond.Weighted>
-7.3809

> <Gold.Chemscore.Metal.Weighted>
-0.0000

> <Gold.Chemscore.Lipo.Weighted>
-10.8590

> <Gold.Chemscore.Internal_Hbond.Weighted>
0.0000

> <Gold.Chemscore.DEClash.Weighted>
0.2785

> <Gold.Chemscore.DEInternal.Weighted>
1.3006

> <Gold.Chemscore.Rot.Weighted>
5.2152

> <Gold.Chemscore.Internal.Correction.Weighted>
   9.000000E+99

> <Gold.Protein.RotatedTorsions>
[ 6907 6896 6895 6894 ] final  171.13 input  -60.11 | X-H torsion
[ 7974 7965 7964 7962 ] final  164.77 input  175.53 | X-H torsion
[ 8008 7997 7996 7995 ] final  111.89 input   59.86 | X-H torsion
[ 10167 10162 10161 10158 ] final  -61.65 input  -65.29 | X-H torsion
[ 10718 10713 10712 10709 ] final   81.59 input   66.30 | X-H torsion
[ 10763 10752 10751 10750 ] final  -11.64 input  -60.55 | X-H torsion
[ 11005 11000 10999 10996 ] final   32.47 input  -57.11 | X-H torsion

> <Gold.Protein.ActiveResidues>
 VAL166  LYS551  ARG553  GLY616  TRP617  ASP618  TYR619  PRO620  LYS621  CYS622 
 ASP623  PHE694  ASN695  SER759  ASP760  ASP761  ALA762  ILE779  LEU786  VAL792 
 PHE793  MET794  SER795  GLU796  ALA797  LYS798  CYS799  TRP800  GLU811  SER814 

> <Gold.Protein.RotatedAtoms>
  151.8051  133.3374  159.3538 H   0  0  0  0  0  0  0  0  0  0  0  0  # atno 6907 bound_to 6896
  150.7345  134.5717  159.5903 H   0  0  0  0  0  0  0  0  0  0  0  0  # atno 6908 bound_to 6896
  152.3115  134.7492  160.0386 H   0  0  0  0  0  0  0  0  0  0  0  0  # atno 6909 bound_to 6896
  144.7531  139.8373  143.6359 H   0  0  0  0  0  0  0  0  0  0  0  0  # atno 7974 bound_to 7965
  156.2155  140.3010  155.9830 H   0  0  0  0  0  0  0  0  0  0  0  0  # atno 8008 bound_to 7997
  155.2616  140.0430  157.3015 H   0  0  0  0  0  0  0  0  0  0  0  0  # atno 8009 bound_to 7997
  154.5761  140.2362  155.8128 H   0  0  0  0  0  0  0  0  0  0  0  0  # atno 8010 bound_to 7997
  140.5992  143.2357  151.5967 H   0  0  0  0  0  0  0  0  0  0  0  0  # atno 10167 bound_to 10162
  157.6837  131.0011  150.2249 H   0  0  0  0  0  0  0  0  0  0  0  0  # atno 10718 bound_to 10713
  153.4868  135.7017  153.5907 H   0  0  0  0  0  0  0  0  0  0  0  0  # atno 10763 bound_to 10752
  153.4097  135.3851  155.2042 H   0  0  0  0  0  0  0  0  0  0  0  0  # atno 10764 bound_to 10752
  154.8719  135.3901  154.4323 H   0  0  0  0  0  0  0  0  0  0  0  0  # atno 10765 bound_to 10752
  140.2731  134.3059  155.7822 H   0  0  0  0  0  0  0  0  0  0  0  0  # atno 11005 bound_to 11000
  146.1507  139.4589  143.0050 LP  0  0  0  0  0  0  0  0  0  0  0  0  # atno 17320 bound_to 7965
  145.6874  141.0174  143.1574 LP  0  0  0  0  0  0  0  0  0  0  0  0  # atno 17321 bound_to 7965
  139.5279  144.3003  152.1078 LP  0  0  0  0  0  0  0  0  0  0  0  0  # atno 17342 bound_to 10162
  140.2181  144.4494  150.6354 LP  0  0  0  0  0  0  0  0  0  0  0  0  # atno 17343 bound_to 10162
  156.2893  130.3743  149.7857 LP  0  0  0  0  0  0  0  0  0  0  0  0  # atno 17370 bound_to 10713
  156.5521  130.8346  151.3303 LP  0  0  0  0  0  0  0  0  0  0  0  0  # atno 17371 bound_to 10713
  141.2174  133.7479  156.9366 LP  0  0  0  0  0  0  0  0  0  0  0  0  # atno 17394 bound_to 11000
  140.1354  134.9329  157.2394 LP  0  0  0  0  0  0  0  0  0  0  0  0  # atno 17395 bound_to 11000

$$$$
