AV-unprocessed.smi:3129|AV-procd|sdf|11925|dock5
  -GOLD-   2272017313D 1   1.00000     0.00000
 Structure written by MMmdl.
 39 39  0  0  0  0  0  0  0  0  1 V2000
  149.7180  140.0427  154.3867 C   0  0  0  0  0  0  0  0  0  0  0  0
  150.1005  138.6238  154.8439 C   0  0  0  0  0  0  0  0  0  0  0  0
  151.2388  138.0697  153.9745 C   0  0  0  0  0  0  0  0  0  0  0  0
  148.9026  137.6502  154.8516 C   0  0  0  0  0  0  0  0  0  0  0  0
  148.0710  137.7780  153.6582 N   0  0  0  0  0  0  0  0  0  0  0  0
  146.8037  138.2196  153.6328 C   0  0  0  0  0  0  0  0  0  0  0  0
  146.1895  138.5766  154.6391 O   0  0  0  0  0  0  0  0  0  0  0  0
  146.1213  138.2692  152.2559 C   0  0  1  0  0  0  0  0  0  0  0  0
  146.7973  139.3282  151.3716 C   0  0  0  0  0  0  0  0  0  0  0  0
  146.1069  136.9710  151.5577 N   0  0  0  0  0  0  0  0  0  0  0  0
  145.1097  136.0331  152.0612 C   0  0  0  0  0  0  0  0  0  0  0  0
  144.3832  135.3822  150.8756 C   0  0  0  0  0  0  0  0  0  0  0  0
  144.6739  133.9645  150.7846 N   0  0  0  0  0  0  0  0  0  0  0  0
  143.7888  132.9072  150.7755 C   0  0  0  0  0  0  0  0  0  0  0  0
  144.5252  131.7620  150.6708 C   0  0  0  0  0  0  0  0  0  0  0  0
  145.8690  132.2280  150.6209 C   0  0  0  0  0  0  0  0  0  0  0  0
  145.9547  133.5469  150.6877 N   0  0  0  0  0  0  0  0  0  0  0  0
  149.2854  140.0324  153.3859 H   0  0  0  0  0  0  0  0  0  0  0  0
  150.5902  140.6965  154.3649 H   0  0  0  0  0  0  0  0  0  0  0  0
  148.9930  140.5005  155.0594 H   0  0  0  0  0  0  0  0  0  0  0  0
  150.4793  138.6978  155.8642 H   0  0  0  0  0  0  0  0  0  0  0  0
  150.9255  137.9599  152.9356 H   0  0  0  0  0  0  0  0  0  0  0  0
  151.5651  137.0919  154.3295 H   0  0  0  0  0  0  0  0  0  0  0  0
  152.1061  138.7303  153.9925 H   0  0  0  0  0  0  0  0  0  0  0  0
  149.2475  136.6227  154.9809 H   0  0  0  0  0  0  0  0  0  0  0  0
  148.2661  137.8625  155.7111 H   0  0  0  0  0  0  0  0  0  0  0  0
  148.4922  137.5084  152.7810 H   0  0  0  0  0  0  0  0  0  0  0  0
  145.0844  138.5777  152.4008 H   0  0  0  0  0  0  0  0  0  0  0  0
  146.8028  140.3056  151.8564 H   0  0  0  0  0  0  0  0  0  0  0  0
  146.2706  139.4385  150.4232 H   0  0  0  0  0  0  0  0  0  0  0  0
  147.8312  139.0632  151.1468 H   0  0  0  0  0  0  0  0  0  0  0  0
  147.0191  136.5371  151.5651 H   0  0  0  0  0  0  0  0  0  0  0  0
  145.5797  135.2579  152.6675 H   0  0  0  0  0  0  0  0  0  0  0  0
  144.3959  136.5601  152.6957 H   0  0  0  0  0  0  0  0  0  0  0  0
  143.3034  135.5122  150.9665 H   0  0  0  0  0  0  0  0  0  0  0  0
  144.6818  135.8556  149.9392 H   0  0  0  0  0  0  0  0  0  0  0  0
  142.7209  133.0561  150.8424 H   0  0  0  0  0  0  0  0  0  0  0  0
  144.1598  130.7465  150.6350 H   0  0  0  0  0  0  0  0  0  0  0  0
  146.7784  131.6511  150.5379 H   0  0  0  0  0  0  0  0  0  0  0  0
  1  2  1  0  0  0  0
  1 18  1  0  0  0  0
  1 19  1  0  0  0  0
  1 20  1  0  0  0  0
  2  3  1  0  0  0  0
  2  4  1  0  0  0  0
  2 21  1  0  0  0  0
  3 22  1  0  0  0  0
  3 23  1  0  0  0  0
  3 24  1  0  0  0  0
  4  5  1  0  0  0  0
  4 25  1  0  0  0  0
  4 26  1  0  0  0  0
  5  6  1  0  0  0  0
  5 27  1  0  0  0  0
  6  7  2  0  0  0  0
  6  8  1  0  0  0  0
  8  9  1  0  0  0  0
  8 10  1  0  0  0  0
  8 28  1  0  0  0  0
  9 29  1  0  0  0  0
  9 30  1  0  0  0  0
  9 31  1  0  0  0  0
 10 11  1  0  0  0  0
 10 32  1  0  0  0  0
 11 12  1  0  0  0  0
 11 33  1  0  0  0  0
 11 34  1  0  0  0  0
 12 13  1  0  0  0  0
 12 35  1  0  0  0  0
 12 36  1  0  0  0  0
 13 17  1  0  0  0  0
 13 14  1  0  0  0  0
 14 15  2  0  0  0  0
 14 37  1  0  0  0  0
 15 16  1  0  0  0  0
 15 38  1  0  0  0  0
 16 17  2  0  0  0  0
 16 39  1  0  0  0  0
M  END
> <s_m_source_file>
AV-unprocessed.smi

> <i_m_source_file_index>
3129

> <i_lp_mmshare_version>
43012

> <i_f3d_flags>
0

> <s_epik_input>
W0NIM11bQ0hdKFtDSDNdKVtDSDJdW05IXUMoPU8pW0NASF0oW0NIM10pW05IXVtDSDJdW0NIMl1uMVtjSF1bY0hdW2NIXW4x

> <s_epik_cmdline>
J2VwaWtfcHl0aG9uJywgJy1waCcsICc3LjAnLCAnLXRuJywgJzgnLCAnLW1hJywgJzIwMCcsICctbWV0YWxfYmluZGluZycsICctaW1hZScsICc8aW5maWxlLm1hZT4nLCAnLW9tYWUnLCAnPG91dGZpbGUubWFlPic=

> <r_lp_tautomer_probability>
1

> <r_epik_Ionization_Penalty>
0.724007

> <r_epik_Ionization_Penalty_Charging>
0

> <r_epik_Ionization_Penalty_Neutral>
0.724007

> <r_epik_State_Penalty>
0.74758

> <r_epik_Charging_Adjusted_Penalty>
0.74758

> <i_epik_Tot_Q>
0

> <i_epik_Tot_abs_Q>
0

> <r_epik_Metal_State_Penalty>
0.746851

> <b_epik_Metal_Only>
0

> <s_lp_Force_Field>
OPLS_2005

> <r_lp_Energy>
5.77618

> <b_lp_Chiralities_Consistent>
1

> <s_lp_Variant>
AV-unprocessed.smi:3129-4

> <Gold.Version>
5.8.1

> <Gold.Id.Protein>
6NUR|6NUR_protein|mol2

> <Gold.PLP.Fitness>
43.4434

> <Gold.PLP.PLP>
-33.6349

> <Gold.PLP.part.hbond>
-2.2161

> <Gold.PLP.part.metal>
0.0000

> <Gold.PLP.part.buried>
-3.2523

> <Gold.PLP.part.nonpolar>
-29.5475

> <Gold.PLP.part.repulsive>
0.2821

> <Gold.PLP.ligand.clash>
0.0000

> <Gold.PLP.ligand.torsion>
1.1015

> <Gold.PLP.Chemscore.Hbond>
1.9600

> <Gold.PLP.Chemscore.CHOScore>
2.0000

> <Gold.PLP.Chemscore.Metal>
0.0000

> <Gold.Chemscore.Hbonds>
donor molecule, donor type, donor heavy atom, donor atom, acceptor molecule, acceptor atom, score
      L1  H     5    27       P1  7948  0.91
      L1  H    10    32       P1  7948  1.00
      L1  C    14    37       P1 10186  0.98
      L1  C    16    39       P1 10747  1.00

> <Gold.PLP.Chemscore.Internal.Correction>
0.1314

> <Gold.Rescore>
     Score         DG    S(hbond)    S(metal)    S(lipo)     H(rot)  DE(clash)    DE(int)     intcor
     14.61     -16.12       1.96        0.00      81.55       2.13       0.32       1.19       ----

> <Gold.Chemscore.Fitness>
14.6050

> <Gold.Chemscore.DG>
-16.1197

> <Gold.Chemscore.ZeroCoef>
-5.4800

> <Gold.Chemscore.Hbond>
1.9647

> <Gold.Chemscore.Metal>
0.0000

> <Gold.Chemscore.Lipo>
81.5532

> <Gold.Chemscore.Internal_Hbond>
0.0000

> <Gold.Chemscore.DEClash>
0.3235

> <Gold.Chemscore.DEInternal>
1.1912

> <Gold.Chemscore.Rot>
2.1345

> <Gold.Chemscore.Internal.Correction>
   9.000000E+99

> <Gold.Chemscore.Hbonds>
donor molecule, donor type, donor heavy atom, donor atom, acceptor molecule, acceptor atom, score
      L1  H     5    27       P1  7948  0.89
      L1  H    10    32       P1  7948  0.99

> <Gold.Chemscore.Hbond.Weighted>
-6.5622

> <Gold.Chemscore.Metal.Weighted>
-0.0000

> <Gold.Chemscore.Lipo.Weighted>
-9.5417

> <Gold.Chemscore.Internal_Hbond.Weighted>
0.0000

> <Gold.Chemscore.DEClash.Weighted>
0.3235

> <Gold.Chemscore.DEInternal.Weighted>
1.1912

> <Gold.Chemscore.Rot.Weighted>
5.4642

> <Gold.Chemscore.Internal.Correction.Weighted>
   9.000000E+99

> <Gold.Protein.RotatedTorsions>
[ 6907 6896 6895 6894 ] final -102.65 input  -60.11 | X-H torsion
[ 7974 7965 7964 7962 ] final   95.00 input  175.53 | X-H torsion
[ 8008 7997 7996 7995 ] final  -68.62 input   59.86 | X-H torsion
[ 10167 10162 10161 10158 ] final  -30.95 input  -65.29 | X-H torsion
[ 10718 10713 10712 10709 ] final -101.13 input   66.30 | X-H torsion
[ 10763 10752 10751 10750 ] final    4.11 input  -60.55 | X-H torsion
[ 11005 11000 10999 10996 ] final  168.20 input  -57.11 | X-H torsion

> <Gold.Protein.ActiveResidues>
 VAL166  LYS551  ARG553  GLY616  TRP617  ASP618  TYR619  PRO620  LYS621  CYS622 
 ASP623  PHE694  ASN695  SER759  ASP760  ASP761  ALA762  ILE779  LEU786  VAL792 
 PHE793  MET794  SER795  GLU796  ALA797  LYS798  CYS799  TRP800  GLU811  SER814 

> <Gold.Protein.RotatedAtoms>
  150.7205  134.0549  159.3810 H   0  0  0  0  0  0  0  0  0  0  0  0  # atno 6907 bound_to 6896
  151.8527  135.0550  160.0470 H   0  0  0  0  0  0  0  0  0  0  0  0  # atno 6908 bound_to 6896
  152.2778  133.5406  159.5515 H   0  0  0  0  0  0  0  0  0  0  0  0  # atno 6909 bound_to 6896
  145.4580  139.2289  143.3003 H   0  0  0  0  0  0  0  0  0  0  0  0  # atno 7974 bound_to 7965
  154.4881  140.0869  156.7532 H   0  0  0  0  0  0  0  0  0  0  0  0  # atno 8008 bound_to 7997
  155.4300  140.3449  155.4261 H   0  0  0  0  0  0  0  0  0  0  0  0  # atno 8009 bound_to 7997
  156.1290  140.1496  156.9081 H   0  0  0  0  0  0  0  0  0  0  0  0  # atno 8010 bound_to 7997
  140.7243  143.3809  151.1603 H   0  0  0  0  0  0  0  0  0  0  0  0  # atno 10167 bound_to 10162
  156.0185  130.5359  150.6918 H   0  0  0  0  0  0  0  0  0  0  0  0  # atno 10718 bound_to 10713
  153.2752  135.6936  153.7440 H   0  0  0  0  0  0  0  0  0  0  0  0  # atno 10763 bound_to 10752
  153.6449  135.3387  155.3083 H   0  0  0  0  0  0  0  0  0  0  0  0  # atno 10764 bound_to 10752
  154.8477  135.4440  154.1787 H   0  0  0  0  0  0  0  0  0  0  0  0  # atno 10765 bound_to 10752
  140.2847  134.7722  157.3788 H   0  0  0  0  0  0  0  0  0  0  0  0  # atno 11005 bound_to 11000
  146.2467  140.5346  142.8911 LP  0  0  0  0  0  0  0  0  0  0  0  0  # atno 17320 bound_to 7965
  144.8020  140.6231  143.6471 LP  0  0  0  0  0  0  0  0  0  0  0  0  # atno 17321 bound_to 7965
  139.7397  143.8943  152.3046 LP  0  0  0  0  0  0  0  0  0  0  0  0  # atno 17342 bound_to 10162
  139.8760  144.7043  150.8932 LP  0  0  0  0  0  0  0  0  0  0  0  0  # atno 17343 bound_to 10162
  157.4598  131.0882  151.0758 LP  0  0  0  0  0  0  0  0  0  0  0  0  # atno 17370 bound_to 10713
  157.1249  130.6077  149.5514 LP  0  0  0  0  0  0  0  0  0  0  0  0  # atno 17371 bound_to 10713
  140.1250  134.5169  155.8152 LP  0  0  0  0  0  0  0  0  0  0  0  0  # atno 17394 bound_to 11000
  141.2157  133.6769  156.6936 LP  0  0  0  0  0  0  0  0  0  0  0  0  # atno 17395 bound_to 11000

$$$$
