#       Name:                AV-unprocessed.smi:2553
#       Creating user name   scv26
#       Creation time:       Fri Mar 27 14:06:18 2020


#       File generated by GOLD software.
#

@<TRIPOS>MOLECULE
AV-unprocessed.smi:2553
    35    36     1
SMALL
NO_CHARGES


@<TRIPOS>ATOM
      1 ****        -3.5422   3.8374   0.7716 O.2            1 S1                 0.0000
      2 ****        -3.1541   2.6772   0.6490 C.2            1 S1                 0.0000
      3 ****        -2.8789   1.9114   1.7862 N.am           1 S1                 0.0000
      4 ****        -2.4345   0.5888   1.7869 C.2            1 S1                 0.0000
      5 ****        -2.2071   0.0179   2.8536 O.2            1 S1                 0.0000
      6 ****        -2.2644  -0.0259   0.5254 N.am           1 S1                 0.0000
      7 ****        -1.7732  -1.3818   0.4920 C.3            1 S1                 0.0000
      8 ****        -0.2431  -1.4594   0.6085 C.3            1 S1                 0.0000
      9 ****         0.3199  -0.8237  -0.5309 O.3            1 S1                 0.0000
     10 ****         1.6913  -0.7367  -0.6320 C.ar           1 S1                 0.0000
     11 ****         2.5908  -1.2816   0.3191 C.ar           1 S1                 0.0000
     12 ****         3.9818  -1.1533   0.1400 C.ar           1 S1                 0.0000
     13 ****         4.4905  -0.4824  -0.9872 C.ar           1 S1                 0.0000
     14 ****         5.8282  -0.3621  -1.1586 F              1 S1                 0.0000
     15 ****         3.6061   0.0630  -1.9355 C.ar           1 S1                 0.0000
     16 ****         2.2143  -0.0628  -1.7582 C.ar           1 S1                 0.0000
     17 ****         1.1467   0.6186  -2.9335 Cl             1 S1                 0.0000
     18 ****        -2.5140   0.6992  -0.6296 C.2            1 S1                 0.0000
     19 ****        -2.9374   1.9861  -0.6215 C.2            1 S1                 0.0000
     20 ****        -3.2172   2.8263  -2.1045 Cl             1 S1                 0.0000
     21 ****        -3.0075   2.3555   2.6838 H              1 S1                 0.0000
     22 ****        -2.2806  -1.9420   1.2800 H              1 S1                 0.0000
     23 ****        -2.1148  -1.8090  -0.4521 H              1 S1                 0.0000
     24 ****         0.0939  -0.9793   1.5285 H              1 S1                 0.0000
     25 ****         0.0662  -2.5051   0.6409 H              1 S1                 0.0000
     26 ****         2.2388  -1.8047   1.1951 H              1 S1                 0.0000
     27 ****         4.6598  -1.5719   0.8691 H              1 S1                 0.0000
     28 ****         3.9966   0.5790  -2.8003 H              1 S1                 0.0000
     29 ****        -2.3562   0.2203  -1.5858 H              1 S1                 0.0000
     30 ****        -3.7369   4.3880  -0.0402 LP             1 S1                 0.0000
     31 ****        -3.6632   4.2305   1.6831 LP             1 S1                 0.0000
     32 ****        -2.3409   0.5021   3.7183 LP             1 S1                 0.0000
     33 ****        -1.8885  -0.9300   2.8554 LP             1 S1                 0.0000
     34 ****        -0.0363   0.1105  -0.5524 LP             1 S1                 0.0000
     35 ****        -0.0032  -1.3222  -1.3353 LP             1 S1                 0.0000
@<TRIPOS>BOND
    1    1    2 2     
    2    2   19 1     
    3    2    3 1     
    4    3   21 1     
    5    3    4 1     
    6    4    5 2     
    7    4    6 1     
    8    6    7 1     
    9    6   18 1     
   10    7    8 1     
   11    7   22 1     
   12    7   23 1     
   13    8    9 1     
   14    8   24 1     
   15    8   25 1     
   16    9   10 1     
   17   10   16 ar    
   18   10   11 ar    
   19   11   12 ar    
   20   11   26 1     
   21   12   13 ar    
   22   12   27 1     
   23   13   14 1     
   24   13   15 ar    
   25   15   16 ar    
   26   15   28 1     
   27   16   17 1     
   28   18   19 2     
   29   18   29 1     
   30   19   20 1     
   31    1   30 1     
   32    1   31 1     
   33    5   32 1     
   34    5   33 1     
   35    9   34 1     
   36    9   35 1     
@<TRIPOS>SUBSTRUCTURE
      1 S1             1
@<TRIPOS>SET
LONE_PAIRS      STATIC     ATOMS    <user>   **** ""
6 30 31 32 33 34 35
DONOR_HYDROGENS      STATIC     ATOMS    <user>   **** ""
1 21
ATOM$BLUE        STATIC     ATOMS    COLORGROUP SYSTEM
6 30 31 32 33 34 35
ATOM$RED        STATIC     ATOMS    COLORGROUP SYSTEM
1 21
