#       Name:                AV-unprocessed.smi:1701
#       Creating user name   scv26
#       Creation time:       Fri Mar 27 08:00:11 2020


#       File generated by GOLD software.
#

@<TRIPOS>MOLECULE
AV-unprocessed.smi:1701
    57    59     1
SMALL
NO_CHARGES


@<TRIPOS>ATOM
      1 ****        -6.1175  -2.9477  -1.2021 C.3            1 S1                 0.0000
      2 ****        -5.8762  -1.4414  -1.3665 C.3            1 S1                 0.0000
      3 ****        -5.1599  -0.8697  -0.2271 N.pl3          1 S1                 0.0000
      4 ****        -5.9252  -0.4132   0.9303 C.3            1 S1                 0.0000
      5 ****        -6.3212   1.0646   0.8153 C.3            1 S1                 0.0000
      6 ****        -3.7466  -0.8072  -0.2256 C.ar           1 S1                 0.0000
      7 ****        -2.9959  -0.1224   0.7624 C.ar           1 S1                 0.0000
      8 ****        -1.5875  -0.1095   0.6940 C.ar           1 S1                 0.0000
      9 ****        -0.9297  -0.7692  -0.3646 C.ar           1 S1                 0.0000
     10 ****         0.4912  -0.7444  -0.3860 N.am           1 S1                 0.0000
     11 ****         1.3170  -0.9851  -1.4236 C.2            1 S1                 0.0000
     12 ****         0.9459  -1.2006  -2.5748 O.2            1 S1                 0.0000
     13 ****         2.6265  -0.9252  -1.1203 N.am           1 S1                 0.0000
     14 ****         3.7851  -1.1313  -1.9950 C.3            1 S1                 0.0000
     15 ****         4.9987  -0.2801  -1.5710 C.3            1 S1                 0.0000
     16 ****         6.2029  -1.2180  -1.7004 C.3            1 S1                 0.0000
     17 ****         5.6332  -2.5305  -1.3751 N.4            1 S1                 1.0000
     18 ****         6.4481  -3.7348  -1.6353 C.3            1 S1                 0.0000
     19 ****         5.7116  -4.9586  -1.0503 C.3            1 S1                 0.0000
     20 ****         4.2526  -5.0568  -1.5506 C.3            1 S1                 0.0000
     21 ****         3.4923  -3.7258  -1.3647 C.3            1 S1                 0.0000
     22 ****         4.3053  -2.5891  -2.0109 C.3            1 S1                 0.0000
     23 ****        -1.7206  -1.4470  -1.3220 C.ar           1 S1                 0.0000
     24 ****        -3.0664  -1.4352  -1.2157 N.pl3          1 S1                 1.0000
     25 ****        -6.6674  -3.3455  -2.0550 H              1 S1                 0.0000
     26 ****        -6.6993  -3.1603  -0.3047 H              1 S1                 0.0000
     27 ****        -5.1775  -3.4954  -1.1296 H              1 S1                 0.0000
     28 ****        -5.3486  -1.2405  -2.2993 H              1 S1                 0.0000
     29 ****        -6.8372  -0.9346  -1.4601 H              1 S1                 0.0000
     30 ****        -6.8310  -1.0156   1.0059 H              1 S1                 0.0000
     31 ****        -5.3791  -0.5978   1.8551 H              1 S1                 0.0000
     32 ****        -6.9004   1.3773   1.6842 H              1 S1                 0.0000
     33 ****        -6.9321   1.2428  -0.0702 H              1 S1                 0.0000
     34 ****        -5.4445   1.7097   0.7518 H              1 S1                 0.0000
     35 ****        -3.4753   0.4033   1.5739 H              1 S1                 0.0000
     36 ****        -1.0194   0.4124   1.4503 H              1 S1                 0.0000
     37 ****         0.9341  -0.4855   0.4833 H              1 S1                 0.0000
     38 ****         2.8437  -0.6524  -0.1723 H              1 S1                 0.0000
     39 ****         3.5302  -0.8436  -3.0166 H              1 S1                 0.0000
     40 ****         5.1097   0.6232  -2.1719 H              1 S1                 0.0000
     41 ****         4.8988   0.0306  -0.5295 H              1 S1                 0.0000
     42 ****         6.5795  -1.2216  -2.7247 H              1 S1                 0.0000
     43 ****         7.0204  -0.9494  -1.0306 H              1 S1                 0.0000
     44 ****         6.6122  -3.8536  -2.7071 H              1 S1                 0.0000
     45 ****         7.4271  -3.6255  -1.1670 H              1 S1                 0.0000
     46 ****         6.2533  -5.8729  -1.2943 H              1 S1                 0.0000
     47 ****         5.7091  -4.8866   0.0383 H              1 S1                 0.0000
     48 ****         4.2541  -5.3256  -2.6078 H              1 S1                 0.0000
     49 ****         3.7324  -5.8618  -1.0306 H              1 S1                 0.0000
     50 ****         2.5048  -3.7999  -1.8206 H              1 S1                 0.0000
     51 ****         3.3391  -3.5295  -0.3027 H              1 S1                 0.0000
     52 ****         4.4589  -2.8461  -3.0613 H              1 S1                 0.0000
     53 ****        -1.3389  -2.0091  -2.1611 H              1 S1                 0.0000
     54 ****         5.4637  -2.5099  -0.3795 H              1 S1                 0.0000
     55 ****        -3.6042  -1.9352  -1.9240 H              1 S1                 0.0000
     56 ****        -0.0300  -1.2052  -2.7930 LP             1 S1                 0.0000
     57 ****         1.6197  -1.3714  -3.2936 LP             1 S1                 0.0000
@<TRIPOS>BOND
    1    1    2 1     
    2    1   25 1     
    3    1   26 1     
    4    1   27 1     
    5    2    3 1     
    6    2   28 1     
    7    2   29 1     
    8    3    4 1     
    9    3    6 1     
   10    4    5 1     
   11    4   30 1     
   12    4   31 1     
   13    5   32 1     
   14    5   33 1     
   15    5   34 1     
   16    6   24 ar    
   17    6    7 ar    
   18    7    8 ar    
   19    7   35 1     
   20    8    9 ar    
   21    8   36 1     
   22    9   10 1     
   23    9   23 ar    
   24   10   11 am    
   25   10   37 1     
   26   11   12 2     
   27   11   13 am    
   28   13   14 1     
   29   13   38 1     
   30   14   22 1     
   31   14   15 1     
   32   14   39 1     
   33   15   16 1     
   34   15   40 1     
   35   15   41 1     
   36   16   17 1     
   37   16   42 1     
   38   16   43 1     
   39   17   22 1     
   40   17   18 1     
   41   17   54 1     
   42   18   19 1     
   43   18   44 1     
   44   18   45 1     
   45   19   20 1     
   46   19   46 1     
   47   19   47 1     
   48   20   21 1     
   49   20   48 1     
   50   20   49 1     
   51   21   22 1     
   52   21   50 1     
   53   21   51 1     
   54   22   52 1     
   55   23   24 ar    
   56   23   53 1     
   57   24   55 1     
   58   12   56 1     
   59   12   57 1     
@<TRIPOS>SUBSTRUCTURE
      1 S1             1
@<TRIPOS>SET
LONE_PAIRS      STATIC     ATOMS    <user>   **** ""
2 56 57
DONOR_HYDROGENS      STATIC     ATOMS    <user>   **** ""
4 37 38 54 55
ATOM$BLUE        STATIC     ATOMS    COLORGROUP SYSTEM
2 56 57
ATOM$RED        STATIC     ATOMS    COLORGROUP SYSTEM
4 37 38 54 55
