AV-unprocessed.smi:974|AV-procd|sdf|4300|dock2
  -GOLD-   22720 2203D 1   1.00000     0.00000
 Structure written by MMmdl.
 31 32  0  0  0  0  0  0  0  0  1 V2000
  148.4309  137.4438  154.0972 N   0  0  0  0  0  0  0  0  0  0  0  0
  149.2999  138.4747  154.5008 C   0  0  0  0  0  0  0  0  0  0  0  0
  150.6815  138.6586  154.2127 C   0  0  0  0  0  0  0  0  0  0  0  0
  151.1766  139.7536  154.7673 N   0  0  0  0  0  0  0  0  0  0  0  0
  150.1314  140.3027  155.4250 N   0  0  0  0  0  0  0  0  0  0  0  0
  150.3089  141.5421  156.1596 C   0  0  0  0  0  0  0  0  0  0  0  0
  151.4996  141.4486  157.1140 C   0  0  0  0  0  0  0  0  0  0  0  0
  152.2266  140.4555  157.0957 O   0  0  0  0  0  0  0  0  0  0  0  0
  151.6862  142.4890  157.9407 N   0  0  0  0  0  0  0  0  0  0  0  0
  152.7506  142.5939  158.9347 C   0  0  0  0  0  0  0  0  0  0  0  0
  152.5203  141.6000  160.0897 C   0  0  0  0  0  0  0  0  0  0  0  0
  152.6998  142.4009  161.3810 C   0  0  0  0  0  0  0  0  0  0  0  0
  152.2781  143.8180  161.0070 C   0  0  0  0  0  0  0  0  0  0  0  0
  152.7922  143.9949  159.5782 C   0  0  0  0  0  0  0  0  0  0  0  0
  148.9839  139.5505  155.2802 C   0  0  0  0  0  0  0  0  0  0  0  0
  147.4590  137.4275  154.3715 H   0  0  0  0  0  0  0  0  0  0  0  0
  148.7403  136.6838  153.5084 H   0  0  0  0  0  0  0  0  0  0  0  0
  151.3353  138.0342  153.6218 H   0  0  0  0  0  0  0  0  0  0  0  0
  150.4667  142.3521  155.4464 H   0  0  0  0  0  0  0  0  0  0  0  0
  149.3977  141.7752  156.7133 H   0  0  0  0  0  0  0  0  0  0  0  0
  151.0352  143.2591  157.8861 H   0  0  0  0  0  0  0  0  0  0  0  0
  153.7113  142.3828  158.4611 H   0  0  0  0  0  0  0  0  0  0  0  0
  151.5043  141.2026  160.0591 H   0  0  0  0  0  0  0  0  0  0  0  0
  153.1990  140.7477  160.0414 H   0  0  0  0  0  0  0  0  0  0  0  0
  152.1212  141.9948  162.2113 H   0  0  0  0  0  0  0  0  0  0  0  0
  153.7507  142.3969  161.6736 H   0  0  0  0  0  0  0  0  0  0  0  0
  151.1898  143.8925  161.0180 H   0  0  0  0  0  0  0  0  0  0  0  0
  152.6718  144.5697  161.6916 H   0  0  0  0  0  0  0  0  0  0  0  0
  153.8258  144.3423  159.6094 H   0  0  0  0  0  0  0  0  0  0  0  0
  152.2209  144.7452  159.0299 H   0  0  0  0  0  0  0  0  0  0  0  0
  148.0504  139.8429  155.7387 H   0  0  0  0  0  0  0  0  0  0  0  0
  1  2  1  0  0  0  0
  1 16  1  0  0  0  0
  1 17  1  0  0  0  0
  2 15  2  0  0  0  0
  2  3  1  0  0  0  0
  3  4  2  0  0  0  0
  3 18  1  0  0  0  0
  4  5  1  0  0  0  0
  5  6  1  0  0  0  0
  5 15  1  0  0  0  0
  6  7  1  0  0  0  0
  6 19  1  0  0  0  0
  6 20  1  0  0  0  0
  7  8  2  0  0  0  0
  7  9  1  0  0  0  0
  9 10  1  0  0  0  0
  9 21  1  0  0  0  0
 10 14  1  0  0  0  0
 10 11  1  0  0  0  0
 10 22  1  0  0  0  0
 11 12  1  0  0  0  0
 11 23  1  0  0  0  0
 11 24  1  0  0  0  0
 12 13  1  0  0  0  0
 12 25  1  0  0  0  0
 12 26  1  0  0  0  0
 13 14  1  0  0  0  0
 13 27  1  0  0  0  0
 13 28  1  0  0  0  0
 14 29  1  0  0  0  0
 14 30  1  0  0  0  0
 15 31  1  0  0  0  0
M  END
> <s_m_source_file>
AV-unprocessed.smi

> <i_m_source_file_index>
974

> <i_lp_mmshare_version>
43012

> <i_f3d_flags>
0

> <s_epik_input>
W05IMl1jMVtjSF1ubihbY0hdMSlbQ0gyXUMoPU8pW05IXVtDSF0yW0NIMl1bQ0gyXVtDSDJdW0NIMl0y

> <s_epik_cmdline>
J2VwaWtfcHl0aG9uJywgJy1waCcsICc3LjAnLCAnLXRuJywgJzgnLCAnLW1hJywgJzIwMCcsICctbWV0YWxfYmluZGluZycsICctaW1hZScsICc8aW5maWxlLm1hZT4nLCAnLW9tYWUnLCAnPG91dGZpbGUubWFlPic=

> <r_lp_tautomer_probability>
1

> <r_epik_Ionization_Penalty>
0.000104856

> <r_epik_Ionization_Penalty_Charging>
0

> <r_epik_Ionization_Penalty_Neutral>
0.000104856

> <r_epik_State_Penalty>
-0

> <r_epik_Charging_Adjusted_Penalty>
0

> <i_epik_Tot_Q>
0

> <i_epik_Tot_abs_Q>
0

> <r_epik_Metal_State_Penalty>
-0

> <b_epik_Metal_Only>
0

> <s_lp_Force_Field>
OPLS_2005

> <r_lp_Energy>
19.843

> <b_lp_Chiralities_Consistent>
1

> <s_lp_Variant>
AV-unprocessed.smi:974-1

> <Gold.Version>
5.8.1

> <Gold.Id.Protein>
6NUR|6NUR_protein|mol2

> <Gold.PLP.Fitness>
39.7633

> <Gold.PLP.PLP>
-32.6199

> <Gold.PLP.part.hbond>
-2.7304

> <Gold.PLP.part.metal>
0.0000

> <Gold.PLP.part.buried>
-4.1199

> <Gold.PLP.part.nonpolar>
-25.5633

> <Gold.PLP.part.repulsive>
0.1199

> <Gold.PLP.ligand.clash>
0.0000

> <Gold.PLP.ligand.torsion>
0.1844

> <Gold.PLP.Chemscore.Hbond>
2.5029

> <Gold.PLP.Chemscore.CHOScore>
0.0000

> <Gold.PLP.Chemscore.Metal>
0.0000

> <Gold.Chemscore.Hbonds>
donor molecule, donor type, donor heavy atom, donor atom, acceptor molecule, acceptor atom, score
      L1  H     1    17       P1  7948  0.86
      P1  H  7989  7998       L1     4  1.00
      P1  H  7997  8009       L1     8  0.50

> <Gold.PLP.Chemscore.Internal.Correction>
0.0037

> <Gold.Rescore>
     Score         DG    S(hbond)    S(metal)    S(lipo)     H(rot)  DE(clash)    DE(int)     intcor
     17.53     -19.07       2.45        0.00      81.55       1.61       0.03       1.52       ----

> <Gold.Chemscore.Fitness>
17.5256

> <Gold.Chemscore.DG>
-19.0718

> <Gold.Chemscore.ZeroCoef>
-5.4800

> <Gold.Chemscore.Hbond>
2.4460

> <Gold.Chemscore.Metal>
0.0000

> <Gold.Chemscore.Lipo>
81.5460

> <Gold.Chemscore.Internal_Hbond>
0.0000

> <Gold.Chemscore.DEClash>
0.0303

> <Gold.Chemscore.DEInternal>
1.5159

> <Gold.Chemscore.Rot>
1.6089

> <Gold.Chemscore.Internal.Correction>
   9.000000E+99

> <Gold.Chemscore.Hbonds>
donor molecule, donor type, donor heavy atom, donor atom, acceptor molecule, acceptor atom, score
      L1  H     1    17       P1  7948  0.85
      P1  H  7989  7998       L1     4  0.46
      P1  H  7997  8009       L1     8  0.49

> <Gold.Chemscore.Hbond.Weighted>
-8.1698

> <Gold.Chemscore.Metal.Weighted>
-0.0000

> <Gold.Chemscore.Lipo.Weighted>
-9.5409

> <Gold.Chemscore.Internal_Hbond.Weighted>
0.0000

> <Gold.Chemscore.DEClash.Weighted>
0.0303

> <Gold.Chemscore.DEInternal.Weighted>
1.5159

> <Gold.Chemscore.Rot.Weighted>
4.1188

> <Gold.Chemscore.Internal.Correction.Weighted>
   9.000000E+99

> <Gold.Protein.RotatedTorsions>
[ 6907 6896 6895 6894 ] final -167.42 input  -60.11 | X-H torsion
[ 7974 7965 7964 7962 ] final   -3.34 input  175.53 | X-H torsion
[ 8008 7997 7996 7995 ] final -172.28 input   59.86 | X-H torsion
[ 10167 10162 10161 10158 ] final -160.13 input  -65.29 | X-H torsion
[ 10718 10713 10712 10709 ] final   60.34 input   66.30 | X-H torsion
[ 10763 10752 10751 10750 ] final  154.56 input  -60.55 | X-H torsion
[ 11005 11000 10999 10996 ] final  -91.65 input  -57.11 | X-H torsion

> <Gold.Protein.ActiveResidues>
 VAL166  LYS551  ARG553  GLY616  TRP617  ASP618  TYR619  PRO620  LYS621  CYS622 
 ASP623  PHE694  ASN695  SER759  ASP760  ASP761  ALA762  ILE779  LEU786  VAL792 
 PHE793  MET794  SER795  GLU796  ALA797  LYS798  CYS799  TRP800  GLU811  SER814 

> <Gold.Protein.RotatedAtoms>
  151.4592  133.3597  159.2806 H   0  0  0  0  0  0  0  0  0  0  0  0  # atno 6907 bound_to 6896
  150.9037  134.8452  159.7388 H   0  0  0  0  0  0  0  0  0  0  0  0  # atno 6908 bound_to 6896
  152.4894  134.4515  159.9628 H   0  0  0  0  0  0  0  0  0  0  0  0  # atno 6909 bound_to 6896
  146.2391  140.1706  142.8332 H   0  0  0  0  0  0  0  0  0  0  0  0  # atno 7974 bound_to 7965
  155.9425  140.1111  157.1044 H   0  0  0  0  0  0  0  0  0  0  0  0  # atno 8008 bound_to 7997
  154.4092  140.1216  156.5012 H   0  0  0  0  0  0  0  0  0  0  0  0  # atno 8009 bound_to 7997
  155.6944  140.3472  155.4909 H   0  0  0  0  0  0  0  0  0  0  0  0  # atno 8010 bound_to 7997
  139.6563  143.9993  152.2196 H   0  0  0  0  0  0  0  0  0  0  0  0  # atno 10167 bound_to 10162
  157.5745  130.8933  149.9324 H   0  0  0  0  0  0  0  0  0  0  0  0  # atno 10718 bound_to 10713
  154.1542  135.2813  155.3127 H   0  0  0  0  0  0  0  0  0  0  0  0  # atno 10763 bound_to 10752
  154.6195  135.5472  153.7563 H   0  0  0  0  0  0  0  0  0  0  0  0  # atno 10764 bound_to 10752
  153.0211  135.6435  154.1686 H   0  0  0  0  0  0  0  0  0  0  0  0  # atno 10765 bound_to 10752
  141.1540  133.7770  156.9910 H   0  0  0  0  0  0  0  0  0  0  0  0  # atno 11005 bound_to 11000
  145.0015  140.8635  143.5279 LP  0  0  0  0  0  0  0  0  0  0  0  0  # atno 17320 bound_to 7965
  145.1726  139.2396  143.5334 LP  0  0  0  0  0  0  0  0  0  0  0  0  # atno 17321 bound_to 7965
  139.9720  144.6487  150.7980 LP  0  0  0  0  0  0  0  0  0  0  0  0  # atno 17342 bound_to 10162
  140.7560  143.3058  151.2966 LP  0  0  0  0  0  0  0  0  0  0  0  0  # atno 17343 bound_to 10162
  156.0790  130.3675  150.0619 LP  0  0  0  0  0  0  0  0  0  0  0  0  # atno 17370 bound_to 10713
  156.8767  130.9542  151.3604 LP  0  0  0  0  0  0  0  0  0  0  0  0  # atno 17371 bound_to 10713
  140.1003  134.9539  157.1912 LP  0  0  0  0  0  0  0  0  0  0  0  0  # atno 17394 bound_to 11000
  140.3327  134.2791  155.7225 LP  0  0  0  0  0  0  0  0  0  0  0  0  # atno 17395 bound_to 11000

$$$$
