AV-unprocessed.smi:2881|AV-procd|sdf|11055|dock7
  -GOLD-   2272015523D 1   1.00000     0.00000
 Structure written by MMmdl.
 40 42  0  0  0  0  0  0  0  0  1 V2000
  155.6153  136.8540  163.0925 C   0  0  0  0  0  0  0  0  0  0  0  0
  154.6335  136.9195  161.9726 C   0  0  0  0  0  0  0  0  0  0  0  0
  153.6653  137.8351  161.6705 C   0  0  0  0  0  0  0  0  0  0  0  0
  153.0652  137.3349  160.4761 C   0  0  0  0  0  0  0  0  0  0  0  0
  151.9303  137.9303  159.6863 C   0  0  0  0  0  0  0  0  0  0  0  0
  152.4192  139.1331  158.8788 C   0  0  0  0  0  0  0  0  0  0  0  0
  153.3140  138.9918  158.0457 O   0  0  0  0  0  0  0  0  0  0  0  0
  151.8219  140.3073  159.1358 N   0  0  0  0  0  0  0  0  0  0  0  0
  152.1114  141.5704  158.4612 C   0  0  2  0  0  0  0  0  0  0  0  0
  152.4280  142.6741  159.4946 C   0  0  1  0  0  0  0  0  0  0  0  0
  153.0949  143.8560  158.7681 C   0  0  0  0  0  0  0  0  0  0  0  0
  151.9209  144.4677  157.9808 C   0  0  0  0  0  0  0  0  0  0  0  0
  150.7369  143.5500  158.3558 C   0  0  2  0  0  0  0  0  0  0  0  0
  151.0509  143.2486  159.8155 C   0  0  0  0  0  0  0  0  0  0  0  0
  150.8730  142.1439  157.7235 C   0  0  1  0  0  0  0  0  0  0  0  0
  150.9683  142.1305  156.1855 C   0  0  0  0  0  0  0  0  0  0  0  0
  149.7345  142.5120  155.6167 O   0  0  0  0  0  0  0  0  0  0  0  0
  153.6149  136.1966  160.0759 N   0  0  0  0  0  0  0  0  0  0  0  0
  154.5695  135.9558  160.9932 N   0  0  0  0  0  0  0  0  0  0  0  0
  155.1610  135.1387  160.9396 H   0  0  0  0  0  0  0  0  0  0  0  0
  155.6403  137.7942  163.6436 H   0  0  0  0  0  0  0  0  0  0  0  0
  156.6201  136.6564  162.7181 H   0  0  0  0  0  0  0  0  0  0  0  0
  155.3517  136.0601  163.7918 H   0  0  0  0  0  0  0  0  0  0  0  0
  153.4206  138.7326  162.2192 H   0  0  0  0  0  0  0  0  0  0  0  0
  151.5013  137.1968  159.0019 H   0  0  0  0  0  0  0  0  0  0  0  0
  151.1240  138.2351  160.3549 H   0  0  0  0  0  0  0  0  0  0  0  0
  151.1000  140.3255  159.8414 H   0  0  0  0  0  0  0  0  0  0  0  0
  152.9608  141.4415  157.7874 H   0  0  0  0  0  0  0  0  0  0  0  0
  152.9970  142.3257  160.3578 H   0  0  0  0  0  0  0  0  0  0  0  0
  153.4930  144.5773  159.4828 H   0  0  0  0  0  0  0  0  0  0  0  0
  153.9141  143.5415  158.1204 H   0  0  0  0  0  0  0  0  0  0  0  0
  151.7328  145.4876  158.3190 H   0  0  0  0  0  0  0  0  0  0  0  0
  152.1099  144.5136  156.9090 H   0  0  0  0  0  0  0  0  0  0  0  0
  149.7618  144.0080  158.1874 H   0  0  0  0  0  0  0  0  0  0  0  0
  150.3712  142.5235  160.2664 H   0  0  0  0  0  0  0  0  0  0  0  0
  151.0891  144.1396  160.4450 H   0  0  0  0  0  0  0  0  0  0  0  0
  149.9807  141.5822  158.0086 H   0  0  0  0  0  0  0  0  0  0  0  0
  151.7318  142.8311  155.8470 H   0  0  0  0  0  0  0  0  0  0  0  0
  151.2390  141.1444  155.8082 H   0  0  0  0  0  0  0  0  0  0  0  0
  149.6427  143.4493  155.6950 H   0  0  0  0  0  0  0  0  0  0  0  0
  1  2  1  0  0  0  0
  1 21  1  0  0  0  0
  1 22  1  0  0  0  0
  1 23  1  0  0  0  0
  2 19  1  0  0  0  0
  2  3  2  0  0  0  0
  3  4  1  0  0  0  0
  3 24  1  0  0  0  0
  4  5  1  0  0  0  0
  4 18  2  0  0  0  0
  5  6  1  0  0  0  0
  5 25  1  0  0  0  0
  5 26  1  0  0  0  0
  6  7  2  0  0  0  0
  6  8  1  0  0  0  0
  8  9  1  0  0  0  0
  8 27  1  0  0  0  0
  9 15  1  0  0  0  0
  9 10  1  0  0  0  0
  9 28  1  0  0  0  0
 10 14  1  0  0  0  0
 10 11  1  0  0  0  0
 10 29  1  0  0  0  0
 11 12  1  0  0  0  0
 11 30  1  0  0  0  0
 11 31  1  0  0  0  0
 12 13  1  0  0  0  0
 12 32  1  0  0  0  0
 12 33  1  0  0  0  0
 13 14  1  0  0  0  0
 13 15  1  0  0  0  0
 13 34  1  0  0  0  0
 14 35  1  0  0  0  0
 14 36  1  0  0  0  0
 15 16  1  0  0  0  0
 15 37  1  0  0  0  0
 16 17  1  0  0  0  0
 16 38  1  0  0  0  0
 16 39  1  0  0  0  0
 17 40  1  0  0  0  0
 18 19  1  0  0  0  0
 19 20  1  0  0  0  0
M  END
> <s_m_source_file>
AV-unprocessed.smi

> <i_m_source_file_index>
2881

> <i_lp_mmshare_version>
43012

> <i_f3d_flags>
0

> <s_epik_input>
W0NIM11jMVtjSF1jKG5bbkhdMSlbQ0gyXUMoPU8pW05IXVtDQEhdKFtDQEBIXTIzKVtDQEhdKFtDSDJdW09IXSlbQ0BASF0oW0NIMl0zKVtDSDJdW0NIMl0y

> <s_epik_cmdline>
J2VwaWtfcHl0aG9uJywgJy1waCcsICc3LjAnLCAnLXRuJywgJzgnLCAnLW1hJywgJzIwMCcsICctbWV0YWxfYmluZGluZycsICctaW1hZScsICc8aW5maWxlLm1hZT4nLCAnLW9tYWUnLCAnPG91dGZpbGUubWFlPic=

> <r_lp_tautomer_probability>
0.5

> <r_epik_Ionization_Penalty>
9.4349e-05

> <r_epik_Ionization_Penalty_Charging>
0

> <r_epik_Ionization_Penalty_Neutral>
9.4349e-05

> <r_epik_State_Penalty>
0.41068

> <r_epik_Charging_Adjusted_Penalty>
0.41068

> <i_epik_Tot_Q>
0

> <i_epik_Tot_abs_Q>
0

> <r_epik_Metal_State_Penalty>
0.4107

> <b_epik_Metal_Only>
0

> <s_lp_Force_Field>
OPLS_2005

> <r_lp_Energy>
47.7549

> <b_lp_Chiralities_Consistent>
1

> <s_lp_Variant>
AV-unprocessed.smi:2881-1

> <Gold.Version>
5.8.1

> <Gold.Id.Protein>
6NUR|6NUR_protein|mol2

> <Gold.PLP.Fitness>
42.4879

> <Gold.PLP.PLP>
-33.9675

> <Gold.PLP.part.hbond>
-2.8239

> <Gold.PLP.part.metal>
0.0000

> <Gold.PLP.part.buried>
-4.5275

> <Gold.PLP.part.nonpolar>
-27.1424

> <Gold.PLP.part.repulsive>
0.2266

> <Gold.PLP.ligand.clash>
0.0000

> <Gold.PLP.ligand.torsion>
0.2543

> <Gold.PLP.Chemscore.Hbond>
3.0000

> <Gold.PLP.Chemscore.CHOScore>
0.0000

> <Gold.PLP.Chemscore.Metal>
0.0000

> <Gold.Chemscore.Hbonds>
donor molecule, donor type, donor heavy atom, donor atom, acceptor molecule, acceptor atom, score
      L1  H    17    40       P1  8028  0.86
      P1  H  6896  6909       L1    18  1.00
      P1  H  7997  8008       L1     7  1.00

> <Gold.PLP.Chemscore.Internal.Correction>
0.0289

> <Gold.Rescore>
     Score         DG    S(hbond)    S(metal)    S(lipo)     H(rot)  DE(clash)    DE(int)     intcor
     21.86     -22.09       2.85        0.00     110.43       2.28       0.00       0.22       ----

> <Gold.Chemscore.Fitness>
21.8612

> <Gold.Chemscore.DG>
-22.0891

> <Gold.Chemscore.ZeroCoef>
-5.4800

> <Gold.Chemscore.Hbond>
2.8485

> <Gold.Chemscore.Metal>
0.0000

> <Gold.Chemscore.Lipo>
110.4314

> <Gold.Chemscore.Internal_Hbond>
0.0000

> <Gold.Chemscore.DEClash>
0.0044

> <Gold.Chemscore.DEInternal>
0.2236

> <Gold.Chemscore.Rot>
2.2755

> <Gold.Chemscore.Internal.Correction>
   9.000000E+99

> <Gold.Chemscore.Hbonds>
donor molecule, donor type, donor heavy atom, donor atom, acceptor molecule, acceptor atom, score
      L1  H    17    40       P1  8028  0.82
      P1  H  6896  6909       L1    18  0.60
      P1  H  7997  8008       L1     7  0.98

> <Gold.Chemscore.Hbond.Weighted>
-9.5139

> <Gold.Chemscore.Metal.Weighted>
-0.0000

> <Gold.Chemscore.Lipo.Weighted>
-12.9205

> <Gold.Chemscore.Internal_Hbond.Weighted>
0.0000

> <Gold.Chemscore.DEClash.Weighted>
0.0044

> <Gold.Chemscore.DEInternal.Weighted>
0.2236

> <Gold.Chemscore.Rot.Weighted>
5.8252

> <Gold.Chemscore.Internal.Correction.Weighted>
   9.000000E+99

> <Gold.Protein.RotatedTorsions>
[ 6907 6896 6895 6894 ] final  179.87 input  -60.11 | X-H torsion
[ 7974 7965 7964 7962 ] final   74.15 input  175.53 | X-H torsion
[ 8008 7997 7996 7995 ] final  -96.96 input   59.86 | X-H torsion
[ 10167 10162 10161 10158 ] final   72.44 input  -65.29 | X-H torsion
[ 10718 10713 10712 10709 ] final  124.91 input   66.30 | X-H torsion
[ 10763 10752 10751 10750 ] final  -25.87 input  -60.55 | X-H torsion
[ 11005 11000 10999 10996 ] final  108.62 input  -57.11 | X-H torsion

> <Gold.Protein.ActiveResidues>
 VAL166  LYS551  ARG553  GLY616  TRP617  ASP618  TYR619  PRO620  LYS621  CYS622 
 ASP623  PHE694  ASN695  SER759  ASP760  ASP761  ALA762  ILE779  LEU786  VAL792 
 PHE793  MET794  SER795  GLU796  ALA797  LYS798  CYS799  TRP800  GLU811  SER814 

> <Gold.Protein.RotatedAtoms>
  151.6647  133.3315  159.3182 H   0  0  0  0  0  0  0  0  0  0  0  0  # atno 6907 bound_to 6896
  150.7896  134.6914  159.6508 H   0  0  0  0  0  0  0  0  0  0  0  0  # atno 6908 bound_to 6896
  152.3973  134.6347  160.0136 H   0  0  0  0  0  0  0  0  0  0  0  0  # atno 6909 bound_to 6896
  145.7319  139.2687  143.1536 H   0  0  0  0  0  0  0  0  0  0  0  0  # atno 7974 bound_to 7965
  154.7814  140.0467  157.1130 H   0  0  0  0  0  0  0  0  0  0  0  0  # atno 8008 bound_to 7997
  154.9700  140.3088  155.4973 H   0  0  0  0  0  0  0  0  0  0  0  0  # atno 8009 bound_to 7997
  156.2937  140.2255  156.4791 H   0  0  0  0  0  0  0  0  0  0  0  0  # atno 8010 bound_to 7997
  140.0353  144.5433  150.7476 H   0  0  0  0  0  0  0  0  0  0  0  0  # atno 10167 bound_to 10162
  157.5547  131.1092  150.8643 H   0  0  0  0  0  0  0  0  0  0  0  0  # atno 10718 bound_to 10713
  153.7068  135.6953  153.5048 H   0  0  0  0  0  0  0  0  0  0  0  0  # atno 10763 bound_to 10752
  153.2302  135.4340  155.0585 H   0  0  0  0  0  0  0  0  0  0  0  0  # atno 10764 bound_to 10752
  154.8327  135.3482  154.6606 H   0  0  0  0  0  0  0  0  0  0  0  0  # atno 10765 bound_to 10752
  139.8847  134.9435  156.6000 H   0  0  0  0  0  0  0  0  0  0  0  0  # atno 11005 bound_to 11000
  146.0529  140.8051  142.9773 LP  0  0  0  0  0  0  0  0  0  0  0  0  # atno 17320 bound_to 7965
  144.6891  140.3080  143.7252 LP  0  0  0  0  0  0  0  0  0  0  0  0  # atno 17321 bound_to 7965
  140.7284  143.2662  151.4039 LP  0  0  0  0  0  0  0  0  0  0  0  0  # atno 17342 bound_to 10162
  139.6049  144.1217  152.2238 LP  0  0  0  0  0  0  0  0  0  0  0  0  # atno 17343 bound_to 10162
  156.9157  130.5297  149.5279 LP  0  0  0  0  0  0  0  0  0  0  0  0  # atno 17370 bound_to 10713
  156.0607  130.5660  150.9187 LP  0  0  0  0  0  0  0  0  0  0  0  0  # atno 17371 bound_to 10713
  140.7890  133.8597  155.8630 LP  0  0  0  0  0  0  0  0  0  0  0  0  # atno 17394 bound_to 11000
  140.9693  134.1552  157.4589 LP  0  0  0  0  0  0  0  0  0  0  0  0  # atno 17395 bound_to 11000

$$$$
