AV-unprocessed.smi:157|AV-procd|sdf|1306|dock2
  -GOLD-   2262018593D 1   1.00000     0.00000
 Structure written by MMmdl.
 35 37  0  0  0  0  0  0  0  0  1 V2000
  151.6615  137.2237  154.4642 O   0  0  0  0  0  0  0  0  0  0  0  0
  151.1214  138.0173  155.4997 C   0  0  0  0  0  0  0  0  0  0  0  0
  151.1649  139.5027  155.1116 C   0  0  2  0  0  0  0  0  0  0  0  0
  151.7692  140.2322  156.1763 O   0  0  0  0  0  0  0  0  0  0  0  0
  151.1974  141.4954  156.1976 C   0  0  2  0  0  0  0  0  0  0  0  0
  151.4105  142.1031  157.5479 N   0  0  0  0  0  0  0  0  0  0  0  0
  150.7526  143.1528  158.0574 C   0  0  0  0  0  0  0  0  0  0  0  0
  151.1321  143.5007  159.2754 N   0  0  0  0  0  0  0  0  0  0  0  0
  152.1371  142.5867  159.5880 C   0  0  0  0  0  0  0  0  0  0  0  0
  152.3292  141.7135  158.5266 C   0  0  0  0  0  0  0  0  0  0  0  0
  153.1680  140.6504  158.2522 N   0  0  0  0  0  0  0  0  0  0  0  0
  153.7476  140.0607  159.2499 C   0  0  0  0  0  0  0  0  0  0  0  0
  153.7462  140.3787  160.6004 N   0  0  0  0  0  0  0  0  0  0  0  0
  154.0128  141.7154  161.1038 C   0  0  0  0  0  0  0  0  0  0  0  0
  152.8440  142.6894  160.9092 C   0  0  2  0  0  0  0  0  0  0  0  0
  151.8772  142.4620  161.9143 O   0  0  0  0  0  0  0  0  0  0  0  0
  149.7185  141.2637  155.9306 C   0  0  0  0  0  0  0  0  0  0  0  0
  149.7739  140.1446  154.9021 C   0  0  1  0  0  0  0  0  0  0  0  0
  149.6724  140.6804  153.5974 O   0  0  0  0  0  0  0  0  0  0  0  0
  151.7928  139.6376  154.2284 H   0  0  0  0  0  0  0  0  0  0  0  0
  151.6839  142.1508  155.4737 H   0  0  0  0  0  0  0  0  0  0  0  0
  153.2142  143.7050  161.0529 H   0  0  0  0  0  0  0  0  0  0  0  0
  148.9587  139.4365  155.0554 H   0  0  0  0  0  0  0  0  0  0  0  0
  151.0970  137.2912  153.7092 H   0  0  0  0  0  0  0  0  0  0  0  0
  150.1010  137.6990  155.7159 H   0  0  0  0  0  0  0  0  0  0  0  0
  151.7106  137.8484  156.4013 H   0  0  0  0  0  0  0  0  0  0  0  0
  149.9766  143.6778  157.5198 H   0  0  0  0  0  0  0  0  0  0  0  0
  154.3488  139.1728  159.0489 H   0  0  0  0  0  0  0  0  0  0  0  0
  154.0436  139.6741  161.2596 H   0  0  0  0  0  0  0  0  0  0  0  0
  154.3055  141.6656  162.1530 H   0  0  0  0  0  0  0  0  0  0  0  0
  154.8811  142.0962  160.5641 H   0  0  0  0  0  0  0  0  0  0  0  0
  152.3023  142.5379  162.7551 H   0  0  0  0  0  0  0  0  0  0  0  0
  149.2386  140.9112  156.8448 H   0  0  0  0  0  0  0  0  0  0  0  0
  149.2236  142.1758  155.5943 H   0  0  0  0  0  0  0  0  0  0  0  0
  149.5099  139.9705  152.9949 H   0  0  0  0  0  0  0  0  0  0  0  0
  1  2  1  0  0  0  0
  1 24  1  0  0  0  0
  2  3  1  0  0  0  0
  2 25  1  0  0  0  0
  2 26  1  0  0  0  0
  3 20  1  0  0  0  0
  3 18  1  0  0  0  0
  3  4  1  0  0  0  0
  4  5  1  0  0  0  0
  5 21  1  0  0  0  0
  5  6  1  0  0  0  0
  5 17  1  0  0  0  0
  6 10  1  0  0  0  0
  6  7  1  0  0  0  0
  7  8  2  0  0  0  0
  7 27  1  0  0  0  0
  8  9  1  0  0  0  0
  9 15  1  0  0  0  0
  9 10  2  0  0  0  0
 10 11  1  0  0  0  0
 11 12  2  0  0  0  0
 12 13  1  0  0  0  0
 12 28  1  0  0  0  0
 13 14  1  0  0  0  0
 13 29  1  0  0  0  0
 14 15  1  0  0  0  0
 14 30  1  0  0  0  0
 14 31  1  0  0  0  0
 15 22  1  0  0  0  0
 15 16  1  0  0  0  0
 16 32  1  0  0  0  0
 17 18  1  0  0  0  0
 17 33  1  0  0  0  0
 17 34  1  0  0  0  0
 18 23  1  0  0  0  0
 18 19  1  0  0  0  0
 19 35  1  0  0  0  0
M  END
> <s_m_source_file>
AV-unprocessed.smi

> <i_m_source_file_index>
157

> <i_lp_mmshare_version>
43012

> <i_f3d_flags>
0

> <s_epik_input>
W09IXVtDSDJdW0NASF0xT1tDQEhdKFtDSDJdW0NAQEhdMVtPSF0pbihbY0hdbjIpYyhjMjMpTj1bQ0hdW05IXVtDSDJdW0NASF0zW09IXQ==

> <s_epik_cmdline>
J2VwaWtfcHl0aG9uJywgJy1waCcsICc3LjAnLCAnLXRuJywgJzgnLCAnLW1hJywgJzIwMCcsICctbWV0YWxfYmluZGluZycsICctaW1hZScsICc8aW5maWxlLm1hZT4nLCAnLW9tYWUnLCAnPG91dGZpbGUubWFlPic=

> <r_lp_tautomer_probability>
1

> <r_epik_Ionization_Penalty>
0.0357149

> <r_epik_Ionization_Penalty_Charging>
0.0355056

> <r_epik_Ionization_Penalty_Neutral>
0.000209255

> <r_epik_State_Penalty>
0.0296046

> <r_epik_Charging_Adjusted_Penalty>
0.0651102

> <i_epik_Tot_Q>
0

> <i_epik_Tot_abs_Q>
0

> <r_epik_Metal_State_Penalty>
3.03559e-05

> <b_epik_Metal_Only>
0

> <s_epik_Chemistry_Notes>
This compound has an imine and may undergo hydrolysis. This compound contains an acetal/aminal-like group ( X-CH(R)-Y where X, Y are N, S, or O) that may be acid/base labile, releasing an aldehyde.

> <s_lp_Force_Field>
OPLS_2005

> <r_lp_Energy>
43.6155

> <b_lp_Chiralities_Consistent>
1

> <s_lp_Variant>
AV-unprocessed.smi:157-16

> <Gold.Version>
5.8.1

> <Gold.Id.Protein>
6NUR|6NUR_protein|mol2

> <Gold.PLP.Fitness>
49.7140

> <Gold.PLP.PLP>
-35.9305

> <Gold.PLP.part.hbond>
-6.5442

> <Gold.PLP.part.metal>
0.0000

> <Gold.PLP.part.buried>
-2.3011

> <Gold.PLP.part.nonpolar>
-25.1859

> <Gold.PLP.part.repulsive>
0.1140

> <Gold.PLP.ligand.clash>
0.0000

> <Gold.PLP.ligand.torsion>
1.0784

> <Gold.PLP.Chemscore.Hbond>
4.3051

> <Gold.PLP.Chemscore.CHOScore>
1.0000

> <Gold.PLP.Chemscore.Metal>
0.0000

> <Gold.Chemscore.Hbonds>
donor molecule, donor type, donor heavy atom, donor atom, acceptor molecule, acceptor atom, score
      L1  H    19    35       P1  7957  0.53
      P1  H  6933  6945       L1    16  0.85
      P1  H  7989  7998       L1    19  0.26
      P1  H  7997  8008       L1    11  0.56
      P1  H  8011  8017       L1    19  0.71
      P1  H 10752 10763       L1     1  0.99
      L1  C     7    27       P1  8028  1.00

> <Gold.PLP.Chemscore.Internal.Correction>
0.0251

> <Gold.Rescore>
     Score         DG    S(hbond)    S(metal)    S(lipo)     H(rot)  DE(clash)    DE(int)     intcor
      8.62     -11.45       2.53        0.00      58.31       3.64       0.14       2.69       ----

> <Gold.Chemscore.Fitness>
8.6211

> <Gold.Chemscore.DG>
-11.4527

> <Gold.Chemscore.ZeroCoef>
-5.4800

> <Gold.Chemscore.Hbond>
2.5328

> <Gold.Chemscore.Metal>
0.0000

> <Gold.Chemscore.Lipo>
58.3076

> <Gold.Chemscore.Internal_Hbond>
0.0000

> <Gold.Chemscore.DEClash>
0.1433

> <Gold.Chemscore.DEInternal>
2.6883

> <Gold.Chemscore.Rot>
3.6362

> <Gold.Chemscore.Internal.Correction>
   9.000000E+99

> <Gold.Chemscore.Hbonds>
donor molecule, donor type, donor heavy atom, donor atom, acceptor molecule, acceptor atom, score
      L1  H    19    35       P1  7957  0.54
      P1  H  6933  6945       L1    16  0.50
      P1  H  7989  7998       L1    19  0.01
      P1  H  7997  8008       L1    11  0.09
      P1  H  8011  8017       L1    19  0.31
      P1  H 10752 10763       L1     1  0.63

> <Gold.Chemscore.Hbond.Weighted>
-8.4594

> <Gold.Chemscore.Metal.Weighted>
-0.0000

> <Gold.Chemscore.Lipo.Weighted>
-6.8220

> <Gold.Chemscore.Internal_Hbond.Weighted>
0.0000

> <Gold.Chemscore.DEClash.Weighted>
0.1433

> <Gold.Chemscore.DEInternal.Weighted>
2.6883

> <Gold.Chemscore.Rot.Weighted>
9.3087

> <Gold.Chemscore.Internal.Correction.Weighted>
   9.000000E+99

> <Gold.Protein.RotatedTorsions>
[ 6907 6896 6895 6894 ] final -163.43 input  -60.11 | X-H torsion
[ 7974 7965 7964 7962 ] final  -50.25 input  175.53 | X-H torsion
[ 8008 7997 7996 7995 ] final  -71.52 input   59.86 | X-H torsion
[ 10167 10162 10161 10158 ] final  -95.59 input  -65.29 | X-H torsion
[ 10718 10713 10712 10709 ] final   30.89 input   66.30 | X-H torsion
[ 10763 10752 10751 10750 ] final   36.01 input  -60.55 | X-H torsion
[ 11005 11000 10999 10996 ] final   20.97 input  -57.11 | X-H torsion

> <Gold.Protein.ActiveResidues>
 VAL166  LYS551  ARG553  GLY616  TRP617  ASP618  TYR619  PRO620  LYS621  CYS622 
 ASP623  PHE694  ASN695  SER759  ASP760  ASP761  ALA762  ILE779  LEU786  VAL792 
 PHE793  MET794  SER795  GLU796  ALA797  LYS798  CYS799  TRP800  GLU811  SER814 

> <Gold.Protein.RotatedAtoms>
  151.3959  133.3773  159.2726 H   0  0  0  0  0  0  0  0  0  0  0  0  # atno 6907 bound_to 6896
  150.9470  134.8875  159.7658 H   0  0  0  0  0  0  0  0  0  0  0  0  # atno 6908 bound_to 6896
  152.5095  134.3913  159.9437 H   0  0  0  0  0  0  0  0  0  0  0  0  # atno 6909 bound_to 6896
  145.9318  140.7742  142.9595 H   0  0  0  0  0  0  0  0  0  0  0  0  # atno 7974 bound_to 7965
  154.5095  140.0814  156.7960 H   0  0  0  0  0  0  0  0  0  0  0  0  # atno 8008 bound_to 7997
  155.3818  140.3428  155.4229 H   0  0  0  0  0  0  0  0  0  0  0  0  # atno 8009 bound_to 7997
  156.1555  140.1572  156.8686 H   0  0  0  0  0  0  0  0  0  0  0  0  # atno 8010 bound_to 7997
  140.3026  143.3153  152.0233 H   0  0  0  0  0  0  0  0  0  0  0  0  # atno 10167 bound_to 10162
  157.2655  130.7182  149.6476 H   0  0  0  0  0  0  0  0  0  0  0  0  # atno 10718 bound_to 10713
  153.0094  135.6317  154.1918 H   0  0  0  0  0  0  0  0  0  0  0  0  # atno 10763 bound_to 10752
  154.1660  135.2821  155.3096 H   0  0  0  0  0  0  0  0  0  0  0  0  # atno 10764 bound_to 10752
  154.5945  135.5607  153.7372 H   0  0  0  0  0  0  0  0  0  0  0  0  # atno 10765 bound_to 10752
  140.3967  134.1761  155.7663 H   0  0  0  0  0  0  0  0  0  0  0  0  # atno 11005 bound_to 11000
  144.6766  140.2140  143.7374 LP  0  0  0  0  0  0  0  0  0  0  0  0  # atno 17320 bound_to 7965
  145.8415  139.2132  143.1824 LP  0  0  0  0  0  0  0  0  0  0  0  0  # atno 17321 bound_to 7965
  139.4911  144.6445  151.6808 LP  0  0  0  0  0  0  0  0  0  0  0  0  # atno 17342 bound_to 10162
  140.5638  144.0224  150.6182 LP  0  0  0  0  0  0  0  0  0  0  0  0  # atno 17343 bound_to 10162
  155.9663  130.4384  150.5216 LP  0  0  0  0  0  0  0  0  0  0  0  0  # atno 17370 bound_to 10713
  157.3129  131.0667  151.1988 LP  0  0  0  0  0  0  0  0  0  0  0  0  # atno 17371 bound_to 10713
  141.1871  133.8288  157.1043 LP  0  0  0  0  0  0  0  0  0  0  0  0  # atno 17394 bound_to 11000
  140.0366  134.9875  157.0882 LP  0  0  0  0  0  0  0  0  0  0  0  0  # atno 17395 bound_to 11000

$$$$
