#       Name:                AV-unprocessed.smi:834
#       Creating user name   scv26
#       Creation time:       Fri Mar 27 01:34:16 2020


#       File generated by GOLD software.
#

@<TRIPOS>MOLECULE
AV-unprocessed.smi:834
    45    46     1
SMALL
NO_CHARGES


@<TRIPOS>ATOM
      1 ****        -7.3286   3.5052   0.7956 C.3            1 S1                 0.0000
      2 ****        -6.3657   2.5713   1.4445 C.2            1 S1                 0.0000
      3 ****        -6.2231   2.4854   2.7693 N.2            1 S1                 0.0000
      4 ****        -5.2673   1.5478   3.1324 N.2            1 S1                 0.0000
      5 ****        -4.6928   0.9478   2.0803 C.2            1 S1                 0.0000
      6 ****        -3.7451   0.0059   2.2176 N.pl3          1 S1                -1.0000
      7 ****        -2.4401   0.3341   2.0811 C.2            1 S1                 0.0000
      8 ****        -1.9911   1.4549   1.8296 O.2            1 S1                 0.0000
      9 ****        -1.6038  -0.7015   2.2409 N.am           1 S1                 0.0000
     10 ****        -0.1489  -0.6502   2.1396 C.3            1 S1                 0.0000
     11 ****         0.3148  -0.6915   0.6701 C.3            1 S1                 0.0000
     12 ****         1.8377  -0.6817   0.5029 C.2            1 S1                 0.0000
     13 ****         2.5861  -0.7785   1.4764 O.2            1 S1                 0.0000
     14 ****         2.2851  -0.5701  -0.7572 N.am           1 S1                 0.0000
     15 ****         3.6910  -0.5425  -1.1519 C.3            1 S1                 0.0000
     16 ****         3.8484   0.0021  -2.5848 C.3            1 S1                 0.0000
     17 ****         4.7892  -0.9655  -3.3050 C.3            1 S1                 0.0000
     18 ****         4.5328  -2.3100  -2.6323 C.3            1 S1                 0.0000
     19 ****         4.3085  -1.9562  -1.1619 C.3            1 S1                 0.0000
     20 ****        -5.3229   1.4972   0.5275 S.3            1 S1                 0.0000
     21 ****        -6.8935   4.5025   0.7322 H              1 S1                 0.0000
     22 ****        -8.2518   3.5593   1.3730 H              1 S1                 0.0000
     23 ****        -7.5677   3.1619  -0.2110 H              1 S1                 0.0000
     24 ****        -2.0147  -1.6000   2.4474 H              1 S1                 0.0000
     25 ****         0.2298   0.2416   2.6425 H              1 S1                 0.0000
     26 ****         0.2488  -1.5072   2.6839 H              1 S1                 0.0000
     27 ****        -0.0762  -1.5875   0.1863 H              1 S1                 0.0000
     28 ****        -0.0960   0.1614   0.1281 H              1 S1                 0.0000
     29 ****         1.6012  -0.4953  -1.4964 H              1 S1                 0.0000
     30 ****         4.2488   0.0925  -0.4608 H              1 S1                 0.0000
     31 ****         2.8869   0.0088  -3.1007 H              1 S1                 0.0000
     32 ****         4.2271   1.0247  -2.5979 H              1 S1                 0.0000
     33 ****         4.6189  -0.9946  -4.3816 H              1 S1                 0.0000
     34 ****         5.8244  -0.6643  -3.1389 H              1 S1                 0.0000
     35 ****         3.6291  -2.7611  -3.0443 H              1 S1                 0.0000
     36 ****         5.3525  -3.0149  -2.7738 H              1 S1                 0.0000
     37 ****         5.2703  -1.9289  -0.6482 H              1 S1                 0.0000
     38 ****         3.6976  -2.7035  -0.6536 H              1 S1                 0.0000
     39 ****        -6.7445   3.0332   3.4235 LP             1 S1                 0.0000
     40 ****        -5.0311   1.3407   4.0818 LP             1 S1                 0.0000
     41 ****        -4.0045  -0.9382   2.4208 LP             1 S1                 0.0000
     42 ****        -2.6144   2.2271   1.7063 LP             1 S1                 0.0000
     43 ****        -1.0037   1.5915   1.7490 LP             1 S1                 0.0000
     44 ****         2.2021  -0.8654   2.3956 LP             1 S1                 0.0000
     45 ****         3.5777  -0.7702   1.3475 LP             1 S1                 0.0000
@<TRIPOS>BOND
    1    1    2 1     
    2    1   21 1     
    3    1   22 1     
    4    1   23 1     
    5    2   20 1     
    6    2    3 2     
    7    3    4 1     
    8    4    5 2     
    9    5    6 1     
   10    5   20 1     
   11    6    7 1     
   12    7    8 2     
   13    7    9 am    
   14    9   10 1     
   15    9   24 1     
   16   10   11 1     
   17   10   25 1     
   18   10   26 1     
   19   11   12 1     
   20   11   27 1     
   21   11   28 1     
   22   12   13 2     
   23   12   14 am    
   24   14   15 1     
   25   14   29 1     
   26   15   19 1     
   27   15   16 1     
   28   15   30 1     
   29   16   17 1     
   30   16   31 1     
   31   16   32 1     
   32   17   18 1     
   33   17   33 1     
   34   17   34 1     
   35   18   19 1     
   36   18   35 1     
   37   18   36 1     
   38   19   37 1     
   39   19   38 1     
   40    3   39 1     
   41    4   40 1     
   42    6   41 1     
   43    8   42 1     
   44    8   43 1     
   45   13   44 1     
   46   13   45 1     
@<TRIPOS>SUBSTRUCTURE
      1 S1             1
@<TRIPOS>SET
LONE_PAIRS      STATIC     ATOMS    <user>   **** ""
7 39 40 41 42 43 44 45
DONOR_HYDROGENS      STATIC     ATOMS    <user>   **** ""
2 24 29
ATOM$BLUE        STATIC     ATOMS    COLORGROUP SYSTEM
7 39 40 41 42 43 44 45
ATOM$RED        STATIC     ATOMS    COLORGROUP SYSTEM
2 24 29
