AV-unprocessed.smi:287|AV-procd|sdf|2184|dock8
  -GOLD-   2262021563D 1   1.00000     0.00000
 Structure written by MMmdl.
 55 58  0  0  0  0  0  0  0  0  1 V2000
  151.4225  143.5070  158.0769 C   0  0  0  0  0  0  0  0  0  0  0  0
  150.9531  142.3241  157.3008 C   0  0  0  0  0  0  0  0  0  0  0  0
  150.5433  142.1421  156.0122 C   0  0  0  0  0  0  0  0  0  0  0  0
  150.2166  140.7615  155.8594 C   0  0  0  0  0  0  0  0  0  0  0  0
  149.7168  140.1012  154.5811 C   0  0  2  0  0  0  0  0  0  0  0  0
  150.7595  139.0938  154.0677 C   0  0  0  0  0  0  0  0  0  0  0  0
  149.5351  141.0189  153.5201 O   0  0  0  0  0  0  0  0  0  0  0  0
  148.3547  139.3995  154.7810 C   0  0  0  0  0  0  0  0  0  0  0  0
  147.8705  138.7462  153.5717 N   0  0  0  0  0  0  0  0  0  0  0  0
  146.8157  137.9057  153.6104 C   0  0  0  0  0  0  0  0  0  0  0  0
  146.2762  137.7042  154.8366 N   0  0  0  0  0  0  0  0  0  0  0  0
  145.2309  136.8859  154.9856 C   0  0  0  0  0  0  0  0  0  0  0  0
  144.5830  136.1824  154.0554 N   0  0  0  0  0  0  0  0  0  0  0  0
  145.1186  136.3834  152.8166 C   0  0  0  0  0  0  0  0  0  0  0  0
  146.2273  137.2215  152.5053 C   0  0  0  0  0  0  0  0  0  0  0  0
  146.4733  137.1626  151.1373 N   0  0  0  0  0  0  0  0  0  0  0  0
  145.5697  136.3398  150.6789 C   0  0  0  0  0  0  0  0  0  0  0  0
  144.7146  135.8208  151.6260 N   0  0  0  0  0  0  0  0  0  0  0  0
  143.5782  134.8612  151.4507 C   0  0  1  0  0  0  0  0  0  0  0  0
  143.3325  134.7476  150.0803 O   0  0  0  0  0  0  0  0  0  0  0  0
  143.4788  133.3966  149.6424 C   0  0  1  0  0  0  0  0  0  0  0  0
  144.0061  133.3373  148.1977 C   0  0  0  0  0  0  0  0  0  0  0  0
  143.3377  134.2892  147.3984 O   0  0  0  0  0  0  0  0  0  0  0  0
  144.3692  132.7326  150.7028 C   0  0  1  0  0  0  0  0  0  0  0  0
  145.7454  132.9229  150.4185 O   0  0  0  0  0  0  0  0  0  0  0  0
  143.9286  133.4536  151.9686 C   0  0  1  0  0  0  0  0  0  0  0  0
  144.8938  133.3980  153.0057 O   0  0  0  0  0  0  0  0  0  0  0  0
  150.4563  140.2060  157.0937 C   0  0  0  0  0  0  0  0  0  0  0  0
  150.3351  138.8270  157.6540 C   0  0  0  0  0  0  0  0  0  0  0  0
  150.9025  141.1467  157.9724 O   0  0  0  0  0  0  0  0  0  0  0  0
  142.7391  135.3262  151.9696 H   0  0  0  0  0  0  0  0  0  0  0  0
  142.4960  132.9247  149.6986 H   0  0  0  0  0  0  0  0  0  0  0  0
  144.1848  131.6599  150.7686 H   0  0  0  0  0  0  0  0  0  0  0  0
  143.0019  133.0045  152.3286 H   0  0  0  0  0  0  0  0  0  0  0  0
  151.6956  144.3257  157.4108 H   0  0  0  0  0  0  0  0  0  0  0  0
  152.2968  143.2553  158.6777 H   0  0  0  0  0  0  0  0  0  0  0  0
  150.6410  143.8633  158.7481 H   0  0  0  0  0  0  0  0  0  0  0  0
  150.4872  142.9131  155.2581 H   0  0  0  0  0  0  0  0  0  0  0  0
  150.9435  138.3055  154.7985 H   0  0  0  0  0  0  0  0  0  0  0  0
  151.7144  139.5803  153.8634 H   0  0  0  0  0  0  0  0  0  0  0  0
  150.4303  138.6119  153.1462 H   0  0  0  0  0  0  0  0  0  0  0  0
  149.3564  140.5323  152.7301 H   0  0  0  0  0  0  0  0  0  0  0  0
  148.4029  138.6879  155.6065 H   0  0  0  0  0  0  0  0  0  0  0  0
  147.6159  140.1542  155.0542 H   0  0  0  0  0  0  0  0  0  0  0  0
  148.3430  139.0036  152.7172 H   0  0  0  0  0  0  0  0  0  0  0  0
  144.8616  136.7792  155.9950 H   0  0  0  0  0  0  0  0  0  0  0  0
  145.5057  136.0887  149.6304 H   0  0  0  0  0  0  0  0  0  0  0  0
  145.0833  133.5013  148.1589 H   0  0  0  0  0  0  0  0  0  0  0  0
  143.8099  132.3557  147.7653 H   0  0  0  0  0  0  0  0  0  0  0  0
  143.9821  134.8630  147.0131 H   0  0  0  0  0  0  0  0  0  0  0  0
  145.9927  133.7843  150.7196 H   0  0  0  0  0  0  0  0  0  0  0  0
  144.5775  132.8125  153.6772 H   0  0  0  0  0  0  0  0  0  0  0  0
  149.3088  138.4682  157.5770 H   0  0  0  0  0  0  0  0  0  0  0  0
  150.6212  138.8006  158.7057 H   0  0  0  0  0  0  0  0  0  0  0  0
  150.9794  138.1331  157.1141 H   0  0  0  0  0  0  0  0  0  0  0  0
  1  2  1  0  0  0  0
  1 35  1  0  0  0  0
  1 36  1  0  0  0  0
  1 37  1  0  0  0  0
  2 30  1  0  0  0  0
  2  3  2  0  0  0  0
  3  4  1  0  0  0  0
  3 38  1  0  0  0  0
  4  5  1  0  0  0  0
  4 28  2  0  0  0  0
  5  6  1  0  0  0  0
  5  7  1  0  0  0  0
  5  8  1  0  0  0  0
  6 39  1  0  0  0  0
  6 40  1  0  0  0  0
  6 41  1  0  0  0  0
  7 42  1  0  0  0  0
  8  9  1  0  0  0  0
  8 43  1  0  0  0  0
  8 44  1  0  0  0  0
  9 10  1  0  0  0  0
  9 45  1  0  0  0  0
 10 15  1  0  0  0  0
 10 11  2  0  0  0  0
 11 12  1  0  0  0  0
 12 13  2  0  0  0  0
 12 46  1  0  0  0  0
 13 14  1  0  0  0  0
 14 18  1  0  0  0  0
 14 15  2  0  0  0  0
 15 16  1  0  0  0  0
 16 17  2  0  0  0  0
 17 18  1  0  0  0  0
 17 47  1  0  0  0  0
 18 19  1  0  0  0  0
 19 31  1  0  0  0  0
 19 26  1  0  0  0  0
 19 20  1  0  0  0  0
 20 21  1  0  0  0  0
 21 32  1  0  0  0  0
 21 22  1  0  0  0  0
 21 24  1  0  0  0  0
 22 23  1  0  0  0  0
 22 48  1  0  0  0  0
 22 49  1  0  0  0  0
 23 50  1  0  0  0  0
 24 33  1  0  0  0  0
 24 25  1  0  0  0  0
 24 26  1  0  0  0  0
 25 51  1  0  0  0  0
 26 34  1  0  0  0  0
 26 27  1  0  0  0  0
 27 52  1  0  0  0  0
 28 29  1  0  0  0  0
 28 30  1  0  0  0  0
 29 53  1  0  0  0  0
 29 54  1  0  0  0  0
 29 55  1  0  0  0  0
M  END
> <s_m_source_file>
AV-unprocessed.smi

> <i_m_source_file_index>
287

> <i_lp_mmshare_version>
43012

> <i_f3d_flags>
0

> <s_epik_input>
W0NIM11jMVtjSF1jKGMobzEpW0NIM10pW0NAQF0oW0NIM10pKFtPSF0pW0NIMl1bTkhdYyhuW2NIXW4yKWMoYzIzKW5bY0hdbjNbQ0BASF00T1tDQEhdKFtDSDJdW09IXSlbQ0BASF0oW09IXSlbQ0BIXTRbT0hd

> <s_epik_cmdline>
J2VwaWtfcHl0aG9uJywgJy1waCcsICc3LjAnLCAnLXRuJywgJzgnLCAnLW1hJywgJzIwMCcsICctbWV0YWxfYmluZGluZycsICctaW1hZScsICc8aW5maWxlLm1hZT4nLCAnLW9tYWUnLCAnPG91dGZpbGUubWFlPic=

> <r_lp_tautomer_probability>
1

> <r_epik_Ionization_Penalty>
0.000992612

> <r_epik_Ionization_Penalty_Charging>
0

> <r_epik_Ionization_Penalty_Neutral>
0.000992612

> <r_epik_State_Penalty>
-0

> <r_epik_Charging_Adjusted_Penalty>
0

> <i_epik_Tot_Q>
0

> <i_epik_Tot_abs_Q>
0

> <r_epik_Metal_State_Penalty>
-0

> <b_epik_Metal_Only>
0

> <s_epik_Chemistry_Notes>
This compound contains an acetal/aminal-like group ( X-CH(R)-Y where X, Y are N, S, or O) that may be acid/base labile, releasing an aldehyde.

> <s_lp_Force_Field>
OPLS_2005

> <r_lp_Energy>
46.5399

> <b_lp_Chiralities_Consistent>
1

> <s_lp_Variant>
AV-unprocessed.smi:287-8

> <Gold.Version>
5.8.1

> <Gold.Id.Protein>
6NUR|6NUR_protein|mol2

> <Gold.PLP.Fitness>
49.7476

> <Gold.PLP.PLP>
-31.7872

> <Gold.PLP.part.hbond>
-8.3105

> <Gold.PLP.part.metal>
0.0000

> <Gold.PLP.part.buried>
3.2504

> <Gold.PLP.part.nonpolar>
-35.4803

> <Gold.PLP.part.repulsive>
9.0799

> <Gold.PLP.ligand.clash>
0.0058

> <Gold.PLP.ligand.torsion>
0.5410

> <Gold.PLP.Chemscore.Hbond>
5.0841

> <Gold.PLP.Chemscore.CHOScore>
1.0000

> <Gold.PLP.Chemscore.Metal>
0.0000

> <Gold.Chemscore.Hbonds>
donor molecule, donor type, donor heavy atom, donor atom, acceptor molecule, acceptor atom, score
      L1  H     7    42       P1  7957  1.00
      L1  H     9    45       P1  7957  0.47
      L1  H    23    50       P1  7921  0.28
      P1  H  7954  7966       L1    16  0.55
      P1  H  7989  7998       L1     7  0.02
      P1  H  8011  8017       L1     7  0.15
      P1  H 10192 10197       L1    23  0.95
      L1  C    17    47       P1  7921  1.00

> <Gold.PLP.Chemscore.Internal.Correction>
0.7960

> <Gold.Rescore>
     Score         DG    S(hbond)    S(metal)    S(lipo)     H(rot)  DE(clash)    DE(int)     intcor
      7.57     -16.98       3.92        0.00     101.75       5.27       7.68       1.73       ----

> <Gold.Chemscore.Fitness>
7.5727

> <Gold.Chemscore.DG>
-16.9802

> <Gold.Chemscore.ZeroCoef>
-5.4800

> <Gold.Chemscore.Hbond>
3.9159

> <Gold.Chemscore.Metal>
0.0000

> <Gold.Chemscore.Lipo>
101.7513

> <Gold.Chemscore.Internal_Hbond>
0.0000

> <Gold.Chemscore.DEClash>
7.6821

> <Gold.Chemscore.DEInternal>
1.7255

> <Gold.Chemscore.Rot>
5.2672

> <Gold.Chemscore.Internal.Correction>
   9.000000E+99

> <Gold.Chemscore.Hbonds>
donor molecule, donor type, donor heavy atom, donor atom, acceptor molecule, acceptor atom, score
      L1  H     7    42       P1  7957  0.98
      L1  H     9    45       P1  7957  0.46
      L1  H    23    50       P1  7921  0.28
      L1  H    27    52       P1 10957  0.04
      P1  H  7954  7966       L1    16  0.55
      P1  H 10192 10197       L1    23  0.21

> <Gold.Chemscore.Hbond.Weighted>
-13.0792

> <Gold.Chemscore.Metal.Weighted>
-0.0000

> <Gold.Chemscore.Lipo.Weighted>
-11.9049

> <Gold.Chemscore.Internal_Hbond.Weighted>
0.0000

> <Gold.Chemscore.DEClash.Weighted>
7.6821

> <Gold.Chemscore.DEInternal.Weighted>
1.7255

> <Gold.Chemscore.Rot.Weighted>
13.4839

> <Gold.Chemscore.Internal.Correction.Weighted>
   9.000000E+99

> <Gold.Protein.RotatedTorsions>
[ 6907 6896 6895 6894 ] final  -70.05 input  -60.11 | X-H torsion
[ 7974 7965 7964 7962 ] final    8.62 input  175.53 | X-H torsion
[ 8008 7997 7996 7995 ] final    5.50 input   59.86 | X-H torsion
[ 10167 10162 10161 10158 ] final  178.89 input  -65.29 | X-H torsion
[ 10718 10713 10712 10709 ] final    4.37 input   66.30 | X-H torsion
[ 10763 10752 10751 10750 ] final -176.63 input  -60.55 | X-H torsion
[ 11005 11000 10999 10996 ] final -138.09 input  -57.11 | X-H torsion

> <Gold.Protein.ActiveResidues>
 VAL166  LYS551  ARG553  GLY616  TRP617  ASP618  TYR619  PRO620  LYS621  CYS622 
 ASP623  PHE694  ASN695  SER759  ASP760  ASP761  ALA762  ILE779  LEU786  VAL792 
 PHE793  MET794  SER795  GLU796  ALA797  LYS798  CYS799  TRP800  GLU811  SER814 

> <Gold.Protein.RotatedAtoms>
  150.7276  134.5509  159.5793 H   0  0  0  0  0  0  0  0  0  0  0  0  # atno 6907 bound_to 6896
  152.2997  134.7623  160.0369 H   0  0  0  0  0  0  0  0  0  0  0  0  # atno 6908 bound_to 6896
  151.8208  133.3359  159.3620 H   0  0  0  0  0  0  0  0  0  0  0  0  # atno 6909 bound_to 6896
  146.2414  139.9906  142.8426 H   0  0  0  0  0  0  0  0  0  0  0  0  # atno 7974 bound_to 7965
  154.7291  140.2727  155.6472 H   0  0  0  0  0  0  0  0  0  0  0  0  # atno 8008 bound_to 7997
  156.2845  140.2719  156.1911 H   0  0  0  0  0  0  0  0  0  0  0  0  # atno 8009 bound_to 7997
  155.0405  140.0371  157.2497 H   0  0  0  0  0  0  0  0  0  0  0  0  # atno 8010 bound_to 7997
  139.5313  144.2626  152.0694 H   0  0  0  0  0  0  0  0  0  0  0  0  # atno 10167 bound_to 10162
  156.8916  130.5689  149.5650 H   0  0  0  0  0  0  0  0  0  0  0  0  # atno 10718 bound_to 10713
  154.5700  135.2827  155.0836 H   0  0  0  0  0  0  0  0  0  0  0  0  # atno 10763 bound_to 10752
  154.2212  135.6391  153.5149 H   0  0  0  0  0  0  0  0  0  0  0  0  # atno 10764 bound_to 10752
  153.0055  135.5515  154.6321 H   0  0  0  0  0  0  0  0  0  0  0  0  # atno 10765 bound_to 10752
  140.8649  134.2123  157.4686 H   0  0  0  0  0  0  0  0  0  0  0  0  # atno 11005 bound_to 11000
  145.1507  140.9621  143.4435 LP  0  0  0  0  0  0  0  0  0  0  0  0  # atno 17320 bound_to 7965
  145.0208  139.3426  143.6073 LP  0  0  0  0  0  0  0  0  0  0  0  0  # atno 17321 bound_to 7965
  140.2090  144.4582  150.6395 LP  0  0  0  0  0  0  0  0  0  0  0  0  # atno 17342 bound_to 10162
  140.6492  143.2221  151.6115 LP  0  0  0  0  0  0  0  0  0  0  0  0  # atno 17343 bound_to 10162
  156.0626  130.5676  150.9224 LP  0  0  0  0  0  0  0  0  0  0  0  0  # atno 17370 bound_to 10713
  157.6080  131.0938  150.8845 LP  0  0  0  0  0  0  0  0  0  0  0  0  # atno 17371 bound_to 10713
  139.8709  134.9747  156.4855 LP  0  0  0  0  0  0  0  0  0  0  0  0  # atno 17394 bound_to 11000
  140.8640  133.8038  155.9295 LP  0  0  0  0  0  0  0  0  0  0  0  0  # atno 17395 bound_to 11000

$$$$
