AV-unprocessed.smi:2824|AV-procd|sdf|10886|dock2
  -GOLD-   2272015323D 1   1.00000     0.00000
 Structure written by MMmdl.
 38 39  0  0  0  0  0  0  0  0  1 V2000
  153.0572  143.4318  162.1210 C   0  0  0  0  0  0  0  0  0  0  0  0
  152.4815  143.6651  160.7368 C   0  0  0  0  0  0  0  0  0  0  0  0
  151.9133  144.9171  160.4204 C   0  0  0  0  0  0  0  0  0  0  0  0
  151.3766  145.1494  159.1412 C   0  0  0  0  0  0  0  0  0  0  0  0
  151.4057  144.1287  158.1746 C   0  0  0  0  0  0  0  0  0  0  0  0
  151.9719  142.8777  158.4849 C   0  0  0  0  0  0  0  0  0  0  0  0
  152.5179  142.6319  159.7710 C   0  0  0  0  0  0  0  0  0  0  0  0
  153.0886  141.4322  160.1445 O   0  0  0  0  0  0  0  0  0  0  0  0
  152.9837  140.3254  159.2587 C   0  0  0  0  0  0  0  0  0  0  0  0
  154.2577  139.4720  159.3753 C   0  0  2  0  0  0  0  0  0  0  0  0
  155.3337  140.2548  158.8952 O   0  0  0  0  0  0  0  0  0  0  0  0
  154.1725  138.1979  158.5052 C   0  0  0  0  0  0  0  0  0  0  0  0
  154.7666  137.0311  159.1688 N   0  0  0  0  0  0  0  0  0  0  0  0
  155.0915  137.2449  160.4969 N   0  0  0  0  0  0  0  0  0  0  0  0
  155.6183  136.3097  161.2199 C   0  0  0  0  0  0  0  0  0  0  0  0
  155.9345  136.6380  162.6583 C   0  0  0  0  0  0  0  0  0  0  0  0
  156.8595  137.5948  162.7405 F   0  0  0  0  0  0  0  0  0  0  0  0
  154.8348  137.0578  163.2849 F   0  0  0  0  0  0  0  0  0  0  0  0
  156.3901  135.5535  163.2861 F   0  0  0  0  0  0  0  0  0  0  0  0
  155.8751  135.0121  160.6173 C   0  0  0  0  0  0  0  0  0  0  0  0
  155.5593  134.8067  159.3206 C   0  0  0  0  0  0  0  0  0  0  0  0
  154.9622  135.8573  158.4998 C   0  0  0  0  0  0  0  0  0  0  0  0
  154.6608  135.7007  157.3168 O   0  0  0  0  0  0  0  0  0  0  0  0
  152.9661  144.3197  162.7475 H   0  0  0  0  0  0  0  0  0  0  0  0
  154.1141  143.1732  162.0524 H   0  0  0  0  0  0  0  0  0  0  0  0
  152.5339  142.6129  162.6155 H   0  0  0  0  0  0  0  0  0  0  0  0
  151.8875  145.7055  161.1584 H   0  0  0  0  0  0  0  0  0  0  0  0
  150.9426  146.1090  158.9021 H   0  0  0  0  0  0  0  0  0  0  0  0
  150.9926  144.3050  157.1924 H   0  0  0  0  0  0  0  0  0  0  0  0
  151.9731  142.1209  157.7155 H   0  0  0  0  0  0  0  0  0  0  0  0
  152.1208  139.7299  159.5610 H   0  0  0  0  0  0  0  0  0  0  0  0
  152.8242  140.6468  158.2278 H   0  0  0  0  0  0  0  0  0  0  0  0
  154.4248  139.2110  160.4211 H   0  0  0  0  0  0  0  0  0  0  0  0
  155.4289  141.0108  159.4538 H   0  0  0  0  0  0  0  0  0  0  0  0
  153.1287  137.9700  158.2812 H   0  0  0  0  0  0  0  0  0  0  0  0
  154.6345  138.3699  157.5307 H   0  0  0  0  0  0  0  0  0  0  0  0
  156.3149  134.2201  161.2050 H   0  0  0  0  0  0  0  0  0  0  0  0
  155.7515  133.8408  158.8771 H   0  0  0  0  0  0  0  0  0  0  0  0
  1  2  1  0  0  0  0
  1 24  1  0  0  0  0
  1 25  1  0  0  0  0
  1 26  1  0  0  0  0
  2  7  1  0  0  0  0
  2  3  2  0  0  0  0
  3  4  1  0  0  0  0
  3 27  1  0  0  0  0
  4  5  2  0  0  0  0
  4 28  1  0  0  0  0
  5  6  1  0  0  0  0
  5 29  1  0  0  0  0
  6  7  2  0  0  0  0
  6 30  1  0  0  0  0
  7  8  1  0  0  0  0
  8  9  1  0  0  0  0
  9 10  1  0  0  0  0
  9 31  1  0  0  0  0
  9 32  1  0  0  0  0
 10 11  1  0  0  0  0
 10 12  1  0  0  0  0
 10 33  1  0  0  0  0
 11 34  1  0  0  0  0
 12 13  1  0  0  0  0
 12 35  1  0  0  0  0
 12 36  1  0  0  0  0
 13 22  1  0  0  0  0
 13 14  1  0  0  0  0
 14 15  2  0  0  0  0
 15 16  1  0  0  0  0
 15 20  1  0  0  0  0
 16 17  1  0  0  0  0
 16 18  1  0  0  0  0
 16 19  1  0  0  0  0
 20 21  2  0  0  0  0
 20 37  1  0  0  0  0
 21 22  1  0  0  0  0
 21 38  1  0  0  0  0
 22 23  2  0  0  0  0
M  END
> <s_m_source_file>
AV-unprocessed.smi

> <i_m_source_file_index>
2824

> <i_lp_mmshare_version>
43012

> <i_f3d_flags>
0

> <s_epik_input>
W0NIM11jMVtjSF1bY0hdW2NIXVtjSF1jMU9bQ0gyXVtDQEhdKFtPSF0pW0NIMl1uMm5jKEMoRikoRilGKVtjSF1bY0hdYzI9Tw==

> <s_epik_cmdline>
J2VwaWtfcHl0aG9uJywgJy1waCcsICc3LjAnLCAnLXRuJywgJzgnLCAnLW1hJywgJzIwMCcsICctbWV0YWxfYmluZGluZycsICctaW1hZScsICc8aW5maWxlLm1hZT4nLCAnLW9tYWUnLCAnPG91dGZpbGUubWFlPic=

> <r_lp_tautomer_probability>
1

> <r_epik_Ionization_Penalty>
1.2156e-07

> <r_epik_Ionization_Penalty_Charging>
4.38548e-09

> <r_epik_Ionization_Penalty_Neutral>
1.17174e-07

> <r_epik_State_Penalty>
-0

> <r_epik_Charging_Adjusted_Penalty>
4.38548e-09

> <i_epik_Tot_Q>
0

> <i_epik_Tot_abs_Q>
0

> <r_epik_Metal_State_Penalty>
-0

> <b_epik_Metal_Only>
0

> <s_lp_Force_Field>
OPLS_2005

> <r_lp_Energy>
34.0835

> <b_lp_Chiralities_Consistent>
1

> <s_lp_Variant>
AV-unprocessed.smi:2824-1

> <Gold.Version>
5.8.1

> <Gold.Id.Protein>
6NUR|6NUR_protein|mol2

> <Gold.PLP.Fitness>
50.4455

> <Gold.PLP.PLP>
-46.2496

> <Gold.PLP.part.hbond>
-1.9836

> <Gold.PLP.part.metal>
0.0000

> <Gold.PLP.part.buried>
-5.7213

> <Gold.PLP.part.nonpolar>
-37.9246

> <Gold.PLP.part.repulsive>
0.0000

> <Gold.PLP.ligand.clash>
0.0000

> <Gold.PLP.ligand.torsion>
0.9809

> <Gold.PLP.Chemscore.Hbond>
2.0000

> <Gold.PLP.Chemscore.CHOScore>
0.0000

> <Gold.PLP.Chemscore.Metal>
0.0000

> <Gold.Chemscore.Hbonds>
donor molecule, donor type, donor heavy atom, donor atom, acceptor molecule, acceptor atom, score
      P1  H  7997  8009       L1    11  0.88
      P1  H 10752 10765       L1    23  0.98

> <Gold.PLP.Chemscore.Internal.Correction>
0.1578

> <Gold.Rescore>
     Score         DG    S(hbond)    S(metal)    S(lipo)     H(rot)  DE(clash)    DE(int)     intcor
     17.33     -18.36       1.94        0.00     111.68       2.60       0.01       1.03       ----

> <Gold.Chemscore.Fitness>
17.3287

> <Gold.Chemscore.DG>
-18.3618

> <Gold.Chemscore.ZeroCoef>
-5.4800

> <Gold.Chemscore.Hbond>
1.9357

> <Gold.Chemscore.Metal>
0.0000

> <Gold.Chemscore.Lipo>
111.6836

> <Gold.Chemscore.Internal_Hbond>
0.0000

> <Gold.Chemscore.DEClash>
0.0066

> <Gold.Chemscore.DEInternal>
1.0265

> <Gold.Chemscore.Rot>
2.5978

> <Gold.Chemscore.Internal.Correction>
   9.000000E+99

> <Gold.Chemscore.Hbonds>
donor molecule, donor type, donor heavy atom, donor atom, acceptor molecule, acceptor atom, score
      P1  H  7997  8009       L1    11  0.36
      P1  H 10752 10765       L1    23  0.91

> <Gold.Chemscore.Hbond.Weighted>
-6.4652

> <Gold.Chemscore.Metal.Weighted>
-0.0000

> <Gold.Chemscore.Lipo.Weighted>
-13.0670

> <Gold.Chemscore.Internal_Hbond.Weighted>
0.0000

> <Gold.Chemscore.DEClash.Weighted>
0.0066

> <Gold.Chemscore.DEInternal.Weighted>
1.0265

> <Gold.Chemscore.Rot.Weighted>
6.6504

> <Gold.Chemscore.Internal.Correction.Weighted>
   9.000000E+99

> <Gold.Protein.RotatedTorsions>
[ 6907 6896 6895 6894 ] final  -83.94 input  -60.11 | X-H torsion
[ 7974 7965 7964 7962 ] final  136.70 input  175.53 | X-H torsion
[ 8008 7997 7996 7995 ] final  110.63 input   59.86 | X-H torsion
[ 10167 10162 10161 10158 ] final    8.50 input  -65.29 | X-H torsion
[ 10718 10713 10712 10709 ] final  -11.98 input   66.30 | X-H torsion
[ 10763 10752 10751 10750 ] final  -84.81 input  -60.55 | X-H torsion
[ 11005 11000 10999 10996 ] final -156.55 input  -57.11 | X-H torsion

> <Gold.Protein.ActiveResidues>
 VAL166  LYS551  ARG553  GLY616  TRP617  ASP618  TYR619  PRO620  LYS621  CYS622 
 ASP623  PHE694  ASN695  SER759  ASP760  ASP761  ALA762  ILE779  LEU786  VAL792 
 PHE793  MET794  SER795  GLU796  ALA797  LYS798  CYS799  TRP800  GLU811  SER814 

> <Gold.Protein.RotatedAtoms>
  150.6881  134.3435  159.4877 H   0  0  0  0  0  0  0  0  0  0  0  0  # atno 6907 bound_to 6896
  152.1285  134.9150  160.0569 H   0  0  0  0  0  0  0  0  0  0  0  0  # atno 6908 bound_to 6896
  152.0328  133.3910  159.4341 H   0  0  0  0  0  0  0  0  0  0  0  0  # atno 6909 bound_to 6896
  144.9540  139.4786  143.5512 H   0  0  0  0  0  0  0  0  0  0  0  0  # atno 7974 bound_to 7965
  156.2066  140.3035  155.9641 H   0  0  0  0  0  0  0  0  0  0  0  0  # atno 8008 bound_to 7997
  155.2825  140.0438  157.3033 H   0  0  0  0  0  0  0  0  0  0  0  0  # atno 8009 bound_to 7997
  154.5642  140.2329  155.8297 H   0  0  0  0  0  0  0  0  0  0  0  0  # atno 8010 bound_to 7997
  140.6310  143.7993  150.7296 H   0  0  0  0  0  0  0  0  0  0  0  0  # atno 10167 bound_to 10162
  156.6513  130.4955  149.6061 H   0  0  0  0  0  0  0  0  0  0  0  0  # atno 10718 bound_to 10713
  154.6039  135.5507  153.7402 H   0  0  0  0  0  0  0  0  0  0  0  0  # atno 10763 bound_to 10752
  153.0166  135.6373  154.1675 H   0  0  0  0  0  0  0  0  0  0  0  0  # atno 10764 bound_to 10752
  154.1615  135.2897  155.3087 H   0  0  0  0  0  0  0  0  0  0  0  0  # atno 10765 bound_to 10752
  140.6743  134.4213  157.5230 H   0  0  0  0  0  0  0  0  0  0  0  0  # atno 11005 bound_to 11000
  146.3331  139.8644  142.8850 LP  0  0  0  0  0  0  0  0  0  0  0  0  # atno 17320 bound_to 7965
  145.2801  141.0136  143.3722 LP  0  0  0  0  0  0  0  0  0  0  0  0  # atno 17321 bound_to 7965
  140.1604  143.4280  152.2071 LP  0  0  0  0  0  0  0  0  0  0  0  0  # atno 17342 bound_to 10162
  139.5525  144.7348  151.4393 LP  0  0  0  0  0  0  0  0  0  0  0  0  # atno 17343 bound_to 10162
  156.2082  130.6662  151.1241 LP  0  0  0  0  0  0  0  0  0  0  0  0  # atno 17370 bound_to 10713
  157.7140  131.0719  150.6396 LP  0  0  0  0  0  0  0  0  0  0  0  0  # atno 17371 bound_to 10713
  139.8971  134.8643  156.2057 LP  0  0  0  0  0  0  0  0  0  0  0  0  # atno 17394 bound_to 11000
  141.0367  133.6959  156.1526 LP  0  0  0  0  0  0  0  0  0  0  0  0  # atno 17395 bound_to 11000

$$$$
