AV-unprocessed.smi:3181|AV-procd|sdf|12145|dock8
  -GOLD-   2272017583D 1   1.00000     0.00000
 Structure written by MMmdl.
 42 43  0  0  0  0  0  0  0  0  2 V2000
  151.3688  141.3264  158.4447 C   0  0  0  0  0  0  0  0  0  0  0  0
  150.9896  142.2697  157.2901 C   0  0  2  0  0  0  0  0  0  0  0  0
  151.8011  143.5814  157.3003 C   0  0  0  0  0  0  0  0  0  0  0  0
  151.6932  144.3067  158.5533 N   0  0  0  0  0  0  0  0  0  0  0  0
  150.9233  145.3411  158.8955 C   0  0  0  0  0  0  0  0  0  0  0  0
  151.1037  145.7523  160.1427 N   0  0  0  0  0  0  0  0  0  0  0  0
  152.0713  144.8717  160.5366 C   0  0  0  0  0  0  0  0  0  0  0  0
  152.4630  143.9862  159.6198 N   0  0  0  0  0  0  0  0  0  0  0  0
  149.5434  142.5817  157.3489 N   0  3  0  0  0  0  0  0  0  0  0  0
  148.6234  141.4203  157.3007 C   0  0  1  0  0  0  0  0  0  0  0  0
  147.1886  141.7865  157.7283 C   0  0  0  0  0  0  0  0  0  0  0  0
  146.4922  142.6819  156.6929 C   0  0  0  0  0  0  0  0  0  0  0  0
  146.4759  142.0424  155.2902 C   0  0  1  0  0  0  0  0  0  0  0  0
  145.7510  142.9739  154.3024 C   0  0  0  0  0  0  0  0  0  0  0  0
  147.9146  141.6787  154.8368 C   0  0  2  0  0  0  0  0  0  0  0  0
  147.9504  140.9764  153.4675 C   0  0  0  0  0  0  0  0  0  0  0  0
  148.6168  140.7960  155.8934 C   0  0  0  0  0  0  0  0  0  0  0  0
  152.4123  141.0165  158.3827 H   0  0  0  0  0  0  0  0  0  0  0  0
  150.7640  140.4196  158.4293 H   0  0  0  0  0  0  0  0  0  0  0  0
  151.2222  141.8063  159.4129 H   0  0  0  0  0  0  0  0  0  0  0  0
  151.2070  141.7534  156.3536 H   0  0  0  0  0  0  0  0  0  0  0  0
  152.8569  143.3747  157.1182 H   0  0  0  0  0  0  0  0  0  0  0  0
  151.4680  144.2383  156.4952 H   0  0  0  0  0  0  0  0  0  0  0  0
  150.2150  145.8006  158.2215 H   0  0  0  0  0  0  0  0  0  0  0  0
  152.5002  144.8842  161.5278 H   0  0  0  0  0  0  0  0  0  0  0  0
  149.3549  143.1122  158.1875 H   0  0  0  0  0  0  0  0  0  0  0  0
  149.0156  140.6704  157.9896 H   0  0  0  0  0  0  0  0  0  0  0  0
  146.6094  140.8695  157.8450 H   0  0  0  0  0  0  0  0  0  0  0  0
  147.1795  142.2677  158.7061 H   0  0  0  0  0  0  0  0  0  0  0  0
  145.4711  142.8791  157.0214 H   0  0  0  0  0  0  0  0  0  0  0  0
  146.9900  143.6514  156.6512 H   0  0  0  0  0  0  0  0  0  0  0  0
  145.8971  141.1195  155.3539 H   0  0  0  0  0  0  0  0  0  0  0  0
  146.3144  143.8923  154.1346 H   0  0  0  0  0  0  0  0  0  0  0  0
  144.7674  143.2541  154.6804 H   0  0  0  0  0  0  0  0  0  0  0  0
  145.5912  142.4957  153.3366 H   0  0  0  0  0  0  0  0  0  0  0  0
  148.4839  142.6043  154.7405 H   0  0  0  0  0  0  0  0  0  0  0  0
  147.3369  140.0749  153.4670 H   0  0  0  0  0  0  0  0  0  0  0  0
  148.9671  140.6840  153.2039 H   0  0  0  0  0  0  0  0  0  0  0  0
  147.5934  141.6261  152.6691 H   0  0  0  0  0  0  0  0  0  0  0  0
  149.6401  140.5811  155.5827 H   0  0  0  0  0  0  0  0  0  0  0  0
  148.1109  139.8304  155.9410 H   0  0  0  0  0  0  0  0  0  0  0  0
  149.3317  143.1657  156.5527 H   0  0  0  0  0  0  0  0  0  0  0  0
  1  2  1  0  0  0  0
  1 18  1  0  0  0  0
  1 19  1  0  0  0  0
  1 20  1  0  0  0  0
  2  3  1  0  0  0  0
  2  9  1  0  0  0  0
  2 21  1  0  0  0  0
  3  4  1  0  0  0  0
  3 22  1  0  0  0  0
  3 23  1  0  0  0  0
  4  8  1  0  0  0  0
  4  5  1  0  0  0  0
  5  6  2  0  0  0  0
  5 24  1  0  0  0  0
  6  7  1  0  0  0  0
  7  8  2  0  0  0  0
  7 25  1  0  0  0  0
  9 10  1  0  0  0  0
  9 26  1  0  0  0  0
  9 42  1  0  0  0  0
 10 17  1  0  0  0  0
 10 11  1  0  0  0  0
 10 27  1  0  0  0  0
 11 12  1  0  0  0  0
 11 28  1  0  0  0  0
 11 29  1  0  0  0  0
 12 13  1  0  0  0  0
 12 30  1  0  0  0  0
 12 31  1  0  0  0  0
 13 14  1  0  0  0  0
 13 15  1  0  0  0  0
 13 32  1  0  0  0  0
 14 33  1  0  0  0  0
 14 34  1  0  0  0  0
 14 35  1  0  0  0  0
 15 16  1  0  0  0  0
 15 17  1  0  0  0  0
 15 36  1  0  0  0  0
 16 37  1  0  0  0  0
 16 38  1  0  0  0  0
 16 39  1  0  0  0  0
 17 40  1  0  0  0  0
 17 41  1  0  0  0  0
M  CHG  1   9   1
M  END
> <s_m_source_file>
AV-unprocessed.smi

> <i_m_source_file_index>
3181

> <i_lp_mmshare_version>
43012

> <i_f3d_flags>
0

> <s_epik_input>
bjFbY0hdbltjSF1uMVtDSDJdW0NAQEhdKFtDSDNdKVtOSF1bQ0BASF0yW0NIMl1bQ0gyXVtDQEBIXShbQ0gzXSlbQ0BASF0oW0NIM10pW0NIMl0y

> <s_epik_cmdline>
J2VwaWtfcHl0aG9uJywgJy1waCcsICc3LjAnLCAnLXRuJywgJzgnLCAnLW1hJywgJzIwMCcsICctbWV0YWxfYmluZGluZycsICctaW1hZScsICc8aW5maWxlLm1hZT4nLCAnLW9tYWUnLCAnPG91dGZpbGUubWFlPic=

> <r_lp_tautomer_probability>
1

> <r_epik_Ionization_Penalty>
0.000617007

> <r_epik_Ionization_Penalty_Charging>
0.000616215

> <r_epik_Ionization_Penalty_Neutral>
7.92544e-07

> <r_epik_State_Penalty>
0.000388807

> <r_epik_Charging_Adjusted_Penalty>
0.00100502

> <i_epik_Tot_Q>
1

> <i_epik_Tot_abs_Q>
1

> <r_epik_Metal_State_Penalty>
-0

> <b_epik_Metal_Only>
0

> <s_lp_Force_Field>
OPLS_2005

> <r_lp_Energy>
23.0816

> <b_lp_Chiralities_Consistent>
1

> <s_lp_Variant>
AV-unprocessed.smi:3181-11

> <Gold.Version>
5.8.1

> <Gold.Id.Protein>
6NUR|6NUR_protein|mol2

> <Gold.PLP.Fitness>
42.7327

> <Gold.PLP.PLP>
-34.5437

> <Gold.PLP.part.hbond>
-1.8476

> <Gold.PLP.part.metal>
0.0000

> <Gold.PLP.part.buried>
-5.5901

> <Gold.PLP.part.nonpolar>
-27.2183

> <Gold.PLP.part.repulsive>
0.2514

> <Gold.PLP.ligand.clash>
0.0000

> <Gold.PLP.ligand.torsion>
0.4156

> <Gold.PLP.Chemscore.Hbond>
2.0000

> <Gold.PLP.Chemscore.CHOScore>
1.0000

> <Gold.PLP.Chemscore.Metal>
0.0000

> <Gold.Chemscore.Hbonds>
donor molecule, donor type, donor heavy atom, donor atom, acceptor molecule, acceptor atom, score
      L1  H     9    42       P1  8028  2.00
      L1  C     5    24       P1  8029  1.00

> <Gold.PLP.Chemscore.Internal.Correction>
0.0202

> <Gold.Rescore>
     Score         DG    S(hbond)    S(metal)    S(lipo)     H(rot)  DE(clash)    DE(int)     intcor
      9.66     -10.53       1.00        0.00      60.91       2.11       0.42       0.45       ----

> <Gold.Chemscore.Fitness>
9.6587

> <Gold.Chemscore.DG>
-10.5306

> <Gold.Chemscore.ZeroCoef>
-5.4800

> <Gold.Chemscore.Hbond>
0.9953

> <Gold.Chemscore.Metal>
0.0000

> <Gold.Chemscore.Lipo>
60.9115

> <Gold.Chemscore.Internal_Hbond>
0.0000

> <Gold.Chemscore.DEClash>
0.4199

> <Gold.Chemscore.DEInternal>
0.4519

> <Gold.Chemscore.Rot>
2.1095

> <Gold.Chemscore.Internal.Correction>
   9.000000E+99

> <Gold.Chemscore.Hbonds>
donor molecule, donor type, donor heavy atom, donor atom, acceptor molecule, acceptor atom, score
      L1  H     9    42       P1  8028  0.98

> <Gold.Chemscore.Hbond.Weighted>
-3.3242

> <Gold.Chemscore.Metal.Weighted>
-0.0000

> <Gold.Chemscore.Lipo.Weighted>
-7.1266

> <Gold.Chemscore.Internal_Hbond.Weighted>
0.0000

> <Gold.Chemscore.DEClash.Weighted>
0.4199

> <Gold.Chemscore.DEInternal.Weighted>
0.4519

> <Gold.Chemscore.Rot.Weighted>
5.4003

> <Gold.Chemscore.Internal.Correction.Weighted>
   9.000000E+99

> <Gold.Protein.RotatedTorsions>
[ 6907 6896 6895 6894 ] final   88.99 input  -60.11 | X-H torsion
[ 7974 7965 7964 7962 ] final  -38.06 input  175.53 | X-H torsion
[ 8008 7997 7996 7995 ] final  -49.63 input   59.86 | X-H torsion
[ 10167 10162 10161 10158 ] final  148.80 input  -65.29 | X-H torsion
[ 10718 10713 10712 10709 ] final   84.54 input   66.30 | X-H torsion
[ 10763 10752 10751 10750 ] final -133.40 input  -60.55 | X-H torsion
[ 11005 11000 10999 10996 ] final  100.95 input  -57.11 | X-H torsion

> <Gold.Protein.ActiveResidues>
 VAL166  LYS551  ARG553  GLY616  TRP617  ASP618  TYR619  PRO620  LYS621  CYS622 
 ASP623  PHE694  ASN695  SER759  ASP760  ASP761  ALA762  ILE779  LEU786  VAL792 
 PHE793  MET794  SER795  GLU796  ALA797  LYS798  CYS799  TRP800  GLU811  SER814 

> <Gold.Protein.RotatedAtoms>
  152.5431  134.2035  159.8721 H   0  0  0  0  0  0  0  0  0  0  0  0  # atno 6907 bound_to 6896
  151.2022  133.4597  159.2604 H   0  0  0  0  0  0  0  0  0  0  0  0  # atno 6908 bound_to 6896
  151.0978  134.9967  159.8489 H   0  0  0  0  0  0  0  0  0  0  0  0  # atno 6909 bound_to 6896
  146.0520  140.6468  142.9037 H   0  0  0  0  0  0  0  0  0  0  0  0  # atno 7974 bound_to 7965
  154.4047  140.1292  156.4534 H   0  0  0  0  0  0  0  0  0  0  0  0  # atno 8008 bound_to 7997
  155.7344  140.3491  155.5055 H   0  0  0  0  0  0  0  0  0  0  0  0  # atno 8009 bound_to 7997
  155.9097  140.1033  157.1279 H   0  0  0  0  0  0  0  0  0  0  0  0  # atno 8010 bound_to 7997
  139.4870  144.5651  151.7159 H   0  0  0  0  0  0  0  0  0  0  0  0  # atno 10167 bound_to 10162
  157.6900  131.0137  150.2688 H   0  0  0  0  0  0  0  0  0  0  0  0  # atno 10718 bound_to 10713
  154.8733  135.3767  154.4566 H   0  0  0  0  0  0  0  0  0  0  0  0  # atno 10763 bound_to 10752
  153.5237  135.7028  153.5723 H   0  0  0  0  0  0  0  0  0  0  0  0  # atno 10764 bound_to 10752
  153.3958  135.3960  155.1920 H   0  0  0  0  0  0  0  0  0  0  0  0  # atno 10765 bound_to 10752
  139.8772  134.9162  156.4833 H   0  0  0  0  0  0  0  0  0  0  0  0  # atno 11005 bound_to 11000
  144.7127  140.4099  143.7068 LP  0  0  0  0  0  0  0  0  0  0  0  0  # atno 17320 bound_to 7965
  145.6708  139.1599  143.2755 LP  0  0  0  0  0  0  0  0  0  0  0  0  # atno 17321 bound_to 7965
  140.5228  144.0852  150.6028 LP  0  0  0  0  0  0  0  0  0  0  0  0  # atno 17342 bound_to 10162
  140.3816  143.2799  152.0164 LP  0  0  0  0  0  0  0  0  0  0  0  0  # atno 17343 bound_to 10162
  156.3254  130.3792  149.7537 LP  0  0  0  0  0  0  0  0  0  0  0  0  # atno 17370 bound_to 10713
  156.5094  130.8165  151.3163 LP  0  0  0  0  0  0  0  0  0  0  0  0  # atno 17371 bound_to 10713
  140.8711  133.7987  155.9366 LP  0  0  0  0  0  0  0  0  0  0  0  0  # atno 17394 bound_to 11000
  140.8951  134.2447  157.5073 LP  0  0  0  0  0  0  0  0  0  0  0  0  # atno 17395 bound_to 11000

$$$$
