AV-unprocessed.smi:1357|AV-procd|sdf|5548|dock6
  -GOLD-   22720 5143D 1   1.00000     0.00000
 Structure written by MMmdl.
 43 44  0  0  0  0  0  0  0  0  1 V2000
  153.1685  138.3845  155.7034 C   0  0  0  0  0  0  0  0  0  0  0  0
  151.6300  138.4269  155.5930 C   0  0  0  0  0  0  0  0  0  0  0  0
  151.1929  137.6209  154.3528 C   0  0  0  0  0  0  0  0  0  0  0  0
  151.0205  137.7763  156.8573 C   0  0  0  0  0  0  0  0  0  0  0  0
  151.1874  139.8992  155.4094 C   0  0  0  0  0  0  0  0  0  0  0  0
  150.6047  140.2340  154.3767 O   0  0  0  0  0  0  0  0  0  0  0  0
  151.4602  140.7748  156.3920 N   0  0  0  0  0  0  0  0  0  0  0  0
  151.1624  142.2012  156.3566 C   0  0  0  0  0  0  0  0  0  0  0  0
  151.5653  142.9004  157.6412 C   0  0  0  0  0  0  0  0  0  0  0  0
  151.4598  144.3004  157.7642 C   0  0  0  0  0  0  0  0  0  0  0  0
  151.8693  144.8999  158.9705 C   0  0  0  0  0  0  0  0  0  0  0  0
  152.3580  144.2005  160.0168 N   0  0  0  0  0  0  0  0  0  0  0  0
  152.4605  142.8548  159.8978 C   0  0  0  0  0  0  0  0  0  0  0  0
  152.9575  142.1239  160.9864 N   0  0  0  0  0  0  0  0  0  0  0  0
  153.0927  142.9268  162.1952 C   0  0  0  0  0  0  0  0  0  0  0  0
  153.5142  142.0352  163.3763 C   0  0  0  0  0  0  0  0  0  0  0  0
  154.7140  141.3402  163.0478 O   0  0  0  0  0  0  0  0  0  0  0  0
  154.5512  140.5006  161.9080 C   0  0  0  0  0  0  0  0  0  0  0  0
  154.1606  141.3555  160.6900 C   0  0  0  0  0  0  0  0  0  0  0  0
  152.0766  142.1638  158.7292 C   0  0  0  0  0  0  0  0  0  0  0  0
  153.5270  137.3626  155.8317 H   0  0  0  0  0  0  0  0  0  0  0  0
  153.5233  138.9634  156.5573 H   0  0  0  0  0  0  0  0  0  0  0  0
  153.6522  138.7842  154.8109 H   0  0  0  0  0  0  0  0  0  0  0  0
  151.6248  138.0210  153.4343 H   0  0  0  0  0  0  0  0  0  0  0  0
  150.1084  137.6256  154.2361 H   0  0  0  0  0  0  0  0  0  0  0  0
  151.5076  136.5794  154.4290 H   0  0  0  0  0  0  0  0  0  0  0  0
  151.3521  136.7430  156.9638 H   0  0  0  0  0  0  0  0  0  0  0  0
  149.9303  137.7582  156.8190 H   0  0  0  0  0  0  0  0  0  0  0  0
  151.3167  138.3022  157.7662 H   0  0  0  0  0  0  0  0  0  0  0  0
  151.9387  140.4303  157.2116 H   0  0  0  0  0  0  0  0  0  0  0  0
  151.6477  142.6790  155.5039 H   0  0  0  0  0  0  0  0  0  0  0  0
  150.0898  142.3237  156.2036 H   0  0  0  0  0  0  0  0  0  0  0  0
  151.0808  144.9033  156.9520 H   0  0  0  0  0  0  0  0  0  0  0  0
  151.8044  145.9702  159.0979 H   0  0  0  0  0  0  0  0  0  0  0  0
  153.8381  143.7075  162.0361 H   0  0  0  0  0  0  0  0  0  0  0  0
  152.1475  143.4231  162.4188 H   0  0  0  0  0  0  0  0  0  0  0  0
  153.6876  142.6443  164.2633 H   0  0  0  0  0  0  0  0  0  0  0  0
  152.7264  141.3231  163.6273 H   0  0  0  0  0  0  0  0  0  0  0  0
  155.4877  139.9771  161.7156 H   0  0  0  0  0  0  0  0  0  0  0  0
  153.7954  139.7395  162.1090 H   0  0  0  0  0  0  0  0  0  0  0  0
  153.9859  140.7164  159.8236 H   0  0  0  0  0  0  0  0  0  0  0  0
  154.9799  142.0296  160.4357 H   0  0  0  0  0  0  0  0  0  0  0  0
  152.1748  141.0895  158.6680 H   0  0  0  0  0  0  0  0  0  0  0  0
  1  2  1  0  0  0  0
  1 21  1  0  0  0  0
  1 22  1  0  0  0  0
  1 23  1  0  0  0  0
  2  3  1  0  0  0  0
  2  4  1  0  0  0  0
  2  5  1  0  0  0  0
  3 24  1  0  0  0  0
  3 25  1  0  0  0  0
  3 26  1  0  0  0  0
  4 27  1  0  0  0  0
  4 28  1  0  0  0  0
  4 29  1  0  0  0  0
  5  6  2  0  0  0  0
  5  7  1  0  0  0  0
  7  8  1  0  0  0  0
  7 30  1  0  0  0  0
  8  9  1  0  0  0  0
  8 31  1  0  0  0  0
  8 32  1  0  0  0  0
  9 20  1  0  0  0  0
  9 10  2  0  0  0  0
 10 11  1  0  0  0  0
 10 33  1  0  0  0  0
 11 12  2  0  0  0  0
 11 34  1  0  0  0  0
 12 13  1  0  0  0  0
 13 14  1  0  0  0  0
 13 20  2  0  0  0  0
 14 19  1  0  0  0  0
 14 15  1  0  0  0  0
 15 16  1  0  0  0  0
 15 35  1  0  0  0  0
 15 36  1  0  0  0  0
 16 17  1  0  0  0  0
 16 37  1  0  0  0  0
 16 38  1  0  0  0  0
 17 18  1  0  0  0  0
 18 19  1  0  0  0  0
 18 39  1  0  0  0  0
 18 40  1  0  0  0  0
 19 41  1  0  0  0  0
 19 42  1  0  0  0  0
 20 43  1  0  0  0  0
M  END
> <s_m_source_file>
AV-unprocessed.smi

> <i_m_source_file_index>
1357

> <i_lp_mmshare_version>
43012

> <i_f3d_flags>
0

> <s_epik_input>
W0NIM11DKFtDSDNdKShbQ0gzXSlDKD1PKVtOSF1bQ0gyXWMxW2NIXVtjSF1uYyhbY0hdMSlOMltDSDJdW0NIMl1PW0NIMl1bQ0gyXTI=

> <s_epik_cmdline>
J2VwaWtfcHl0aG9uJywgJy1waCcsICc3LjAnLCAnLXRuJywgJzgnLCAnLW1hJywgJzIwMCcsICctbWV0YWxfYmluZGluZycsICctaW1hZScsICc8aW5maWxlLm1hZT4nLCAnLW9tYWUnLCAnPG91dGZpbGUubWFlPic=

> <r_lp_tautomer_probability>
1

> <r_epik_Ionization_Penalty>
0.00576178

> <r_epik_Ionization_Penalty_Charging>
0

> <r_epik_Ionization_Penalty_Neutral>
0.00576178

> <r_epik_State_Penalty>
0.00422935

> <r_epik_Charging_Adjusted_Penalty>
0.00422935

> <i_epik_Tot_Q>
0

> <i_epik_Tot_abs_Q>
0

> <r_epik_Metal_State_Penalty>
-0

> <b_epik_Metal_Only>
0

> <s_lp_Force_Field>
OPLS_2005

> <r_lp_Energy>
22.6538

> <b_lp_Chiralities_Consistent>
1

> <s_lp_Variant>
AV-unprocessed.smi:1357-1

> <Gold.Version>
5.8.1

> <Gold.Id.Protein>
6NUR|6NUR_protein|mol2

> <Gold.PLP.Fitness>
47.8736

> <Gold.PLP.PLP>
-45.0053

> <Gold.PLP.part.hbond>
-2.0000

> <Gold.PLP.part.metal>
0.0000

> <Gold.PLP.part.buried>
-6.3363

> <Gold.PLP.part.nonpolar>
-36.7805

> <Gold.PLP.part.repulsive>
0.2693

> <Gold.PLP.ligand.clash>
0.0000

> <Gold.PLP.ligand.torsion>
0.1202

> <Gold.PLP.Chemscore.Hbond>
1.0000

> <Gold.PLP.Chemscore.CHOScore>
0.0000

> <Gold.PLP.Chemscore.Metal>
0.0000

> <Gold.Chemscore.Hbonds>
donor molecule, donor type, donor heavy atom, donor atom, acceptor molecule, acceptor atom, score
      P1  H  7989  7998       L1     6  0.89

> <Gold.PLP.Chemscore.Internal.Correction>
0.1088

> <Gold.Rescore>
     Score         DG    S(hbond)    S(metal)    S(lipo)     H(rot)  DE(clash)    DE(int)     intcor
     17.17     -18.16       0.99        0.00     113.24       1.52       0.87       0.12       ----

> <Gold.Chemscore.Fitness>
17.1694

> <Gold.Chemscore.DG>
-18.1591

> <Gold.Chemscore.ZeroCoef>
-5.4800

> <Gold.Chemscore.Hbond>
0.9922

> <Gold.Chemscore.Metal>
0.0000

> <Gold.Chemscore.Lipo>
113.2418

> <Gold.Chemscore.Internal_Hbond>
0.0000

> <Gold.Chemscore.DEClash>
0.8720

> <Gold.Chemscore.DEInternal>
0.1177

> <Gold.Chemscore.Rot>
1.5173

> <Gold.Chemscore.Internal.Correction>
   9.000000E+99

> <Gold.Chemscore.Hbonds>
donor molecule, donor type, donor heavy atom, donor atom, acceptor molecule, acceptor atom, score
      P1  H  7989  7998       L1     6  0.52

> <Gold.Chemscore.Hbond.Weighted>
-3.3141

> <Gold.Chemscore.Metal.Weighted>
-0.0000

> <Gold.Chemscore.Lipo.Weighted>
-13.2493

> <Gold.Chemscore.Internal_Hbond.Weighted>
0.0000

> <Gold.Chemscore.DEClash.Weighted>
0.8720

> <Gold.Chemscore.DEInternal.Weighted>
0.1177

> <Gold.Chemscore.Rot.Weighted>
3.8843

> <Gold.Chemscore.Internal.Correction.Weighted>
   9.000000E+99

> <Gold.Protein.RotatedTorsions>
[ 6907 6896 6895 6894 ] final -124.80 input  -60.11 | X-H torsion
[ 7974 7965 7964 7962 ] final  -42.36 input  175.53 | X-H torsion
[ 8008 7997 7996 7995 ] final  111.83 input   59.86 | X-H torsion
[ 10167 10162 10161 10158 ] final -169.87 input  -65.29 | X-H torsion
[ 10718 10713 10712 10709 ] final   75.03 input   66.30 | X-H torsion
[ 10763 10752 10751 10750 ] final -127.67 input  -60.55 | X-H torsion
[ 11005 11000 10999 10996 ] final -172.92 input  -57.11 | X-H torsion

> <Gold.Protein.ActiveResidues>
 VAL166  LYS551  ARG553  GLY616  TRP617  ASP618  TYR619  PRO620  LYS621  CYS622 
 ASP623  PHE694  ASN695  SER759  ASP760  ASP761  ALA762  ILE779  LEU786  VAL792 
 PHE793  MET794  SER795  GLU796  ALA797  LYS798  CYS799  TRP800  GLU811  SER814 

> <Gold.Protein.RotatedAtoms>
  150.8804  133.7380  159.2933 H   0  0  0  0  0  0  0  0  0  0  0  0  # atno 6907 bound_to 6896
  151.4963  135.1058  159.9826 H   0  0  0  0  0  0  0  0  0  0  0  0  # atno 6908 bound_to 6896
  152.4756  133.8084  159.7046 H   0  0  0  0  0  0  0  0  0  0  0  0  # atno 6909 bound_to 6896
  146.0123  140.6949  142.9218 H   0  0  0  0  0  0  0  0  0  0  0  0  # atno 7974 bound_to 7965
  156.2151  140.3011  155.9821 H   0  0  0  0  0  0  0  0  0  0  0  0  # atno 8008 bound_to 7997
  155.2626  140.0430  157.3016 H   0  0  0  0  0  0  0  0  0  0  0  0  # atno 8009 bound_to 7997
  154.5756  140.2360  155.8136 H   0  0  0  0  0  0  0  0  0  0  0  0  # atno 8010 bound_to 7997
  139.5896  144.1242  152.1618 H   0  0  0  0  0  0  0  0  0  0  0  0  # atno 10167 bound_to 10162
  157.6617  130.9706  150.1295 H   0  0  0  0  0  0  0  0  0  0  0  0  # atno 10718 bound_to 10713
  154.8753  135.3954  154.3632 H   0  0  0  0  0  0  0  0  0  0  0  0  # atno 10763 bound_to 10752
  153.4402  135.7026  153.6179 H   0  0  0  0  0  0  0  0  0  0  0  0  # atno 10764 bound_to 10752
  153.4764  135.3779  155.2388 H   0  0  0  0  0  0  0  0  0  0  0  0  # atno 10765 bound_to 10752
  140.4916  134.5980  157.4956 H   0  0  0  0  0  0  0  0  0  0  0  0  # atno 11005 bound_to 11000
  144.6958  140.3421  143.7197 LP  0  0  0  0  0  0  0  0  0  0  0  0  # atno 17320 bound_to 7965
  145.7322  139.1739  143.2424 LP  0  0  0  0  0  0  0  0  0  0  0  0  # atno 17321 bound_to 7965
  140.0814  144.5697  150.7120 LP  0  0  0  0  0  0  0  0  0  0  0  0  # atno 17342 bound_to 10162
  140.7161  143.2546  151.4428 LP  0  0  0  0  0  0  0  0  0  0  0  0  # atno 17343 bound_to 10162
  156.2145  130.3669  149.8630 LP  0  0  0  0  0  0  0  0  0  0  0  0  # atno 17370 bound_to 10713
  156.6499  130.8739  151.3529 LP  0  0  0  0  0  0  0  0  0  0  0  0  # atno 17371 bound_to 10713
  139.9766  134.7205  155.9938 LP  0  0  0  0  0  0  0  0  0  0  0  0  # atno 17394 bound_to 11000
  141.1481  133.6552  156.3930 LP  0  0  0  0  0  0  0  0  0  0  0  0  # atno 17395 bound_to 11000

$$$$
