AV-unprocessed.smi:2931|AV-procd|sdf|11247|dock2
  -GOLD-   2272016143D 1   1.00000     0.00000
 Structure written by MMmdl.
 43 44  0  0  0  0  0  0  0  0  3 V2000
  145.2748  135.3282  150.8471 C   0  0  0  0  0  0  0  0  0  0  0  0
  146.2410  134.7794  151.8227 N   0  3  2  0  0  0  0  0  0  0  0  0
  146.5607  133.3534  151.5621 C   0  0  0  0  0  0  0  0  0  0  0  0
  147.6614  132.8498  152.5116 C   0  0  0  0  0  0  0  0  0  0  0  0
  147.2823  133.0885  153.9832 C   0  0  0  0  0  0  0  0  0  0  0  0
  146.9083  134.5621  154.2259 C   0  0  1  0  0  0  0  0  0  0  0  0
  148.1026  135.4018  154.1291 N   0  0  0  0  0  0  0  0  0  0  0  0
  148.8974  135.7366  155.1552 C   0  0  0  0  0  0  0  0  0  0  0  0
  148.6964  135.3985  156.3215 O   0  0  0  0  0  0  0  0  0  0  0  0
  149.9348  136.4871  154.7597 N   0  0  0  0  0  0  0  0  0  0  0  0
  150.9794  136.9946  155.6420 C   0  0  0  0  0  0  0  0  0  0  0  0
  151.7137  138.1959  155.0240 C   0  0  0  0  0  0  0  0  0  0  0  0
  150.9393  139.4881  155.1972 C   0  0  0  0  0  0  0  0  0  0  0  0
  151.4171  140.4990  156.0601 C   0  0  0  0  0  0  0  0  0  0  0  0
  150.6780  141.6918  156.1979 C   0  0  0  0  0  0  0  0  0  0  0  0
  149.5285  141.8548  155.5066 N   0  3  0  0  0  0  0  0  0  0  0  0
  149.0378  140.9139  154.6704 C   0  0  0  0  0  0  0  0  0  0  0  0
  149.7335  139.7004  154.4928 C   0  0  0  0  0  0  0  0  0  0  0  0
  145.8132  134.9998  153.2271 C   0  0  0  0  0  0  0  0  0  0  0  0
  144.3121  134.8209  150.9213 H   0  0  0  0  0  0  0  0  0  0  0  0
  145.6468  135.2104  149.8289 H   0  0  0  0  0  0  0  0  0  0  0  0
  145.1155  136.3929  151.0207 H   0  0  0  0  0  0  0  0  0  0  0  0
  145.6590  132.7502  151.6793 H   0  0  0  0  0  0  0  0  0  0  0  0
  146.8897  133.2344  150.5291 H   0  0  0  0  0  0  0  0  0  0  0  0
  147.8400  131.7876  152.3426 H   0  0  0  0  0  0  0  0  0  0  0  0
  148.5997  133.3571  152.2841 H   0  0  0  0  0  0  0  0  0  0  0  0
  146.4332  132.4544  154.2416 H   0  0  0  0  0  0  0  0  0  0  0  0
  148.0996  132.7862  154.6392 H   0  0  0  0  0  0  0  0  0  0  0  0
  146.5158  134.6505  155.2405 H   0  0  0  0  0  0  0  0  0  0  0  0
  148.3593  135.7224  153.2065 H   0  0  0  0  0  0  0  0  0  0  0  0
  150.0185  136.7102  153.7785 H   0  0  0  0  0  0  0  0  0  0  0  0
  150.5509  137.2641  156.6090 H   0  0  0  0  0  0  0  0  0  0  0  0
  151.6845  136.1846  155.8303 H   0  0  0  0  0  0  0  0  0  0  0  0
  152.6985  138.3073  155.4797 H   0  0  0  0  0  0  0  0  0  0  0  0
  151.8857  138.0295  153.9597 H   0  0  0  0  0  0  0  0  0  0  0  0
  152.3385  140.3650  156.6085 H   0  0  0  0  0  0  0  0  0  0  0  0
  150.9702  142.5143  156.8342 H   0  0  0  0  0  0  0  0  0  0  0  0
  148.1112  141.1584  154.1717 H   0  0  0  0  0  0  0  0  0  0  0  0
  149.3465  138.9455  153.8238 H   0  0  0  0  0  0  0  0  0  0  0  0
  145.5676  136.0521  153.3747 H   0  0  0  0  0  0  0  0  0  0  0  0
  144.8951  134.4407  153.4152 H   0  0  0  0  0  0  0  0  0  0  0  0
  147.0991  135.2973  151.6984 H   0  0  0  0  0  0  0  0  0  0  0  0
  149.0093  142.7258  155.6208 H   0  0  0  0  0  0  0  0  0  0  0  0
  1  2  1  0  0  0  0
  1 20  1  0  0  0  0
  1 21  1  0  0  0  0
  1 22  1  0  0  0  0
  2 19  1  0  0  0  0
  2  3  1  0  0  0  0
  2 42  1  0  0  0  0
  3  4  1  0  0  0  0
  3 23  1  0  0  0  0
  3 24  1  0  0  0  0
  4  5  1  0  0  0  0
  4 25  1  0  0  0  0
  4 26  1  0  0  0  0
  5  6  1  0  0  0  0
  5 27  1  0  0  0  0
  5 28  1  0  0  0  0
  6  7  1  0  0  0  0
  6 19  1  0  0  0  0
  6 29  1  0  0  0  0
  7  8  1  0  0  0  0
  7 30  1  0  0  0  0
  8  9  2  0  0  0  0
  8 10  1  0  0  0  0
 10 11  1  0  0  0  0
 10 31  1  0  0  0  0
 11 12  1  0  0  0  0
 11 32  1  0  0  0  0
 11 33  1  0  0  0  0
 12 13  1  0  0  0  0
 12 34  1  0  0  0  0
 12 35  1  0  0  0  0
 13 18  1  0  0  0  0
 13 14  2  0  0  0  0
 14 15  1  0  0  0  0
 14 36  1  0  0  0  0
 15 16  2  0  0  0  0
 15 37  1  0  0  0  0
 16 17  1  0  0  0  0
 16 43  1  0  0  0  0
 17 18  2  0  0  0  0
 17 38  1  0  0  0  0
 18 39  1  0  0  0  0
 19 40  1  0  0  0  0
 19 41  1  0  0  0  0
M  CHG  1   2   1
M  CHG  1  16   1
M  END
> <s_m_source_file>
AV-unprocessed.smi

> <i_m_source_file_index>
2931

> <i_lp_mmshare_version>
43012

> <i_f3d_flags>
0

> <s_epik_input>
W0NIM11OMVtDSDJdW0NIMl1bQ0gyXVtDQEhdKFtDSDJdMSlbTkhdQyg9TylbTkhdW0NIMl1bQ0gyXWMyW2NIXVtjSF1uW2NIXVtjSF0y

> <s_epik_cmdline>
J2VwaWtfcHl0aG9uJywgJy1waCcsICc3LjAnLCAnLXRuJywgJzgnLCAnLW1hJywgJzIwMCcsICctbWV0YWxfYmluZGluZycsICctaW1hZScsICc8aW5maWxlLm1hZT4nLCAnLW9tYWUnLCAnPG91dGZpbGUubWFlPic=

> <r_epik_Ionization_Penalty>
1.43754

> <r_epik_Ionization_Penalty_Charging>
1.4375

> <r_epik_Ionization_Penalty_Neutral>
3.7629e-05

> <r_epik_State_Penalty>
1.52008

> <r_epik_Charging_Adjusted_Penalty>
2.95758

> <i_epik_Tot_Q>
2

> <i_epik_Tot_abs_Q>
2

> <r_epik_Metal_State_Penalty>
1.57105

> <b_epik_Metal_Only>
0

> <s_lp_Force_Field>
OPLS_2005

> <r_lp_Energy>
27.7163

> <b_lp_Chiralities_Consistent>
1

> <s_lp_Variant>
AV-unprocessed.smi:2931-6

> <Gold.Version>
5.8.1

> <Gold.Id.Protein>
6NUR|6NUR_protein|mol2

> <Gold.PLP.Fitness>
48.6494

> <Gold.PLP.PLP>
-33.6223

> <Gold.PLP.part.hbond>
-3.9913

> <Gold.PLP.part.metal>
0.0000

> <Gold.PLP.part.buried>
-4.1576

> <Gold.PLP.part.nonpolar>
-27.3408

> <Gold.PLP.part.repulsive>
0.2764

> <Gold.PLP.ligand.clash>
0.0000

> <Gold.PLP.ligand.torsion>
0.6916

> <Gold.PLP.Chemscore.Hbond>
5.4626

> <Gold.PLP.Chemscore.CHOScore>
0.0000

> <Gold.PLP.Chemscore.Metal>
0.0000

> <Gold.Chemscore.Hbonds>
donor molecule, donor type, donor heavy atom, donor atom, acceptor molecule, acceptor atom, score
      L1  H     2    42       P1  7948  1.95
      L1  H     7    30       P1  7948  1.00
      L1  H    10    31       P1  7948  0.45
      L1  H    16    43       P1  8028  2.00

> <Gold.PLP.Chemscore.Internal.Correction>
0.0223

> <Gold.Rescore>
     Score         DG    S(hbond)    S(metal)    S(lipo)     H(rot)  DE(clash)    DE(int)     intcor
     19.51     -20.18       3.00        0.00      76.07       1.65       0.02       0.65       ----

> <Gold.Chemscore.Fitness>
19.5139

> <Gold.Chemscore.DG>
-20.1814

> <Gold.Chemscore.ZeroCoef>
-5.4800

> <Gold.Chemscore.Hbond>
2.9987

> <Gold.Chemscore.Metal>
0.0000

> <Gold.Chemscore.Lipo>
76.0717

> <Gold.Chemscore.Internal_Hbond>
0.0000

> <Gold.Chemscore.DEClash>
0.0187

> <Gold.Chemscore.DEInternal>
0.6488

> <Gold.Chemscore.Rot>
1.6464

> <Gold.Chemscore.Internal.Correction>
   9.000000E+99

> <Gold.Chemscore.Hbonds>
donor molecule, donor type, donor heavy atom, donor atom, acceptor molecule, acceptor atom, score
      L1  H     2    42       P1  7948  0.90
      L1  H     7    30       P1  7948  0.94
      L1  H    10    31       P1  7948  0.11
      L1  H    16    43       P1  8028  0.94

> <Gold.Chemscore.Hbond.Weighted>
-10.0157

> <Gold.Chemscore.Metal.Weighted>
-0.0000

> <Gold.Chemscore.Lipo.Weighted>
-8.9004

> <Gold.Chemscore.Internal_Hbond.Weighted>
0.0000

> <Gold.Chemscore.DEClash.Weighted>
0.0187

> <Gold.Chemscore.DEInternal.Weighted>
0.6488

> <Gold.Chemscore.Rot.Weighted>
4.2148

> <Gold.Chemscore.Internal.Correction.Weighted>
   9.000000E+99

> <Gold.Protein.RotatedTorsions>
[ 6907 6896 6895 6894 ] final   20.56 input  -60.11 | X-H torsion
[ 7974 7965 7964 7962 ] final   63.88 input  175.53 | X-H torsion
[ 8008 7997 7996 7995 ] final  148.76 input   59.86 | X-H torsion
[ 10167 10162 10161 10158 ] final  100.28 input  -65.29 | X-H torsion
[ 10718 10713 10712 10709 ] final  -39.64 input   66.30 | X-H torsion
[ 10763 10752 10751 10750 ] final   82.77 input  -60.55 | X-H torsion
[ 11005 11000 10999 10996 ] final -142.55 input  -57.11 | X-H torsion

> <Gold.Protein.ActiveResidues>
 VAL166  LYS551  ARG553  GLY616  TRP617  ASP618  TYR619  PRO620  LYS621  CYS622 
 ASP623  PHE694  ASN695  SER759  ASP760  ASP761  ALA762  ILE779  LEU786  VAL792 
 PHE793  MET794  SER795  GLU796  ALA797  LYS798  CYS799  TRP800  GLU811  SER814 

> <Gold.Protein.RotatedAtoms>
  151.8983  135.0389  160.0503 H   0  0  0  0  0  0  0  0  0  0  0  0  # atno 6907 bound_to 6896
  152.2379  133.5107  159.5262 H   0  0  0  0  0  0  0  0  0  0  0  0  # atno 6908 bound_to 6896
  150.7045  134.1044  159.4020 H   0  0  0  0  0  0  0  0  0  0  0  0  # atno 6909 bound_to 6896
  145.8567  139.3289  143.0843 H   0  0  0  0  0  0  0  0  0  0  0  0  # atno 7974 bound_to 7965
  156.2780  140.2120  156.5749 H   0  0  0  0  0  0  0  0  0  0  0  0  # atno 8008 bound_to 7997
  154.7105  140.0512  157.0569 H   0  0  0  0  0  0  0  0  0  0  0  0  # atno 8009 bound_to 7997
  155.0611  140.3166  155.4663 H   0  0  0  0  0  0  0  0  0  0  0  0  # atno 8010 bound_to 7997
  139.7541  144.6975  151.0389 H   0  0  0  0  0  0  0  0  0  0  0  0  # atno 10167 bound_to 10162
  156.2902  130.4227  149.8247 H   0  0  0  0  0  0  0  0  0  0  0  0  # atno 10718 bound_to 10713
  153.1232  135.4716  154.9229 H   0  0  0  0  0  0  0  0  0  0  0  0  # atno 10763 bound_to 10752
  154.7595  135.3127  154.8407 H   0  0  0  0  0  0  0  0  0  0  0  0  # atno 10764 bound_to 10752
  153.8967  135.6879  153.4811 H   0  0  0  0  0  0  0  0  0  0  0  0  # atno 10765 bound_to 10752
  140.8214  134.2626  157.4898 H   0  0  0  0  0  0  0  0  0  0  0  0  # atno 11005 bound_to 11000
  145.9295  140.9058  143.0364 LP  0  0  0  0  0  0  0  0  0  0  0  0  # atno 17320 bound_to 7965
  144.6727  140.1399  143.7438 LP  0  0  0  0  0  0  0  0  0  0  0  0  # atno 17321 bound_to 7965
  140.7801  143.4774  151.0064 LP  0  0  0  0  0  0  0  0  0  0  0  0  # atno 17342 bound_to 10162
  139.8461  143.7499  152.3179 LP  0  0  0  0  0  0  0  0  0  0  0  0  # atno 17343 bound_to 10162
  156.5662  130.8405  151.3343 LP  0  0  0  0  0  0  0  0  0  0  0  0  # atno 17370 bound_to 10713
  157.7340  130.9739  150.2007 LP  0  0  0  0  0  0  0  0  0  0  0  0  # atno 17371 bound_to 10713
  139.8708  134.9537  156.4154 LP  0  0  0  0  0  0  0  0  0  0  0  0  # atno 17394 bound_to 11000
  140.9095  133.7722  155.9774 LP  0  0  0  0  0  0  0  0  0  0  0  0  # atno 17395 bound_to 11000

$$$$
