AV-unprocessed.smi:1278|AV-procd|sdf|5353|dock2
  -GOLD-   22720 4483D 1   1.00000     0.00000
 Structure written by MMmdl.
 38 39  0  0  0  0  0  0  0  0  3 V2000
  147.1381  133.2759  151.7418 C   0  0  0  0  0  0  0  0  0  0  0  0
  145.8806  133.7827  152.4701 C   0  0  2  0  0  0  0  0  0  0  0  0
  144.9715  134.6372  151.5677 C   0  0  0  0  0  0  0  0  0  0  0  0
  145.5741  136.0288  151.3292 C   0  0  0  0  0  0  0  0  0  0  0  0
  145.9144  136.7185  152.6596 C   0  0  0  0  0  0  0  0  0  0  0  0
  146.8211  135.8788  153.4836 N   0  3  1  0  0  0  0  0  0  0  0  0
  147.2784  136.5836  154.7066 C   0  0  0  0  0  0  0  0  0  0  0  0
  147.7485  135.6084  155.8022 C   0  0  0  0  0  0  0  0  0  0  0  0
  147.8902  136.2830  157.0867 N   0  0  0  0  0  0  0  0  0  0  0  0
  148.5259  135.7926  158.1603 C   0  0  0  0  0  0  0  0  0  0  0  0
  149.0550  134.6799  158.1054 O   0  0  0  0  0  0  0  0  0  0  0  0
  148.5046  136.6194  159.2293 N   0  5  0  0  0  0  0  0  0  0  0  0
  147.9393  136.2162  160.3788 C   0  0  0  0  0  0  0  0  0  0  0  0
  147.6216  137.0574  161.3693 N   0  0  0  0  0  0  0  0  0  0  0  0
  147.0403  136.4253  162.4700 C   0  0  0  0  0  0  0  0  0  0  0  0
  146.9043  135.0717  162.3098 C   0  0  0  0  0  0  0  0  0  0  0  0
  147.5059  134.5482  160.7627 S   0  0  0  0  0  0  0  0  0  0  0  0
  146.2245  134.5446  153.7671 C   0  0  0  0  0  0  0  0  0  0  0  0
  147.7922  134.0938  151.4396 H   0  0  0  0  0  0  0  0  0  0  0  0
  146.8717  132.7157  150.8450 H   0  0  0  0  0  0  0  0  0  0  0  0
  147.7189  132.6108  152.3817 H   0  0  0  0  0  0  0  0  0  0  0  0
  145.3128  132.8954  152.7536 H   0  0  0  0  0  0  0  0  0  0  0  0
  144.7894  134.1339  150.6174 H   0  0  0  0  0  0  0  0  0  0  0  0
  143.9973  134.7500  152.0453 H   0  0  0  0  0  0  0  0  0  0  0  0
  146.4724  135.9468  150.7166 H   0  0  0  0  0  0  0  0  0  0  0  0
  144.8740  136.6429  150.7623 H   0  0  0  0  0  0  0  0  0  0  0  0
  146.3876  137.6786  152.4496 H   0  0  0  0  0  0  0  0  0  0  0  0
  145.0028  136.9301  153.2211 H   0  0  0  0  0  0  0  0  0  0  0  0
  148.1176  137.2345  154.4570 H   0  0  0  0  0  0  0  0  0  0  0  0
  146.4830  137.2364  155.0698 H   0  0  0  0  0  0  0  0  0  0  0  0
  147.0652  134.7666  155.9153 H   0  0  0  0  0  0  0  0  0  0  0  0
  148.7174  135.1871  155.5337 H   0  0  0  0  0  0  0  0  0  0  0  0
  147.4761  137.1998  157.1728 H   0  0  0  0  0  0  0  0  0  0  0  0
  146.7526  137.0178  163.3257 H   0  0  0  0  0  0  0  0  0  0  0  0
  146.4885  134.3549  163.0014 H   0  0  0  0  0  0  0  0  0  0  0  0
  145.3207  134.6807  154.3632 H   0  0  0  0  0  0  0  0  0  0  0  0
  146.9003  133.9396  154.3704 H   0  0  0  0  0  0  0  0  0  0  0  0
  147.6459  135.7206  152.9227 H   0  0  0  0  0  0  0  0  0  0  0  0
  1  2  1  0  0  0  0
  1 19  1  0  0  0  0
  1 20  1  0  0  0  0
  1 21  1  0  0  0  0
  2 18  1  0  0  0  0
  2  3  1  0  0  0  0
  2 22  1  0  0  0  0
  3  4  1  0  0  0  0
  3 23  1  0  0  0  0
  3 24  1  0  0  0  0
  4  5  1  0  0  0  0
  4 25  1  0  0  0  0
  4 26  1  0  0  0  0
  5  6  1  0  0  0  0
  5 27  1  0  0  0  0
  5 28  1  0  0  0  0
  6  7  1  0  0  0  0
  6 18  1  0  0  0  0
  6 38  1  0  0  0  0
  7  8  1  0  0  0  0
  7 29  1  0  0  0  0
  7 30  1  0  0  0  0
  8  9  1  0  0  0  0
  8 31  1  0  0  0  0
  8 32  1  0  0  0  0
  9 10  1  0  0  0  0
  9 33  1  0  0  0  0
 10 11  2  0  0  0  0
 10 12  1  0  0  0  0
 12 13  1  0  0  0  0
 13 17  1  0  0  0  0
 13 14  2  0  0  0  0
 14 15  1  0  0  0  0
 15 16  2  0  0  0  0
 15 34  1  0  0  0  0
 16 17  1  0  0  0  0
 16 35  1  0  0  0  0
 18 36  1  0  0  0  0
 18 37  1  0  0  0  0
M  CHG  1   6   1
M  CHG  1  12  -1
M  END
> <s_m_source_file>
AV-unprocessed.smi

> <i_m_source_file_index>
1278

> <i_lp_mmshare_version>
43012

> <i_f3d_flags>
0

> <s_epik_input>
W0NIM11bQ0BASF0xW0NIMl1bQ0gyXVtDSDJdTihbQ0gyXTEpW0NIMl1bQ0gyXVtOSF1DKD1PKVtOSF1jMm5bY0hdW2NIXXMy

> <s_epik_cmdline>
J2VwaWtfcHl0aG9uJywgJy1waCcsICc3LjAnLCAnLXRuJywgJzgnLCAnLW1hJywgJzIwMCcsICctbWV0YWxfYmluZGluZycsICctaW1hZScsICc8aW5maWxlLm1hZT4nLCAnLW9tYWUnLCAnPG91dGZpbGUubWFlPic=

> <r_lp_tautomer_probability>
0.999

> <r_epik_Ionization_Penalty>
6.22019

> <r_epik_Ionization_Penalty_Charging>
5.38911

> <r_epik_Ionization_Penalty_Neutral>
0.831074

> <r_epik_State_Penalty>
5.38904

> <r_epik_Charging_Adjusted_Penalty>
10.7782

> <i_epik_Tot_Q>
0

> <i_epik_Tot_abs_Q>
2

> <r_epik_Metal_State_Penalty>
1.41502

> <b_epik_Metal_Only>
1

> <s_lp_Force_Field>
OPLS_2005

> <r_lp_Energy>
8.40837

> <b_lp_Chiralities_Consistent>
1

> <s_lp_Variant>
AV-unprocessed.smi:1278-7

> <Gold.Version>
5.8.1

> <Gold.Id.Protein>
6NUR|6NUR_protein|mol2

> <Gold.PLP.Fitness>
41.1065

> <Gold.PLP.PLP>
-28.6520

> <Gold.PLP.part.hbond>
-4.0000

> <Gold.PLP.part.metal>
0.0000

> <Gold.PLP.part.buried>
-3.6133

> <Gold.PLP.part.nonpolar>
-20.6390

> <Gold.PLP.part.repulsive>
0.0000

> <Gold.PLP.ligand.clash>
0.0000

> <Gold.PLP.ligand.torsion>
1.0252

> <Gold.PLP.Chemscore.Hbond>
4.8160

> <Gold.PLP.Chemscore.CHOScore>
0.0000

> <Gold.PLP.Chemscore.Metal>
0.0000

> <Gold.Chemscore.Hbonds>
donor molecule, donor type, donor heavy atom, donor atom, acceptor molecule, acceptor atom, score
      L1  H     6    38       P1  7948  2.00
      P1  H  6896  6909       L1    11  0.84
      P1  H  6931  6943       L1    14  1.00
      P1  H  6934  6947       L1    14  0.81

> <Gold.PLP.Chemscore.Internal.Correction>
0.0568

> <Gold.Rescore>
     Score         DG    S(hbond)    S(metal)    S(lipo)     H(rot)  DE(clash)    DE(int)     intcor
     18.10     -19.16       3.45        0.00      52.83       1.57       0.00       1.06       ----

> <Gold.Chemscore.Fitness>
18.0981

> <Gold.Chemscore.DG>
-19.1613

> <Gold.Chemscore.ZeroCoef>
-5.4800

> <Gold.Chemscore.Hbond>
3.4470

> <Gold.Chemscore.Metal>
0.0000

> <Gold.Chemscore.Lipo>
52.8335

> <Gold.Chemscore.Internal_Hbond>
0.0000

> <Gold.Chemscore.DEClash>
0.0048

> <Gold.Chemscore.DEInternal>
1.0584

> <Gold.Chemscore.Rot>
1.5676

> <Gold.Chemscore.Internal.Correction>
   9.000000E+99

> <Gold.Chemscore.Hbonds>
donor molecule, donor type, donor heavy atom, donor atom, acceptor molecule, acceptor atom, score
      L1  H     6    38       P1  7948  0.98
      P1  H  6896  6909       L1    11  0.80
      P1  H  6931  6943       L1    14  0.67
      P1  H  6934  6947       L1    14  0.73

> <Gold.Chemscore.Hbond.Weighted>
-11.5128

> <Gold.Chemscore.Metal.Weighted>
-0.0000

> <Gold.Chemscore.Lipo.Weighted>
-6.1815

> <Gold.Chemscore.Internal_Hbond.Weighted>
0.0000

> <Gold.Chemscore.DEClash.Weighted>
0.0048

> <Gold.Chemscore.DEInternal.Weighted>
1.0584

> <Gold.Chemscore.Rot.Weighted>
4.0130

> <Gold.Chemscore.Internal.Correction.Weighted>
   9.000000E+99

> <Gold.Protein.RotatedTorsions>
[ 6907 6896 6895 6894 ] final   27.38 input  -60.11 | X-H torsion
[ 7974 7965 7964 7962 ] final   10.38 input  175.53 | X-H torsion
[ 8008 7997 7996 7995 ] final  152.79 input   59.86 | X-H torsion
[ 10167 10162 10161 10158 ] final  131.67 input  -65.29 | X-H torsion
[ 10718 10713 10712 10709 ] final  -63.45 input   66.30 | X-H torsion
[ 10763 10752 10751 10750 ] final   30.22 input  -60.55 | X-H torsion
[ 11005 11000 10999 10996 ] final  -44.63 input  -57.11 | X-H torsion

> <Gold.Protein.ActiveResidues>
 VAL166  LYS551  ARG553  GLY616  TRP617  ASP618  TYR619  PRO620  LYS621  CYS622 
 ASP623  PHE694  ASN695  SER759  ASP760  ASP761  ALA762  ILE779  LEU786  VAL792 
 PHE793  MET794  SER795  GLU796  ALA797  LYS798  CYS799  TRP800  GLU811  SER814 

> <Gold.Protein.RotatedAtoms>
  152.0014  134.9926  160.0564 H   0  0  0  0  0  0  0  0  0  0  0  0  # atno 6907 bound_to 6896
  152.1516  133.4520  159.4824 H   0  0  0  0  0  0  0  0  0  0  0  0  # atno 6908 bound_to 6896
  150.6876  134.2100  159.4398 H   0  0  0  0  0  0  0  0  0  0  0  0  # atno 6909 bound_to 6896
  146.2389  139.9643  142.8455 H   0  0  0  0  0  0  0  0  0  0  0  0  # atno 7974 bound_to 7965
  156.2612  140.2011  156.6388 H   0  0  0  0  0  0  0  0  0  0  0  0  # atno 8008 bound_to 7997
  154.6625  140.0559  157.0102 H   0  0  0  0  0  0  0  0  0  0  0  0  # atno 8009 bound_to 7997
  155.1255  140.3229  155.4489 H   0  0  0  0  0  0  0  0  0  0  0  0  # atno 8010 bound_to 7997
  139.5373  144.6696  151.4742 H   0  0  0  0  0  0  0  0  0  0  0  0  # atno 10167 bound_to 10162
  156.0790  130.4221  150.1279 H   0  0  0  0  0  0  0  0  0  0  0  0  # atno 10718 bound_to 10713
  153.0384  135.6469  154.1011 H   0  0  0  0  0  0  0  0  0  0  0  0  # atno 10763 bound_to 10752
  154.0722  135.2879  155.3307 H   0  0  0  0  0  0  0  0  0  0  0  0  # atno 10764 bound_to 10752
  154.6586  135.5399  153.8055 H   0  0  0  0  0  0  0  0  0  0  0  0  # atno 10765 bound_to 10752
  141.0463  133.6760  156.2899 H   0  0  0  0  0  0  0  0  0  0  0  0  # atno 11005 bound_to 11000
  145.1742  140.9735  143.4304 LP  0  0  0  0  0  0  0  0  0  0  0  0  # atno 17320 bound_to 7965
  145.0001  139.3606  143.6172 LP  0  0  0  0  0  0  0  0  0  0  0  0  # atno 17321 bound_to 7965
  140.6586  143.8546  150.6863 LP  0  0  0  0  0  0  0  0  0  0  0  0  # atno 17342 bound_to 10162
  140.1933  143.4018  152.1847 LP  0  0  0  0  0  0  0  0  0  0  0  0  # atno 17343 bound_to 10162
  156.9314  130.9715  151.3532 LP  0  0  0  0  0  0  0  0  0  0  0  0  # atno 17370 bound_to 10713
  157.5899  130.8436  149.8643 LP  0  0  0  0  0  0  0  0  0  0  0  0  # atno 17371 bound_to 10713
  140.6140  134.5429  157.5538 LP  0  0  0  0  0  0  0  0  0  0  0  0  # atno 17394 bound_to 11000
  139.9314  134.7956  156.0920 LP  0  0  0  0  0  0  0  0  0  0  0  0  # atno 17395 bound_to 11000

$$$$
