AV-unprocessed.smi:2888|AV-procd|sdf|11100|dock10
  -GOLD-   2272015573D 1   1.00000     0.00000
 Structure written by MMmdl.
 33 35  0  0  0  0  0  0  0  0  1 V2000
  148.7263  141.1166  155.4363 C   0  0  0  0  0  0  0  0  0  0  0  0
  150.0758  140.6198  155.9090 C   0  0  0  0  0  0  0  0  0  0  0  0
  150.8113  139.6662  155.1746 C   0  0  0  0  0  0  0  0  0  0  0  0
  152.0545  139.2863  155.7225 C   0  0  0  0  0  0  0  0  0  0  0  0
  152.9468  138.2746  155.0352 C   0  0  0  0  0  0  0  0  0  0  0  0
  152.5113  139.8084  156.8825 N   0  0  0  0  0  0  0  0  0  0  0  0
  151.7337  140.7068  157.4923 C   0  0  0  0  0  0  0  0  0  0  0  0
  152.2366  141.2262  158.6709 N   0  0  0  0  0  0  0  0  0  0  0  0
  152.4518  142.6465  158.9178 C   0  0  2  0  0  0  0  0  0  0  0  0
  152.8972  142.9433  160.3553 C   0  0  0  0  0  0  0  0  0  0  0  0
  151.8325  143.9466  160.8153 C   0  0  1  0  0  0  0  0  0  0  0  0
  151.9566  145.2969  160.0960 C   0  0  0  0  0  0  0  0  0  0  0  0
  151.4376  144.9556  158.6994 C   0  0  0  0  0  0  0  0  0  0  0  0
  151.1461  143.4542  158.8283 C   0  0  2  0  0  0  0  0  0  0  0  0
  150.6909  143.4093  160.1713 O   0  0  0  0  0  0  0  0  0  0  0  0
  150.5402  141.1387  157.0666 N   0  0  0  0  0  0  0  0  0  0  0  0
  148.4016  140.5841  154.5419 H   0  0  0  0  0  0  0  0  0  0  0  0
  148.7767  142.1802  155.2017 H   0  0  0  0  0  0  0  0  0  0  0  0
  147.9740  140.9698  156.2117 H   0  0  0  0  0  0  0  0  0  0  0  0
  150.4445  139.2523  154.2467 H   0  0  0  0  0  0  0  0  0  0  0  0
  152.4467  137.8295  154.1747 H   0  0  0  0  0  0  0  0  0  0  0  0
  153.2155  137.4731  155.7239 H   0  0  0  0  0  0  0  0  0  0  0  0
  153.8631  138.7525  154.6883 H   0  0  0  0  0  0  0  0  0  0  0  0
  152.6269  140.5691  159.3305 H   0  0  0  0  0  0  0  0  0  0  0  0
  153.1728  143.0249  158.1917 H   0  0  0  0  0  0  0  0  0  0  0  0
  152.8646  142.0494  160.9804 H   0  0  0  0  0  0  0  0  0  0  0  0
  153.9069  143.3522  160.4061 H   0  0  0  0  0  0  0  0  0  0  0  0
  151.7406  144.0276  161.8986 H   0  0  0  0  0  0  0  0  0  0  0  0
  151.3227  146.0496  160.5661 H   0  0  0  0  0  0  0  0  0  0  0  0
  152.9819  145.6682  160.0892 H   0  0  0  0  0  0  0  0  0  0  0  0
  150.5224  145.5091  158.4866 H   0  0  0  0  0  0  0  0  0  0  0  0
  152.1599  145.1755  157.9126 H   0  0  0  0  0  0  0  0  0  0  0  0
  150.4320  143.0838  158.0917 H   0  0  0  0  0  0  0  0  0  0  0  0
  1  2  1  0  0  0  0
  1 17  1  0  0  0  0
  1 18  1  0  0  0  0
  1 19  1  0  0  0  0
  2 16  1  0  0  0  0
  2  3  2  0  0  0  0
  3  4  1  0  0  0  0
  3 20  1  0  0  0  0
  4  5  1  0  0  0  0
  4  6  2  0  0  0  0
  5 21  1  0  0  0  0
  5 22  1  0  0  0  0
  5 23  1  0  0  0  0
  6  7  1  0  0  0  0
  7  8  1  0  0  0  0
  7 16  2  0  0  0  0
  8  9  1  0  0  0  0
  8 24  1  0  0  0  0
  9 14  1  0  0  0  0
  9 10  1  0  0  0  0
  9 25  1  0  0  0  0
 10 11  1  0  0  0  0
 10 26  1  0  0  0  0
 10 27  1  0  0  0  0
 11 15  1  0  0  0  0
 11 12  1  0  0  0  0
 11 28  1  0  0  0  0
 12 13  1  0  0  0  0
 12 29  1  0  0  0  0
 12 30  1  0  0  0  0
 13 14  1  0  0  0  0
 13 31  1  0  0  0  0
 13 32  1  0  0  0  0
 14 15  1  0  0  0  0
 14 33  1  0  0  0  0
M  END
> <s_m_source_file>
AV-unprocessed.smi

> <i_m_source_file_index>
2888

> <i_lp_mmshare_version>
43012

> <i_f3d_flags>
0

> <s_epik_input>
W0NIM11jMVtjSF1jKFtDSDNdKW5jKG4xKVtOSF1bQ0BIXShbQ0gyXVtDQEBIXTIzKVtDQEBIXShPMylbQ0gyXVtDSDJdMg==

> <s_epik_cmdline>
J2VwaWtfcHl0aG9uJywgJy1waCcsICc3LjAnLCAnLXRuJywgJzgnLCAnLW1hJywgJzIwMCcsICctbWV0YWxfYmluZGluZycsICctaW1hZScsICc8aW5maWxlLm1hZT4nLCAnLW9tYWUnLCAnPG91dGZpbGUubWFlPic=

> <r_lp_tautomer_probability>
1

> <r_epik_Ionization_Penalty>
0.00890508

> <r_epik_Ionization_Penalty_Charging>
0

> <r_epik_Ionization_Penalty_Neutral>
0.00890508

> <r_epik_State_Penalty>
0.0067342

> <r_epik_Charging_Adjusted_Penalty>
0.0067342

> <i_epik_Tot_Q>
0

> <i_epik_Tot_abs_Q>
0

> <r_epik_Metal_State_Penalty>
0.00663442

> <b_epik_Metal_Only>
0

> <s_lp_Force_Field>
OPLS_2005

> <r_lp_Energy>
31.5378

> <b_lp_Chiralities_Consistent>
1

> <s_lp_Variant>
AV-unprocessed.smi:2888-1

> <Gold.Version>
5.8.1

> <Gold.Id.Protein>
6NUR|6NUR_protein|mol2

> <Gold.PLP.Fitness>
41.0762

> <Gold.PLP.PLP>
-39.1416

> <Gold.PLP.part.hbond>
-2.0000

> <Gold.PLP.part.metal>
0.0000

> <Gold.PLP.part.buried>
-2.9775

> <Gold.PLP.part.nonpolar>
-35.1474

> <Gold.PLP.part.repulsive>
0.2314

> <Gold.PLP.ligand.clash>
0.0000

> <Gold.PLP.ligand.torsion>
0.5420

> <Gold.PLP.Chemscore.Hbond>
1.0000

> <Gold.PLP.Chemscore.CHOScore>
0.0000

> <Gold.PLP.Chemscore.Metal>
0.0000

> <Gold.Chemscore.Hbonds>
donor molecule, donor type, donor heavy atom, donor atom, acceptor molecule, acceptor atom, score
      P1  H  7997  8009       L1     6  1.00

> <Gold.PLP.Chemscore.Internal.Correction>
0.0187

> <Gold.Rescore>
     Score         DG    S(hbond)    S(metal)    S(lipo)     H(rot)  DE(clash)    DE(int)     intcor
     17.78     -18.59       0.89        0.00     108.38       1.00       0.20       0.62       ----

> <Gold.Chemscore.Fitness>
17.7786

> <Gold.Chemscore.DG>
-18.5897

> <Gold.Chemscore.ZeroCoef>
-5.4800

> <Gold.Chemscore.Hbond>
0.8950

> <Gold.Chemscore.Metal>
0.0000

> <Gold.Chemscore.Lipo>
108.3794

> <Gold.Chemscore.Internal_Hbond>
0.0000

> <Gold.Chemscore.DEClash>
0.1951

> <Gold.Chemscore.DEInternal>
0.6159

> <Gold.Chemscore.Rot>
1.0000

> <Gold.Chemscore.Internal.Correction>
   9.000000E+99

> <Gold.Chemscore.Hbonds>
donor molecule, donor type, donor heavy atom, donor atom, acceptor molecule, acceptor atom, score
      P1  H  7997  8009       L1     6  0.44

> <Gold.Chemscore.Hbond.Weighted>
-2.9893

> <Gold.Chemscore.Metal.Weighted>
-0.0000

> <Gold.Chemscore.Lipo.Weighted>
-12.6804

> <Gold.Chemscore.Internal_Hbond.Weighted>
0.0000

> <Gold.Chemscore.DEClash.Weighted>
0.1951

> <Gold.Chemscore.DEInternal.Weighted>
0.6159

> <Gold.Chemscore.Rot.Weighted>
2.5600

> <Gold.Chemscore.Internal.Correction.Weighted>
   9.000000E+99

> <Gold.Protein.RotatedTorsions>
[ 6907 6896 6895 6894 ] final -138.10 input  -60.11 | X-H torsion
[ 7974 7965 7964 7962 ] final -172.55 input  175.53 | X-H torsion
[ 8008 7997 7996 7995 ] final -174.88 input   59.86 | X-H torsion
[ 10167 10162 10161 10158 ] final  119.47 input  -65.29 | X-H torsion
[ 10718 10713 10712 10709 ] final -120.67 input   66.30 | X-H torsion
[ 10763 10752 10751 10750 ] final   21.21 input  -60.55 | X-H torsion
[ 11005 11000 10999 10996 ] final   96.60 input  -57.11 | X-H torsion

> <Gold.Protein.ActiveResidues>
 VAL166  LYS551  ARG553  GLY616  TRP617  ASP618  TYR619  PRO620  LYS621  CYS622 
 ASP623  PHE694  ASN695  SER759  ASP760  ASP761  ALA762  ILE779  LEU786  VAL792 
 PHE793  MET794  SER795  GLU796  ALA797  LYS798  CYS799  TRP800  GLU811  SER814 

> <Gold.Protein.RotatedAtoms>
  151.0308  133.5792  159.2660 H   0  0  0  0  0  0  0  0  0  0  0  0  # atno 6907 bound_to 6896
  151.2875  135.0731  159.9202 H   0  0  0  0  0  0  0  0  0  0  0  0  # atno 6908 bound_to 6896
  152.5344  134.0012  159.7949 H   0  0  0  0  0  0  0  0  0  0  0  0  # atno 6909 bound_to 6896
  144.7145  140.1755  143.6363 H   0  0  0  0  0  0  0  0  0  0  0  0  # atno 7974 bound_to 7965
  155.9756  140.1171  157.0773 H   0  0  0  0  0  0  0  0  0  0  0  0  # atno 8008 bound_to 7997
  154.4168  140.1154  156.5433 H   0  0  0  0  0  0  0  0  0  0  0  0  # atno 8009 bound_to 7997
  155.6539  140.3473  155.4760 H   0  0  0  0  0  0  0  0  0  0  0  0  # atno 8010 bound_to 7997
  139.6044  144.7066  151.2988 H   0  0  0  0  0  0  0  0  0  0  0  0  # atno 10167 bound_to 10162
  156.1276  130.6371  150.9569 H   0  0  0  0  0  0  0  0  0  0  0  0  # atno 10718 bound_to 10713
  153.1014  135.6673  153.9666 H   0  0  0  0  0  0  0  0  0  0  0  0  # atno 10763 bound_to 10752
  153.9236  135.3012  155.3448 H   0  0  0  0  0  0  0  0  0  0  0  0  # atno 10764 bound_to 10752
  154.7435  135.5068  153.9238 H   0  0  0  0  0  0  0  0  0  0  0  0  # atno 10765 bound_to 10752
  139.8780  134.8959  156.4182 H   0  0  0  0  0  0  0  0  0  0  0  0  # atno 11005 bound_to 11000
  145.8904  139.2372  143.1553 LP  0  0  0  0  0  0  0  0  0  0  0  0  # atno 17320 bound_to 7965
  145.9909  140.8604  143.0067 LP  0  0  0  0  0  0  0  0  0  0  0  0  # atno 17321 bound_to 7965
  140.7274  143.6965  150.7879 LP  0  0  0  0  0  0  0  0  0  0  0  0  # atno 17342 bound_to 10162
  140.0548  143.5214  152.2656 LP  0  0  0  0  0  0  0  0  0  0  0  0  # atno 17343 bound_to 10162
  157.6457  131.0904  150.8158 LP  0  0  0  0  0  0  0  0  0  0  0  0  # atno 17370 bound_to 10713
  156.8247  130.4996  149.5339 LP  0  0  0  0  0  0  0  0  0  0  0  0  # atno 17371 bound_to 10713
  140.9152  133.7683  155.9840 LP  0  0  0  0  0  0  0  0  0  0  0  0  # atno 17394 bound_to 11000
  140.8501  134.2964  157.5278 LP  0  0  0  0  0  0  0  0  0  0  0  0  # atno 17395 bound_to 11000

$$$$
