AV-unprocessed.smi:1295|AV-procd|sdf|5407|dock3
  -GOLD-   22720 4563D 1   1.00000     0.00000
 Structure written by MMmdl.
 43 44  0  0  0  0  0  0  0  0  1 V2000
  151.1848  134.2070  155.7474 C   0  0  0  0  0  0  0  0  0  0  0  0
  151.1645  135.5259  156.4891 C   0  0  0  0  0  0  0  0  0  0  0  0
  150.6047  136.5637  155.7627 N   0  0  0  0  0  0  0  0  0  0  0  0
  150.5370  137.8097  156.3604 C   0  0  0  0  0  0  0  0  0  0  0  0
  149.8927  138.8861  155.5043 C   0  0  0  0  0  0  0  0  0  0  0  0
  151.0071  138.0123  157.6174 C   0  0  0  0  0  0  0  0  0  0  0  0
  150.9279  139.3681  158.3213 C   0  0  0  0  0  0  0  0  0  0  0  0
  152.2658  140.0803  158.5342 C   0  0  0  0  0  0  0  0  0  0  0  0
  153.3028  139.5897  158.0897 O   0  0  0  0  0  0  0  0  0  0  0  0
  152.2187  141.2408  159.2054 N   0  0  0  0  0  0  0  0  0  0  0  0
  153.3301  142.1608  159.4357 C   0  0  2  0  0  0  0  0  0  0  0  0
  154.4340  141.4696  160.2614 C   0  0  0  0  0  0  0  0  0  0  0  0
  153.9946  141.2071  161.7124 C   0  0  0  0  0  0  0  0  0  0  0  0
  153.5185  142.5000  162.3912 C   0  0  0  0  0  0  0  0  0  0  0  0
  152.3977  143.1752  161.5852 C   0  0  0  0  0  0  0  0  0  0  0  0
  152.8317  143.4527  160.1306 C   0  0  2  0  0  0  0  0  0  0  0  0
  151.7183  144.1624  159.3399 C   0  0  0  0  0  0  0  0  0  0  0  0
  151.5929  136.8618  158.3460 C   0  0  0  0  0  0  0  0  0  0  0  0
  152.0199  136.9767  159.4939 O   0  0  0  0  0  0  0  0  0  0  0  0
  151.6380  135.6189  157.6944 N   0  0  0  0  0  0  0  0  0  0  0  0
  150.2417  136.4564  154.8265 H   0  0  0  0  0  0  0  0  0  0  0  0
  151.7340  133.4510  156.3102 H   0  0  0  0  0  0  0  0  0  0  0  0
  151.6655  134.3225  154.7753 H   0  0  0  0  0  0  0  0  0  0  0  0
  150.1680  133.8449  155.5917 H   0  0  0  0  0  0  0  0  0  0  0  0
  150.5958  139.6983  155.3196 H   0  0  0  0  0  0  0  0  0  0  0  0
  149.0149  139.2961  156.0044 H   0  0  0  0  0  0  0  0  0  0  0  0
  149.5733  138.4937  154.5380 H   0  0  0  0  0  0  0  0  0  0  0  0
  150.4589  139.2236  159.2949 H   0  0  0  0  0  0  0  0  0  0  0  0
  150.2595  140.0457  157.7895 H   0  0  0  0  0  0  0  0  0  0  0  0
  151.3165  141.5436  159.5430 H   0  0  0  0  0  0  0  0  0  0  0  0
  153.7615  142.4481  158.4753 H   0  0  0  0  0  0  0  0  0  0  0  0
  154.7313  140.5341  159.7856 H   0  0  0  0  0  0  0  0  0  0  0  0
  155.3231  142.1010  160.2682 H   0  0  0  0  0  0  0  0  0  0  0  0
  153.1924  140.4682  161.7285 H   0  0  0  0  0  0  0  0  0  0  0  0
  154.8211  140.7747  162.2768 H   0  0  0  0  0  0  0  0  0  0  0  0
  153.1702  142.2824  163.4013 H   0  0  0  0  0  0  0  0  0  0  0  0
  154.3583  143.1880  162.4955 H   0  0  0  0  0  0  0  0  0  0  0  0
  151.5093  142.5417  161.5952 H   0  0  0  0  0  0  0  0  0  0  0  0
  152.1125  144.1083  162.0724 H   0  0  0  0  0  0  0  0  0  0  0  0
  153.6774  144.1408  160.1706 H   0  0  0  0  0  0  0  0  0  0  0  0
  150.8009  143.5732  159.3149 H   0  0  0  0  0  0  0  0  0  0  0  0
  152.0241  144.3456  158.3095 H   0  0  0  0  0  0  0  0  0  0  0  0
  151.4759  145.1265  159.7876 H   0  0  0  0  0  0  0  0  0  0  0  0
  1 22  1  0  0  0  0
  1 23  1  0  0  0  0
  1 24  1  0  0  0  0
  1  2  1  0  0  0  0
  2  3  1  0  0  0  0
  2 20  2  0  0  0  0
  3  4  1  0  0  0  0
  3 21  1  0  0  0  0
  4  6  2  0  0  0  0
  4  5  1  0  0  0  0
  5 25  1  0  0  0  0
  5 26  1  0  0  0  0
  5 27  1  0  0  0  0
  6 18  1  0  0  0  0
  6  7  1  0  0  0  0
  7  8  1  0  0  0  0
  7 28  1  0  0  0  0
  7 29  1  0  0  0  0
  8  9  2  0  0  0  0
  8 10  1  0  0  0  0
 10 11  1  0  0  0  0
 10 30  1  0  0  0  0
 11 16  1  0  0  0  0
 11 12  1  0  0  0  0
 11 31  1  0  0  0  0
 12 13  1  0  0  0  0
 12 32  1  0  0  0  0
 12 33  1  0  0  0  0
 13 14  1  0  0  0  0
 13 34  1  0  0  0  0
 13 35  1  0  0  0  0
 14 15  1  0  0  0  0
 14 36  1  0  0  0  0
 14 37  1  0  0  0  0
 15 16  1  0  0  0  0
 15 38  1  0  0  0  0
 15 39  1  0  0  0  0
 16 17  1  0  0  0  0
 16 40  1  0  0  0  0
 17 41  1  0  0  0  0
 17 42  1  0  0  0  0
 17 43  1  0  0  0  0
 18 19  2  0  0  0  0
 18 20  1  0  0  0  0
M  END
> <s_m_source_file>
AV-unprocessed.smi

> <i_m_source_file_index>
1295

> <i_lp_mmshare_version>
43012

> <i_f3d_flags>
0

> <s_epik_input>
W0NIM11jMW5jKFtDSDNdKWMoYyg9TylbbkhdMSlbQ0gyXUMoPU8pW05IXVtDQEBIXTJbQ0gyXVtDSDJdW0NIMl1bQ0gyXVtDQEhdMltDSDNd

> <s_epik_cmdline>
J2VwaWtfcHl0aG9uJywgJy1waCcsICc3LjAnLCAnLXRuJywgJzgnLCAnLW1hJywgJzIwMCcsICctbWV0YWxfYmluZGluZycsICctaW1hZScsICc8aW5maWxlLm1hZT4nLCAnLW9tYWUnLCAnPG91dGZpbGUubWFlPic=

> <r_lp_tautomer_probability>
0.156392

> <r_epik_Ionization_Penalty>
0.0136057

> <r_epik_Ionization_Penalty_Charging>
0.0134742

> <r_epik_Ionization_Penalty_Neutral>
0.000131572

> <r_epik_State_Penalty>
1.15342

> <r_epik_Charging_Adjusted_Penalty>
1.16689

> <i_epik_Tot_Q>
0

> <i_epik_Tot_abs_Q>
0

> <r_epik_Metal_State_Penalty>
1.31351

> <b_epik_Metal_Only>
0

> <s_lp_Force_Field>
OPLS_2005

> <r_lp_Energy>
13.3466

> <b_lp_Chiralities_Consistent>
1

> <s_lp_Variant>
AV-unprocessed.smi:1295-7

> <Gold.Version>
5.8.1

> <Gold.Id.Protein>
6NUR|6NUR_protein|mol2

> <Gold.PLP.Fitness>
45.0459

> <Gold.PLP.PLP>
-39.8989

> <Gold.PLP.part.hbond>
-2.8098

> <Gold.PLP.part.metal>
0.0000

> <Gold.PLP.part.buried>
-6.1965

> <Gold.PLP.part.nonpolar>
-31.1507

> <Gold.PLP.part.repulsive>
0.1668

> <Gold.PLP.ligand.clash>
0.0000

> <Gold.PLP.ligand.torsion>
0.1253

> <Gold.PLP.Chemscore.Hbond>
1.7963

> <Gold.PLP.Chemscore.CHOScore>
0.0000

> <Gold.PLP.Chemscore.Metal>
0.0000

> <Gold.Chemscore.Hbonds>
donor molecule, donor type, donor heavy atom, donor atom, acceptor molecule, acceptor atom, score
      P1  H  6896  6907       L1    19  0.60
      P1  H  7997  8008       L1     9  1.00

> <Gold.PLP.Chemscore.Internal.Correction>
0.0087

> <Gold.Rescore>
     Score         DG    S(hbond)    S(metal)    S(lipo)     H(rot)  DE(clash)    DE(int)     intcor
     17.90     -19.11       1.89        0.00      94.84       1.48       0.00       1.22       ----

> <Gold.Chemscore.Fitness>
17.8958

> <Gold.Chemscore.DG>
-19.1122

> <Gold.Chemscore.ZeroCoef>
-5.4800

> <Gold.Chemscore.Hbond>
1.8936

> <Gold.Chemscore.Metal>
0.0000

> <Gold.Chemscore.Lipo>
94.8430

> <Gold.Chemscore.Internal_Hbond>
0.0000

> <Gold.Chemscore.DEClash>
0.0000

> <Gold.Chemscore.DEInternal>
1.2164

> <Gold.Chemscore.Rot>
1.4801

> <Gold.Chemscore.Internal.Correction>
   9.000000E+99

> <Gold.Chemscore.Hbonds>
donor molecule, donor type, donor heavy atom, donor atom, acceptor molecule, acceptor atom, score
      P1  H  6896  6907       L1    19  0.04
      P1  H  7997  8008       L1     9  0.95

> <Gold.Chemscore.Hbond.Weighted>
-6.3247

> <Gold.Chemscore.Metal.Weighted>
-0.0000

> <Gold.Chemscore.Lipo.Weighted>
-11.0966

> <Gold.Chemscore.Internal_Hbond.Weighted>
0.0000

> <Gold.Chemscore.DEClash.Weighted>
0.0000

> <Gold.Chemscore.DEInternal.Weighted>
1.2164

> <Gold.Chemscore.Rot.Weighted>
3.7891

> <Gold.Chemscore.Internal.Correction.Weighted>
   9.000000E+99

> <Gold.Protein.RotatedTorsions>
[ 6907 6896 6895 6894 ] final   -7.92 input  -60.11 | X-H torsion
[ 7974 7965 7964 7962 ] final   95.97 input  175.53 | X-H torsion
[ 8008 7997 7996 7995 ] final  -66.84 input   59.86 | X-H torsion
[ 10167 10162 10161 10158 ] final  -31.89 input  -65.29 | X-H torsion
[ 10718 10713 10712 10709 ] final  -46.89 input   66.30 | X-H torsion
[ 10763 10752 10751 10750 ] final  145.32 input  -60.55 | X-H torsion
[ 11005 11000 10999 10996 ] final   21.05 input  -57.11 | X-H torsion

> <Gold.Protein.ActiveResidues>
 VAL166  LYS551  ARG553  GLY616  TRP617  ASP618  TYR619  PRO620  LYS621  CYS622 
 ASP623  PHE694  ASN695  SER759  ASP760  ASP761  ALA762  ILE779  LEU786  VAL792 
 PHE793  MET794  SER795  GLU796  ALA797  LYS798  CYS799  TRP800  GLU811  SER814 

> <Gold.Protein.RotatedAtoms>
  151.4418  135.1021  159.9672 H   0  0  0  0  0  0  0  0  0  0  0  0  # atno 6907 bound_to 6896
  152.4920  133.8521  159.7217 H   0  0  0  0  0  0  0  0  0  0  0  0  # atno 6908 bound_to 6896
  150.9083  133.6971  159.2889 H   0  0  0  0  0  0  0  0  0  0  0  0  # atno 6909 bound_to 6896
  145.4450  139.2298  143.3071 H   0  0  0  0  0  0  0  0  0  0  0  0  # atno 7974 bound_to 7965
  154.4760  140.0904  156.7264 H   0  0  0  0  0  0  0  0  0  0  0  0  # atno 8008 bound_to 7997
  155.4595  140.3460  155.4292 H   0  0  0  0  0  0  0  0  0  0  0  0  # atno 8009 bound_to 7997
  156.1117  140.1449  156.9317 H   0  0  0  0  0  0  0  0  0  0  0  0  # atno 8010 bound_to 7997
  140.7229  143.3736  151.1731 H   0  0  0  0  0  0  0  0  0  0  0  0  # atno 10167 bound_to 10162
  156.2138  130.4162  149.9080 H   0  0  0  0  0  0  0  0  0  0  0  0  # atno 10718 bound_to 10713
  154.0034  135.2921  155.3400 H   0  0  0  0  0  0  0  0  0  0  0  0  # atno 10763 bound_to 10752
  154.7146  135.5135  153.8721 H   0  0  0  0  0  0  0  0  0  0  0  0  # atno 10764 bound_to 10752
  153.0755  135.6662  154.0273 H   0  0  0  0  0  0  0  0  0  0  0  0  # atno 10765 bound_to 10752
  140.3958  134.1771  155.7663 H   0  0  0  0  0  0  0  0  0  0  0  0  # atno 11005 bound_to 11000
  146.2535  140.5203  142.8883 LP  0  0  0  0  0  0  0  0  0  0  0  0  # atno 17320 bound_to 7965
  144.8097  140.6364  143.6423 LP  0  0  0  0  0  0  0  0  0  0  0  0  # atno 17321 bound_to 7965
  139.7312  143.9069  152.3020 LP  0  0  0  0  0  0  0  0  0  0  0  0  # atno 17342 bound_to 10162
  139.8859  144.6992  150.8825 LP  0  0  0  0  0  0  0  0  0  0  0  0  # atno 17343 bound_to 10162
  156.6750  130.8835  151.3567 LP  0  0  0  0  0  0  0  0  0  0  0  0  # atno 17370 bound_to 10713
  157.7052  130.9377  150.0910 LP  0  0  0  0  0  0  0  0  0  0  0  0  # atno 17371 bound_to 10713
  141.1874  133.8281  157.1031 LP  0  0  0  0  0  0  0  0  0  0  0  0  # atno 17394 bound_to 11000
  140.0373  134.9872  157.0894 LP  0  0  0  0  0  0  0  0  0  0  0  0  # atno 17395 bound_to 11000

$$$$
