#       Name:                AV-unprocessed.smi:69
#       Creating user name   scv26
#       Creation time:       Thu Mar 26 16:55:06 2020


#       File generated by GOLD software.
#

@<TRIPOS>MOLECULE
AV-unprocessed.smi:69
    43    45     1
SMALL
NO_CHARGES


@<TRIPOS>ATOM
      1 ****        -5.1407   0.6062   0.1953 N.pl3          1 S1                 0.0000
      2 ****        -3.9133   1.1116   0.0113 C.ar           1 S1                 0.0000
      3 ****        -3.7973   2.3136  -0.6012 N.ar           1 S1                 0.0000
      4 ****        -2.5833   2.8408  -0.7938 C.ar           1 S1                 0.0000
      5 ****        -1.3908   2.3389  -0.4598 N.ar           1 S1                 0.0000
      6 ****        -1.5127   1.1254   0.1544 C.ar           1 S1                 0.0000
      7 ****        -2.7320   0.4484   0.4294 C.ar           1 S1                 0.0000
      8 ****        -2.4689  -0.7522   1.0746 N.2            1 S1                 0.0000
      9 ****        -1.1662  -0.7763   1.1765 C.2            1 S1                 0.0000
     10 ****        -0.5097   0.3082   0.6296 N.pl3          1 S1                 0.0000
     11 ****         0.9573   0.6149   0.5836 C.3            1 S1                 0.0000
     12 ****         1.6509  -0.4167   1.2137 O.3            1 S1                 0.0000
     13 ****         2.0017  -1.4013   0.2503 C.3            1 S1                 0.0000
     14 ****         3.1413  -2.2785   0.7894 C.3            1 S1                 0.0000
     15 ****         2.6187  -3.2905   1.6235 O.3            1 S1                 0.0000
     16 ****         2.4032  -0.5418  -0.9520 C.3            1 S1                 0.0000
     17 ****         2.2089  -1.2596  -2.1544 O.3            1 S1                 0.0000
     18 ****         1.4521   0.6522  -0.8762 C.3            1 S1                 0.0000
     19 ****         2.1409   1.8522  -1.1631 O.3            1 S1                 0.0000
     20 ****         1.0533   1.5543   1.1302 H              1 S1                 0.0000
     21 ****         1.1272  -2.0051  -0.0003 H              1 S1                 0.0000
     22 ****         3.4431  -0.2234  -0.8595 H              1 S1                 0.0000
     23 ****         0.6102   0.5427  -1.5622 H              1 S1                 0.0000
     24 ****        -5.2513  -0.2880   0.6513 H              1 S1                 0.0000
     25 ****        -5.9505   1.1182  -0.1233 H              1 S1                 0.0000
     26 ****        -2.5647   3.8020  -1.2860 H              1 S1                 0.0000
     27 ****        -0.6519  -1.5948   1.6586 H              1 S1                 0.0000
     28 ****         3.6585  -2.7695  -0.0354 H              1 S1                 0.0000
     29 ****         3.8800  -1.6842   1.3280 H              1 S1                 0.0000
     30 ****         3.3338  -3.8288   1.9266 H              1 S1                 0.0000
     31 ****         2.4199  -0.6905  -2.8791 H              1 S1                 0.0000
     32 ****         1.5325   2.5711  -1.0811 H              1 S1                 0.0000
     33 ****        -4.6135   2.8037  -0.9073 LP             1 S1                 0.0000
     34 ****        -0.5186   2.7947  -0.6373 LP             1 S1                 0.0000
     35 ****        -3.1242  -1.4393   1.3886 LP             1 S1                 0.0000
     36 ****         1.0714  -0.8285   1.9170 LP             1 S1                 0.0000
     37 ****         2.4805  -0.0523   1.6368 LP             1 S1                 0.0000
     38 ****         1.9699  -3.8505   1.1083 LP             1 S1                 0.0000
     39 ****         2.1535  -2.8760   2.4057 LP             1 S1                 0.0000
     40 ****         1.2554  -1.5532  -2.2221 LP             1 S1                 0.0000
     41 ****         2.8064  -2.0613  -2.1694 LP             1 S1                 0.0000
     42 ****         2.5024   1.8200  -2.0949 LP             1 S1                 0.0000
     43 ****         2.8947   1.9720  -0.5170 LP             1 S1                 0.0000
@<TRIPOS>BOND
    1    1    2 1     
    2    1   24 1     
    3    1   25 1     
    4    2    7 ar    
    5    2    3 ar    
    6    3    4 ar    
    7    4    5 ar    
    8    4   26 1     
    9    5    6 ar    
   10    6   10 1     
   11    6    7 ar    
   12    7    8 1     
   13    8    9 2     
   14    9   10 1     
   15    9   27 1     
   16   10   11 1     
   17   11   20 1     
   18   11   18 1     
   19   11   12 1     
   20   12   13 1     
   21   13   21 1     
   22   13   14 1     
   23   13   16 1     
   24   14   15 1     
   25   14   28 1     
   26   14   29 1     
   27   15   30 1     
   28   16   22 1     
   29   16   17 1     
   30   16   18 1     
   31   17   31 1     
   32   18   23 1     
   33   18   19 1     
   34   19   32 1     
   35    3   33 1     
   36    5   34 1     
   37    8   35 1     
   38   12   36 1     
   39   12   37 1     
   40   15   38 1     
   41   15   39 1     
   42   17   40 1     
   43   17   41 1     
   44   19   42 1     
   45   19   43 1     
@<TRIPOS>SUBSTRUCTURE
      1 S1             1
@<TRIPOS>SET
LONE_PAIRS      STATIC     ATOMS    <user>   **** ""
11 33 34 35 36 37 38 39 40 41 42 43
DONOR_HYDROGENS      STATIC     ATOMS    <user>   **** ""
5 24 25 30 31 32
ATOM$BLUE        STATIC     ATOMS    COLORGROUP SYSTEM
11 33 34 35 36 37 38 39 40 41 42 43
ATOM$RED        STATIC     ATOMS    COLORGROUP SYSTEM
5 24 25 30 31 32
