AV-unprocessed.smi:856|AV-procd|sdf|3959|dock4
  -GOLD-   22720 1433D 1   1.00000     0.00000
 Structure written by MMmdl.
 42 44  0  0  0  0  0  0  0  0  1 V2000
  151.7376  144.1733  160.6239 C   0  0  0  0  0  0  0  0  0  0  0  0
  151.9450  143.0386  159.7048 N   0  0  0  0  0  0  0  0  0  0  0  0
  151.2239  143.0056  158.5401 C   0  0  0  0  0  0  0  0  0  0  0  0
  150.4041  143.8582  158.1975 O   0  0  0  0  0  0  0  0  0  0  0  0
  151.5095  141.8387  157.6967 C   0  0  0  0  0  0  0  0  0  0  0  0
  152.4047  140.8804  158.0417 C   0  0  0  0  0  0  0  0  0  0  0  0
  152.4872  139.8924  157.0664 N   0  0  0  0  0  0  0  0  0  0  0  0
  151.6126  140.3232  156.1575 C   0  0  0  0  0  0  0  0  0  0  0  0
  150.9853  141.4789  156.4548 N   0  0  0  0  0  0  0  0  0  0  0  0
  149.9970  142.1515  155.6240 C   0  0  0  0  0  0  0  0  0  0  0  0
  149.1835  141.1708  154.7554 C   0  0  2  0  0  0  0  0  0  0  0  0
  149.9464  140.7948  153.6256 O   0  0  0  0  0  0  0  0  0  0  0  0
  147.8726  141.8003  154.2614 C   0  0  0  0  0  0  0  0  0  0  0  0
  147.1591  142.3140  155.3787 O   0  0  0  0  0  0  0  0  0  0  0  0
  145.7452  142.2395  155.2522 C   0  0  0  0  0  0  0  0  0  0  0  0
  145.2846  143.4091  154.4426 C   0  0  0  0  0  0  0  0  0  0  0  0
  145.6008  143.8723  153.1953 C   0  0  0  0  0  0  0  0  0  0  0  0
  144.8222  145.0454  152.9940 C   0  0  0  0  0  0  0  0  0  0  0  0
  144.0880  145.2100  154.1340 C   0  0  0  0  0  0  0  0  0  0  0  0
  144.3573  144.2194  155.0274 O   0  0  0  0  0  0  0  0  0  0  0  0
  153.0951  141.0122  159.2743 N   0  0  0  0  0  0  0  0  0  0  0  0
  154.0638  139.9836  159.6636 C   0  0  0  0  0  0  0  0  0  0  0  0
  152.8702  142.0870  160.0974 C   0  0  0  0  0  0  0  0  0  0  0  0
  153.4842  142.1948  161.1630 O   0  0  0  0  0  0  0  0  0  0  0  0
  150.9708  144.8830  160.3118 H   0  0  0  0  0  0  0  0  0  0  0  0
  152.6621  144.7420  160.7369 H   0  0  0  0  0  0  0  0  0  0  0  0
  151.4406  143.8169  161.6117 H   0  0  0  0  0  0  0  0  0  0  0  0
  151.4234  139.7813  155.2424 H   0  0  0  0  0  0  0  0  0  0  0  0
  149.3238  142.6990  156.2850 H   0  0  0  0  0  0  0  0  0  0  0  0
  150.4861  142.9067  155.0104 H   0  0  0  0  0  0  0  0  0  0  0  0
  148.9628  140.2785  155.3429 H   0  0  0  0  0  0  0  0  0  0  0  0
  149.4607  140.1451  153.1405 H   0  0  0  0  0  0  0  0  0  0  0  0
  148.0950  142.6307  153.5897 H   0  0  0  0  0  0  0  0  0  0  0  0
  147.2860  141.0763  153.6933 H   0  0  0  0  0  0  0  0  0  0  0  0
  145.4905  141.3145  154.7346 H   0  0  0  0  0  0  0  0  0  0  0  0
  145.2577  142.2065  156.2278 H   0  0  0  0  0  0  0  0  0  0  0  0
  146.3078  143.4228  152.5138 H   0  0  0  0  0  0  0  0  0  0  0  0
  144.8019  145.6878  152.1259 H   0  0  0  0  0  0  0  0  0  0  0  0
  143.3623  145.9404  154.4600 H   0  0  0  0  0  0  0  0  0  0  0  0
  153.7740  139.5245  160.6099 H   0  0  0  0  0  0  0  0  0  0  0  0
  155.0566  140.4192  159.7856 H   0  0  0  0  0  0  0  0  0  0  0  0
  154.1488  139.1825  158.9292 H   0  0  0  0  0  0  0  0  0  0  0  0
  1  2  1  0  0  0  0
  1 25  1  0  0  0  0
  1 26  1  0  0  0  0
  1 27  1  0  0  0  0
  2 23  1  0  0  0  0
  2  3  1  0  0  0  0
  3  4  2  0  0  0  0
  3  5  1  0  0  0  0
  5  9  1  0  0  0  0
  5  6  2  0  0  0  0
  6  7  1  0  0  0  0
  6 21  1  0  0  0  0
  7  8  2  0  0  0  0
  8  9  1  0  0  0  0
  8 28  1  0  0  0  0
  9 10  1  0  0  0  0
 10 11  1  0  0  0  0
 10 29  1  0  0  0  0
 10 30  1  0  0  0  0
 11 12  1  0  0  0  0
 11 13  1  0  0  0  0
 11 31  1  0  0  0  0
 12 32  1  0  0  0  0
 13 14  1  0  0  0  0
 13 33  1  0  0  0  0
 13 34  1  0  0  0  0
 14 15  1  0  0  0  0
 15 16  1  0  0  0  0
 15 35  1  0  0  0  0
 15 36  1  0  0  0  0
 16 20  1  0  0  0  0
 16 17  2  0  0  0  0
 17 18  1  0  0  0  0
 17 37  1  0  0  0  0
 18 19  2  0  0  0  0
 18 38  1  0  0  0  0
 19 20  1  0  0  0  0
 19 39  1  0  0  0  0
 21 22  1  0  0  0  0
 21 23  1  0  0  0  0
 22 40  1  0  0  0  0
 22 41  1  0  0  0  0
 22 42  1  0  0  0  0
 23 24  2  0  0  0  0
M  END
> <s_m_source_file>
AV-unprocessed.smi

> <i_m_source_file_index>
856

> <i_lp_mmshare_version>
43012

> <i_f3d_flags>
0

> <s_epik_input>
Tz1jMW4oW0NIM10pYyg9TyluKFtDSDNdKWMoYzEyKW5bY0hdbjJbQ0gyXVtDQEhdKFtPSF0pW0NIMl1PW0NIMl1jM1tjSF1bY0hdW2NIXW8z

> <s_epik_cmdline>
J2VwaWtfcHl0aG9uJywgJy1waCcsICc3LjAnLCAnLXRuJywgJzgnLCAnLW1hJywgJzIwMCcsICctbWV0YWxfYmluZGluZycsICctaW1hZScsICc8aW5maWxlLm1hZT4nLCAnLW9tYWUnLCAnPG91dGZpbGUubWFlPic=

> <r_lp_tautomer_probability>
1

> <r_epik_Ionization_Penalty>
1.33189e-06

> <r_epik_Ionization_Penalty_Charging>
3.64616e-09

> <r_epik_Ionization_Penalty_Neutral>
1.32824e-06

> <r_epik_State_Penalty>
-0

> <r_epik_Charging_Adjusted_Penalty>
3.64616e-09

> <i_epik_Tot_Q>
0

> <i_epik_Tot_abs_Q>
0

> <r_epik_Metal_State_Penalty>
-0

> <b_epik_Metal_Only>
0

> <s_lp_Force_Field>
OPLS_2005

> <r_lp_Energy>
33.5677

> <b_lp_Chiralities_Consistent>
1

> <s_lp_Variant>
AV-unprocessed.smi:856-1

> <Gold.Version>
5.8.1

> <Gold.Id.Protein>
6NUR|6NUR_protein|mol2

> <Gold.PLP.Fitness>
56.8571

> <Gold.PLP.PLP>
-50.4005

> <Gold.PLP.part.hbond>
-3.3614

> <Gold.PLP.part.metal>
0.0000

> <Gold.PLP.part.buried>
-3.9196

> <Gold.PLP.part.nonpolar>
-43.3597

> <Gold.PLP.part.repulsive>
2.1261

> <Gold.PLP.ligand.clash>
0.0000

> <Gold.PLP.ligand.torsion>
0.9157

> <Gold.PLP.Chemscore.Hbond>
2.7420

> <Gold.PLP.Chemscore.CHOScore>
0.0000

> <Gold.PLP.Chemscore.Metal>
0.0000

> <Gold.Chemscore.Hbonds>
donor molecule, donor type, donor heavy atom, donor atom, acceptor molecule, acceptor atom, score
      L1  H    12    32       P1  7957  0.40
      P1  H  7989  7998       L1    12  0.42
      P1  H  7997  8009       L1     7  1.00
      P1  H  8011  8017       L1    12  0.89

> <Gold.PLP.Chemscore.Internal.Correction>
0.0621

> <Gold.Rescore>
     Score         DG    S(hbond)    S(metal)    S(lipo)     H(rot)  DE(clash)    DE(int)     intcor
      8.75     -10.44       1.05        0.00      81.50       3.16       0.05       1.63       ----

> <Gold.Chemscore.Fitness>
8.7549

> <Gold.Chemscore.DG>
-10.4381

> <Gold.Chemscore.ZeroCoef>
-5.4800

> <Gold.Chemscore.Hbond>
1.0513

> <Gold.Chemscore.Metal>
0.0000

> <Gold.Chemscore.Lipo>
81.5050

> <Gold.Chemscore.Internal_Hbond>
0.0000

> <Gold.Chemscore.DEClash>
0.0540

> <Gold.Chemscore.DEInternal>
1.6292

> <Gold.Chemscore.Rot>
3.1599

> <Gold.Chemscore.Internal.Correction>
   9.000000E+99

> <Gold.Chemscore.Hbonds>
donor molecule, donor type, donor heavy atom, donor atom, acceptor molecule, acceptor atom, score
      L1  H    12    32       P1  7957  0.39
      P1  H  7989  7998       L1    12  0.41
      P1  H  7997  8009       L1     7  0.21
      P1  H  8011  8017       L1    12  0.11

> <Gold.Chemscore.Hbond.Weighted>
-3.5113

> <Gold.Chemscore.Metal.Weighted>
-0.0000

> <Gold.Chemscore.Lipo.Weighted>
-9.5361

> <Gold.Chemscore.Internal_Hbond.Weighted>
0.0000

> <Gold.Chemscore.DEClash.Weighted>
0.0540

> <Gold.Chemscore.DEInternal.Weighted>
1.6292

> <Gold.Chemscore.Rot.Weighted>
8.0893

> <Gold.Chemscore.Internal.Correction.Weighted>
   9.000000E+99

> <Gold.Protein.RotatedTorsions>
[ 6907 6896 6895 6894 ] final  106.51 input  -60.11 | X-H torsion
[ 7974 7965 7964 7962 ] final  107.88 input  175.53 | X-H torsion
[ 8008 7997 7996 7995 ] final -170.56 input   59.86 | X-H torsion
[ 10167 10162 10161 10158 ] final   21.87 input  -65.29 | X-H torsion
[ 10718 10713 10712 10709 ] final  -93.93 input   66.30 | X-H torsion
[ 10763 10752 10751 10750 ] final  -70.49 input  -60.55 | X-H torsion
[ 11005 11000 10999 10996 ] final  126.94 input  -57.11 | X-H torsion

> <Gold.Protein.ActiveResidues>
 VAL166  LYS551  ARG553  GLY616  TRP617  ASP618  TYR619  PRO620  LYS621  CYS622 
 ASP623  PHE694  ASN695  SER759  ASP760  ASP761  ALA762  ILE779  LEU786  VAL792 
 PHE793  MET794  SER795  GLU796  ALA797  LYS798  CYS799  TRP800  GLU811  SER814 

> <Gold.Protein.RotatedAtoms>
  152.5191  133.9370  159.7607 H   0  0  0  0  0  0  0  0  0  0  0  0  # atno 6907 bound_to 6896
  150.9708  133.6337  159.2745 H   0  0  0  0  0  0  0  0  0  0  0  0  # atno 6908 bound_to 6896
  151.3549  135.0898  159.9468 H   0  0  0  0  0  0  0  0  0  0  0  0  # atno 6909 bound_to 6896
  145.2878  139.2610  143.3881 H   0  0  0  0  0  0  0  0  0  0  0  0  # atno 7974 bound_to 7965
  155.9200  140.1072  157.1214 H   0  0  0  0  0  0  0  0  0  0  0  0  # atno 8008 bound_to 7997
  154.4052  140.1258  156.4732 H   0  0  0  0  0  0  0  0  0  0  0  0  # atno 8009 bound_to 7997
  155.7207  140.3470  155.5017 H   0  0  0  0  0  0  0  0  0  0  0  0  # atno 8010 bound_to 7997
  140.5393  143.9706  150.6510 H   0  0  0  0  0  0  0  0  0  0  0  0  # atno 10167 bound_to 10162
  156.0020  130.5047  150.5851 H   0  0  0  0  0  0  0  0  0  0  0  0  # atno 10718 bound_to 10713
  154.4184  135.5992  153.5995 H   0  0  0  0  0  0  0  0  0  0  0  0  # atno 10763 bound_to 10752
  152.9793  135.5946  154.3985 H   0  0  0  0  0  0  0  0  0  0  0  0  # atno 10764 bound_to 10752
  154.3807  135.2841  155.2191 H   0  0  0  0  0  0  0  0  0  0  0  0  # atno 10765 bound_to 10752
  139.9482  134.9626  156.8781 H   0  0  0  0  0  0  0  0  0  0  0  0  # atno 11005 bound_to 11000
  146.3195  140.3362  142.8644 LP  0  0  0  0  0  0  0  0  0  0  0  0  # atno 17320 bound_to 7965
  144.9198  140.7855  143.5755 LP  0  0  0  0  0  0  0  0  0  0  0  0  # atno 17321 bound_to 7965
  140.3102  143.3203  152.0886 LP  0  0  0  0  0  0  0  0  0  0  0  0  # atno 17342 bound_to 10162
  139.4982  144.6641  151.6397 LP  0  0  0  0  0  0  0  0  0  0  0  0  # atno 17343 bound_to 10162
  157.3725  131.0768  151.1546 LP  0  0  0  0  0  0  0  0  0  0  0  0  # atno 17370 bound_to 10713
  157.2295  130.6518  149.5844 LP  0  0  0  0  0  0  0  0  0  0  0  0  # atno 17371 bound_to 10713
  140.5783  134.0376  155.7455 LP  0  0  0  0  0  0  0  0  0  0  0  0  # atno 17394 bound_to 11000
  141.1138  133.9574  157.2861 LP  0  0  0  0  0  0  0  0  0  0  0  0  # atno 17395 bound_to 11000

$$$$
