#       Name:                AV-unprocessed.smi:693
#       Creating user name   scv26
#       Creation time:       Fri Mar 27 00:35:27 2020


#       File generated by GOLD software.
#

@<TRIPOS>MOLECULE
AV-unprocessed.smi:693
    51    52     1
SMALL
NO_CHARGES


@<TRIPOS>ATOM
      1 ****        -7.5037   2.2132   0.7780 C.3            1 S1                 0.0000
      2 ****        -6.0781   1.7062   0.8274 C.ar           1 S1                 0.0000
      3 ****        -5.5224   1.1326   1.9911 C.ar           1 S1                 0.0000
      4 ****        -4.1855   0.6838   1.9667 C.ar           1 S1                 0.0000
      5 ****        -3.4311   0.8187   0.7805 C.ar           1 S1                 0.0000
      6 ****        -1.9921   0.3458   0.7201 C.3            1 S1                 0.0000
      7 ****        -1.8731  -1.0781   0.1520 C.3            1 S1                 0.0000
      8 ****        -0.4875  -1.5306   0.1258 N.am           1 S1                 0.0000
      9 ****         0.4310  -1.1718  -0.7876 C.2            1 S1                 0.0000
     10 ****         0.1606  -0.4151  -1.7217 O.2            1 S1                 0.0000
     11 ****         1.6577  -1.7245  -0.6076 N.am           1 S1                 0.0000
     12 ****         2.1110  -2.4653   0.5807 C.3            1 S1                 0.0000
     13 ****         3.0371  -1.5494   1.3969 C.3            1 S1                 0.0000
     14 ****         4.2198  -1.0576   0.5408 C.3            1 S1                 0.0000
     15 ****         3.7625  -0.4640  -0.8167 C.3            1 S1                 0.0000
     16 ****         4.9372  -0.1169  -1.7604 C.3            1 S1                 0.0000
     17 ****         5.8169   1.0348  -1.2621 C.2            1 S1                 0.0000
     18 ****         5.6916   2.2084  -1.8865 N.am           1 S1                 0.0000
     19 ****         6.6152   0.8653  -0.3431 O.2            1 S1                 0.0000
     20 ****         2.7806  -1.4369  -1.5092 C.3            1 S1                 0.0000
     21 ****        -4.0398   1.3996  -0.3525 C.ar           1 S1                 0.0000
     22 ****        -5.3233   1.8168  -0.2889 N.pl3          1 S1                 1.0000
     23 ****        -8.0662   1.8844   1.6525 H              1 S1                 0.0000
     24 ****        -8.0132   1.8419  -0.1117 H              1 S1                 0.0000
     25 ****        -7.5162   3.3030   0.7538 H              1 S1                 0.0000
     26 ****        -6.1104   1.0371   2.8925 H              1 S1                 0.0000
     27 ****        -3.7469   0.2416   2.8494 H              1 S1                 0.0000
     28 ****        -1.4221   1.0468   0.1090 H              1 S1                 0.0000
     29 ****        -1.5577   0.3876   1.7200 H              1 S1                 0.0000
     30 ****        -2.4423  -1.7737   0.7691 H              1 S1                 0.0000
     31 ****        -2.3004  -1.1301  -0.8509 H              1 S1                 0.0000
     32 ****        -0.1995  -2.1633   0.8580 H              1 S1                 0.0000
     33 ****         1.3021  -2.8335   1.2115 H              1 S1                 0.0000
     34 ****         2.6551  -3.3562   0.2634 H              1 S1                 0.0000
     35 ****         2.4705  -0.6931   1.7653 H              1 S1                 0.0000
     36 ****         3.4082  -2.0768   2.2759 H              1 S1                 0.0000
     37 ****         4.7888  -0.3256   1.1132 H              1 S1                 0.0000
     38 ****         4.8939  -1.8953   0.3569 H              1 S1                 0.0000
     39 ****         3.2147   0.4576  -0.6111 H              1 S1                 0.0000
     40 ****         5.5667  -0.9952  -1.9090 H              1 S1                 0.0000
     41 ****         4.5501   0.1432  -2.7467 H              1 S1                 0.0000
     42 ****         6.2504   2.9972  -1.5950 H              1 S1                 0.0000
     43 ****         5.0376   2.3023  -2.6500 H              1 S1                 0.0000
     44 ****         3.2889  -2.3687  -1.7617 H              1 S1                 0.0000
     45 ****         2.4462  -1.0221  -2.4614 H              1 S1                 0.0000
     46 ****        -3.5427   1.5412  -1.3014 H              1 S1                 0.0000
     47 ****        -5.7415   2.2343  -1.1208 H              1 S1                 0.0000
     48 ****        -0.7651  -0.0489  -1.8165 LP             1 S1                 0.0000
     49 ****         0.8668  -0.1673  -2.3849 LP             1 S1                 0.0000
     50 ****         6.6967  -0.0328   0.0892 LP             1 S1                 0.0000
     51 ****         7.1832   1.6254  -0.0276 LP             1 S1                 0.0000
@<TRIPOS>BOND
    1    1    2 1     
    2    1   23 1     
    3    1   24 1     
    4    1   25 1     
    5    2   22 ar    
    6    2    3 ar    
    7    3    4 ar    
    8    3   26 1     
    9    4    5 ar    
   10    4   27 1     
   11    5    6 1     
   12    5   21 ar    
   13    6    7 1     
   14    6   28 1     
   15    6   29 1     
   16    7    8 1     
   17    7   30 1     
   18    7   31 1     
   19    8    9 am    
   20    8   32 1     
   21    9   10 2     
   22    9   11 am    
   23   11   20 1     
   24   11   12 1     
   25   12   13 1     
   26   12   33 1     
   27   12   34 1     
   28   13   14 1     
   29   13   35 1     
   30   13   36 1     
   31   14   15 1     
   32   14   37 1     
   33   14   38 1     
   34   15   16 1     
   35   15   20 1     
   36   15   39 1     
   37   16   17 1     
   38   16   40 1     
   39   16   41 1     
   40   17   18 am    
   41   17   19 2     
   42   18   42 1     
   43   18   43 1     
   44   20   44 1     
   45   20   45 1     
   46   21   22 ar    
   47   21   46 1     
   48   22   47 1     
   49   10   48 1     
   50   10   49 1     
   51   19   50 1     
   52   19   51 1     
@<TRIPOS>SUBSTRUCTURE
      1 S1             1
@<TRIPOS>SET
LONE_PAIRS      STATIC     ATOMS    <user>   **** ""
4 48 49 50 51
DONOR_HYDROGENS      STATIC     ATOMS    <user>   **** ""
4 32 42 43 47
ATOM$BLUE        STATIC     ATOMS    COLORGROUP SYSTEM
4 48 49 50 51
ATOM$RED        STATIC     ATOMS    COLORGROUP SYSTEM
4 32 42 43 47
