AV-unprocessed.smi:290|AV-procd|sdf|2228|dock1
  -GOLD-   2262022 83D 1   1.00000     0.00000
 Structure written by MMmdl.
 59 62  0  0  0  0  0  0  0  0  2 V2000
  151.6739  138.0790  154.4179 C   0  0  0  0  0  0  0  0  0  0  0  0
  151.3421  138.9985  155.6045 C   0  0  1  0  0  0  0  0  0  0  0  0
  152.4332  139.8658  155.8800 O   0  0  0  0  0  0  0  0  0  0  0  0
  151.9301  140.9342  156.6613 C   0  0  0  0  0  0  0  0  0  0  0  0
  150.6286  141.2815  155.9503 C   0  0  0  0  0  0  0  0  0  0  0  0
  150.1094  139.9299  155.4515 C   0  0  1  0  0  0  0  0  0  0  0  0
  149.7257  140.0783  154.0943 O   0  0  0  0  0  0  0  0  0  0  0  0
  148.8784  139.4480  156.2591 C   0  0  0  0  0  0  0  0  0  0  0  0
  148.3339  138.1831  155.7897 N   0  0  0  0  0  0  0  0  0  0  0  0
  148.6041  136.9295  156.2903 C   0  0  0  0  0  0  0  0  0  0  0  0
  147.9943  135.9463  155.6873 N   0  0  0  0  0  0  0  0  0  0  0  0
  147.2379  136.5676  154.7000 C   0  0  0  0  0  0  0  0  0  0  0  0
  146.3448  136.1013  153.6924 C   0  0  0  0  0  0  0  0  0  0  0  0
  146.0716  134.7836  153.4980 N   0  0  0  0  0  0  0  0  0  0  0  0
  147.2084  133.8653  153.5005 C   0  0  0  0  0  0  0  0  0  0  0  0
  146.9050  132.7904  152.4515 C   0  0  0  0  0  0  0  0  0  0  0  0
  145.3784  132.8505  152.3329 C   0  0  2  0  0  0  0  0  0  0  0  0
  144.7973  132.2521  151.0971 N   0  3  2  0  0  0  0  0  0  0  0  0
  145.1645  130.8243  150.9455 C   0  0  0  0  0  0  0  0  0  0  0  0
  145.0006  133.0314  149.8452 C   0  0  0  0  0  0  0  0  0  0  0  0
  144.1070  132.5180  148.7053 C   0  0  0  0  0  0  0  0  0  0  0  0
  142.8441  132.1429  149.2139 O   0  0  0  0  0  0  0  0  0  0  0  0
  145.0750  134.3435  152.5219 C   0  0  1  0  0  0  0  0  0  0  0  0
  143.6319  134.6074  152.9879 C   0  0  0  0  0  0  0  0  0  0  0  0
  145.7580  137.0385  152.9009 N   0  0  0  0  0  0  0  0  0  0  0  0
  146.0253  138.3361  153.0730 C   0  0  0  0  0  0  0  0  0  0  0  0
  146.8384  138.9089  153.9615 N   0  0  0  0  0  0  0  0  0  0  0  0
  147.4303  137.9770  154.7619 C   0  0  0  0  0  0  0  0  0  0  0  0
  144.9594  132.3253  153.1940 H   0  0  0  0  0  0  0  0  0  0  0  0
  145.2509  134.8828  151.5919 H   0  0  0  0  0  0  0  0  0  0  0  0
  150.8365  137.4214  154.1837 H   0  0  0  0  0  0  0  0  0  0  0  0
  152.5344  137.4500  154.6459 H   0  0  0  0  0  0  0  0  0  0  0  0
  151.9151  138.6520  153.5223 H   0  0  0  0  0  0  0  0  0  0  0  0
  151.2201  138.3819  156.4959 H   0  0  0  0  0  0  0  0  0  0  0  0
  151.7428  140.5921  157.6805 H   0  0  0  0  0  0  0  0  0  0  0  0
  152.6274  141.7713  156.6988 H   0  0  0  0  0  0  0  0  0  0  0  0
  149.9274  141.8061  156.6004 H   0  0  0  0  0  0  0  0  0  0  0  0
  150.8555  141.9457  155.1142 H   0  0  0  0  0  0  0  0  0  0  0  0
  149.3786  140.9486  153.9725 H   0  0  0  0  0  0  0  0  0  0  0  0
  149.1401  139.3357  157.3122 H   0  0  0  0  0  0  0  0  0  0  0  0
  148.0849  140.1957  156.2226 H   0  0  0  0  0  0  0  0  0  0  0  0
  149.2778  136.7637  157.1184 H   0  0  0  0  0  0  0  0  0  0  0  0
  148.1522  134.3676  153.2819 H   0  0  0  0  0  0  0  0  0  0  0  0
  147.2878  133.4166  154.4911 H   0  0  0  0  0  0  0  0  0  0  0  0
  147.3941  133.0649  151.5171 H   0  0  0  0  0  0  0  0  0  0  0  0
  147.2717  131.8060  152.7429 H   0  0  0  0  0  0  0  0  0  0  0  0
  146.2392  130.7098  150.7986 H   0  0  0  0  0  0  0  0  0  0  0  0
  144.6565  130.3729  150.0938 H   0  0  0  0  0  0  0  0  0  0  0  0
  144.8800  130.2553  151.8310 H   0  0  0  0  0  0  0  0  0  0  0  0
  144.7908  134.0903  149.9895 H   0  0  0  0  0  0  0  0  0  0  0  0
  146.0499  132.9765  149.5518 H   0  0  0  0  0  0  0  0  0  0  0  0
  143.9579  133.3040  147.9645 H   0  0  0  0  0  0  0  0  0  0  0  0
  144.5577  131.6731  148.1852 H   0  0  0  0  0  0  0  0  0  0  0  0
  142.2859  132.9061  149.2356 H   0  0  0  0  0  0  0  0  0  0  0  0
  142.9134  134.2350  152.2576 H   0  0  0  0  0  0  0  0  0  0  0  0
  143.4370  135.6714  153.1202 H   0  0  0  0  0  0  0  0  0  0  0  0
  143.4254  134.1141  153.9383 H   0  0  0  0  0  0  0  0  0  0  0  0
  145.5163  139.0121  152.4016 H   0  0  0  0  0  0  0  0  0  0  0  0
  143.7994  132.2606  151.2555 H   0  0  0  0  0  0  0  0  0  0  0  0
  1  2  1  0  0  0  0
  1 31  1  0  0  0  0
  1 32  1  0  0  0  0
  1 33  1  0  0  0  0
  2  6  1  0  0  0  0
  2  3  1  0  0  0  0
  2 34  1  0  0  0  0
  3  4  1  0  0  0  0
  4  5  1  0  0  0  0
  4 35  1  0  0  0  0
  4 36  1  0  0  0  0
  5  6  1  0  0  0  0
  5 37  1  0  0  0  0
  5 38  1  0  0  0  0
  6  7  1  0  0  0  0
  6  8  1  0  0  0  0
  7 39  1  0  0  0  0
  8  9  1  0  0  0  0
  8 40  1  0  0  0  0
  8 41  1  0  0  0  0
  9 28  1  0  0  0  0
  9 10  1  0  0  0  0
 10 11  2  0  0  0  0
 10 42  1  0  0  0  0
 11 12  1  0  0  0  0
 12 28  2  0  0  0  0
 12 13  1  0  0  0  0
 13 14  1  0  0  0  0
 13 25  2  0  0  0  0
 14 23  1  0  0  0  0
 14 15  1  0  0  0  0
 15 16  1  0  0  0  0
 15 43  1  0  0  0  0
 15 44  1  0  0  0  0
 16 17  1  0  0  0  0
 16 45  1  0  0  0  0
 16 46  1  0  0  0  0
 17 29  1  0  0  0  0
 17 18  1  0  0  0  0
 17 23  1  0  0  0  0
 18 19  1  0  0  0  0
 18 20  1  0  0  0  0
 18 59  1  0  0  0  0
 19 47  1  0  0  0  0
 19 48  1  0  0  0  0
 19 49  1  0  0  0  0
 20 21  1  0  0  0  0
 20 50  1  0  0  0  0
 20 51  1  0  0  0  0
 21 22  1  0  0  0  0
 21 52  1  0  0  0  0
 21 53  1  0  0  0  0
 22 54  1  0  0  0  0
 23 30  1  0  0  0  0
 23 24  1  0  0  0  0
 24 55  1  0  0  0  0
 24 56  1  0  0  0  0
 24 57  1  0  0  0  0
 25 26  1  0  0  0  0
 26 27  2  0  0  0  0
 26 58  1  0  0  0  0
 27 28  1  0  0  0  0
M  CHG  1  18   1
M  END
> <s_m_source_file>
AV-unprocessed.smi

> <i_m_source_file_index>
290

> <i_lp_mmshare_version>
43012

> <i_f3d_flags>
0

> <s_epik_input>
W0NIMl0xW0NIMl1PW0NAQEhdKFtDSDNdKVtDQEBdMShbT0hdKVtDSDJdbihbY0hdbjIpYyhjMjMpbltjSF1uYzNONFtDSDJdW0NIMl1bQ0BIXShbQ0BIXTRbQ0gzXSlOKFtDSDNdKVtDSDJdW0NIMl1bT0hd

> <s_epik_cmdline>
J2VwaWtfcHl0aG9uJywgJy1waCcsICc3LjAnLCAnLXRuJywgJzgnLCAnLW1hJywgJzIwMCcsICctbWV0YWxfYmluZGluZycsICctaW1hZScsICc8aW5maWxlLm1hZT4nLCAnLW9tYWUnLCAnPG91dGZpbGUubWFlPic=

> <r_lp_tautomer_probability>
1

> <r_epik_Ionization_Penalty>
0.0036983

> <r_epik_Ionization_Penalty_Charging>
0.0032725

> <r_epik_Ionization_Penalty_Neutral>
0.000425798

> <r_epik_State_Penalty>
-0

> <r_epik_Charging_Adjusted_Penalty>
0.0032725

> <i_epik_Tot_Q>
1

> <i_epik_Tot_abs_Q>
1

> <r_epik_Metal_State_Penalty>
-0

> <b_epik_Metal_Only>
0

> <s_lp_Force_Field>
OPLS_2005

> <r_lp_Energy>
60.2599

> <b_lp_Chiralities_Consistent>
1

> <s_lp_Variant>
AV-unprocessed.smi:290-14

> <Gold.Version>
5.8.1

> <Gold.Id.Protein>
6NUR|6NUR_protein|mol2

> <Gold.PLP.Fitness>
45.2079

> <Gold.PLP.PLP>
-34.8918

> <Gold.PLP.part.hbond>
-6.0000

> <Gold.PLP.part.metal>
0.0000

> <Gold.PLP.part.buried>
-4.1266

> <Gold.PLP.part.nonpolar>
-24.3780

> <Gold.PLP.part.repulsive>
0.5326

> <Gold.PLP.ligand.clash>
0.0000

> <Gold.PLP.ligand.torsion>
0.7999

> <Gold.PLP.Chemscore.Hbond>
2.7513

> <Gold.PLP.Chemscore.CHOScore>
1.0000

> <Gold.PLP.Chemscore.Metal>
0.0000

> <Gold.Chemscore.Hbonds>
donor molecule, donor type, donor heavy atom, donor atom, acceptor molecule, acceptor atom, score
      L1  H    22    54       P1 10186  1.00
      P1  H  7989  7998       L1     7  0.17
      P1  H  7997  8010       L1     3  0.95
      P1  H 10785 10796       L1    22  0.47
      L1  C    26    58       P1 10175  1.00

> <Gold.PLP.Chemscore.Internal.Correction>
0.6620

> <Gold.Rescore>
     Score         DG    S(hbond)    S(metal)    S(lipo)     H(rot)  DE(clash)    DE(int)     intcor
     11.66     -12.69       1.80        0.00      90.56       3.67       0.33       0.69       ----

> <Gold.Chemscore.Fitness>
11.6613

> <Gold.Chemscore.DG>
-12.6881

> <Gold.Chemscore.ZeroCoef>
-5.4800

> <Gold.Chemscore.Hbond>
1.7954

> <Gold.Chemscore.Metal>
0.0000

> <Gold.Chemscore.Lipo>
90.5645

> <Gold.Chemscore.Internal_Hbond>
0.0000

> <Gold.Chemscore.DEClash>
0.3320

> <Gold.Chemscore.DEInternal>
0.6948

> <Gold.Chemscore.Rot>
3.6658

> <Gold.Chemscore.Internal.Correction>
   9.000000E+99

> <Gold.Chemscore.Hbonds>
donor molecule, donor type, donor heavy atom, donor atom, acceptor molecule, acceptor atom, score
      L1  H    22    54       P1 10186  0.96
      P1  H  7997  8010       L1     3  0.21
      P1  H 10785 10796       L1    22  0.03

> <Gold.Chemscore.Hbond.Weighted>
-5.9965

> <Gold.Chemscore.Metal.Weighted>
-0.0000

> <Gold.Chemscore.Lipo.Weighted>
-10.5960

> <Gold.Chemscore.Internal_Hbond.Weighted>
0.0000

> <Gold.Chemscore.DEClash.Weighted>
0.3320

> <Gold.Chemscore.DEInternal.Weighted>
0.6948

> <Gold.Chemscore.Rot.Weighted>
9.3844

> <Gold.Chemscore.Internal.Correction.Weighted>
   9.000000E+99

> <Gold.Protein.RotatedTorsions>
[ 6907 6896 6895 6894 ] final   -7.19 input  -60.11 | X-H torsion
[ 7974 7965 7964 7962 ] final  120.66 input  175.53 | X-H torsion
[ 8008 7997 7996 7995 ] final   87.10 input   59.86 | X-H torsion
[ 10167 10162 10161 10158 ] final -114.48 input  -65.29 | X-H torsion
[ 10718 10713 10712 10709 ] final  142.24 input   66.30 | X-H torsion
[ 10763 10752 10751 10750 ] final   80.11 input  -60.55 | X-H torsion
[ 11005 11000 10999 10996 ] final  -90.13 input  -57.11 | X-H torsion

> <Gold.Protein.ActiveResidues>
 VAL166  LYS551  ARG553  GLY616  TRP617  ASP618  TYR619  PRO620  LYS621  CYS622 
 ASP623  PHE694  ASN695  SER759  ASP760  ASP761  ALA762  ILE779  LEU786  VAL792 
 PHE793  MET794  SER795  GLU796  ALA797  LYS798  CYS799  TRP800  GLU811  SER814 

> <Gold.Protein.RotatedAtoms>
  151.4536  135.1032  159.9704 H   0  0  0  0  0  0  0  0  0  0  0  0  # atno 6907 bound_to 6896
  152.4879  133.8417  159.7166 H   0  0  0  0  0  0  0  0  0  0  0  0  # atno 6908 bound_to 6896
  150.9005  133.7065  159.2907 H   0  0  0  0  0  0  0  0  0  0  0  0  # atno 6909 bound_to 6896
  145.1285  139.3342  143.4677 H   0  0  0  0  0  0  0  0  0  0  0  0  # atno 7974 bound_to 7965
  155.9711  140.3385  155.6577 H   0  0  0  0  0  0  0  0  0  0  0  0  # atno 8008 bound_to 7997
  155.6673  140.0723  157.2551 H   0  0  0  0  0  0  0  0  0  0  0  0  # atno 8009 bound_to 7997
  154.4167  140.1698  156.1828 H   0  0  0  0  0  0  0  0  0  0  0  0  # atno 8010 bound_to 7997
  140.1005  143.4617  152.1815 H   0  0  0  0  0  0  0  0  0  0  0  0  # atno 10167 bound_to 10162
  157.3828  131.0994  151.0722 H   0  0  0  0  0  0  0  0  0  0  0  0  # atno 10718 bound_to 10713
  153.1006  135.4815  154.8860 H   0  0  0  0  0  0  0  0  0  0  0  0  # atno 10763 bound_to 10752
  154.7375  135.3074  154.8789 H   0  0  0  0  0  0  0  0  0  0  0  0  # atno 10764 bound_to 10752
  153.9407  135.6834  153.4798 H   0  0  0  0  0  0  0  0  0  0  0  0  # atno 10765 bound_to 10752
  141.1571  133.7673  156.9694 H   0  0  0  0  0  0  0  0  0  0  0  0  # atno 11005 bound_to 11000
  146.3516  140.1274  142.8598 LP  0  0  0  0  0  0  0  0  0  0  0  0  # atno 17320 bound_to 7965
  145.0661  140.9122  143.4909 LP  0  0  0  0  0  0  0  0  0  0  0  0  # atno 17321 bound_to 7965
  139.5674  144.7443  151.3985 LP  0  0  0  0  0  0  0  0  0  0  0  0  # atno 17342 bound_to 10162
  140.6980  143.7701  150.7357 LP  0  0  0  0  0  0  0  0  0  0  0  0  # atno 17343 bound_to 10162
  157.1784  130.6298  149.5663 LP  0  0  0  0  0  0  0  0  0  0  0  0  # atno 17370 bound_to 10713
  155.9780  130.4762  150.6627 LP  0  0  0  0  0  0  0  0  0  0  0  0  # atno 17371 bound_to 10713
  140.1139  134.9459  157.2106 LP  0  0  0  0  0  0  0  0  0  0  0  0  # atno 17394 bound_to 11000
  140.3158  134.2972  155.7257 LP  0  0  0  0  0  0  0  0  0  0  0  0  # atno 17395 bound_to 11000

$$$$
