#       Name:                AV-unprocessed.smi:844
#       Creating user name   scv26
#       Creation time:       Fri Mar 27 01:38:37 2020


#       File generated by GOLD software.
#

@<TRIPOS>MOLECULE
AV-unprocessed.smi:844
    35    37     1
SMALL
NO_CHARGES


@<TRIPOS>ATOM
      1 ****        -1.3213   3.0717  -1.5234 O.3            1 S1                 0.0000
      2 ****        -0.8948   1.7304  -1.3939 C.3            1 S1                 0.0000
      3 ****         0.6465   1.7188  -1.3588 C.3            1 S1                 0.0000
      4 ****         1.1876   0.3730  -1.4268 N.pl3          1 S1                 0.0000
      5 ****         1.4224  -0.3501  -2.5385 C.2            1 S1                 0.0000
      6 ****         1.9115  -1.5763  -2.3765 N.2            1 S1                 0.0000
      7 ****         2.0049  -1.6596  -0.9978 C.ar           1 S1                 0.0000
      8 ****         2.4496  -2.7158  -0.1708 C.ar           1 S1                 0.0000
      9 ****         2.4510  -2.5725   1.2325 C.ar           1 S1                 0.0000
     10 ****         2.0105  -1.3735   1.8296 C.ar           1 S1                 0.0000
     11 ****         1.5648  -0.3067   1.0262 C.ar           1 S1                 0.0000
     12 ****         1.5629  -0.4542  -0.3735 C.ar           1 S1                 0.0000
     13 ****        -1.5078   1.0440  -0.1776 C.ar           1 S1                 0.0000
     14 ****        -1.5764   1.7190   1.0619 C.ar           1 S1                 0.0000
     15 ****        -2.1185   1.0791   2.1928 C.ar           1 S1                 0.0000
     16 ****        -2.5952  -0.2413   2.0939 C.ar           1 S1                 0.0000
     17 ****        -3.1151  -0.8572   3.1819 F              1 S1                 0.0000
     18 ****        -2.5289  -0.9214   0.8632 C.ar           1 S1                 0.0000
     19 ****        -1.9865  -0.2836  -0.2695 C.ar           1 S1                 0.0000
     20 ****        -1.9181  -0.9587  -1.4422 F              1 S1                 0.0000
     21 ****        -2.2579   3.0771  -1.6492 H              1 S1                 0.0000
     22 ****        -1.2306   1.2206  -2.2976 H              1 S1                 0.0000
     23 ****         1.0452   2.2811  -2.2046 H              1 S1                 0.0000
     24 ****         1.0204   2.2066  -0.4576 H              1 S1                 0.0000
     25 ****         1.2180   0.0447  -3.5231 H              1 S1                 0.0000
     26 ****         2.7885  -3.6390  -0.6172 H              1 S1                 0.0000
     27 ****         2.7915  -3.3875   1.8542 H              1 S1                 0.0000
     28 ****         2.0145  -1.2735   2.9051 H              1 S1                 0.0000
     29 ****         1.2237   0.6116   1.4804 H              1 S1                 0.0000
     30 ****        -1.2049   2.7293   1.1526 H              1 S1                 0.0000
     31 ****        -2.1658   1.6009   3.1373 H              1 S1                 0.0000
     32 ****        -2.8915  -1.9358   0.7883 H              1 S1                 0.0000
     33 ****        -0.8726   3.4939  -2.3111 LP             1 S1                 0.0000
     34 ****        -1.0892   3.5811  -0.6949 LP             1 S1                 0.0000
     35 ****         2.1491  -2.2583  -3.0683 LP             1 S1                 0.0000
@<TRIPOS>BOND
    1    1    2 1     
    2    1   21 1     
    3    2    3 1     
    4    2   13 1     
    5    2   22 1     
    6    3    4 1     
    7    3   23 1     
    8    3   24 1     
    9    4   12 1     
   10    4    5 1     
   11    5    6 2     
   12    5   25 1     
   13    6    7 1     
   14    7   12 ar    
   15    7    8 ar    
   16    8    9 ar    
   17    8   26 1     
   18    9   10 ar    
   19    9   27 1     
   20   10   11 ar    
   21   10   28 1     
   22   11   12 ar    
   23   11   29 1     
   24   13   19 ar    
   25   13   14 ar    
   26   14   15 ar    
   27   14   30 1     
   28   15   16 ar    
   29   15   31 1     
   30   16   17 1     
   31   16   18 ar    
   32   18   19 ar    
   33   18   32 1     
   34   19   20 1     
   35    1   33 1     
   36    1   34 1     
   37    6   35 1     
@<TRIPOS>SUBSTRUCTURE
      1 S1             1
@<TRIPOS>SET
LONE_PAIRS      STATIC     ATOMS    <user>   **** ""
3 33 34 35
DONOR_HYDROGENS      STATIC     ATOMS    <user>   **** ""
1 21
ATOM$BLUE        STATIC     ATOMS    COLORGROUP SYSTEM
3 33 34 35
ATOM$RED        STATIC     ATOMS    COLORGROUP SYSTEM
1 21
