#       Name:                AV-unprocessed.smi:83
#       Creating user name   scv26
#       Creation time:       Thu Mar 26 17:19:22 2020


#       File generated by GOLD software.
#

@<TRIPOS>MOLECULE
AV-unprocessed.smi:83
    65    68     1
SMALL
NO_CHARGES


@<TRIPOS>ATOM
      1 ****        -0.5550  -2.4803  -2.0194 C.3            1 S1                 0.0000
      2 ****        -1.9913  -2.5007  -1.4933 C.2            1 S1                 0.0000
      3 ****        -2.3103  -3.3531  -0.6650 O.2            1 S1                 0.0000
      4 ****        -2.8617  -1.5821  -1.9591 N.am           1 S1                 0.0000
      5 ****        -4.2595  -1.5009  -1.5435 C.3            1 S1                 0.0000
      6 ****        -4.8662  -0.3638  -2.3718 C.3            1 S1                 0.0000
      7 ****        -3.6765   0.5317  -2.7166 C.3            1 S1                 0.0000
      8 ****        -3.4373   1.5569  -1.5804 C.3            1 S1                 0.0000
      9 ****        -2.3267   2.4794  -1.8236 N.pl3          1 S1                 0.0000
     10 ****        -2.5527   3.5498  -2.7930 C.3            1 S1                 0.0000
     11 ****        -1.0412   2.1340  -1.5138 C.ar           1 S1                 0.0000
     12 ****        -0.0369   2.6569  -2.2697 N.ar           1 S1                 0.0000
     13 ****         1.2368   2.3226  -2.0519 C.ar           1 S1                 0.0000
     14 ****         1.7337   1.4877  -1.1407 N.ar           1 S1                 0.0000
     15 ****         0.7445   0.9657  -0.3628 C.ar           1 S1                 0.0000
     16 ****        -0.6525   1.2363  -0.4686 C.ar           1 S1                 0.0000
     17 ****        -1.3277   0.5213   0.5169 N.2            1 S1                 0.0000
     18 ****        -0.3988  -0.1441   1.1437 C.2            1 S1                 0.0000
     19 ****         0.8763   0.0629   0.6774 N.pl3          1 S1                 0.0000
     20 ****         2.0915  -0.5489   1.1844 C.3            1 S1                 0.0000
     21 ****         2.6010   0.1319   2.4697 C.3            1 S1                 0.0000
     22 ****         2.8595   1.4973   2.2031 O.3            1 S1                 0.0000
     23 ****         3.8863  -0.5250   3.0057 C.3            1 S1                 0.0000
     24 ****         4.4047   0.0729   4.3135 C.3            1 S1                 0.0000
     25 ****         5.2604  -1.0538   4.8454 C.3            1 S1                 0.0000
     26 ****         4.4624  -2.2890   4.4333 C.3            1 S1                 0.0000
     27 ****         3.6491  -1.8916   3.3317 O.3            1 S1                 0.0000
     28 ****        -2.5541  -0.5034  -2.8945 C.3            1 S1                 0.0000
     29 ****        -0.5406  -2.5240  -3.1084 H              1 S1                 0.0000
     30 ****         0.0050  -3.3359  -1.6415 H              1 S1                 0.0000
     31 ****        -0.0393  -1.5757  -1.6986 H              1 S1                 0.0000
     32 ****        -4.7874  -2.4414  -1.7069 H              1 S1                 0.0000
     33 ****        -4.3034  -1.2666  -0.4789 H              1 S1                 0.0000
     34 ****        -5.2898  -0.7720  -3.2905 H              1 S1                 0.0000
     35 ****        -5.6670   0.1591  -1.8478 H              1 S1                 0.0000
     36 ****        -3.8564   1.0676  -3.6492 H              1 S1                 0.0000
     37 ****        -4.3357   2.1669  -1.4815 H              1 S1                 0.0000
     38 ****        -3.3588   1.0576  -0.6209 H              1 S1                 0.0000
     39 ****        -2.0101   4.4525  -2.5097 H              1 S1                 0.0000
     40 ****        -3.6105   3.8076  -2.8510 H              1 S1                 0.0000
     41 ****        -2.2273   3.2443  -3.7881 H              1 S1                 0.0000
     42 ****         1.9602   2.7855  -2.7069 H              1 S1                 0.0000
     43 ****        -0.6195  -0.8078   1.9670 H              1 S1                 0.0000
     44 ****         1.8831  -1.6030   1.3709 H              1 S1                 0.0000
     45 ****         2.8540  -0.5179   0.4052 H              1 S1                 0.0000
     46 ****         1.8254   0.0811   3.2351 H              1 S1                 0.0000
     47 ****         3.5028   1.5515   1.5129 H              1 S1                 0.0000
     48 ****         4.6761  -0.4899   2.2530 H              1 S1                 0.0000
     49 ****         4.9623   0.9986   4.1681 H              1 S1                 0.0000
     50 ****         3.5806   0.2728   4.9998 H              1 S1                 0.0000
     51 ****         6.2302  -1.0501   4.3465 H              1 S1                 0.0000
     52 ****         5.4295  -0.9941   5.9208 H              1 S1                 0.0000
     53 ****         5.1121  -3.1215   4.1625 H              1 S1                 0.0000
     54 ****         3.8113  -2.6179   5.2437 H              1 S1                 0.0000
     55 ****        -1.5602  -0.0840  -2.7609 H              1 S1                 0.0000
     56 ****        -2.5871  -0.9153  -3.9040 H              1 S1                 0.0000
     57 ****        -1.6348  -4.0181  -0.3463 LP             1 S1                 0.0000
     58 ****        -3.2449  -3.3807  -0.3105 LP             1 S1                 0.0000
     59 ****        -0.2572   3.3027  -3.0007 LP             1 S1                 0.0000
     60 ****         2.7052   1.2724  -1.0407 LP             1 S1                 0.0000
     61 ****        -2.3102   0.5189   0.7031 LP             1 S1                 0.0000
     62 ****         3.2109   1.9413   3.0274 LP             1 S1                 0.0000
     63 ****         2.0160   1.9502   1.9144 LP             1 S1                 0.0000
     64 ****         3.8664  -2.4617   2.5394 LP             1 S1                 0.0000
     65 ****         2.6861  -2.0101   3.5737 LP             1 S1                 0.0000
@<TRIPOS>BOND
    1    1    2 1     
    2    1   29 1     
    3    1   30 1     
    4    1   31 1     
    5    2    3 2     
    6    2    4 am    
    7    4   28 1     
    8    4    5 1     
    9    5    6 1     
   10    5   32 1     
   11    5   33 1     
   12    6    7 1     
   13    6   34 1     
   14    6   35 1     
   15    7    8 1     
   16    7   28 1     
   17    7   36 1     
   18    8    9 1     
   19    8   37 1     
   20    8   38 1     
   21    9   10 1     
   22    9   11 1     
   23   10   39 1     
   24   10   40 1     
   25   10   41 1     
   26   11   16 ar    
   27   11   12 ar    
   28   12   13 ar    
   29   13   14 ar    
   30   13   42 1     
   31   14   15 ar    
   32   15   19 1     
   33   15   16 ar    
   34   16   17 1     
   35   17   18 2     
   36   18   19 1     
   37   18   43 1     
   38   19   20 1     
   39   20   21 1     
   40   20   44 1     
   41   20   45 1     
   42   21   22 1     
   43   21   23 1     
   44   21   46 1     
   45   22   47 1     
   46   23   27 1     
   47   23   24 1     
   48   23   48 1     
   49   24   25 1     
   50   24   49 1     
   51   24   50 1     
   52   25   26 1     
   53   25   51 1     
   54   25   52 1     
   55   26   27 1     
   56   26   53 1     
   57   26   54 1     
   58   28   55 1     
   59   28   56 1     
   60    3   57 1     
   61    3   58 1     
   62   12   59 1     
   63   14   60 1     
   64   17   61 1     
   65   22   62 1     
   66   22   63 1     
   67   27   64 1     
   68   27   65 1     
@<TRIPOS>SUBSTRUCTURE
      1 S1             1
@<TRIPOS>SET
LONE_PAIRS      STATIC     ATOMS    <user>   **** ""
9 57 58 59 60 61 62 63 64 65
DONOR_HYDROGENS      STATIC     ATOMS    <user>   **** ""
1 47
ATOM$BLUE        STATIC     ATOMS    COLORGROUP SYSTEM
9 57 58 59 60 61 62 63 64 65
ATOM$RED        STATIC     ATOMS    COLORGROUP SYSTEM
1 47
