#       Name:                AV-unprocessed.smi:2154
#       Creating user name   scv26
#       Creation time:       Fri Mar 27 11:55:48 2020


#       File generated by GOLD software.
#

@<TRIPOS>MOLECULE
AV-unprocessed.smi:2154
    38    39     1
SMALL
NO_CHARGES


@<TRIPOS>ATOM
      1 ****        -4.6010   1.0243   0.4459 C.3            1 S1                 0.0000
      2 ****        -3.5359   0.2124  -0.2593 C.3            1 S1                 0.0000
      3 ****        -2.3956   0.8981  -0.9773 C.3            1 S1                 0.0000
      4 ****        -2.1316   0.1302   0.2961 C.3            1 S1                 0.0000
      5 ****        -1.3686  -1.1774   0.2739 C.3            1 S1                 0.0000
      6 ****         0.0724  -1.0151   0.4084 N.am           1 S1                 0.0000
      7 ****         0.8923  -1.8013   1.1258 C.2            1 S1                 0.0000
      8 ****         0.4974  -2.7846   1.7520 O.2            1 S1                 0.0000
      9 ****         2.3916  -1.4546   1.1518 C.3            1 S1                 0.0000
     10 ****         2.7761  -0.2860   0.3384 N.am           1 S1                 0.0000
     11 ****         3.2415  -0.5281  -0.9662 C.2            1 S1                 0.0000
     12 ****         3.6111   0.4738  -1.7866 C.2            1 S1                 0.0000
     13 ****         3.5193   1.8412  -1.2907 C.2            1 S1                 0.0000
     14 ****         3.8537   2.7684  -2.0254 O.2            1 S1                 0.0000
     15 ****         3.0589   2.0253  -0.0188 N.pl3          1 S1                -1.0000
     16 ****         2.6859   0.9968   0.8042 C.2            1 S1                 0.0000
     17 ****         2.2654   1.1856   1.9457 O.2            1 S1                 0.0000
     18 ****        -4.1669   1.9043   0.9216 H              1 S1                 0.0000
     19 ****        -5.0857   0.4190   1.2121 H              1 S1                 0.0000
     20 ****        -5.3562   1.3524  -0.2685 H              1 S1                 0.0000
     21 ****        -3.9200  -0.6878  -0.7355 H              1 S1                 0.0000
     22 ****        -2.0559   0.4601  -1.9138 H              1 S1                 0.0000
     23 ****        -2.3406   1.9837  -0.9254 H              1 S1                 0.0000
     24 ****        -1.9362   0.7308   1.1830 H              1 S1                 0.0000
     25 ****        -1.7650  -1.8055   1.0729 H              1 S1                 0.0000
     26 ****        -1.5707  -1.6999  -0.6617 H              1 S1                 0.0000
     27 ****         0.4862  -0.2271  -0.0696 H              1 S1                 0.0000
     28 ****         2.6931  -1.3072   2.1901 H              1 S1                 0.0000
     29 ****         2.9453  -2.3347   0.8219 H              1 S1                 0.0000
     30 ****         3.2737  -1.5679  -1.2572 H              1 S1                 0.0000
     31 ****         3.9645   0.2706  -2.7867 H              1 S1                 0.0000
     32 ****        -0.4724  -3.0282   1.7407 LP             1 S1                 0.0000
     33 ****         1.1464  -3.3399   2.2720 LP             1 S1                 0.0000
     34 ****         4.1836   2.5795  -2.9504 LP             1 S1                 0.0000
     35 ****         3.7959   3.7116  -1.6981 LP             1 S1                 0.0000
     36 ****         2.9906   2.9600   0.3299 LP             1 S1                 0.0000
     37 ****         1.9970   0.4082   2.5146 LP             1 S1                 0.0000
     38 ****         2.1923   2.1163   2.3040 LP             1 S1                 0.0000
@<TRIPOS>BOND
    1    1    2 1     
    2    1   18 1     
    3    1   19 1     
    4    1   20 1     
    5    2    4 1     
    6    2    3 1     
    7    2   21 1     
    8    3    4 1     
    9    3   22 1     
   10    3   23 1     
   11    4    5 1     
   12    4   24 1     
   13    5    6 1     
   14    5   25 1     
   15    5   26 1     
   16    6    7 am    
   17    6   27 1     
   18    7    8 2     
   19    7    9 1     
   20    9   10 1     
   21    9   28 1     
   22    9   29 1     
   23   10   16 am    
   24   10   11 1     
   25   11   12 2     
   26   11   30 1     
   27   12   13 1     
   28   12   31 1     
   29   13   14 2     
   30   13   15 1     
   31   15   16 1     
   32   16   17 2     
   33    8   32 1     
   34    8   33 1     
   35   14   34 1     
   36   14   35 1     
   37   15   36 1     
   38   17   37 1     
   39   17   38 1     
@<TRIPOS>SUBSTRUCTURE
      1 S1             1
@<TRIPOS>SET
LONE_PAIRS      STATIC     ATOMS    <user>   **** ""
7 32 33 34 35 36 37 38
DONOR_HYDROGENS      STATIC     ATOMS    <user>   **** ""
1 27
ATOM$BLUE        STATIC     ATOMS    COLORGROUP SYSTEM
7 32 33 34 35 36 37 38
ATOM$RED        STATIC     ATOMS    COLORGROUP SYSTEM
1 27
