AV-unprocessed.smi:662|AV-procd|sdf|3244|dock6
  -GOLD-   22720 0193D 1   1.00000     0.00000
 Structure written by MMmdl.
 34 35  0  0  0  0  0  0  0  0  2 V2000
  149.7195  140.7702  153.5602 O   0  0  0  0  0  0  0  0  0  0  0  0
  149.4094  139.9183  154.3940 C   0  0  0  0  0  0  0  0  0  0  0  0
  149.9508  139.8581  155.6205 N   0  0  0  0  0  0  0  0  0  0  0  0
  150.9651  140.7745  156.1292 C   0  0  0  0  0  0  0  0  0  0  0  0
  151.8853  140.0872  157.1506 C   0  0  0  0  0  0  0  0  0  0  0  0
  152.3185  141.0121  158.2376 C   0  0  0  0  0  0  0  0  0  0  0  0
  151.9424  142.2915  158.3058 N   0  0  0  0  0  0  0  0  0  0  0  0
  152.5033  142.9643  159.3968 C   0  0  0  0  0  0  0  0  0  0  0  0
  152.1739  144.4106  159.6301 C   0  0  0  0  0  0  0  0  0  0  0  0
  150.8570  144.6127  159.6779 F   0  0  0  0  0  0  0  0  0  0  0  0
  152.6878  144.8406  160.7822 F   0  0  0  0  0  0  0  0  0  0  0  0
  152.6621  145.1777  158.6558 F   0  0  0  0  0  0  0  0  0  0  0  0
  153.3303  142.1670  160.1507 C   0  0  0  0  0  0  0  0  0  0  0  0
  153.4322  140.5472  159.5173 S   0  0  0  0  0  0  0  0  0  0  0  0
  148.3454  138.8643  154.0670 C   0  0  1  0  0  0  0  0  0  0  0  0
  146.9504  139.3310  154.5039 C   0  0  0  0  0  0  0  0  0  0  0  0
  146.0203  138.5787  153.5640 C   0  0  0  0  0  0  0  0  0  0  0  0
  146.8131  138.4954  152.2585 C   0  0  0  0  0  0  0  0  0  0  0  0
  148.2428  138.6213  152.6113 N   0  3  0  0  0  0  0  0  0  0  0  0
  149.6381  139.1310  156.2480 H   0  0  0  0  0  0  0  0  0  0  0  0
  151.5524  141.1364  155.2847 H   0  0  0  0  0  0  0  0  0  0  0  0
  150.4885  141.6509  156.5723 H   0  0  0  0  0  0  0  0  0  0  0  0
  151.3801  139.2333  157.6044 H   0  0  0  0  0  0  0  0  0  0  0  0
  152.7732  139.6950  156.6534 H   0  0  0  0  0  0  0  0  0  0  0  0
  153.8860  142.4357  161.0369 H   0  0  0  0  0  0  0  0  0  0  0  0
  148.5911  137.9162  154.5483 H   0  0  0  0  0  0  0  0  0  0  0  0
  146.7440  139.1168  155.5532 H   0  0  0  0  0  0  0  0  0  0  0  0
  146.8275  140.4051  154.3515 H   0  0  0  0  0  0  0  0  0  0  0  0
  145.8449  137.5741  153.9519 H   0  0  0  0  0  0  0  0  0  0  0  0
  145.0514  139.0642  153.4430 H   0  0  0  0  0  0  0  0  0  0  0  0
  146.6197  137.5657  151.7227 H   0  0  0  0  0  0  0  0  0  0  0  0
  146.5494  139.3231  151.5991 H   0  0  0  0  0  0  0  0  0  0  0  0
  148.6292  139.4180  152.1240 H   0  0  0  0  0  0  0  0  0  0  0  0
  148.7537  137.7862  152.3636 H   0  0  0  0  0  0  0  0  0  0  0  0
  1  2  2  0  0  0  0
  2  3  1  0  0  0  0
  2 15  1  0  0  0  0
  3  4  1  0  0  0  0
  3 20  1  0  0  0  0
  4  5  1  0  0  0  0
  4 21  1  0  0  0  0
  4 22  1  0  0  0  0
  5  6  1  0  0  0  0
  5 23  1  0  0  0  0
  5 24  1  0  0  0  0
  6 14  1  0  0  0  0
  6  7  2  0  0  0  0
  7  8  1  0  0  0  0
  8  9  1  0  0  0  0
  8 13  2  0  0  0  0
  9 10  1  0  0  0  0
  9 11  1  0  0  0  0
  9 12  1  0  0  0  0
 13 14  1  0  0  0  0
 13 25  1  0  0  0  0
 15 19  1  0  0  0  0
 15 16  1  0  0  0  0
 15 26  1  0  0  0  0
 16 17  1  0  0  0  0
 16 27  1  0  0  0  0
 16 28  1  0  0  0  0
 17 18  1  0  0  0  0
 17 29  1  0  0  0  0
 17 30  1  0  0  0  0
 18 19  1  0  0  0  0
 18 31  1  0  0  0  0
 18 32  1  0  0  0  0
 19 33  1  0  0  0  0
 19 34  1  0  0  0  0
M  CHG  1  19   1
M  END
> <s_m_source_file>
AV-unprocessed.smi

> <i_m_source_file_index>
662

> <i_lp_mmshare_version>
43012

> <i_f3d_flags>
0

> <s_epik_input>
W05IXTFbQ0gyXVtDSDJdW0NIMl1bQ0BIXTFDKD1PKVtOSF1bQ0gyXVtDSDJdYzJuYyhDKEYpKEYpRilbY0hdczI=

> <s_epik_cmdline>
J2VwaWtfcHl0aG9uJywgJy1waCcsICc3LjAnLCAnLXRuJywgJzgnLCAnLW1hJywgJzIwMCcsICctbWV0YWxfYmluZGluZycsICctaW1hZScsICc8aW5maWxlLm1hZT4nLCAnLW9tYWUnLCAnPG91dGZpbGUubWFlPic=

> <r_epik_Ionization_Penalty>
0.0382401

> <r_epik_Ionization_Penalty_Charging>
0.0382382

> <r_epik_Ionization_Penalty_Neutral>
1.85239e-06

> <r_epik_State_Penalty>
0.0320549

> <r_epik_Charging_Adjusted_Penalty>
0.0702931

> <i_epik_Tot_Q>
1

> <i_epik_Tot_abs_Q>
1

> <r_epik_Metal_State_Penalty>
0.0320549

> <b_epik_Metal_Only>
0

> <s_lp_Force_Field>
OPLS_2005

> <r_lp_Energy>
5.09297

> <b_lp_Chiralities_Consistent>
1

> <s_lp_Variant>
AV-unprocessed.smi:662-2

> <Gold.Version>
5.8.1

> <Gold.Id.Protein>
6NUR|6NUR_protein|mol2

> <Gold.PLP.Fitness>
49.5395

> <Gold.PLP.PLP>
-39.5935

> <Gold.PLP.part.hbond>
-3.6441

> <Gold.PLP.part.metal>
0.0000

> <Gold.PLP.part.buried>
-4.9359

> <Gold.PLP.part.nonpolar>
-34.6603

> <Gold.PLP.part.repulsive>
3.4707

> <Gold.PLP.ligand.clash>
0.0000

> <Gold.PLP.ligand.torsion>
1.2670

> <Gold.PLP.Chemscore.Hbond>
4.1512

> <Gold.PLP.Chemscore.CHOScore>
0.0000

> <Gold.PLP.Chemscore.Metal>
0.0000

> <Gold.Chemscore.Hbonds>
donor molecule, donor type, donor heavy atom, donor atom, acceptor molecule, acceptor atom, score
      L1  H    19    33       P1  7957  0.91
      L1  H    19    34       P1  7948  2.00
      P1  H  7989  7998       L1     1  0.38
      P1  H  8011  8017       L1     1  0.96

> <Gold.PLP.Chemscore.Internal.Correction>
0.0266

> <Gold.Rescore>
     Score         DG    S(hbond)    S(metal)    S(lipo)     H(rot)  DE(clash)    DE(int)     intcor
     16.44     -20.92       3.18        0.00      84.31       1.97       2.99       1.49       ----

> <Gold.Chemscore.Fitness>
16.4366

> <Gold.Chemscore.DG>
-20.9220

> <Gold.Chemscore.ZeroCoef>
-5.4800

> <Gold.Chemscore.Hbond>
3.1798

> <Gold.Chemscore.Metal>
0.0000

> <Gold.Chemscore.Lipo>
84.3076

> <Gold.Chemscore.Internal_Hbond>
0.0000

> <Gold.Chemscore.DEClash>
2.9933

> <Gold.Chemscore.DEInternal>
1.4920

> <Gold.Chemscore.Rot>
1.9697

> <Gold.Chemscore.Internal.Correction>
   9.000000E+99

> <Gold.Chemscore.Hbonds>
donor molecule, donor type, donor heavy atom, donor atom, acceptor molecule, acceptor atom, score
      L1  H    19    33       P1  7957  0.83
      L1  H    19    34       P1  7948  0.98
      P1  H  7989  7998       L1     1  0.28
      P1  H  8011  8017       L1     1  0.88

> <Gold.Chemscore.Hbond.Weighted>
-10.6204

> <Gold.Chemscore.Metal.Weighted>
-0.0000

> <Gold.Chemscore.Lipo.Weighted>
-9.8640

> <Gold.Chemscore.Internal_Hbond.Weighted>
0.0000

> <Gold.Chemscore.DEClash.Weighted>
2.9933

> <Gold.Chemscore.DEInternal.Weighted>
1.4920

> <Gold.Chemscore.Rot.Weighted>
5.0424

> <Gold.Chemscore.Internal.Correction.Weighted>
   9.000000E+99

> <Gold.Protein.RotatedTorsions>
[ 6907 6896 6895 6894 ] final  -48.83 input  -60.11 | X-H torsion
[ 7974 7965 7964 7962 ] final -112.02 input  175.53 | X-H torsion
[ 8008 7997 7996 7995 ] final  -69.97 input   59.86 | X-H torsion
[ 10167 10162 10161 10158 ] final  -47.71 input  -65.29 | X-H torsion
[ 10718 10713 10712 10709 ] final -177.76 input   66.30 | X-H torsion
[ 10763 10752 10751 10750 ] final  135.75 input  -60.55 | X-H torsion
[ 11005 11000 10999 10996 ] final -138.75 input  -57.11 | X-H torsion

> <Gold.Protein.ActiveResidues>
 VAL166  LYS551  ARG553  GLY616  TRP617  ASP618  TYR619  PRO620  LYS621  CYS622 
 ASP623  PHE694  ASN695  SER759  ASP760  ASP761  ALA762  ILE779  LEU786  VAL792 
 PHE793  MET794  SER795  GLU796  ALA797  LYS798  CYS799  TRP800  GLU811  SER814 

> <Gold.Protein.RotatedAtoms>
  150.8866  134.8264  159.7262 H   0  0  0  0  0  0  0  0  0  0  0  0  # atno 6907 bound_to 6896
  152.4811  134.4713  159.9646 H   0  0  0  0  0  0  0  0  0  0  0  0  # atno 6908 bound_to 6896
  151.4781  133.3514  159.2869 H   0  0  0  0  0  0  0  0  0  0  0  0  # atno 6909 bound_to 6896
  145.1490  140.8819  143.3657 H   0  0  0  0  0  0  0  0  0  0  0  0  # atno 7974 bound_to 7965
  154.4977  140.0843  156.7732 H   0  0  0  0  0  0  0  0  0  0  0  0  # atno 8008 bound_to 7997
  155.4076  140.3440  155.4243 H   0  0  0  0  0  0  0  0  0  0  0  0  # atno 8009 bound_to 7997
  156.1416  140.1531  156.8899 H   0  0  0  0  0  0  0  0  0  0  0  0  # atno 8010 bound_to 7997
  140.6763  143.2772  151.3966 H   0  0  0  0  0  0  0  0  0  0  0  0  # atno 10167 bound_to 10162
  156.8342  130.9664  151.3104 H   0  0  0  0  0  0  0  0  0  0  0  0  # atno 10718 bound_to 10713
  153.8453  135.3086  155.3429 H   0  0  0  0  0  0  0  0  0  0  0  0  # atno 10763 bound_to 10752
  154.7915  135.4780  154.0066 H   0  0  0  0  0  0  0  0  0  0  0  0  # atno 10764 bound_to 10752
  153.1551  135.6850  153.8917 H   0  0  0  0  0  0  0  0  0  0  0  0  # atno 10765 bound_to 10752
  140.8586  134.2197  157.4720 H   0  0  0  0  0  0  0  0  0  0  0  0  # atno 11005 bound_to 11000
  145.0451  139.3228  143.5957 LP  0  0  0  0  0  0  0  0  0  0  0  0  # atno 17320 bound_to 7965
  146.3497  139.9838  142.8693 LP  0  0  0  0  0  0  0  0  0  0  0  0  # atno 17321 bound_to 7965
  139.6057  144.1201  152.2247 LP  0  0  0  0  0  0  0  0  0  0  0  0  # atno 17342 bound_to 10162
  140.0600  144.5864  150.7270 LP  0  0  0  0  0  0  0  0  0  0  0  0  # atno 17343 bound_to 10162
  157.6390  130.8790  149.9413 LP  0  0  0  0  0  0  0  0  0  0  0  0  # atno 17370 bound_to 10713
  156.0917  130.3663  150.0383 LP  0  0  0  0  0  0  0  0  0  0  0  0  # atno 17371 bound_to 10713
  139.8706  134.9718  156.4751 LP  0  0  0  0  0  0  0  0  0  0  0  0  # atno 17394 bound_to 11000
  140.8709  133.7989  155.9363 LP  0  0  0  0  0  0  0  0  0  0  0  0  # atno 17395 bound_to 11000

$$$$
