AV-unprocessed.smi:1367|AV-procd|sdf|5573|dock4
  -GOLD-   22720 5163D 1   1.00000     0.00000
 Structure written by MMmdl.
 30 30  0  0  0  0  0  0  0  0  1 V2000
  146.8571  138.7213  152.6033 C   0  0  0  0  0  0  0  0  0  0  0  0
  147.9561  139.2153  153.5188 C   0  0  0  0  0  0  0  0  0  0  0  0
  149.0419  138.3590  153.5967 N   0  0  0  0  0  0  0  0  0  0  0  0
  150.1009  138.7283  154.4071 C   0  0  0  0  0  0  0  0  0  0  0  0
  151.2495  137.7351  154.4342 C   0  0  0  0  0  0  0  0  0  0  0  0
  150.0776  139.8902  155.1082 C   0  0  0  0  0  0  0  0  0  0  0  0
  151.2271  140.3322  156.0144 C   0  0  0  0  0  0  0  0  0  0  0  0
  150.8180  140.9877  157.3348 C   0  0  0  0  0  0  0  0  0  0  0  0
  150.1733  140.3475  158.1647 O   0  0  0  0  0  0  0  0  0  0  0  0
  151.1969  142.2618  157.5157 N   0  0  0  0  0  0  0  0  0  0  0  0
  150.8635  143.0829  158.6741 C   0  0  0  0  0  0  0  0  0  0  0  0
  152.1171  143.6874  159.3298 C   0  0  0  0  0  0  0  0  0  0  0  0
  152.7891  144.3911  158.4198 F   0  0  0  0  0  0  0  0  0  0  0  0
  151.7695  144.5009  160.3273 F   0  0  0  0  0  0  0  0  0  0  0  0
  152.9170  142.7319  159.8030 F   0  0  0  0  0  0  0  0  0  0  0  0
  148.8837  140.7610  154.9909 C   0  0  0  0  0  0  0  0  0  0  0  0
  148.7936  141.8179  155.6142 O   0  0  0  0  0  0  0  0  0  0  0  0
  147.8395  140.3439  154.1500 N   0  0  0  0  0  0  0  0  0  0  0  0
  149.1004  137.4852  153.0937 H   0  0  0  0  0  0  0  0  0  0  0  0
  146.0632  139.4636  152.5108 H   0  0  0  0  0  0  0  0  0  0  0  0
  146.4211  137.8023  152.9959 H   0  0  0  0  0  0  0  0  0  0  0  0
  147.2518  138.5201  151.6068 H   0  0  0  0  0  0  0  0  0  0  0  0
  152.1696  138.2050  154.0864 H   0  0  0  0  0  0  0  0  0  0  0  0
  151.0513  136.8748  153.7937 H   0  0  0  0  0  0  0  0  0  0  0  0
  151.4111  137.3664  155.4473 H   0  0  0  0  0  0  0  0  0  0  0  0
  151.9002  141.0106  155.4895 H   0  0  0  0  0  0  0  0  0  0  0  0
  151.8396  139.4587  156.2405 H   0  0  0  0  0  0  0  0  0  0  0  0
  151.7279  142.7065  156.7809 H   0  0  0  0  0  0  0  0  0  0  0  0
  150.1600  143.8698  158.3970 H   0  0  0  0  0  0  0  0  0  0  0  0
  150.3451  142.4478  159.3930 H   0  0  0  0  0  0  0  0  0  0  0  0
  1 20  1  0  0  0  0
  1 21  1  0  0  0  0
  1 22  1  0  0  0  0
  1  2  1  0  0  0  0
  2  3  1  0  0  0  0
  2 18  2  0  0  0  0
  3  4  1  0  0  0  0
  3 19  1  0  0  0  0
  4  6  2  0  0  0  0
  4  5  1  0  0  0  0
  5 23  1  0  0  0  0
  5 24  1  0  0  0  0
  5 25  1  0  0  0  0
  6 16  1  0  0  0  0
  6  7  1  0  0  0  0
  7  8  1  0  0  0  0
  7 26  1  0  0  0  0
  7 27  1  0  0  0  0
  8  9  2  0  0  0  0
  8 10  1  0  0  0  0
 10 11  1  0  0  0  0
 10 28  1  0  0  0  0
 11 12  1  0  0  0  0
 11 29  1  0  0  0  0
 11 30  1  0  0  0  0
 12 13  1  0  0  0  0
 12 14  1  0  0  0  0
 12 15  1  0  0  0  0
 16 17  2  0  0  0  0
 16 18  1  0  0  0  0
M  END
> <s_m_source_file>
AV-unprocessed.smi

> <i_m_source_file_index>
1367

> <i_lp_mmshare_version>
43012

> <i_f3d_flags>
0

> <s_epik_input>
W0NIM11jMW5jKFtDSDNdKWMoYyg9TylbbkhdMSlbQ0gyXUMoPU8pW05IXVtDSDJdQyhGKShGKUY=

> <s_epik_cmdline>
J2VwaWtfcHl0aG9uJywgJy1waCcsICc3LjAnLCAnLXRuJywgJzgnLCAnLW1hJywgJzIwMCcsICctbWV0YWxfYmluZGluZycsICctaW1hZScsICc8aW5maWxlLm1hZT4nLCAnLW9tYWUnLCAnPG91dGZpbGUubWFlPic=

> <r_lp_tautomer_probability>
0.156392

> <r_epik_Ionization_Penalty>
0.0162169

> <r_epik_Ionization_Penalty_Charging>
0.0161253

> <r_epik_Ionization_Penalty_Neutral>
9.15634e-05

> <r_epik_State_Penalty>
1.51104

> <r_epik_Charging_Adjusted_Penalty>
1.52717

> <i_epik_Tot_Q>
0

> <i_epik_Tot_abs_Q>
0

> <r_epik_Metal_State_Penalty>
1.71038

> <b_epik_Metal_Only>
0

> <s_lp_Force_Field>
OPLS_2005

> <r_lp_Energy>
7.37455

> <b_lp_Chiralities_Consistent>
1

> <s_lp_Variant>
AV-unprocessed.smi:1367-2

> <Gold.Version>
5.8.1

> <Gold.Id.Protein>
6NUR|6NUR_protein|mol2

> <Gold.PLP.Fitness>
43.4515

> <Gold.PLP.PLP>
-41.0873

> <Gold.PLP.part.hbond>
-2.0000

> <Gold.PLP.part.metal>
0.0000

> <Gold.PLP.part.buried>
-3.4714

> <Gold.PLP.part.nonpolar>
-38.2499

> <Gold.PLP.part.repulsive>
2.6520

> <Gold.PLP.ligand.clash>
0.0000

> <Gold.PLP.ligand.torsion>
0.3220

> <Gold.PLP.Chemscore.Hbond>
1.0000

> <Gold.PLP.Chemscore.CHOScore>
0.0000

> <Gold.PLP.Chemscore.Metal>
0.0000

> <Gold.Chemscore.Hbonds>
donor molecule, donor type, donor heavy atom, donor atom, acceptor molecule, acceptor atom, score
      L1  H     3    19       P1  7948  1.00

> <Gold.PLP.Chemscore.Internal.Correction>
0.0082

> <Gold.Rescore>
     Score         DG    S(hbond)    S(metal)    S(lipo)     H(rot)  DE(clash)    DE(int)     intcor
      9.34     -10.60       1.00        0.00      56.70       1.90       1.12       0.14       ----

> <Gold.Chemscore.Fitness>
9.3365

> <Gold.Chemscore.DG>
-10.5957

> <Gold.Chemscore.ZeroCoef>
-5.4800

> <Gold.Chemscore.Hbond>
0.9993

> <Gold.Chemscore.Metal>
0.0000

> <Gold.Chemscore.Lipo>
56.7004

> <Gold.Chemscore.Internal_Hbond>
0.0000

> <Gold.Chemscore.DEClash>
1.1159

> <Gold.Chemscore.DEInternal>
0.1433

> <Gold.Chemscore.Rot>
1.8968

> <Gold.Chemscore.Internal.Correction>
   9.000000E+99

> <Gold.Chemscore.Hbonds>
donor molecule, donor type, donor heavy atom, donor atom, acceptor molecule, acceptor atom, score
      L1  H     3    19       P1  7948  1.00

> <Gold.Chemscore.Hbond.Weighted>
-3.3377

> <Gold.Chemscore.Metal.Weighted>
-0.0000

> <Gold.Chemscore.Lipo.Weighted>
-6.6339

> <Gold.Chemscore.Internal_Hbond.Weighted>
0.0000

> <Gold.Chemscore.DEClash.Weighted>
1.1159

> <Gold.Chemscore.DEInternal.Weighted>
0.1433

> <Gold.Chemscore.Rot.Weighted>
4.8559

> <Gold.Chemscore.Internal.Correction.Weighted>
   9.000000E+99

> <Gold.Protein.RotatedTorsions>
[ 6907 6896 6895 6894 ] final  176.82 input  -60.11 | X-H torsion
[ 7974 7965 7964 7962 ] final  156.33 input  175.53 | X-H torsion
[ 8008 7997 7996 7995 ] final   75.81 input   59.86 | X-H torsion
[ 10167 10162 10161 10158 ] final   38.47 input  -65.29 | X-H torsion
[ 10718 10713 10712 10709 ] final -139.04 input   66.30 | X-H torsion
[ 10763 10752 10751 10750 ] final    2.46 input  -60.55 | X-H torsion
[ 11005 11000 10999 10996 ] final   27.42 input  -57.11 | X-H torsion

> <Gold.Protein.ActiveResidues>
 VAL166  LYS551  ARG553  GLY616  TRP617  ASP618  TYR619  PRO620  LYS621  CYS622 
 ASP623  PHE694  ASN695  SER759  ASP760  ASP761  ALA762  ILE779  LEU786  VAL792 
 PHE793  MET794  SER795  GLU796  ALA797  LYS798  CYS799  TRP800  GLU811  SER814 

> <Gold.Protein.RotatedAtoms>
  151.7140  133.3313  159.3297 H   0  0  0  0  0  0  0  0  0  0  0  0  # atno 6907 bound_to 6896
  150.7681  134.6507  159.6296 H   0  0  0  0  0  0  0  0  0  0  0  0  # atno 6908 bound_to 6896
  152.3694  134.6759  160.0233 H   0  0  0  0  0  0  0  0  0  0  0  0  # atno 6909 bound_to 6896
  144.7969  139.7189  143.6198 H   0  0  0  0  0  0  0  0  0  0  0  0  # atno 7974 bound_to 7965
  155.8183  140.3471  155.5498 H   0  0  0  0  0  0  0  0  0  0  0  0  # atno 8008 bound_to 7997
  155.8369  140.0935  157.1778 H   0  0  0  0  0  0  0  0  0  0  0  0  # atno 8009 bound_to 7997
  154.4004  140.1401  156.3669 H   0  0  0  0  0  0  0  0  0  0  0  0  # atno 8010 bound_to 7997
  140.3933  144.1823  150.6131 H   0  0  0  0  0  0  0  0  0  0  0  0  # atno 10167 bound_to 10162
  156.3062  130.7456  151.1520 H   0  0  0  0  0  0  0  0  0  0  0  0  # atno 10718 bound_to 10713
  153.2954  135.6952  153.7253 H   0  0  0  0  0  0  0  0  0  0  0  0  # atno 10763 bound_to 10752
  153.6188  135.3431  155.3005 H   0  0  0  0  0  0  0  0  0  0  0  0  # atno 10764 bound_to 10752
  154.8536  135.4381  154.2049 H   0  0  0  0  0  0  0  0  0  0  0  0  # atno 10765 bound_to 10752
  140.3265  134.2486  155.7709 H   0  0  0  0  0  0  0  0  0  0  0  0  # atno 11005 bound_to 11000
  146.2240  139.5689  142.9599 LP  0  0  0  0  0  0  0  0  0  0  0  0  # atno 17320 bound_to 7965
  145.5650  141.0400  143.2205 LP  0  0  0  0  0  0  0  0  0  0  0  0  # atno 17321 bound_to 7965
  140.4817  143.2377  151.8946 LP  0  0  0  0  0  0  0  0  0  0  0  0  # atno 17342 bound_to 10162
  139.4788  144.5262  151.8731 LP  0  0  0  0  0  0  0  0  0  0  0  0  # atno 17343 bound_to 10162
  157.7380  131.0545  150.5321 LP  0  0  0  0  0  0  0  0  0  0  0  0  # atno 17370 bound_to 10713
  156.5455  130.4218  149.6133 LP  0  0  0  0  0  0  0  0  0  0  0  0  # atno 17371 bound_to 10713
  141.2074  133.7807  157.0121 LP  0  0  0  0  0  0  0  0  0  0  0  0  # atno 17394 bound_to 11000
  140.0897  134.9599  157.1757 LP  0  0  0  0  0  0  0  0  0  0  0  0  # atno 17395 bound_to 11000

$$$$
