#       Name:                AV-unprocessed.smi:3208
#       Creating user name   scv26
#       Creation time:       Fri Mar 27 18:09:47 2020


#       File generated by GOLD software.
#

@<TRIPOS>MOLECULE
AV-unprocessed.smi:3208
    34    34     1
SMALL
NO_CHARGES


@<TRIPOS>ATOM
      1 ****        -4.6063  -0.0539  -0.4574 C.2            1 S1                 0.0000
      2 ****        -3.7535  -0.4195  -1.4262 C.2            1 S1                 0.0000
      3 ****        -2.2542  -0.2278  -1.3666 C.3            1 S1                 0.0000
      4 ****        -1.5934  -1.4823  -1.4813 O.3            1 S1                 0.0000
      5 ****        -0.1727  -1.4215  -1.5820 C.3            1 S1                 0.0000
      6 ****         0.3196  -2.8086  -2.0220 C.3            1 S1                 0.0000
      7 ****         0.4436  -1.0075  -0.2357 C.2            1 S1                 0.0000
      8 ****         0.4025  -1.7836   0.7204 O.2            1 S1                 0.0000
      9 ****         0.9887   0.2227  -0.1989 N.am           1 S1                 0.0000
     10 ****         1.6237   0.8842   0.8884 C.ar           1 S1                 0.0000
     11 ****         1.7866   0.2929   2.0986 N.pl3          1 S1                 1.0000
     12 ****         2.3868   0.8930   3.1489 C.ar           1 S1                 0.0000
     13 ****         2.8827   2.2040   3.0163 C.ar           1 S1                 0.0000
     14 ****         2.7401   2.8656   1.7806 C.ar           1 S1                 0.0000
     15 ****         2.1061   2.2033   0.7078 C.ar           1 S1                 0.0000
     16 ****         1.9669   2.8462  -0.4905 O.co2          1 S1                -1.0000
     17 ****        -4.2576   0.4138   0.4518 H              1 S1                 0.0000
     18 ****        -5.6685  -0.2192  -0.5625 H              1 S1                 0.0000
     19 ****        -4.1396  -0.8851  -2.3213 H              1 S1                 0.0000
     20 ****        -1.9611   0.4281  -2.1874 H              1 S1                 0.0000
     21 ****        -1.9888   0.2716  -0.4339 H              1 S1                 0.0000
     22 ****         0.1047  -0.7015  -2.3545 H              1 S1                 0.0000
     23 ****         1.4066  -2.8357  -2.1065 H              1 S1                 0.0000
     24 ****        -0.0917  -3.0719  -2.9967 H              1 S1                 0.0000
     25 ****         0.0175  -3.5853  -1.3183 H              1 S1                 0.0000
     26 ****         0.9443   0.7601  -1.0530 H              1 S1                 0.0000
     27 ****         2.4516   0.3095   4.0556 H              1 S1                 0.0000
     28 ****         3.3651   2.6954   3.8483 H              1 S1                 0.0000
     29 ****         3.1145   3.8716   1.6583 H              1 S1                 0.0000
     30 ****         1.4357  -0.6580   2.2196 H              1 S1                 0.0000
     31 ****        -1.9408  -1.9397  -2.2999 LP             1 S1                 0.0000
     32 ****        -1.8219  -2.0257  -0.6735 LP             1 S1                 0.0000
     33 ****        -0.0306  -2.6792   0.6191 LP             1 S1                 0.0000
     34 ****         0.8023  -1.5179   1.5976 LP             1 S1                 0.0000
@<TRIPOS>BOND
    1    1    2 2     
    2    1   17 1     
    3    1   18 1     
    4    2    3 1     
    5    2   19 1     
    6    3    4 1     
    7    3   20 1     
    8    3   21 1     
    9    4    5 1     
   10    5    6 1     
   11    5    7 1     
   12    5   22 1     
   13    6   23 1     
   14    6   24 1     
   15    6   25 1     
   16    7    8 2     
   17    7    9 am    
   18    9   26 1     
   19    9   10 1     
   20   10   15 ar    
   21   10   11 ar    
   22   11   30 1     
   23   11   12 ar    
   24   12   27 1     
   25   12   13 ar    
   26   13   28 1     
   27   13   14 ar    
   28   14   15 ar    
   29   14   29 1     
   30   15   16 ar    
   31    4   31 1     
   32    4   32 1     
   33    8   33 1     
   34    8   34 1     
@<TRIPOS>SUBSTRUCTURE
      1 S1             1
@<TRIPOS>SET
LONE_PAIRS      STATIC     ATOMS    <user>   **** ""
5 31 32 33 34 16
DONOR_HYDROGENS      STATIC     ATOMS    <user>   **** ""
2 26 30
ATOM$BLUE        STATIC     ATOMS    COLORGROUP SYSTEM
5 31 32 33 34 16
ATOM$RED        STATIC     ATOMS    COLORGROUP SYSTEM
2 26 30
