AV-unprocessed.smi:914|AV-procd|sdf|4152|dock2
  -GOLD-   22720 2 53D 1   1.00000     0.00000
 Structure written by MMmdl.
 32 33  0  0  0  0  0  0  0  0  2 V2000
  151.3243  139.6309  154.3168 O   0  0  0  0  0  0  0  0  0  0  0  0
  151.7019  139.2362  155.4191 C   0  0  0  0  0  0  0  0  0  0  0  0
  152.1164  137.9544  155.6403 N   0  5  0  0  0  0  0  0  0  0  0  0
  152.5425  137.4972  156.8582 C   0  0  0  0  0  0  0  0  0  0  0  0
  152.9049  136.3334  157.0311 O   0  0  0  0  0  0  0  0  0  0  0  0
  152.5631  138.3634  157.9153 N   0  0  0  0  0  0  0  0  0  0  0  0
  152.9876  137.9618  159.2645 C   0  0  0  0  0  0  0  0  0  0  0  0
  154.2959  138.6574  159.6716 C   0  0  0  0  0  0  0  0  0  0  0  0
  154.1005  140.0599  159.6460 O   0  0  0  0  0  0  0  0  0  0  0  0
  153.2023  140.5220  160.6377 C   0  0  0  0  0  0  0  0  0  0  0  0
  153.2741  142.0528  160.6725 C   0  0  2  0  0  0  0  0  0  0  0  0
  152.4171  142.6885  161.7672 C   0  0  0  0  0  0  0  0  0  0  0  0
  152.1626  144.0628  161.1936 C   0  0  0  0  0  0  0  0  0  0  0  0
  151.9800  143.7479  159.7120 C   0  0  0  0  0  0  0  0  0  0  0  0
  152.7924  142.6062  159.4498 O   0  0  0  0  0  0  0  0  0  0  0  0
  152.1402  139.6919  157.7424 C   0  0  0  0  0  0  0  0  0  0  0  0
  151.7153  140.1588  156.5523 C   0  0  0  0  0  0  0  0  0  0  0  0
  151.1966  141.7970  156.3718 Cl  0  0  0  0  0  0  0  0  0  0  0  0
  152.2111  138.1567  160.0058 H   0  0  0  0  0  0  0  0  0  0  0  0
  153.1335  136.8810  159.2863 H   0  0  0  0  0  0  0  0  0  0  0  0
  154.5860  138.3510  160.6772 H   0  0  0  0  0  0  0  0  0  0  0  0
  155.1024  138.3664  158.9964 H   0  0  0  0  0  0  0  0  0  0  0  0
  152.1887  140.1960  160.4005 H   0  0  0  0  0  0  0  0  0  0  0  0
  153.4626  140.1097  161.6138 H   0  0  0  0  0  0  0  0  0  0  0  0
  154.3095  142.3749  160.7927 H   0  0  0  0  0  0  0  0  0  0  0  0
  151.4739  142.1521  161.8819 H   0  0  0  0  0  0  0  0  0  0  0  0
  152.9152  142.7121  162.7374 H   0  0  0  0  0  0  0  0  0  0  0  0
  151.2987  144.5601  161.6350 H   0  0  0  0  0  0  0  0  0  0  0  0
  153.0376  144.6974  161.3407 H   0  0  0  0  0  0  0  0  0  0  0  0
  150.9417  143.4865  159.5047 H   0  0  0  0  0  0  0  0  0  0  0  0
  152.2521  144.5877  159.0721 H   0  0  0  0  0  0  0  0  0  0  0  0
  152.1769  140.3012  158.6337 H   0  0  0  0  0  0  0  0  0  0  0  0
  1  2  2  0  0  0  0
  2 17  1  0  0  0  0
  2  3  1  0  0  0  0
  3  4  1  0  0  0  0
  4  5  2  0  0  0  0
  4  6  1  0  0  0  0
  6  7  1  0  0  0  0
  6 16  1  0  0  0  0
  7  8  1  0  0  0  0
  7 19  1  0  0  0  0
  7 20  1  0  0  0  0
  8  9  1  0  0  0  0
  8 21  1  0  0  0  0
  8 22  1  0  0  0  0
  9 10  1  0  0  0  0
 10 11  1  0  0  0  0
 10 23  1  0  0  0  0
 10 24  1  0  0  0  0
 11 15  1  0  0  0  0
 11 12  1  0  0  0  0
 11 25  1  0  0  0  0
 12 13  1  0  0  0  0
 12 26  1  0  0  0  0
 12 27  1  0  0  0  0
 13 14  1  0  0  0  0
 13 28  1  0  0  0  0
 13 29  1  0  0  0  0
 14 15  1  0  0  0  0
 14 30  1  0  0  0  0
 14 31  1  0  0  0  0
 16 17  2  0  0  0  0
 16 32  1  0  0  0  0
 17 18  1  0  0  0  0
M  CHG  1   3  -1
M  END
> <s_m_source_file>
AV-unprocessed.smi

> <i_m_source_file_index>
914

> <i_lp_mmshare_version>
43012

> <i_f3d_flags>
0

> <s_epik_input>
Tz1jMVtuSF1jKD1PKW4oW2NIXWMxQ2wpW0NIMl1bQ0gyXU9bQ0gyXVtDQEBIXTJbQ0gyXVtDSDJdW0NIMl1PMg==

> <s_epik_cmdline>
J2VwaWtfcHl0aG9uJywgJy1waCcsICc3LjAnLCAnLXRuJywgJzgnLCAnLW1hJywgJzIwMCcsICctbWV0YWxfYmluZGluZycsICctaW1hZScsICc8aW5maWxlLm1hZT4nLCAnLW9tYWUnLCAnPG91dGZpbGUubWFlPic=

> <r_epik_Ionization_Penalty>
1.76812

> <r_epik_Ionization_Penalty_Charging>
1.60097e-08

> <r_epik_Ionization_Penalty_Neutral>
1.76812

> <r_epik_State_Penalty>
1.87929

> <r_epik_Charging_Adjusted_Penalty>
1.87929

> <i_epik_Tot_Q>
-1

> <i_epik_Tot_abs_Q>
1

> <r_epik_Metal_State_Penalty>
0.0133872

> <b_epik_Metal_Only>
0

> <s_lp_Force_Field>
OPLS_2005

> <r_lp_Energy>
30.4793

> <b_lp_Chiralities_Consistent>
1

> <s_lp_Variant>
AV-unprocessed.smi:914-3

> <Gold.Version>
5.8.1

> <Gold.Id.Protein>
6NUR|6NUR_protein|mol2

> <Gold.PLP.Fitness>
42.2541

> <Gold.PLP.PLP>
-36.4284

> <Gold.PLP.part.hbond>
-2.8261

> <Gold.PLP.part.metal>
0.0000

> <Gold.PLP.part.buried>
-5.1686

> <Gold.PLP.part.nonpolar>
-28.6269

> <Gold.PLP.part.repulsive>
0.1265

> <Gold.PLP.ligand.clash>
0.0000

> <Gold.PLP.ligand.torsion>
0.1050

> <Gold.PLP.Chemscore.Hbond>
2.0000

> <Gold.PLP.Chemscore.CHOScore>
0.0000

> <Gold.PLP.Chemscore.Metal>
0.0000

> <Gold.Chemscore.Hbonds>
donor molecule, donor type, donor heavy atom, donor atom, acceptor molecule, acceptor atom, score
      P1  H  7989  7998       L1     1  0.94
      P1  H 10752 10765       L1     5  0.93

> <Gold.PLP.Chemscore.Internal.Correction>
0.0357

> <Gold.Rescore>
     Score         DG    S(hbond)    S(metal)    S(lipo)     H(rot)  DE(clash)    DE(int)     intcor
     15.01     -16.58       1.97        0.00      83.96       2.07       0.00       1.56       ----

> <Gold.Chemscore.Fitness>
15.0113

> <Gold.Chemscore.DG>
-16.5761

> <Gold.Chemscore.ZeroCoef>
-5.4800

> <Gold.Chemscore.Hbond>
1.9660

> <Gold.Chemscore.Metal>
0.0000

> <Gold.Chemscore.Lipo>
83.9592

> <Gold.Chemscore.Internal_Hbond>
0.0000

> <Gold.Chemscore.DEClash>
0.0000

> <Gold.Chemscore.DEInternal>
1.5648

> <Gold.Chemscore.Rot>
2.0678

> <Gold.Chemscore.Internal.Correction>
   9.000000E+99

> <Gold.Chemscore.Hbonds>
donor molecule, donor type, donor heavy atom, donor atom, acceptor molecule, acceptor atom, score
      P1  H  7989  7998       L1     1  0.90
      P1  H 10752 10765       L1     5  0.81

> <Gold.Chemscore.Hbond.Weighted>
-6.5664

> <Gold.Chemscore.Metal.Weighted>
-0.0000

> <Gold.Chemscore.Lipo.Weighted>
-9.8232

> <Gold.Chemscore.Internal_Hbond.Weighted>
0.0000

> <Gold.Chemscore.DEClash.Weighted>
0.0000

> <Gold.Chemscore.DEInternal.Weighted>
1.5648

> <Gold.Chemscore.Rot.Weighted>
5.2935

> <Gold.Chemscore.Internal.Correction.Weighted>
   9.000000E+99

> <Gold.Protein.RotatedTorsions>
[ 6907 6896 6895 6894 ] final  -49.35 input  -60.11 | X-H torsion
[ 7974 7965 7964 7962 ] final   87.76 input  175.53 | X-H torsion
[ 8008 7997 7996 7995 ] final   81.33 input   59.86 | X-H torsion
[ 10167 10162 10161 10158 ] final    9.86 input  -65.29 | X-H torsion
[ 10718 10713 10712 10709 ] final -179.17 input   66.30 | X-H torsion
[ 10763 10752 10751 10750 ] final -113.70 input  -60.55 | X-H torsion
[ 11005 11000 10999 10996 ] final   42.28 input  -57.11 | X-H torsion

> <Gold.Protein.ActiveResidues>
 VAL166  LYS551  ARG553  GLY616  TRP617  ASP618  TYR619  PRO620  LYS621  CYS622 
 ASP623  PHE694  ASN695  SER759  ASP760  ASP761  ALA762  ILE779  LEU786  VAL792 
 PHE793  MET794  SER795  GLU796  ALA797  LYS798  CYS799  TRP800  GLU811  SER814 

> <Gold.Protein.RotatedAtoms>
  150.8814  134.8206  159.7227 H   0  0  0  0  0  0  0  0  0  0  0  0  # atno 6907 bound_to 6896
  152.4780  134.4790  159.9669 H   0  0  0  0  0  0  0  0  0  0  0  0  # atno 6908 bound_to 6896
  151.4864  133.3496  159.2882 H   0  0  0  0  0  0  0  0  0  0  0  0  # atno 6909 bound_to 6896
  145.5547  139.2298  143.2493 H   0  0  0  0  0  0  0  0  0  0  0  0  # atno 7974 bound_to 7965
  155.8957  140.3436  155.5989 H   0  0  0  0  0  0  0  0  0  0  0  0  # atno 8008 bound_to 7997
  155.7559  140.0826  157.2198 H   0  0  0  0  0  0  0  0  0  0  0  0  # atno 8009 bound_to 7997
  154.4038  140.1545  156.2764 H   0  0  0  0  0  0  0  0  0  0  0  0  # atno 8010 bound_to 7997
  140.6229  143.8164  150.7198 H   0  0  0  0  0  0  0  0  0  0  0  0  # atno 10167 bound_to 10162
  156.8552  130.9733  151.3088 H   0  0  0  0  0  0  0  0  0  0  0  0  # atno 10718 bound_to 10713
  154.8408  135.4445  154.1390 H   0  0  0  0  0  0  0  0  0  0  0  0  # atno 10763 bound_to 10752
  153.2580  135.6933  153.7614 H   0  0  0  0  0  0  0  0  0  0  0  0  # atno 10764 bound_to 10752
  153.6902  135.3388  155.3175 H   0  0  0  0  0  0  0  0  0  0  0  0  # atno 10765 bound_to 10752
  140.1754  134.4169  155.8231 H   0  0  0  0  0  0  0  0  0  0  0  0  # atno 11005 bound_to 11000
  146.1893  140.6370  142.9153 LP  0  0  0  0  0  0  0  0  0  0  0  0  # atno 17320 bound_to 7965
  144.7512  140.5196  143.6800 LP  0  0  0  0  0  0  0  0  0  0  0  0  # atno 17321 bound_to 7965
  140.1758  143.4156  152.1968 LP  0  0  0  0  0  0  0  0  0  0  0  0  # atno 17342 bound_to 10162
  139.5455  144.7294  151.4598 LP  0  0  0  0  0  0  0  0  0  0  0  0  # atno 17343 bound_to 10162
  157.6281  130.8707  149.9225 LP  0  0  0  0  0  0  0  0  0  0  0  0  # atno 17370 bound_to 10713
  156.0806  130.3673  150.0587 LP  0  0  0  0  0  0  0  0  0  0  0  0  # atno 17371 bound_to 10713
  141.2220  133.6975  156.7838 LP  0  0  0  0  0  0  0  0  0  0  0  0  # atno 17394 bound_to 11000
  140.2328  134.8672  157.3494 LP  0  0  0  0  0  0  0  0  0  0  0  0  # atno 17395 bound_to 11000

$$$$
