AV-unprocessed.smi:1206|AV-procd|sdf|5047|dock7
  -GOLD-   22720 4 73D 1   1.00000     0.00000
 Structure written by MMmdl.
 41 42  0  0  0  0  0  0  0  0  2 V2000
  144.6403  138.7000  154.9159 C   0  0  0  0  0  0  0  0  0  0  0  0
  145.1009  138.4269  153.5303 N   0  3  0  0  0  0  0  0  0  0  0  0
  146.4082  139.0925  153.2880 C   0  0  0  0  0  0  0  0  0  0  0  0
  145.0037  136.9956  153.0523 C   0  0  0  0  0  0  0  0  0  0  0  0
  145.7658  136.0864  154.0710 C   0  0  0  0  0  0  0  0  0  0  0  0
  147.2218  136.2129  153.9945 N   0  0  0  0  0  0  0  0  0  0  0  0
  148.0532  136.3918  155.0307 C   0  0  0  0  0  0  0  0  0  0  0  0
  147.6706  136.4949  156.1954 O   0  0  0  0  0  0  0  0  0  0  0  0
  149.3308  136.4550  154.6237 N   0  0  0  0  0  0  0  0  0  0  0  0
  150.4892  136.6495  155.4171 C   0  0  0  0  0  0  0  0  0  0  0  0
  151.6396  136.9234  154.7912 N   0  0  0  0  0  0  0  0  0  0  0  0
  152.6910  137.0900  155.6842 N   0  0  0  0  0  0  0  0  0  0  0  0
  152.2919  136.9338  156.9501 C   0  0  0  0  0  0  0  0  0  0  0  0
  150.5903  136.5702  157.1785 S   0  0  0  0  0  0  0  0  0  0  0  0
  143.5137  136.5467  152.9517 C   0  0  0  0  0  0  0  0  0  0  0  0
  143.3168  135.1510  152.3267 C   0  0  0  0  0  0  0  0  0  0  0  0
  143.9940  135.0360  150.9548 C   0  0  0  0  0  0  0  0  0  0  0  0
  145.4773  135.4199  151.0331 C   0  0  0  0  0  0  0  0  0  0  0  0
  145.6446  136.8268  151.6338 C   0  0  0  0  0  0  0  0  0  0  0  0
  145.1731  138.0849  155.6417 H   0  0  0  0  0  0  0  0  0  0  0  0
  143.5692  138.5313  155.0249 H   0  0  0  0  0  0  0  0  0  0  0  0
  144.8079  139.7449  155.1796 H   0  0  0  0  0  0  0  0  0  0  0  0
  147.1721  138.7337  153.9787 H   0  0  0  0  0  0  0  0  0  0  0  0
  146.3123  140.1684  153.4367 H   0  0  0  0  0  0  0  0  0  0  0  0
  146.7729  138.9495  152.2726 H   0  0  0  0  0  0  0  0  0  0  0  0
  145.4279  136.2613  155.0923 H   0  0  0  0  0  0  0  0  0  0  0  0
  145.5458  135.0347  153.9004 H   0  0  0  0  0  0  0  0  0  0  0  0
  147.6296  136.1368  153.0737 H   0  0  0  0  0  0  0  0  0  0  0  0
  149.4977  136.3561  153.6329 H   0  0  0  0  0  0  0  0  0  0  0  0
  153.0049  137.0341  157.7553 H   0  0  0  0  0  0  0  0  0  0  0  0
  143.0439  136.5406  153.9355 H   0  0  0  0  0  0  0  0  0  0  0  0
  142.9546  137.2685  152.3551 H   0  0  0  0  0  0  0  0  0  0  0  0
  143.7030  134.3800  152.9930 H   0  0  0  0  0  0  0  0  0  0  0  0
  142.2508  134.9460  152.2237 H   0  0  0  0  0  0  0  0  0  0  0  0
  143.8902  134.0208  150.5706 H   0  0  0  0  0  0  0  0  0  0  0  0
  143.4856  135.6884  150.2435 H   0  0  0  0  0  0  0  0  0  0  0  0
  146.0306  134.6799  151.6107 H   0  0  0  0  0  0  0  0  0  0  0  0
  145.9097  135.3983  150.0323 H   0  0  0  0  0  0  0  0  0  0  0  0
  145.1746  137.5006  150.9179 H   0  0  0  0  0  0  0  0  0  0  0  0
  146.7012  137.0964  151.6486 H   0  0  0  0  0  0  0  0  0  0  0  0
  144.4462  138.9276  152.9463 H   0  0  0  0  0  0  0  0  0  0  0  0
  1  2  1  0  0  0  0
  1 20  1  0  0  0  0
  1 21  1  0  0  0  0
  1 22  1  0  0  0  0
  2  3  1  0  0  0  0
  2  4  1  0  0  0  0
  2 41  1  0  0  0  0
  3 23  1  0  0  0  0
  3 24  1  0  0  0  0
  3 25  1  0  0  0  0
  4 19  1  0  0  0  0
  4  5  1  0  0  0  0
  4 15  1  0  0  0  0
  5  6  1  0  0  0  0
  5 26  1  0  0  0  0
  5 27  1  0  0  0  0
  6  7  1  0  0  0  0
  6 28  1  0  0  0  0
  7  8  2  0  0  0  0
  7  9  1  0  0  0  0
  9 10  1  0  0  0  0
  9 29  1  0  0  0  0
 10 14  1  0  0  0  0
 10 11  2  0  0  0  0
 11 12  1  0  0  0  0
 12 13  2  0  0  0  0
 13 14  1  0  0  0  0
 13 30  1  0  0  0  0
 15 16  1  0  0  0  0
 15 31  1  0  0  0  0
 15 32  1  0  0  0  0
 16 17  1  0  0  0  0
 16 33  1  0  0  0  0
 16 34  1  0  0  0  0
 17 18  1  0  0  0  0
 17 35  1  0  0  0  0
 17 36  1  0  0  0  0
 18 19  1  0  0  0  0
 18 37  1  0  0  0  0
 18 38  1  0  0  0  0
 19 39  1  0  0  0  0
 19 40  1  0  0  0  0
M  CHG  1   2   1
M  END
> <s_m_source_file>
AV-unprocessed.smi

> <i_m_source_file_index>
1206

> <i_lp_mmshare_version>
43012

> <i_f3d_flags>
0

> <s_epik_input>
W0NIMl0xW0NIMl1bQ0gyXVtDSDJdW0NIMl1DMShOKFtDSDNdKVtDSDNdKVtDSDJdW05IXUMoPU8pW05IXWMybm5bY0hdczI=

> <s_epik_cmdline>
J2VwaWtfcHl0aG9uJywgJy1waCcsICc3LjAnLCAnLXRuJywgJzgnLCAnLW1hJywgJzIwMCcsICctbWV0YWxfYmluZGluZycsICctaW1hZScsICc8aW5maWxlLm1hZT4nLCAnLW9tYWUnLCAnPG91dGZpbGUubWFlPic=

> <r_lp_tautomer_probability>
1

> <r_epik_Ionization_Penalty>
0.00322257

> <r_epik_Ionization_Penalty_Charging>
0.00246239

> <r_epik_Ionization_Penalty_Neutral>
0.000760187

> <r_epik_State_Penalty>
-0

> <r_epik_Charging_Adjusted_Penalty>
0.00246239

> <i_epik_Tot_Q>
1

> <i_epik_Tot_abs_Q>
1

> <r_epik_Metal_State_Penalty>
0.262153

> <b_epik_Metal_Only>
0

> <s_lp_Force_Field>
OPLS_2005

> <r_lp_Energy>
30.8997

> <b_lp_Chiralities_Consistent>
1

> <s_lp_Variant>
AV-unprocessed.smi:1206-1

> <Gold.Version>
5.8.1

> <Gold.Id.Protein>
6NUR|6NUR_protein|mol2

> <Gold.PLP.Fitness>
34.4465

> <Gold.PLP.PLP>
-21.5285

> <Gold.PLP.part.hbond>
-4.6152

> <Gold.PLP.part.metal>
0.0000

> <Gold.PLP.part.buried>
-2.4201

> <Gold.PLP.part.nonpolar>
-16.1619

> <Gold.PLP.part.repulsive>
0.1733

> <Gold.PLP.ligand.clash>
0.0000

> <Gold.PLP.ligand.torsion>
0.4514

> <Gold.PLP.Chemscore.Hbond>
4.5712

> <Gold.PLP.Chemscore.CHOScore>
0.0000

> <Gold.PLP.Chemscore.Metal>
0.0000

> <Gold.Chemscore.Hbonds>
donor molecule, donor type, donor heavy atom, donor atom, acceptor molecule, acceptor atom, score
      L1  H     2    41       P1 10175  2.00
      L1  H     6    28       P1  7948  1.00
      L1  H     9    29       P1  7948  1.00
      P1  H 10752 10764       L1    12  0.31

> <Gold.PLP.Chemscore.Internal.Correction>
0.1071

> <Gold.Rescore>
     Score         DG    S(hbond)    S(metal)    S(lipo)     H(rot)  DE(clash)    DE(int)     intcor
     16.02     -17.12       3.16        0.00      45.76       1.66       0.43       0.67       ----

> <Gold.Chemscore.Fitness>
16.0223

> <Gold.Chemscore.DG>
-17.1246

> <Gold.Chemscore.ZeroCoef>
-5.4800

> <Gold.Chemscore.Hbond>
3.1574

> <Gold.Chemscore.Metal>
0.0000

> <Gold.Chemscore.Lipo>
45.7579

> <Gold.Chemscore.Internal_Hbond>
0.0000

> <Gold.Chemscore.DEClash>
0.4282

> <Gold.Chemscore.DEInternal>
0.6741

> <Gold.Chemscore.Rot>
1.6621

> <Gold.Chemscore.Internal.Correction>
   9.000000E+99

> <Gold.Chemscore.Hbonds>
donor molecule, donor type, donor heavy atom, donor atom, acceptor molecule, acceptor atom, score
      L1  H     2    41       P1 10175  0.94
      L1  H     6    28       P1  7948  0.99
      L1  H     9    29       P1  7948  0.69
      P1  H 10752 10764       L1    12  0.02

> <Gold.Chemscore.Hbond.Weighted>
-10.5458

> <Gold.Chemscore.Metal.Weighted>
-0.0000

> <Gold.Chemscore.Lipo.Weighted>
-5.3537

> <Gold.Chemscore.Internal_Hbond.Weighted>
0.0000

> <Gold.Chemscore.DEClash.Weighted>
0.4282

> <Gold.Chemscore.DEInternal.Weighted>
0.6741

> <Gold.Chemscore.Rot.Weighted>
4.2549

> <Gold.Chemscore.Internal.Correction.Weighted>
   9.000000E+99

> <Gold.Protein.RotatedTorsions>
[ 6907 6896 6895 6894 ] final  149.88 input  -60.11 | X-H torsion
[ 7974 7965 7964 7962 ] final  134.04 input  175.53 | X-H torsion
[ 8008 7997 7996 7995 ] final -131.67 input   59.86 | X-H torsion
[ 10167 10162 10161 10158 ] final  122.96 input  -65.29 | X-H torsion
[ 10718 10713 10712 10709 ] final   36.19 input   66.30 | X-H torsion
[ 10763 10752 10751 10750 ] final   -3.42 input  -60.55 | X-H torsion
[ 11005 11000 10999 10996 ] final  -69.45 input  -57.11 | X-H torsion

> <Gold.Protein.ActiveResidues>
 VAL166  LYS551  ARG553  GLY616  TRP617  ASP618  TYR619  PRO620  LYS621  CYS622 
 ASP623  PHE694  ASN695  SER759  ASP760  ASP761  ALA762  ILE779  LEU786  VAL792 
 PHE793  MET794  SER795  GLU796  ALA797  LYS798  CYS799  TRP800  GLU811  SER814 

> <Gold.Protein.RotatedAtoms>
  152.1220  133.4358  159.4679 H   0  0  0  0  0  0  0  0  0  0  0  0  # atno 6907 bound_to 6896
  150.6872  134.2524  159.4525 H   0  0  0  0  0  0  0  0  0  0  0  0  # atno 6908 bound_to 6896
  152.0401  134.9716  160.0624 H   0  0  0  0  0  0  0  0  0  0  0  0  # atno 6909 bound_to 6896
  144.9804  139.4510  143.5389 H   0  0  0  0  0  0  0  0  0  0  0  0  # atno 7974 bound_to 7965
  155.3161  140.0460  157.3037 H   0  0  0  0  0  0  0  0  0  0  0  0  # atno 8008 bound_to 7997
  154.5406  140.2286  155.8614 H   0  0  0  0  0  0  0  0  0  0  0  0  # atno 8009 bound_to 7997
  156.1877  140.3058  155.9277 H   0  0  0  0  0  0  0  0  0  0  0  0  # atno 8010 bound_to 7997
  139.5827  144.6993  151.3486 H   0  0  0  0  0  0  0  0  0  0  0  0  # atno 10167 bound_to 10162
  157.3319  130.7502  149.6853 H   0  0  0  0  0  0  0  0  0  0  0  0  # atno 10718 bound_to 10713
  153.3711  135.6994  153.6637 H   0  0  0  0  0  0  0  0  0  0  0  0  # atno 10763 bound_to 10752
  153.5287  135.3597  155.2666 H   0  0  0  0  0  0  0  0  0  0  0  0  # atno 10764 bound_to 10752
  154.8681  135.4175  154.2989 H   0  0  0  0  0  0  0  0  0  0  0  0  # atno 10765 bound_to 10752
  141.1554  133.6765  156.6602 H   0  0  0  0  0  0  0  0  0  0  0  0  # atno 11005 bound_to 11000
  146.3406  139.9073  142.8785 LP  0  0  0  0  0  0  0  0  0  0  0  0  # atno 17320 bound_to 7965
  145.2429  141.0016  143.3925 LP  0  0  0  0  0  0  0  0  0  0  0  0  # atno 17321 bound_to 7965
  140.7104  143.7406  150.7556 LP  0  0  0  0  0  0  0  0  0  0  0  0  # atno 17342 bound_to 10162
  140.0943  143.4848  152.2461 LP  0  0  0  0  0  0  0  0  0  0  0  0  # atno 17343 bound_to 10162
  155.9697  130.4193  150.4367 LP  0  0  0  0  0  0  0  0  0  0  0  0  # atno 17370 bound_to 10713
  157.2401  131.0523  151.2442 LP  0  0  0  0  0  0  0  0  0  0  0  0  # atno 17371 bound_to 10713
  140.3253  134.7974  157.4284 LP  0  0  0  0  0  0  0  0  0  0  0  0  # atno 17394 bound_to 11000
  140.1062  134.5406  155.8307 LP  0  0  0  0  0  0  0  0  0  0  0  0  # atno 17395 bound_to 11000

$$$$
