AV-unprocessed.smi:3056|AV-procd|sdf|11645|dock9
  -GOLD-   2272017 43D 1   1.00000     0.00000
 Structure written by MMmdl.
 48 49  0  0  0  0  0  0  0  0  2 V2000
  150.6821  142.5425  158.5454 C   0  0  0  0  0  0  0  0  0  0  0  0
  150.5309  141.8418  157.2258 C   0  0  0  0  0  0  0  0  0  0  0  0
  151.4866  141.0330  156.5493 C   0  0  0  0  0  0  0  0  0  0  0  0
  151.0342  140.5563  155.4011 N   0  0  0  0  0  0  0  0  0  0  0  0
  149.7828  141.0537  155.2903 N   0  0  0  0  0  0  0  0  0  0  0  0
  148.9746  140.6946  154.1276 C   0  0  2  0  0  0  0  0  0  0  0  0
  147.7238  141.5854  154.0114 C   0  0  0  0  0  0  0  0  0  0  0  0
  148.6267  139.1800  154.0892 C   0  0  2  0  0  0  0  0  0  0  0  0
  149.7845  138.2665  154.5302 C   0  0  0  0  0  0  0  0  0  0  0  0
  148.1817  138.7671  152.7359 N   0  3  0  0  0  0  0  0  0  0  0  0
  146.7162  138.6789  152.5326 C   0  0  0  0  0  0  0  0  0  0  0  0
  146.3111  137.6957  151.4200 C   0  0  0  0  0  0  0  0  0  0  0  0
  146.6118  137.9614  150.2547 O   0  0  0  0  0  0  0  0  0  0  0  0
  145.6337  136.5706  151.7519 N   0  0  0  0  0  0  0  0  0  0  0  0
  145.2515  136.1592  153.1062 C   0  0  0  0  0  0  0  0  0  0  0  0
  145.9829  134.8466  153.4377 C   0  0  0  0  0  0  0  0  0  0  0  0
  145.6547  133.8568  152.4657 O   0  0  0  0  0  0  0  0  0  0  0  0
  145.9936  134.2364  151.1328 C   0  0  1  0  0  0  0  0  0  0  0  0
  145.6183  133.0834  150.1956 C   0  0  0  0  0  0  0  0  0  0  0  0
  145.2555  135.5431  150.7771 C   0  0  0  0  0  0  0  0  0  0  0  0
  149.4506  141.8222  156.3903 C   0  0  0  0  0  0  0  0  0  0  0  0
  151.7154  142.5351  158.8934 H   0  0  0  0  0  0  0  0  0  0  0  0
  150.0778  142.0730  159.3215 H   0  0  0  0  0  0  0  0  0  0  0  0
  150.3733  143.5863  158.4843 H   0  0  0  0  0  0  0  0  0  0  0  0
  152.4889  140.7762  156.8596 H   0  0  0  0  0  0  0  0  0  0  0  0
  149.5736  140.9317  153.2474 H   0  0  0  0  0  0  0  0  0  0  0  0
  147.1855  141.3816  153.0856 H   0  0  0  0  0  0  0  0  0  0  0  0
  147.9953  142.6415  154.0032 H   0  0  0  0  0  0  0  0  0  0  0  0
  147.0272  141.4299  154.8349 H   0  0  0  0  0  0  0  0  0  0  0  0
  147.8012  139.0011  154.7796 H   0  0  0  0  0  0  0  0  0  0  0  0
  150.1347  138.5179  155.5310 H   0  0  0  0  0  0  0  0  0  0  0  0
  150.6358  138.3300  153.8520 H   0  0  0  0  0  0  0  0  0  0  0  0
  149.4660  137.2239  154.5533 H   0  0  0  0  0  0  0  0  0  0  0  0
  148.5659  139.4263  152.0734 H   0  0  0  0  0  0  0  0  0  0  0  0
  146.2226  138.4185  153.4687 H   0  0  0  0  0  0  0  0  0  0  0  0
  146.3689  139.6727  152.2483 H   0  0  0  0  0  0  0  0  0  0  0  0
  145.4660  136.9020  153.8724 H   0  0  0  0  0  0  0  0  0  0  0  0
  144.1724  136.0028  153.1406 H   0  0  0  0  0  0  0  0  0  0  0  0
  147.0630  134.9987  153.4664 H   0  0  0  0  0  0  0  0  0  0  0  0
  145.6840  134.4860  154.4221 H   0  0  0  0  0  0  0  0  0  0  0  0
  147.0718  134.3963  151.0732 H   0  0  0  0  0  0  0  0  0  0  0  0
  145.8783  133.3169  149.1629 H   0  0  0  0  0  0  0  0  0  0  0  0
  144.5487  132.8752  150.2333 H   0  0  0  0  0  0  0  0  0  0  0  0
  146.1452  132.1699  150.4723 H   0  0  0  0  0  0  0  0  0  0  0  0
  144.1753  135.3923  150.8130 H   0  0  0  0  0  0  0  0  0  0  0  0
  145.4860  135.8289  149.7500 H   0  0  0  0  0  0  0  0  0  0  0  0
  148.4828  142.2902  156.4929 H   0  0  0  0  0  0  0  0  0  0  0  0
  148.5655  137.8536  152.5391 H   0  0  0  0  0  0  0  0  0  0  0  0
  1  2  1  0  0  0  0
  1 22  1  0  0  0  0
  1 23  1  0  0  0  0
  1 24  1  0  0  0  0
  2 21  2  0  0  0  0
  2  3  1  0  0  0  0
  3  4  2  0  0  0  0
  3 25  1  0  0  0  0
  4  5  1  0  0  0  0
  5  6  1  0  0  0  0
  5 21  1  0  0  0  0
  6  7  1  0  0  0  0
  6  8  1  0  0  0  0
  6 26  1  0  0  0  0
  7 27  1  0  0  0  0
  7 28  1  0  0  0  0
  7 29  1  0  0  0  0
  8  9  1  0  0  0  0
  8 10  1  0  0  0  0
  8 30  1  0  0  0  0
  9 31  1  0  0  0  0
  9 32  1  0  0  0  0
  9 33  1  0  0  0  0
 10 11  1  0  0  0  0
 10 34  1  0  0  0  0
 10 48  1  0  0  0  0
 11 12  1  0  0  0  0
 11 35  1  0  0  0  0
 11 36  1  0  0  0  0
 12 13  2  0  0  0  0
 12 14  1  0  0  0  0
 14 20  1  0  0  0  0
 14 15  1  0  0  0  0
 15 16  1  0  0  0  0
 15 37  1  0  0  0  0
 15 38  1  0  0  0  0
 16 17  1  0  0  0  0
 16 39  1  0  0  0  0
 16 40  1  0  0  0  0
 17 18  1  0  0  0  0
 18 19  1  0  0  0  0
 18 20  1  0  0  0  0
 18 41  1  0  0  0  0
 19 42  1  0  0  0  0
 19 43  1  0  0  0  0
 19 44  1  0  0  0  0
 20 45  1  0  0  0  0
 20 46  1  0  0  0  0
 21 47  1  0  0  0  0
M  CHG  1  10   1
M  END
> <s_m_source_file>
AV-unprocessed.smi

> <i_m_source_file_index>
3056

> <i_lp_mmshare_version>
43012

> <i_f3d_flags>
0

> <s_epik_input>
W0NIM11jMVtjSF1ubihbY0hdMSlbQ0BIXShbQ0gzXSlbQ0BIXShbQ0gzXSlbTkhdW0NIMl1DKD1PKU4yW0NIMl1bQ0gyXU9bQ0BASF0oW0NIM10pW0NIMl0y

> <s_epik_cmdline>
J2VwaWtfcHl0aG9uJywgJy1waCcsICc3LjAnLCAnLXRuJywgJzgnLCAnLW1hJywgJzIwMCcsICctbWV0YWxfYmluZGluZycsICctaW1hZScsICc8aW5maWxlLm1hZT4nLCAnLW9tYWUnLCAnPG91dGZpbGUubWFlPic=

> <r_lp_tautomer_probability>
1

> <r_epik_Ionization_Penalty>
0.233715

> <r_epik_Ionization_Penalty_Charging>
0.233698

> <r_epik_Ionization_Penalty_Neutral>
1.68157e-05

> <r_epik_State_Penalty>
0.225221

> <r_epik_Charging_Adjusted_Penalty>
0.458919

> <i_epik_Tot_Q>
1

> <i_epik_Tot_abs_Q>
1

> <r_epik_Metal_State_Penalty>
0.225535

> <b_epik_Metal_Only>
0

> <s_lp_Force_Field>
OPLS_2005

> <r_lp_Energy>
27.9094

> <b_lp_Chiralities_Consistent>
1

> <s_lp_Variant>
AV-unprocessed.smi:3056-1

> <Gold.Version>
5.8.1

> <Gold.Id.Protein>
6NUR|6NUR_protein|mol2

> <Gold.PLP.Fitness>
50.4911

> <Gold.PLP.PLP>
-37.4209

> <Gold.PLP.part.hbond>
-3.8718

> <Gold.PLP.part.metal>
0.0000

> <Gold.PLP.part.buried>
-1.5503

> <Gold.PLP.part.nonpolar>
-34.8972

> <Gold.PLP.part.repulsive>
2.9154

> <Gold.PLP.ligand.clash>
0.0000

> <Gold.PLP.ligand.torsion>
1.2441

> <Gold.PLP.Chemscore.Hbond>
4.6832

> <Gold.PLP.Chemscore.CHOScore>
0.4602

> <Gold.PLP.Chemscore.Metal>
0.0000

> <Gold.Chemscore.Hbonds>
donor molecule, donor type, donor heavy atom, donor atom, acceptor molecule, acceptor atom, score
      L1  H    10    34       P1  7957  0.93
      L1  H    10    48       P1  7948  2.00
      P1  H  7954  7966       L1    13  0.80
      P1  H  7989  7998       L1     4  0.82
      L1  C    21    47       P1  8028  0.41

> <Gold.PLP.Chemscore.Internal.Correction>
0.1281

> <Gold.Rescore>
     Score         DG    S(hbond)    S(metal)    S(lipo)     H(rot)  DE(clash)    DE(int)     intcor
     16.16     -20.06       2.91        0.00      79.39       1.74       1.29       2.60       ----

> <Gold.Chemscore.Fitness>
16.1625

> <Gold.Chemscore.DG>
-20.0578

> <Gold.Chemscore.ZeroCoef>
-5.4800

> <Gold.Chemscore.Hbond>
2.9136

> <Gold.Chemscore.Metal>
0.0000

> <Gold.Chemscore.Lipo>
79.3918

> <Gold.Chemscore.Internal_Hbond>
0.0000

> <Gold.Chemscore.DEClash>
1.2949

> <Gold.Chemscore.DEInternal>
2.6005

> <Gold.Chemscore.Rot>
1.7354

> <Gold.Chemscore.Internal.Correction>
   9.000000E+99

> <Gold.Chemscore.Hbonds>
donor molecule, donor type, donor heavy atom, donor atom, acceptor molecule, acceptor atom, score
      L1  H    10    34       P1  7957  0.88
      L1  H    10    48       P1  7948  1.00
      P1  H  7954  7966       L1    13  0.73
      P1  H  7989  7998       L1     4  0.15

> <Gold.Chemscore.Hbond.Weighted>
-9.7315

> <Gold.Chemscore.Metal.Weighted>
-0.0000

> <Gold.Chemscore.Lipo.Weighted>
-9.2888

> <Gold.Chemscore.Internal_Hbond.Weighted>
0.0000

> <Gold.Chemscore.DEClash.Weighted>
1.2949

> <Gold.Chemscore.DEInternal.Weighted>
2.6005

> <Gold.Chemscore.Rot.Weighted>
4.4426

> <Gold.Chemscore.Internal.Correction.Weighted>
   9.000000E+99

> <Gold.Protein.RotatedTorsions>
[ 6907 6896 6895 6894 ] final  129.24 input  -60.11 | X-H torsion
[ 7974 7965 7964 7962 ] final   98.07 input  175.53 | X-H torsion
[ 8008 7997 7996 7995 ] final  151.71 input   59.86 | X-H torsion
[ 10167 10162 10161 10158 ] final -120.67 input  -65.29 | X-H torsion
[ 10718 10713 10712 10709 ] final -161.25 input   66.30 | X-H torsion
[ 10763 10752 10751 10750 ] final -135.58 input  -60.55 | X-H torsion
[ 11005 11000 10999 10996 ] final -157.27 input  -57.11 | X-H torsion

> <Gold.Protein.ActiveResidues>
 VAL166  LYS551  ARG553  GLY616  TRP617  ASP618  TYR619  PRO620  LYS621  CYS622 
 ASP623  PHE694  ASN695  SER759  ASP760  ASP761  ALA762  ILE779  LEU786  VAL792 
 PHE793  MET794  SER795  GLU796  ALA797  LYS798  CYS799  TRP800  GLU811  SER814 

> <Gold.Protein.RotatedAtoms>
  152.3642  133.6336  159.6037 H   0  0  0  0  0  0  0  0  0  0  0  0  # atno 6907 bound_to 6896
  150.7622  133.9374  159.3454 H   0  0  0  0  0  0  0  0  0  0  0  0  # atno 6908 bound_to 6896
  151.7207  135.0896  160.0335 H   0  0  0  0  0  0  0  0  0  0  0  0  # atno 6909 bound_to 6896
  145.4171  139.2326  143.3216 H   0  0  0  0  0  0  0  0  0  0  0  0  # atno 7974 bound_to 7965
  156.2661  140.2040  156.6219 H   0  0  0  0  0  0  0  0  0  0  0  0  # atno 8008 bound_to 7997
  154.6750  140.0546  157.0230 H   0  0  0  0  0  0  0  0  0  0  0  0  # atno 8009 bound_to 7997
  155.1082  140.3213  155.4531 H   0  0  0  0  0  0  0  0  0  0  0  0  # atno 8010 bound_to 7997
  140.0333  143.5226  152.2166 H   0  0  0  0  0  0  0  0  0  0  0  0  # atno 10167 bound_to 10162
  156.5937  130.8781  151.2896 H   0  0  0  0  0  0  0  0  0  0  0  0  # atno 10718 bound_to 10713
  154.8700  135.3699  154.4921 H   0  0  0  0  0  0  0  0  0  0  0  0  # atno 10763 bound_to 10752
  153.5567  135.7024  153.5571 H   0  0  0  0  0  0  0  0  0  0  0  0  # atno 10764 bound_to 10752
  153.3665  135.4032  155.1721 H   0  0  0  0  0  0  0  0  0  0  0  0  # atno 10765 bound_to 10752
  140.6664  134.4294  157.5233 H   0  0  0  0  0  0  0  0  0  0  0  0  # atno 11005 bound_to 11000
  146.2675  140.4890  142.8828 LP  0  0  0  0  0  0  0  0  0  0  0  0  # atno 17320 bound_to 7965
  144.8270  140.6645  143.6316 LP  0  0  0  0  0  0  0  0  0  0  0  0  # atno 17321 bound_to 7965
  139.6062  144.7597  151.3057 LP  0  0  0  0  0  0  0  0  0  0  0  0  # atno 17342 bound_to 10162
  140.7292  143.6913  150.7920 LP  0  0  0  0  0  0  0  0  0  0  0  0  # atno 17343 bound_to 10162
  157.7297  130.9675  150.1800 LP  0  0  0  0  0  0  0  0  0  0  0  0  # atno 17370 bound_to 10713
  156.2528  130.3702  149.8214 LP  0  0  0  0  0  0  0  0  0  0  0  0  # atno 17371 bound_to 10713
  139.8996  134.8588  156.1955 LP  0  0  0  0  0  0  0  0  0  0  0  0  # atno 17394 bound_to 11000
  141.0425  133.6930  156.1624 LP  0  0  0  0  0  0  0  0  0  0  0  0  # atno 17395 bound_to 11000

$$$$
