#       Name:                AV-unprocessed.smi:1088
#       Creating user name   scv26
#       Creation time:       Fri Mar 27 03:26:56 2020


#       File generated by GOLD software.
#

@<TRIPOS>MOLECULE
AV-unprocessed.smi:1088
    56    57     1
SMALL
NO_CHARGES


@<TRIPOS>ATOM
      1 ****        -4.1455   2.2880   0.8839 C.3            1 S1                 0.0000
      2 ****        -3.5180   1.0526   0.5901 O.3            1 S1                 0.0000
      3 ****        -2.1088   1.1084   0.7419 C.3            1 S1                 0.0000
      4 ****        -1.4848  -0.2634   0.4405 C.3            1 S1                 0.0000
      5 ****        -1.6074  -1.2549   1.5120 N.3            1 S1                 0.0000
      6 ****        -2.9830  -1.6501   1.7650 C.3            1 S1                 0.0000
      7 ****        -2.9206  -2.9593   2.5532 C.3            1 S1                 0.0000
      8 ****        -1.5107  -3.4917   2.2723 C.3            1 S1                 0.0000
      9 ****        -0.9341  -2.5203   1.2325 C.3            1 S1                 0.0000
     10 ****         0.6080  -2.4834   1.2831 C.3            1 S1                 0.0000
     11 ****         1.1723  -2.0916  -0.0036 N.am           1 S1                 0.0000
     12 ****         2.1565  -1.1990  -0.1839 C.2            1 S1                 0.0000
     13 ****         2.7455  -0.6393   0.7415 O.2            1 S1                 0.0000
     14 ****         2.5371  -0.9044  -1.6405 C.3            1 S1                 0.0000
     15 ****         2.9253   0.4958  -1.8514 N.am           1 S1                 0.0000
     16 ****         4.2646   0.8322  -1.9254 C.2            1 S1                 0.0000
     17 ****         4.7062   2.0972  -2.0972 C.2            1 S1                 0.0000
     18 ****         3.7693   3.2074  -2.2200 C.2            1 S1                 0.0000
     19 ****         4.1291   4.3776  -2.3540 O.2            1 S1                 0.0000
     20 ****         2.4053   2.8337  -2.1591 N.am           1 S1                 0.0000
     21 ****         1.4022   3.8745  -2.2516 C.3            1 S1                 0.0000
     22 ****         1.9498   1.5105  -1.9628 C.2            1 S1                 0.0000
     23 ****         0.7490   1.2387  -1.8824 O.2            1 S1                 0.0000
     24 ****        -5.2225   2.1935   0.7452 H              1 S1                 0.0000
     25 ****        -3.7892   3.0795   0.2235 H              1 S1                 0.0000
     26 ****        -3.9644   2.5850   1.9175 H              1 S1                 0.0000
     27 ****        -1.7071   1.8449   0.0442 H              1 S1                 0.0000
     28 ****        -1.8379   1.4345   1.7474 H              1 S1                 0.0000
     29 ****        -1.8844  -0.6580  -0.4947 H              1 S1                 0.0000
     30 ****        -0.4280  -0.0785   0.2625 H              1 S1                 0.0000
     31 ****        -3.5297  -0.8778   2.3066 H              1 S1                 0.0000
     32 ****        -3.5010  -1.8245   0.8202 H              1 S1                 0.0000
     33 ****        -3.0553  -2.7809   3.6206 H              1 S1                 0.0000
     34 ****        -3.6951  -3.6538   2.2268 H              1 S1                 0.0000
     35 ****        -0.9223  -3.4680   3.1911 H              1 S1                 0.0000
     36 ****        -1.5192  -4.5199   1.9093 H              1 S1                 0.0000
     37 ****        -1.2502  -2.8812   0.2515 H              1 S1                 0.0000
     38 ****         0.9439  -1.8424   2.1002 H              1 S1                 0.0000
     39 ****         0.9926  -3.4811   1.4976 H              1 S1                 0.0000
     40 ****         0.7537  -2.5034  -0.8249 H              1 S1                 0.0000
     41 ****         3.3576  -1.5675  -1.9174 H              1 S1                 0.0000
     42 ****         1.7106  -1.1638  -2.3049 H              1 S1                 0.0000
     43 ****         4.9993   0.0455  -1.8344 H              1 S1                 0.0000
     44 ****         5.7679   2.2914  -2.1398 H              1 S1                 0.0000
     45 ****         0.5515   3.4957  -2.8207 H              1 S1                 0.0000
     46 ****         1.8033   4.7395  -2.7807 H              1 S1                 0.0000
     47 ****         1.1177   4.1312  -1.2301 H              1 S1                 0.0000
     48 ****        -3.7289   0.8027  -0.3549 LP             1 S1                 0.0000
     49 ****        -3.8795   0.3545   1.2081 LP             1 S1                 0.0000
     50 ****        -1.1919  -0.7775   2.2863 LP             1 S1                 0.0000
     51 ****         2.4966  -0.8428   1.6884 LP             1 S1                 0.0000
     52 ****         3.4727   0.0187   0.5460 LP             1 S1                 0.0000
     53 ****         5.1034   4.6010  -2.3827 LP             1 S1                 0.0000
     54 ****         3.4470   5.1044  -2.4342 LP             1 S1                 0.0000
     55 ****         0.4591   0.2928  -1.7371 LP             1 S1                 0.0000
     56 ****         0.0657   1.9644  -1.9626 LP             1 S1                 0.0000
@<TRIPOS>BOND
    1    1    2 1     
    2    1   24 1     
    3    1   25 1     
    4    1   26 1     
    5    2    3 1     
    6    3    4 1     
    7    3   27 1     
    8    3   28 1     
    9    4    5 1     
   10    4   29 1     
   11    4   30 1     
   12    5    9 1     
   13    5    6 1     
   14    6    7 1     
   15    6   31 1     
   16    6   32 1     
   17    7    8 1     
   18    7   33 1     
   19    7   34 1     
   20    8    9 1     
   21    8   35 1     
   22    8   36 1     
   23    9   10 1     
   24    9   37 1     
   25   10   11 1     
   26   10   38 1     
   27   10   39 1     
   28   11   12 am    
   29   11   40 1     
   30   12   13 2     
   31   12   14 1     
   32   14   15 1     
   33   14   41 1     
   34   14   42 1     
   35   15   22 am    
   36   15   16 1     
   37   16   17 2     
   38   16   43 1     
   39   17   18 1     
   40   17   44 1     
   41   18   19 2     
   42   18   20 am    
   43   20   21 1     
   44   20   22 am    
   45   21   45 1     
   46   21   46 1     
   47   21   47 1     
   48   22   23 2     
   49    2   48 1     
   50    2   49 1     
   51    5   50 1     
   52   13   51 1     
   53   13   52 1     
   54   19   53 1     
   55   19   54 1     
   56   23   55 1     
   57   23   56 1     
@<TRIPOS>SUBSTRUCTURE
      1 S1             1
@<TRIPOS>SET
LONE_PAIRS      STATIC     ATOMS    <user>   **** ""
9 48 49 50 51 52 53 54 55 56
DONOR_HYDROGENS      STATIC     ATOMS    <user>   **** ""
1 40
ATOM$BLUE        STATIC     ATOMS    COLORGROUP SYSTEM
9 48 49 50 51 52 53 54 55 56
ATOM$RED        STATIC     ATOMS    COLORGROUP SYSTEM
1 40
