AV-unprocessed.smi:1695|AV-procd|sdf|6789|dock5
  -GOLD-   22720 7553D 1   1.00000     0.00000
 Structure written by MMmdl.
 51 53  0  0  0  0  0  0  0  0  2 V2000
  152.5485  143.5178  161.3751 C   0  0  0  0  0  0  0  0  0  0  0  0
  152.0581  142.9998  160.0345 C   0  0  0  0  0  0  0  0  0  0  0  0
  152.5706  141.7791  159.5406 C   0  0  0  0  0  0  0  0  0  0  0  0
  152.1413  141.2630  158.2986 C   0  0  0  0  0  0  0  0  0  0  0  0
  152.5004  140.1026  157.6347 N   0  0  0  0  0  0  0  0  0  0  0  0
  151.7576  140.1816  156.5348 C   0  0  0  0  0  0  0  0  0  0  0  0
  150.9531  141.2545  156.4100 N   0  0  0  0  0  0  0  0  0  0  0  0
  150.0508  141.5431  155.3105 C   0  0  0  0  0  0  0  0  0  0  0  0
  149.3203  140.2845  154.8036 C   0  0  2  0  0  0  0  0  0  0  0  0
  150.1477  139.6641  153.8405 O   0  0  0  0  0  0  0  0  0  0  0  0
  147.9475  140.5831  154.1609 C   0  0  0  0  0  0  0  0  0  0  0  0
  147.2008  141.6455  154.8820 N   0  3  1  0  0  0  0  0  0  0  0  0
  146.1498  142.2886  154.0496 C   0  0  0  0  0  0  0  0  0  0  0  0
  145.4928  143.4679  154.7925 C   0  0  0  0  0  0  0  0  0  0  0  0
  144.9304  143.0802  156.1767 C   0  0  1  0  0  0  0  0  0  0  0  0
  143.6006  142.3080  156.0859 C   0  0  0  0  0  0  0  0  0  0  0  0
  143.1213  142.0684  154.8628 N   0  0  0  0  0  0  0  0  0  0  0  0
  143.0097  141.9317  157.0958 O   0  0  0  0  0  0  0  0  0  0  0  0
  146.0106  142.3183  156.9738 C   0  0  0  0  0  0  0  0  0  0  0  0
  146.6571  141.1675  156.1784 C   0  0  0  0  0  0  0  0  0  0  0  0
  151.1773  142.0077  157.5579 C   0  0  0  0  0  0  0  0  0  0  0  0
  150.6598  143.2236  158.0386 C   0  0  0  0  0  0  0  0  0  0  0  0
  151.0996  143.7246  159.2816 C   0  0  0  0  0  0  0  0  0  0  0  0
  150.5353  145.0383  159.7928 C   0  0  0  0  0  0  0  0  0  0  0  0
  153.2717  142.8369  161.8250 H   0  0  0  0  0  0  0  0  0  0  0  0
  151.7163  143.6283  162.0706 H   0  0  0  0  0  0  0  0  0  0  0  0
  153.0320  144.4876  161.2560 H   0  0  0  0  0  0  0  0  0  0  0  0
  153.3003  141.2264  160.1142 H   0  0  0  0  0  0  0  0  0  0  0  0
  151.7949  139.4117  155.7779 H   0  0  0  0  0  0  0  0  0  0  0  0
  149.3345  142.2986  155.6361 H   0  0  0  0  0  0  0  0  0  0  0  0
  150.6322  141.9932  154.5043 H   0  0  0  0  0  0  0  0  0  0  0  0
  149.2078  139.5951  155.6400 H   0  0  0  0  0  0  0  0  0  0  0  0
  149.6993  139.6671  153.0082 H   0  0  0  0  0  0  0  0  0  0  0  0
  148.0543  140.8847  153.1185 H   0  0  0  0  0  0  0  0  0  0  0  0
  147.3666  139.6594  154.1480 H   0  0  0  0  0  0  0  0  0  0  0  0
  146.5808  142.6615  153.1214 H   0  0  0  0  0  0  0  0  0  0  0  0
  145.4036  141.5478  153.7607 H   0  0  0  0  0  0  0  0  0  0  0  0
  146.2332  144.2585  154.9219 H   0  0  0  0  0  0  0  0  0  0  0  0
  144.7056  143.8988  154.1722 H   0  0  0  0  0  0  0  0  0  0  0  0
  144.7210  144.0065  156.7149 H   0  0  0  0  0  0  0  0  0  0  0  0
  142.2531  141.5657  154.7472 H   0  0  0  0  0  0  0  0  0  0  0  0
  143.6313  142.3920  154.0531 H   0  0  0  0  0  0  0  0  0  0  0  0
  146.7894  143.0219  157.2713 H   0  0  0  0  0  0  0  0  0  0  0  0
  145.5915  141.9308  157.9037 H   0  0  0  0  0  0  0  0  0  0  0  0
  145.9445  140.3610  156.0038 H   0  0  0  0  0  0  0  0  0  0  0  0
  147.4641  140.7413  156.7757 H   0  0  0  0  0  0  0  0  0  0  0  0
  149.9301  143.7666  157.4567 H   0  0  0  0  0  0  0  0  0  0  0  0
  149.8179  145.4638  159.0904 H   0  0  0  0  0  0  0  0  0  0  0  0
  151.3335  145.7666  159.9377 H   0  0  0  0  0  0  0  0  0  0  0  0
  150.0242  144.8902  160.7443 H   0  0  0  0  0  0  0  0  0  0  0  0
  147.8778  142.3604  155.1083 H   0  0  0  0  0  0  0  0  0  0  0  0
  1  2  1  0  0  0  0
  1 25  1  0  0  0  0
  1 26  1  0  0  0  0
  1 27  1  0  0  0  0
  2 23  1  0  0  0  0
  2  3  2  0  0  0  0
  3  4  1  0  0  0  0
  3 28  1  0  0  0  0
  4 21  2  0  0  0  0
  4  5  1  0  0  0  0
  5  6  2  0  0  0  0
  6  7  1  0  0  0  0
  6 29  1  0  0  0  0
  7  8  1  0  0  0  0
  7 21  1  0  0  0  0
  8  9  1  0  0  0  0
  8 30  1  0  0  0  0
  8 31  1  0  0  0  0
  9 10  1  0  0  0  0
  9 11  1  0  0  0  0
  9 32  1  0  0  0  0
 10 33  1  0  0  0  0
 11 12  1  0  0  0  0
 11 34  1  0  0  0  0
 11 35  1  0  0  0  0
 12 20  1  0  0  0  0
 12 13  1  0  0  0  0
 12 51  1  0  0  0  0
 13 14  1  0  0  0  0
 13 36  1  0  0  0  0
 13 37  1  0  0  0  0
 14 15  1  0  0  0  0
 14 38  1  0  0  0  0
 14 39  1  0  0  0  0
 15 16  1  0  0  0  0
 15 19  1  0  0  0  0
 15 40  1  0  0  0  0
 16 17  1  0  0  0  0
 16 18  2  0  0  0  0
 17 41  1  0  0  0  0
 17 42  1  0  0  0  0
 19 20  1  0  0  0  0
 19 43  1  0  0  0  0
 19 44  1  0  0  0  0
 20 45  1  0  0  0  0
 20 46  1  0  0  0  0
 21 22  1  0  0  0  0
 22 23  2  0  0  0  0
 22 47  1  0  0  0  0
 23 24  1  0  0  0  0
 24 48  1  0  0  0  0
 24 49  1  0  0  0  0
 24 50  1  0  0  0  0
M  CHG  1  12   1
M  END
> <s_m_source_file>
AV-unprocessed.smi

> <i_m_source_file_index>
1695

> <i_lp_mmshare_version>
43012

> <i_f3d_flags>
0

> <s_epik_input>
W0NIM11jKFtjSF0xKWMoW0NIM10pW2NIXWMoYzEyKW4oW2NIXW4yKVtDSDJdW0NASF0oW09IXSlbQ0gyXU4zW0NIMl1bQ0gyXVtDSF0oQyg9TylbTkgyXSlbQ0gyXVtDSDJdMw==

> <s_epik_cmdline>
J2VwaWtfcHl0aG9uJywgJy1waCcsICc3LjAnLCAnLXRuJywgJzgnLCAnLW1hJywgJzIwMCcsICctbWV0YWxfYmluZGluZycsICctaW1hZScsICc8aW5maWxlLm1hZT4nLCAnLW9tYWUnLCAnPG91dGZpbGUubWFlPic=

> <r_epik_Ionization_Penalty>
0.113899

> <r_epik_Ionization_Penalty_Charging>
0.0258844

> <r_epik_Ionization_Penalty_Neutral>
0.0880147

> <r_epik_State_Penalty>
0.0974403

> <r_epik_Charging_Adjusted_Penalty>
0.123325

> <i_epik_Tot_Q>
1

> <i_epik_Tot_abs_Q>
1

> <r_epik_Metal_State_Penalty>
0.0851148

> <b_epik_Metal_Only>
0

> <s_lp_Force_Field>
OPLS_2005

> <r_lp_Energy>
17.7393

> <b_lp_Chiralities_Consistent>
1

> <s_lp_Variant>
AV-unprocessed.smi:1695-1

> <Gold.Version>
5.8.1

> <Gold.Id.Protein>
6NUR|6NUR_protein|mol2

> <Gold.PLP.Fitness>
54.7835

> <Gold.PLP.PLP>
-47.4401

> <Gold.PLP.part.hbond>
-5.0000

> <Gold.PLP.part.metal>
0.0000

> <Gold.PLP.part.buried>
-6.4741

> <Gold.PLP.part.nonpolar>
-35.2979

> <Gold.PLP.part.repulsive>
0.0585

> <Gold.PLP.ligand.clash>
0.0000

> <Gold.PLP.ligand.torsion>
0.9605

> <Gold.PLP.Chemscore.Hbond>
3.0364

> <Gold.PLP.Chemscore.CHOScore>
0.0000

> <Gold.PLP.Chemscore.Metal>
0.0000

> <Gold.Chemscore.Hbonds>
donor molecule, donor type, donor heavy atom, donor atom, acceptor molecule, acceptor atom, score
      L1  H    10    33       P1  7957  1.00
      L1  H    17    42       P1 10174  0.13
      P1  H  7989  7998       L1    10  0.94
      P1  H  7997  8010       L1     5  0.81

> <Gold.PLP.Chemscore.Internal.Correction>
0.1552

> <Gold.Rescore>
     Score         DG    S(hbond)    S(metal)    S(lipo)     H(rot)  DE(clash)    DE(int)     intcor
     19.04     -20.16       2.57        0.00     114.28       2.85       0.29       0.83       ----

> <Gold.Chemscore.Fitness>
19.0439

> <Gold.Chemscore.DG>
-20.1615

> <Gold.Chemscore.ZeroCoef>
-5.4800

> <Gold.Chemscore.Hbond>
2.5739

> <Gold.Chemscore.Metal>
0.0000

> <Gold.Chemscore.Lipo>
114.2844

> <Gold.Chemscore.Internal_Hbond>
0.0000

> <Gold.Chemscore.DEClash>
0.2895

> <Gold.Chemscore.DEInternal>
0.8282

> <Gold.Chemscore.Rot>
2.8464

> <Gold.Chemscore.Internal.Correction>
   9.000000E+99

> <Gold.Chemscore.Hbonds>
donor molecule, donor type, donor heavy atom, donor atom, acceptor molecule, acceptor atom, score
      L1  H    10    33       P1  7957  0.96
      P1  H  7989  7998       L1    10  0.18
      P1  H  7997  8010       L1     5  0.19

> <Gold.Chemscore.Hbond.Weighted>
-8.5969

> <Gold.Chemscore.Metal.Weighted>
-0.0000

> <Gold.Chemscore.Lipo.Weighted>
-13.3713

> <Gold.Chemscore.Internal_Hbond.Weighted>
0.0000

> <Gold.Chemscore.DEClash.Weighted>
0.2895

> <Gold.Chemscore.DEInternal.Weighted>
0.8282

> <Gold.Chemscore.Rot.Weighted>
7.2867

> <Gold.Chemscore.Internal.Correction.Weighted>
   9.000000E+99

> <Gold.Protein.RotatedTorsions>
[ 6907 6896 6895 6894 ] final  147.14 input  -60.11 | X-H torsion
[ 7974 7965 7964 7962 ] final  109.92 input  175.53 | X-H torsion
[ 8008 7997 7996 7995 ] final   52.08 input   59.86 | X-H torsion
[ 10167 10162 10161 10158 ] final  -38.95 input  -65.29 | X-H torsion
[ 10718 10713 10712 10709 ] final  -15.87 input   66.30 | X-H torsion
[ 10763 10752 10751 10750 ] final -177.90 input  -60.55 | X-H torsion
[ 11005 11000 10999 10996 ] final -158.67 input  -57.11 | X-H torsion

> <Gold.Protein.ActiveResidues>
 VAL166  LYS551  ARG553  GLY616  TRP617  ASP618  TYR619  PRO620  LYS621  CYS622 
 ASP623  PHE694  ASN695  SER759  ASP760  ASP761  ALA762  ILE779  LEU786  VAL792 
 PHE793  MET794  SER795  GLU796  ALA797  LYS798  CYS799  TRP800  GLU811  SER814 

> <Gold.Protein.RotatedAtoms>
  152.1587  133.4568  159.4849 H   0  0  0  0  0  0  0  0  0  0  0  0  # atno 6907 bound_to 6896
  150.6904  134.2098  159.4364 H   0  0  0  0  0  0  0  0  0  0  0  0  # atno 6908 bound_to 6896
  151.9999  134.9933  160.0615 H   0  0  0  0  0  0  0  0  0  0  0  0  # atno 6909 bound_to 6896
  145.2616  139.2700  143.4014 H   0  0  0  0  0  0  0  0  0  0  0  0  # atno 7974 bound_to 7965
  155.4458  140.3456  155.4295 H   0  0  0  0  0  0  0  0  0  0  0  0  # atno 8008 bound_to 7997
  156.1250  140.1498  156.9179 H   0  0  0  0  0  0  0  0  0  0  0  0  # atno 8009 bound_to 7997
  154.4852  140.0857  156.7449 H   0  0  0  0  0  0  0  0  0  0  0  0  # atno 8010 bound_to 7997
  140.7078  143.3245  151.2713 H   0  0  0  0  0  0  0  0  0  0  0  0  # atno 10167 bound_to 10162
  156.5957  130.4810  149.6261 H   0  0  0  0  0  0  0  0  0  0  0  0  # atno 10718 bound_to 10713
  154.5544  135.2815  155.0979 H   0  0  0  0  0  0  0  0  0  0  0  0  # atno 10763 bound_to 10752
  154.2412  135.6356  153.5211 H   0  0  0  0  0  0  0  0  0  0  0  0  # atno 10764 bound_to 10752
  153.0011  135.5560  154.6119 H   0  0  0  0  0  0  0  0  0  0  0  0  # atno 10765 bound_to 10752
  140.6511  134.4450  157.5235 H   0  0  0  0  0  0  0  0  0  0  0  0  # atno 11005 bound_to 11000
  146.3273  140.3035  142.8622 LP  0  0  0  0  0  0  0  0  0  0  0  0  # atno 17320 bound_to 7965
  144.9413  140.8081  143.5628 LP  0  0  0  0  0  0  0  0  0  0  0  0  # atno 17321 bound_to 7965
  139.6709  144.0022  152.2752 LP  0  0  0  0  0  0  0  0  0  0  0  0  # atno 17342 bound_to 10162
  139.9620  144.6551  150.8070 LP  0  0  0  0  0  0  0  0  0  0  0  0  # atno 17343 bound_to 10162
  156.2512  130.6908  151.1646 LP  0  0  0  0  0  0  0  0  0  0  0  0  # atno 17370 bound_to 10713
  157.7292  131.0626  150.5783 LP  0  0  0  0  0  0  0  0  0  0  0  0  # atno 17371 bound_to 10713
  139.9045  134.8479  156.1759 LP  0  0  0  0  0  0  0  0  0  0  0  0  # atno 17394 bound_to 11000
  141.0536  133.6876  156.1818 LP  0  0  0  0  0  0  0  0  0  0  0  0  # atno 17395 bound_to 11000

$$$$
