AV-unprocessed.smi:3303|AV-procd|sdf|12676|dock7
  -GOLD-   2272019 13D 1   1.00000     0.00000
 Structure written by MMmdl.
 44 45  0  0  0  0  0  0  0  0  2 V2000
  143.4984  137.2612  153.4468 C   0  0  0  0  0  0  0  0  0  0  0  0
  144.1560  135.9079  153.1307 C   0  0  1  0  0  0  0  0  0  0  0  0
  144.0716  135.5559  151.6332 C   0  0  0  0  0  0  0  0  0  0  0  0
  144.5856  134.2072  151.3773 N   0  0  0  0  0  0  0  0  0  0  0  0
  144.3802  133.9289  149.9581 C   0  0  0  0  0  0  0  0  0  0  0  0
  146.0050  134.1013  151.7599 C   0  0  2  0  0  0  0  0  0  0  0  0
  146.5732  132.6948  151.4828 C   0  0  0  0  0  0  0  0  0  0  0  0
  146.1675  134.4309  153.2625 C   0  0  0  0  0  0  0  0  0  0  0  0
  145.6101  135.8134  153.6302 C   0  0  1  0  0  0  0  0  0  0  0  0
  146.4623  136.8826  153.0581 N   0  3  0  0  0  0  0  0  0  0  0  0
  146.5776  138.0979  153.8885 C   0  0  0  0  0  0  0  0  0  0  0  0
  147.3996  139.1774  153.1719 C   0  0  0  0  0  0  0  0  0  0  0  0
  148.5764  139.6492  154.0044 C   0  0  0  0  0  0  0  0  0  0  0  0
  149.6650  138.7905  154.2670 C   0  0  0  0  0  0  0  0  0  0  0  0
  150.7344  139.2814  155.0413 C   0  0  0  0  0  0  0  0  0  0  0  0
  150.6741  140.6045  155.5195 C   0  0  0  0  0  0  0  0  0  0  0  0
  149.5433  141.3822  155.1998 C   0  0  0  0  0  0  0  0  0  0  0  0
  148.5133  140.9217  154.4564 N   0  0  0  0  0  0  0  0  0  0  0  0
  143.9803  138.0804  152.9128 H   0  0  0  0  0  0  0  0  0  0  0  0
  143.5483  137.4819  154.5134 H   0  0  0  0  0  0  0  0  0  0  0  0
  142.4461  137.2588  153.1616 H   0  0  0  0  0  0  0  0  0  0  0  0
  143.5795  135.1539  153.6703 H   0  0  0  0  0  0  0  0  0  0  0  0
  143.0282  135.6053  151.3178 H   0  0  0  0  0  0  0  0  0  0  0  0
  144.6170  136.2878  151.0351 H   0  0  0  0  0  0  0  0  0  0  0  0
  144.6123  132.8924  149.7163 H   0  0  0  0  0  0  0  0  0  0  0  0
  144.9967  134.5766  149.3328 H   0  0  0  0  0  0  0  0  0  0  0  0
  143.3367  134.0846  149.6818 H   0  0  0  0  0  0  0  0  0  0  0  0
  146.5792  134.8229  151.1766 H   0  0  0  0  0  0  0  0  0  0  0  0
  147.5785  132.5948  151.8930 H   0  0  0  0  0  0  0  0  0  0  0  0
  146.6544  132.4850  150.4165 H   0  0  0  0  0  0  0  0  0  0  0  0
  145.9557  131.9182  151.9357 H   0  0  0  0  0  0  0  0  0  0  0  0
  145.6522  133.6718  153.8536 H   0  0  0  0  0  0  0  0  0  0  0  0
  147.2181  134.3712  153.5502 H   0  0  0  0  0  0  0  0  0  0  0  0
  145.6107  135.9009  154.7182 H   0  0  0  0  0  0  0  0  0  0  0  0
  147.3883  136.5065  152.9125 H   0  0  0  0  0  0  0  0  0  0  0  0
  145.5796  138.4789  154.1099 H   0  0  0  0  0  0  0  0  0  0  0  0
  147.0450  137.8370  154.8392 H   0  0  0  0  0  0  0  0  0  0  0  0
  147.7721  138.7948  152.2204 H   0  0  0  0  0  0  0  0  0  0  0  0
  146.7649  140.0316  152.9318 H   0  0  0  0  0  0  0  0  0  0  0  0
  149.6837  137.7799  153.8860 H   0  0  0  0  0  0  0  0  0  0  0  0
  151.5849  138.6543  155.2650 H   0  0  0  0  0  0  0  0  0  0  0  0
  151.4749  141.0139  156.1176 H   0  0  0  0  0  0  0  0  0  0  0  0
  149.4639  142.4008  155.5496 H   0  0  0  0  0  0  0  0  0  0  0  0
  146.0786  137.1436  152.1612 H   0  0  0  0  0  0  0  0  0  0  0  0
  1  2  1  0  0  0  0
  1 19  1  0  0  0  0
  1 20  1  0  0  0  0
  1 21  1  0  0  0  0
  2  9  1  0  0  0  0
  2  3  1  0  0  0  0
  2 22  1  0  0  0  0
  3  4  1  0  0  0  0
  3 23  1  0  0  0  0
  3 24  1  0  0  0  0
  4  5  1  0  0  0  0
  4  6  1  0  0  0  0
  5 25  1  0  0  0  0
  5 26  1  0  0  0  0
  5 27  1  0  0  0  0
  6  7  1  0  0  0  0
  6  8  1  0  0  0  0
  6 28  1  0  0  0  0
  7 29  1  0  0  0  0
  7 30  1  0  0  0  0
  7 31  1  0  0  0  0
  8  9  1  0  0  0  0
  8 32  1  0  0  0  0
  8 33  1  0  0  0  0
  9 10  1  0  0  0  0
  9 34  1  0  0  0  0
 10 11  1  0  0  0  0
 10 35  1  0  0  0  0
 10 44  1  0  0  0  0
 11 12  1  0  0  0  0
 11 36  1  0  0  0  0
 11 37  1  0  0  0  0
 12 13  1  0  0  0  0
 12 38  1  0  0  0  0
 12 39  1  0  0  0  0
 13 18  1  0  0  0  0
 13 14  2  0  0  0  0
 14 15  1  0  0  0  0
 14 40  1  0  0  0  0
 15 16  2  0  0  0  0
 15 41  1  0  0  0  0
 16 17  1  0  0  0  0
 16 42  1  0  0  0  0
 17 18  2  0  0  0  0
 17 43  1  0  0  0  0
M  CHG  1  10   1
M  END
> <s_m_source_file>
AV-unprocessed.smi

> <i_m_source_file_index>
3303

> <i_lp_mmshare_version>
43012

> <i_f3d_flags>
0

> <s_epik_input>
W0NIM11bQ0BASF0xW0NIMl1OKFtDSDNdKVtDQEBIXShbQ0gzXSlbQ0gyXVtDQEhdMVtOSF1bQ0gyXVtDSDJdYzJbY0hdW2NIXVtjSF1bY0hdbjI=

> <s_epik_cmdline>
J2VwaWtfcHl0aG9uJywgJy1waCcsICc3LjAnLCAnLXRuJywgJzgnLCAnLW1hJywgJzIwMCcsICctbWV0YWxfYmluZGluZycsICctaW1hZScsICc8aW5maWxlLm1hZT4nLCAnLW9tYWUnLCAnPG91dGZpbGUubWFlPic=

> <r_epik_Ionization_Penalty>
1.37325

> <r_epik_Ionization_Penalty_Charging>
0.000251572

> <r_epik_Ionization_Penalty_Neutral>
1.373

> <r_epik_State_Penalty>
1.46343

> <r_epik_Charging_Adjusted_Penalty>
1.46368

> <i_epik_Tot_Q>
1

> <i_epik_Tot_abs_Q>
1

> <r_epik_Metal_State_Penalty>
1.46331

> <b_epik_Metal_Only>
0

> <s_lp_Force_Field>
OPLS_2005

> <r_lp_Energy>
25.9316

> <b_lp_Chiralities_Consistent>
1

> <s_lp_Variant>
AV-unprocessed.smi:3303-20

> <Gold.Version>
5.8.1

> <Gold.Id.Protein>
6NUR|6NUR_protein|mol2

> <Gold.PLP.Fitness>
35.2256

> <Gold.PLP.PLP>
-27.9823

> <Gold.PLP.part.hbond>
-1.0000

> <Gold.PLP.part.metal>
0.0000

> <Gold.PLP.part.buried>
-0.5334

> <Gold.PLP.part.nonpolar>
-26.4949

> <Gold.PLP.part.repulsive>
0.2742

> <Gold.PLP.ligand.clash>
0.0000

> <Gold.PLP.ligand.torsion>
0.8831

> <Gold.PLP.Chemscore.Hbond>
2.0000

> <Gold.PLP.Chemscore.CHOScore>
1.0000

> <Gold.PLP.Chemscore.Metal>
0.0000

> <Gold.Chemscore.Hbonds>
donor molecule, donor type, donor heavy atom, donor atom, acceptor molecule, acceptor atom, score
      L1  H    10    35       P1  7948  2.00
      L1  C    17    43       P1  8028  1.00

> <Gold.PLP.Chemscore.Internal.Correction>
0.0095

> <Gold.Rescore>
     Score         DG    S(hbond)    S(metal)    S(lipo)     H(rot)  DE(clash)    DE(int)     intcor
     13.13     -15.69       1.00        0.00      87.84       1.33       1.75       0.82       ----

> <Gold.Chemscore.Fitness>
13.1263

> <Gold.Chemscore.DG>
-15.6917

> <Gold.Chemscore.ZeroCoef>
-5.4800

> <Gold.Chemscore.Hbond>
0.9995

> <Gold.Chemscore.Metal>
0.0000

> <Gold.Chemscore.Lipo>
87.8442

> <Gold.Chemscore.Internal_Hbond>
0.0000

> <Gold.Chemscore.DEClash>
1.7483

> <Gold.Chemscore.DEInternal>
0.8171

> <Gold.Chemscore.Rot>
1.3298

> <Gold.Chemscore.Internal.Correction>
   9.000000E+99

> <Gold.Chemscore.Hbonds>
donor molecule, donor type, donor heavy atom, donor atom, acceptor molecule, acceptor atom, score
      L1  H    10    35       P1  7948  0.96

> <Gold.Chemscore.Hbond.Weighted>
-3.3382

> <Gold.Chemscore.Metal.Weighted>
-0.0000

> <Gold.Chemscore.Lipo.Weighted>
-10.2778

> <Gold.Chemscore.Internal_Hbond.Weighted>
0.0000

> <Gold.Chemscore.DEClash.Weighted>
1.7483

> <Gold.Chemscore.DEInternal.Weighted>
0.8171

> <Gold.Chemscore.Rot.Weighted>
3.4043

> <Gold.Chemscore.Internal.Correction.Weighted>
   9.000000E+99

> <Gold.Protein.RotatedTorsions>
[ 6907 6896 6895 6894 ] final  -69.70 input  -60.11 | X-H torsion
[ 7974 7965 7964 7962 ] final -150.04 input  175.53 | X-H torsion
[ 8008 7997 7996 7995 ] final  160.43 input   59.86 | X-H torsion
[ 10167 10162 10161 10158 ] final -103.76 input  -65.29 | X-H torsion
[ 10718 10713 10712 10709 ] final   12.75 input   66.30 | X-H torsion
[ 10763 10752 10751 10750 ] final   55.32 input  -60.55 | X-H torsion
[ 11005 11000 10999 10996 ] final  159.21 input  -57.11 | X-H torsion

> <Gold.Protein.ActiveResidues>
 VAL166  LYS551  ARG553  GLY616  TRP617  ASP618  TYR619  PRO620  LYS621  CYS622 
 ASP623  PHE694  ASN695  SER759  ASP760  ASP761  ALA762  ILE779  LEU786  VAL792 
 PHE793  MET794  SER795  GLU796  ALA797  LYS798  CYS799  TRP800  GLU811  SER814 

> <Gold.Protein.RotatedAtoms>
  150.7293  134.5559  159.5817 H   0  0  0  0  0  0  0  0  0  0  0  0  # atno 6907 bound_to 6896
  152.3035  134.7580  160.0361 H   0  0  0  0  0  0  0  0  0  0  0  0  # atno 6908 bound_to 6896
  151.8152  133.3351  159.3604 H   0  0  0  0  0  0  0  0  0  0  0  0  # atno 6909 bound_to 6896
  144.7931  140.4985  143.5759 H   0  0  0  0  0  0  0  0  0  0  0  0  # atno 7974 bound_to 7965
  156.2173  140.1804  156.7560 H   0  0  0  0  0  0  0  0  0  0  0  0  # atno 8008 bound_to 7997
  154.5810  140.0666  156.9133 H   0  0  0  0  0  0  0  0  0  0  0  0  # atno 8009 bound_to 7997
  155.2502  140.3328  155.4285 H   0  0  0  0  0  0  0  0  0  0  0  0  # atno 8010 bound_to 7997
  140.2165  143.3707  152.1006 H   0  0  0  0  0  0  0  0  0  0  0  0  # atno 10167 bound_to 10162
  157.0146  130.6130  149.5712 H   0  0  0  0  0  0  0  0  0  0  0  0  # atno 10718 bound_to 10713
  152.9815  135.5715  154.5047 H   0  0  0  0  0  0  0  0  0  0  0  0  # atno 10763 bound_to 10752
  154.4560  135.2780  155.1749 H   0  0  0  0  0  0  0  0  0  0  0  0  # atno 10764 bound_to 10752
  154.3356  135.6240  153.5625 H   0  0  0  0  0  0  0  0  0  0  0  0  # atno 10765 bound_to 10752
  140.1940  134.8386  157.2944 H   0  0  0  0  0  0  0  0  0  0  0  0  # atno 11005 bound_to 11000
  145.5742  139.1485  143.3271 LP  0  0  0  0  0  0  0  0  0  0  0  0  # atno 17320 bound_to 7965
  146.2190  140.5874  142.9025 LP  0  0  0  0  0  0  0  0  0  0  0  0  # atno 17321 bound_to 7965
  139.5160  144.6971  151.5599 LP  0  0  0  0  0  0  0  0  0  0  0  0  # atno 17342 bound_to 10162
  140.6286  143.9120  150.6586 LP  0  0  0  0  0  0  0  0  0  0  0  0  # atno 17343 bound_to 10162
  156.0124  130.5216  150.8029 LP  0  0  0  0  0  0  0  0  0  0  0  0  # atno 17370 bound_to 10713
  157.5295  131.0936  150.9974 LP  0  0  0  0  0  0  0  0  0  0  0  0  # atno 17371 bound_to 10713
  140.2128  134.4118  155.7604 LP  0  0  0  0  0  0  0  0  0  0  0  0  # atno 17394 bound_to 11000
  141.2227  133.7126  156.8365 LP  0  0  0  0  0  0  0  0  0  0  0  0  # atno 17395 bound_to 11000

$$$$
