#       Name:                AV-unprocessed.smi:1956
#       Creating user name   scv26
#       Creation time:       Fri Mar 27 10:05:41 2020


#       File generated by GOLD software.
#

@<TRIPOS>MOLECULE
AV-unprocessed.smi:1956
    51    52     1
SMALL
NO_CHARGES


@<TRIPOS>ATOM
      1 ****        -6.7891   3.5833   1.2268 C.3            1 S1                 0.0000
      2 ****        -5.6151   3.9860   0.5302 O.3            1 S1                 0.0000
      3 ****        -4.4412   3.3041   0.7762 C.ar           1 S1                 0.0000
      4 ****        -3.2787   3.6921   0.0817 C.ar           1 S1                 0.0000
      5 ****        -2.0765   3.0008   0.3239 C.ar           1 S1                 0.0000
      6 ****        -2.0725   1.9420   1.2639 C.ar           1 S1                 0.0000
      7 ****        -0.9349   1.1520   1.5869 N.am           1 S1                 0.0000
      8 ****         0.3620   1.3936   1.3298 C.2            1 S1                 0.0000
      9 ****         0.8091   2.4078   0.7965 O.2            1 S1                 0.0000
     10 ****         1.1349   0.3767   1.7372 N.am           1 S1                 0.0000
     11 ****         2.5898   0.3239   1.6096 C.3            1 S1                 0.0000
     12 ****         3.0684   0.1944   0.1465 C.3            1 S1                 0.0000
     13 ****         2.3191  -0.8304  -0.6252 N.4            1 S1                 1.0000
     14 ****         2.3948  -0.6037  -2.0907 C.3            1 S1                 0.0000
     15 ****         1.4888  -1.5878  -2.8468 C.3            1 S1                 0.0000
     16 ****         1.8466  -3.0384  -2.5003 C.3            1 S1                 0.0000
     17 ****         1.7968  -3.2529  -0.9778 C.3            1 S1                 0.0000
     18 ****         2.1850  -4.6900  -0.6025 C.3            1 S1                 0.0000
     19 ****         2.6938  -2.2227  -0.2624 C.3            1 S1                 0.0000
     20 ****        -3.2919   1.6272   1.8990 C.ar           1 S1                 0.0000
     21 ****        -4.4479   2.2849   1.6704 N.ar           1 S1                 0.0000
     22 ****        -7.6220   4.2191   0.9270 H              1 S1                 0.0000
     23 ****        -6.6681   3.6845   2.3062 H              1 S1                 0.0000
     24 ****        -7.0583   2.5525   0.9915 H              1 S1                 0.0000
     25 ****        -3.3100   4.5040  -0.6300 H              1 S1                 0.0000
     26 ****        -1.1954   3.2910  -0.2256 H              1 S1                 0.0000
     27 ****        -1.1343   0.3068   2.1020 H              1 S1                 0.0000
     28 ****         0.6871  -0.4118   2.1819 H              1 S1                 0.0000
     29 ****         3.0324   1.2080   2.0710 H              1 S1                 0.0000
     30 ****         2.9419  -0.5259   2.1940 H              1 S1                 0.0000
     31 ****         2.9377   1.1640  -0.3356 H              1 S1                 0.0000
     32 ****         4.1384  -0.0149   0.1098 H              1 S1                 0.0000
     33 ****         2.0850   0.4158  -2.3233 H              1 S1                 0.0000
     34 ****         3.4286  -0.7069  -2.4243 H              1 S1                 0.0000
     35 ****         0.4456  -1.3952  -2.5926 H              1 S1                 0.0000
     36 ****         1.5799  -1.4285  -3.9216 H              1 S1                 0.0000
     37 ****         1.1586  -3.7201  -3.0018 H              1 S1                 0.0000
     38 ****         2.8442  -3.2692  -2.8771 H              1 S1                 0.0000
     39 ****         0.7695  -3.0923  -0.6470 H              1 S1                 0.0000
     40 ****         3.2058  -4.9183  -0.9109 H              1 S1                 0.0000
     41 ****         1.5237  -5.4132  -1.0807 H              1 S1                 0.0000
     42 ****         2.1202  -4.8469   0.4746 H              1 S1                 0.0000
     43 ****         3.7418  -2.3940  -0.5145 H              1 S1                 0.0000
     44 ****         2.6025  -2.3598   0.8150 H              1 S1                 0.0000
     45 ****        -3.3439   0.8213   2.6166 H              1 S1                 0.0000
     46 ****         1.3471  -0.7130  -0.3767 H              1 S1                 0.0000
     47 ****        -5.4521   4.9465   0.7556 LP             1 S1                 0.0000
     48 ****        -5.8073   3.9010  -0.4475 LP             1 S1                 0.0000
     49 ****         0.1886   3.1396   0.5147 LP             1 S1                 0.0000
     50 ****         1.7932   2.5006   0.6447 LP             1 S1                 0.0000
     51 ****        -5.2877   2.0272   2.1481 LP             1 S1                 0.0000
@<TRIPOS>BOND
    1    1    2 1     
    2    1   22 1     
    3    1   23 1     
    4    1   24 1     
    5    2    3 1     
    6    3   21 ar    
    7    3    4 ar    
    8    4    5 ar    
    9    4   25 1     
   10    5    6 ar    
   11    5   26 1     
   12    6    7 1     
   13    6   20 ar    
   14    7    8 am    
   15    7   27 1     
   16    8    9 2     
   17    8   10 am    
   18   10   11 1     
   19   10   28 1     
   20   11   12 1     
   21   11   29 1     
   22   11   30 1     
   23   12   13 1     
   24   12   31 1     
   25   12   32 1     
   26   13   19 1     
   27   13   14 1     
   28   13   46 1     
   29   14   15 1     
   30   14   33 1     
   31   14   34 1     
   32   15   16 1     
   33   15   35 1     
   34   15   36 1     
   35   16   17 1     
   36   16   37 1     
   37   16   38 1     
   38   17   18 1     
   39   17   19 1     
   40   17   39 1     
   41   18   40 1     
   42   18   41 1     
   43   18   42 1     
   44   19   43 1     
   45   19   44 1     
   46   20   21 ar    
   47   20   45 1     
   48    2   47 1     
   49    2   48 1     
   50    9   49 1     
   51    9   50 1     
   52   21   51 1     
@<TRIPOS>SUBSTRUCTURE
      1 S1             1
@<TRIPOS>SET
LONE_PAIRS      STATIC     ATOMS    <user>   **** ""
5 47 48 49 50 51
DONOR_HYDROGENS      STATIC     ATOMS    <user>   **** ""
3 27 28 46
ATOM$BLUE        STATIC     ATOMS    COLORGROUP SYSTEM
5 47 48 49 50 51
ATOM$RED        STATIC     ATOMS    COLORGROUP SYSTEM
3 27 28 46
