AV-unprocessed.smi:1178|AV-procd|sdf|4956|dock8
  -GOLD-   22720 3543D 1   1.00000     0.00000
 Structure written by MMmdl.
 33 34  0  0  0  0  0  0  0  0  1 V2000
  150.5482  140.3115  154.9609 O   0  0  0  0  0  0  0  0  0  0  0  0
  149.7462  141.2319  155.1252 C   0  0  0  0  0  0  0  0  0  0  0  0
  148.6633  141.5233  154.0768 C   0  0  0  0  0  0  0  0  0  0  0  0
  147.3123  141.5653  154.6547 N   0  0  0  0  0  0  0  0  0  0  0  0
  146.5662  142.7345  154.6094 C   0  0  0  0  0  0  0  0  0  0  0  0
  145.3085  142.8357  155.1008 C   0  0  0  0  0  0  0  0  0  0  0  0
  144.6616  141.6828  155.7181 C   0  0  0  0  0  0  0  0  0  0  0  0
  143.5267  141.6744  156.1895 O   0  0  0  0  0  0  0  0  0  0  0  0
  145.4445  140.5258  155.7451 N   0  0  0  0  0  0  0  0  0  0  0  0
  146.7411  140.4148  155.2409 C   0  0  0  0  0  0  0  0  0  0  0  0
  147.3428  139.3443  155.3144 O   0  0  0  0  0  0  0  0  0  0  0  0
  149.7667  142.0405  156.1956 N   0  0  0  0  0  0  0  0  0  0  0  0
  150.6920  141.9309  157.3181 C   0  0  0  0  0  0  0  0  0  0  0  0
  151.4311  143.2573  157.5937 C   0  0  0  0  0  0  0  0  0  0  0  0
  151.9590  143.3179  158.9638 N   0  0  0  0  0  0  0  0  0  0  0  0
  152.7117  142.3302  159.5011 C   0  0  0  0  0  0  0  0  0  0  0  0
  153.0359  141.2963  158.9182 O   0  0  0  0  0  0  0  0  0  0  0  0
  153.1503  142.5827  160.9485 C   0  0  0  0  0  0  0  0  0  0  0  0
  152.4386  144.1736  161.3757 S   0  0  0  0  0  0  0  0  0  0  0  0
  151.7167  144.3429  159.7987 C   0  0  0  0  0  0  0  0  0  0  0  0
  151.0411  145.3317  159.5148 O   0  0  0  0  0  0  0  0  0  0  0  0
  145.0379  139.7009  156.1618 H   0  0  0  0  0  0  0  0  0  0  0  0
  148.8821  142.4623  153.5640 H   0  0  0  0  0  0  0  0  0  0  0  0
  148.7221  140.7537  153.3061 H   0  0  0  0  0  0  0  0  0  0  0  0
  147.0027  143.6126  154.1552 H   0  0  0  0  0  0  0  0  0  0  0  0
  144.7768  143.7740  155.0342 H   0  0  0  0  0  0  0  0  0  0  0  0
  149.0752  142.7746  156.2459 H   0  0  0  0  0  0  0  0  0  0  0  0
  150.1313  141.6358  158.2065 H   0  0  0  0  0  0  0  0  0  0  0  0
  151.3963  141.1211  157.1261 H   0  0  0  0  0  0  0  0  0  0  0  0
  152.2171  143.4317  156.8569 H   0  0  0  0  0  0  0  0  0  0  0  0
  150.7333  144.0841  157.4499 H   0  0  0  0  0  0  0  0  0  0  0  0
  152.7706  141.8027  161.6085 H   0  0  0  0  0  0  0  0  0  0  0  0
  154.2375  142.6159  161.0226 H   0  0  0  0  0  0  0  0  0  0  0  0
  1  2  2  0  0  0  0
  2  3  1  0  0  0  0
  2 12  1  0  0  0  0
  3  4  1  0  0  0  0
  3 23  1  0  0  0  0
  3 24  1  0  0  0  0
  4 10  1  0  0  0  0
  4  5  1  0  0  0  0
  5  6  2  0  0  0  0
  5 25  1  0  0  0  0
  6  7  1  0  0  0  0
  6 26  1  0  0  0  0
  7  8  2  0  0  0  0
  7  9  1  0  0  0  0
  9 22  1  0  0  0  0
  9 10  1  0  0  0  0
 10 11  2  0  0  0  0
 12 13  1  0  0  0  0
 12 27  1  0  0  0  0
 13 14  1  0  0  0  0
 13 28  1  0  0  0  0
 13 29  1  0  0  0  0
 14 15  1  0  0  0  0
 14 30  1  0  0  0  0
 14 31  1  0  0  0  0
 15 20  1  0  0  0  0
 15 16  1  0  0  0  0
 16 17  2  0  0  0  0
 16 18  1  0  0  0  0
 18 19  1  0  0  0  0
 18 32  1  0  0  0  0
 18 33  1  0  0  0  0
 19 20  1  0  0  0  0
 20 21  2  0  0  0  0
M  END
> <s_m_source_file>
AV-unprocessed.smi

> <i_m_source_file_index>
1178

> <i_lp_mmshare_version>
43012

> <i_f3d_flags>
0

> <s_epik_input>
Tz1jMVtuSF1jKD1PKVtjSF1bY0hdbjFbQ0gyXUMoPU8pW05IXVtDSDJdW0NIMl1OMkMoPU8pW0NIMl1TQzI9Tw==

> <s_epik_cmdline>
J2VwaWtfcHl0aG9uJywgJy1waCcsICc3LjAnLCAnLXRuJywgJzgnLCAnLW1hJywgJzIwMCcsICctbWV0YWxfYmluZGluZycsICctaW1hZScsICc8aW5maWxlLm1hZT4nLCAnLW9tYWUnLCAnPG91dGZpbGUubWFlPic=

> <r_lp_tautomer_probability>
0.999537

> <r_epik_Ionization_Penalty>
0.00339795

> <r_epik_Ionization_Penalty_Charging>
0.0033979

> <r_epik_Ionization_Penalty_Neutral>
5.48861e-08

> <r_epik_State_Penalty>
0.00240602

> <r_epik_Charging_Adjusted_Penalty>
0.00580392

> <i_epik_Tot_Q>
0

> <i_epik_Tot_abs_Q>
0

> <r_epik_Metal_State_Penalty>
0.366682

> <b_epik_Metal_Only>
0

> <s_lp_Force_Field>
OPLS_2005

> <r_lp_Energy>
11.0957

> <b_lp_Chiralities_Consistent>
1

> <s_lp_Variant>
AV-unprocessed.smi:1178-1

> <Gold.Version>
5.8.1

> <Gold.Id.Protein>
6NUR|6NUR_protein|mol2

> <Gold.PLP.Fitness>
48.0229

> <Gold.PLP.PLP>
-41.6124

> <Gold.PLP.part.hbond>
-2.5165

> <Gold.PLP.part.metal>
0.0000

> <Gold.PLP.part.buried>
-2.5358

> <Gold.PLP.part.nonpolar>
-37.5840

> <Gold.PLP.part.repulsive>
0.5156

> <Gold.PLP.ligand.clash>
0.0000

> <Gold.PLP.ligand.torsion>
0.2459

> <Gold.PLP.Chemscore.Hbond>
1.8780

> <Gold.PLP.Chemscore.CHOScore>
0.4169

> <Gold.PLP.Chemscore.Metal>
0.0000

> <Gold.Chemscore.Hbonds>
donor molecule, donor type, donor heavy atom, donor atom, acceptor molecule, acceptor atom, score
      L1  H    12    27       P1  8028  0.75
      P1  H  7989  7998       L1     1  1.00
      L1  C     5    25       P1  8028  0.35

> <Gold.PLP.Chemscore.Internal.Correction>
0.0177

> <Gold.Rescore>
     Score         DG    S(hbond)    S(metal)    S(lipo)     H(rot)  DE(clash)    DE(int)     intcor
      7.68      -9.31       1.38        0.00      58.25       2.97       0.19       1.45       ----

> <Gold.Chemscore.Fitness>
7.6760

> <Gold.Chemscore.DG>
-9.3117

> <Gold.Chemscore.ZeroCoef>
-5.4800

> <Gold.Chemscore.Hbond>
1.3808

> <Gold.Chemscore.Metal>
0.0000

> <Gold.Chemscore.Lipo>
58.2549

> <Gold.Chemscore.Internal_Hbond>
0.0000

> <Gold.Chemscore.DEClash>
0.1904

> <Gold.Chemscore.DEInternal>
1.4454

> <Gold.Chemscore.Rot>
2.9672

> <Gold.Chemscore.Internal.Correction>
   9.000000E+99

> <Gold.Chemscore.Hbonds>
donor molecule, donor type, donor heavy atom, donor atom, acceptor molecule, acceptor atom, score
      L1  H    12    27       P1  8028  0.70
      P1  H  7989  7998       L1     1  0.44

> <Gold.Chemscore.Hbond.Weighted>
-4.6119

> <Gold.Chemscore.Metal.Weighted>
-0.0000

> <Gold.Chemscore.Lipo.Weighted>
-6.8158

> <Gold.Chemscore.Internal_Hbond.Weighted>
0.0000

> <Gold.Chemscore.DEClash.Weighted>
0.1904

> <Gold.Chemscore.DEInternal.Weighted>
1.4454

> <Gold.Chemscore.Rot.Weighted>
7.5960

> <Gold.Chemscore.Internal.Correction.Weighted>
   9.000000E+99

> <Gold.Protein.RotatedTorsions>
[ 6907 6896 6895 6894 ] final  -64.92 input  -60.11 | X-H torsion
[ 7974 7965 7964 7962 ] final   -3.50 input  175.53 | X-H torsion
[ 8008 7997 7996 7995 ] final  -83.32 input   59.86 | X-H torsion
[ 10167 10162 10161 10158 ] final  -32.77 input  -65.29 | X-H torsion
[ 10718 10713 10712 10709 ] final  175.58 input   66.30 | X-H torsion
[ 10763 10752 10751 10750 ] final  -22.69 input  -60.55 | X-H torsion
[ 11005 11000 10999 10996 ] final  -43.27 input  -57.11 | X-H torsion

> <Gold.Protein.ActiveResidues>
 VAL166  LYS551  ARG553  GLY616  TRP617  ASP618  TYR619  PRO620  LYS621  CYS622 
 ASP623  PHE694  ASN695  SER759  ASP760  ASP761  ALA762  ILE779  LEU786  VAL792 
 PHE793  MET794  SER795  GLU796  ALA797  LYS798  CYS799  TRP800  GLU811  SER814 

> <Gold.Protein.RotatedAtoms>
  150.7555  134.6232  159.6146 H   0  0  0  0  0  0  0  0  0  0  0  0  # atno 6907 bound_to 6896
  152.3532  134.6974  160.0239 H   0  0  0  0  0  0  0  0  0  0  0  0  # atno 6908 bound_to 6896
  151.7388  133.3285  159.3396 H   0  0  0  0  0  0  0  0  0  0  0  0  # atno 6909 bound_to 6896
  146.2388  140.1730  142.8332 H   0  0  0  0  0  0  0  0  0  0  0  0  # atno 7974 bound_to 7965
  154.6178  140.0620  156.9576 H   0  0  0  0  0  0  0  0  0  0  0  0  # atno 8008 bound_to 7997
  155.1867  140.3303  155.4347 H   0  0  0  0  0  0  0  0  0  0  0  0  # atno 8009 bound_to 7997
  156.2414  140.1888  156.6960 H   0  0  0  0  0  0  0  0  0  0  0  0  # atno 8010 bound_to 7997
  140.7216  143.3670  151.1851 H   0  0  0  0  0  0  0  0  0  0  0  0  # atno 10167 bound_to 10162
  156.9327  130.9976  151.2984 H   0  0  0  0  0  0  0  0  0  0  0  0  # atno 10718 bound_to 10713
  153.6560  135.6978  153.5193 H   0  0  0  0  0  0  0  0  0  0  0  0  # atno 10763 bound_to 10752
  153.2669  135.4227  155.0949 H   0  0  0  0  0  0  0  0  0  0  0  0  # atno 10764 bound_to 10752
  154.8464  135.3569  154.6105 H   0  0  0  0  0  0  0  0  0  0  0  0  # atno 10765 bound_to 10752
  141.0372  133.6795  156.2709 H   0  0  0  0  0  0  0  0  0  0  0  0  # atno 11005 bound_to 11000
  144.9996  140.8620  143.5290 LP  0  0  0  0  0  0  0  0  0  0  0  0  # atno 17320 bound_to 7965
  145.1748  139.2384  143.5323 LP  0  0  0  0  0  0  0  0  0  0  0  0  # atno 17321 bound_to 7965
  139.7234  143.9187  152.2993 LP  0  0  0  0  0  0  0  0  0  0  0  0  # atno 17342 bound_to 10162
  139.8952  144.6943  150.8726 LP  0  0  0  0  0  0  0  0  0  0  0  0  # atno 17343 bound_to 10162
  157.5836  130.8394  149.8558 LP  0  0  0  0  0  0  0  0  0  0  0  0  # atno 17370 bound_to 10713
  156.0440  130.3732  150.1365 LP  0  0  0  0  0  0  0  0  0  0  0  0  # atno 17371 bound_to 10713
  140.6300  134.5274  157.5558 LP  0  0  0  0  0  0  0  0  0  0  0  0  # atno 17394 bound_to 11000
  139.9249  134.8075  156.1098 LP  0  0  0  0  0  0  0  0  0  0  0  0  # atno 17395 bound_to 11000

$$$$
