#       Name:                AV-unprocessed.smi:2045
#       Creating user name   scv26
#       Creation time:       Fri Mar 27 10:57:35 2020


#       File generated by GOLD software.
#

@<TRIPOS>MOLECULE
AV-unprocessed.smi:2045
    44    45     1
SMALL
NO_CHARGES


@<TRIPOS>ATOM
      1 ****        -7.5677   1.9929   0.7195 C.3            1 S1                 0.0000
      2 ****        -6.1167   1.6553   0.7586 C.2            1 S1                 0.0000
      3 ****        -5.4372   0.4696   0.7649 C.2            1 S1                 0.0000
      4 ****        -4.0785   0.8801   0.8101 C.2            1 S1                 0.0000
      5 ****        -3.0293  -0.0742   0.8288 N.am           1 S1                 0.0000
      6 ****        -1.7074   0.1649   0.8665 C.2            1 S1                 0.0000
      7 ****        -1.1874   1.2806   0.9023 O.2            1 S1                 0.0000
      8 ****        -1.0016  -0.9754   0.8560 N.am           1 S1                 0.0000
      9 ****         0.4546  -1.0509   0.8881 C.3            1 S1                 0.0000
     10 ****         1.0702  -0.7099  -0.4835 C.3            1 S1                 0.0000
     11 ****         2.5508  -0.8176  -0.4825 N.4            1 S1                 1.0000
     12 ****         3.0968  -1.0400  -1.8473 C.3            1 S1                 0.0000
     13 ****         4.6153  -1.2826  -1.8093 C.3            1 S1                 0.0000
     14 ****         5.3404  -0.1222  -1.1161 C.3            1 S1                 0.0000
     15 ****         4.7409   0.1116   0.2761 C.3            1 S1                 0.0000
     16 ****         3.2204   0.3275   0.1922 C.3            1 S1                 0.0000
     17 ****        -3.9406   2.1969   0.8288 N.2            1 S1                 0.0000
     18 ****        -5.2464   2.7005   0.7968 O.3            1 S1                 0.0000
     19 ****        -8.1648   1.1177   0.4629 H              1 S1                 0.0000
     20 ****        -7.7659   2.7658  -0.0232 H              1 S1                 0.0000
     21 ****        -7.9044   2.3600   1.6891 H              1 S1                 0.0000
     22 ****        -5.8496  -0.5282   0.7408 H              1 S1                 0.0000
     23 ****        -3.3175  -1.0412   0.8064 H              1 S1                 0.0000
     24 ****        -1.5057  -1.8501   0.8310 H              1 S1                 0.0000
     25 ****         0.8260  -0.3896   1.6714 H              1 S1                 0.0000
     26 ****         0.7349  -2.0635   1.1794 H              1 S1                 0.0000
     27 ****         0.6583  -1.4048  -1.2170 H              1 S1                 0.0000
     28 ****         0.7792   0.2891  -0.8114 H              1 S1                 0.0000
     29 ****         2.6108  -1.9029  -2.3043 H              1 S1                 0.0000
     30 ****         2.8687  -0.1778  -2.4762 H              1 S1                 0.0000
     31 ****         4.8252  -2.2141  -1.2819 H              1 S1                 0.0000
     32 ****         4.9979  -1.4078  -2.8227 H              1 S1                 0.0000
     33 ****         6.4068  -0.3356  -1.0381 H              1 S1                 0.0000
     34 ****         5.2453   0.7838  -1.7161 H              1 S1                 0.0000
     35 ****         4.9551  -0.7446   0.9173 H              1 S1                 0.0000
     36 ****         5.2149   0.9746   0.7445 H              1 S1                 0.0000
     37 ****         3.0035   1.2484  -0.3517 H              1 S1                 0.0000
     38 ****         2.8290   0.4601   1.2002 H              1 S1                 0.0000
     39 ****         2.7767  -1.6466   0.0482 H              1 S1                 0.0000
     40 ****        -1.7610   2.0997   0.9049 LP             1 S1                 0.0000
     41 ****        -0.1916   1.3675   0.9288 LP             1 S1                 0.0000
     42 ****        -3.0881   2.7187   0.8592 LP             1 S1                 0.0000
     43 ****        -5.4155   3.2493   1.6155 LP             1 S1                 0.0000
     44 ****        -5.3678   3.2693  -0.0167 LP             1 S1                 0.0000
@<TRIPOS>BOND
    1    1    2 1     
    2    1   19 1     
    3    1   20 1     
    4    1   21 1     
    5    2   18 1     
    6    2    3 2     
    7    3    4 1     
    8    3   22 1     
    9    4    5 1     
   10    4   17 2     
   11    5    6 am    
   12    5   23 1     
   13    6    7 2     
   14    6    8 am    
   15    8    9 1     
   16    8   24 1     
   17    9   10 1     
   18    9   25 1     
   19    9   26 1     
   20   10   11 1     
   21   10   27 1     
   22   10   28 1     
   23   11   16 1     
   24   11   12 1     
   25   11   39 1     
   26   12   13 1     
   27   12   29 1     
   28   12   30 1     
   29   13   14 1     
   30   13   31 1     
   31   13   32 1     
   32   14   15 1     
   33   14   33 1     
   34   14   34 1     
   35   15   16 1     
   36   15   35 1     
   37   15   36 1     
   38   16   37 1     
   39   16   38 1     
   40   17   18 1     
   41    7   40 1     
   42    7   41 1     
   43   17   42 1     
   44   18   43 1     
   45   18   44 1     
@<TRIPOS>SUBSTRUCTURE
      1 S1             1
@<TRIPOS>SET
LONE_PAIRS      STATIC     ATOMS    <user>   **** ""
5 40 41 42 43 44
DONOR_HYDROGENS      STATIC     ATOMS    <user>   **** ""
3 23 24 39
ATOM$BLUE        STATIC     ATOMS    COLORGROUP SYSTEM
5 40 41 42 43 44
ATOM$RED        STATIC     ATOMS    COLORGROUP SYSTEM
3 23 24 39
