AV-unprocessed.smi:2302|AV-procd|sdf|9240|dock9
  -GOLD-   2272012453D 1   1.00000     0.00000
 Structure written by MMmdl.
 39 40  0  0  0  0  0  0  0  0  1 V2000
  151.3928  144.2151  157.5790 C   0  0  0  0  0  0  0  0  0  0  0  0
  151.8504  143.9574  158.9995 C   0  0  0  0  0  0  0  0  0  0  0  0
  151.4725  144.8151  160.0512 C   0  0  0  0  0  0  0  0  0  0  0  0
  151.9264  144.5136  161.3476 C   0  0  0  0  0  0  0  0  0  0  0  0
  152.7340  143.3756  161.5377 C   0  0  0  0  0  0  0  0  0  0  0  0
  153.0694  142.5676  160.4279 C   0  0  0  0  0  0  0  0  0  0  0  0
  153.8855  141.4439  160.7256 N   0  0  0  0  0  0  0  0  0  0  0  0
  154.0522  140.3228  160.0021 C   0  0  0  0  0  0  0  0  0  0  0  0
  153.5270  140.0936  158.9119 O   0  0  0  0  0  0  0  0  0  0  0  0
  154.8749  139.4650  160.6228 N   0  0  0  0  0  0  0  0  0  0  0  0
  155.2351  138.1393  160.1308 C   0  0  0  0  0  0  0  0  0  0  0  0
  154.7900  137.0352  161.1048 C   0  0  2  0  0  0  0  0  0  0  0  0
  154.8968  137.4881  162.5748 C   0  0  0  0  0  0  0  0  0  0  0  0
  154.5359  136.4200  163.4986 N   0  0  0  0  0  0  0  0  0  0  0  0
  154.6343  136.8514  164.8847 C   0  0  0  0  0  0  0  0  0  0  0  0
  155.3649  135.2502  163.2411 C   0  0  0  0  0  0  0  0  0  0  0  0
  155.2741  134.8021  161.7729 C   0  0  0  0  0  0  0  0  0  0  0  0
  155.6224  135.8906  160.9238 O   0  0  0  0  0  0  0  0  0  0  0  0
  152.6263  142.8675  159.1813 N   0  0  0  0  0  0  0  0  0  0  0  0
  150.7920  145.1226  157.5142 H   0  0  0  0  0  0  0  0  0  0  0  0
  150.7892  143.3813  157.2197 H   0  0  0  0  0  0  0  0  0  0  0  0
  152.2522  144.3275  156.9177 H   0  0  0  0  0  0  0  0  0  0  0  0
  150.8503  145.6796  159.8724 H   0  0  0  0  0  0  0  0  0  0  0  0
  151.6591  145.1434  162.1833 H   0  0  0  0  0  0  0  0  0  0  0  0
  153.0897  143.1294  162.5276 H   0  0  0  0  0  0  0  0  0  0  0  0
  154.3897  141.4930  161.5982 H   0  0  0  0  0  0  0  0  0  0  0  0
  155.2630  139.7383  161.5135 H   0  0  0  0  0  0  0  0  0  0  0  0
  154.8239  137.9644  159.1351 H   0  0  0  0  0  0  0  0  0  0  0  0
  156.3198  138.1162  160.0229 H   0  0  0  0  0  0  0  0  0  0  0  0
  153.7555  136.7630  160.8865 H   0  0  0  0  0  0  0  0  0  0  0  0
  155.9152  137.8235  162.7782 H   0  0  0  0  0  0  0  0  0  0  0  0
  154.2470  138.3487  162.7377 H   0  0  0  0  0  0  0  0  0  0  0  0
  154.3249  136.0530  165.5598 H   0  0  0  0  0  0  0  0  0  0  0  0
  153.9884  137.7104  165.0689 H   0  0  0  0  0  0  0  0  0  0  0  0
  155.6571  137.1338  165.1384 H   0  0  0  0  0  0  0  0  0  0  0  0
  156.4050  135.4734  163.4844 H   0  0  0  0  0  0  0  0  0  0  0  0
  155.0609  134.4295  163.8918 H   0  0  0  0  0  0  0  0  0  0  0  0
  155.9554  133.9721  161.5860 H   0  0  0  0  0  0  0  0  0  0  0  0
  154.2683  134.4527  161.5345 H   0  0  0  0  0  0  0  0  0  0  0  0
  1  2  1  0  0  0  0
  1 20  1  0  0  0  0
  1 21  1  0  0  0  0
  1 22  1  0  0  0  0
  2 19  1  0  0  0  0
  2  3  2  0  0  0  0
  3  4  1  0  0  0  0
  3 23  1  0  0  0  0
  4  5  2  0  0  0  0
  4 24  1  0  0  0  0
  5  6  1  0  0  0  0
  5 25  1  0  0  0  0
  6  7  1  0  0  0  0
  6 19  2  0  0  0  0
  7  8  1  0  0  0  0
  7 26  1  0  0  0  0
  8  9  2  0  0  0  0
  8 10  1  0  0  0  0
 10 11  1  0  0  0  0
 10 27  1  0  0  0  0
 11 12  1  0  0  0  0
 11 28  1  0  0  0  0
 11 29  1  0  0  0  0
 12 18  1  0  0  0  0
 12 13  1  0  0  0  0
 12 30  1  0  0  0  0
 13 14  1  0  0  0  0
 13 31  1  0  0  0  0
 13 32  1  0  0  0  0
 14 15  1  0  0  0  0
 14 16  1  0  0  0  0
 15 33  1  0  0  0  0
 15 34  1  0  0  0  0
 15 35  1  0  0  0  0
 16 17  1  0  0  0  0
 16 36  1  0  0  0  0
 16 37  1  0  0  0  0
 17 18  1  0  0  0  0
 17 38  1  0  0  0  0
 17 39  1  0  0  0  0
M  END
> <s_m_source_file>
AV-unprocessed.smi

> <i_m_source_file_index>
2302

> <i_lp_mmshare_version>
43012

> <i_f3d_flags>
0

> <s_epik_input>
W0NIM11jMVtjSF1bY0hdW2NIXWMobjEpW05IXUMoPU8pW05IXVtDSDJdW0NAQEhdMltDSDJdTihbQ0gzXSlbQ0gyXVtDSDJdTzI=

> <s_epik_cmdline>
J2VwaWtfcHl0aG9uJywgJy1waCcsICc3LjAnLCAnLXRuJywgJzgnLCAnLW1hJywgJzIwMCcsICctbWV0YWxfYmluZGluZycsICctaW1hZScsICc8aW5maWxlLm1hZT4nLCAnLW9tYWUnLCAnPG91dGZpbGUubWFlPic=

> <r_epik_Ionization_Penalty>
0.729465

> <r_epik_Ionization_Penalty_Charging>
0

> <r_epik_Ionization_Penalty_Neutral>
0.729465

> <r_epik_State_Penalty>
0.754525

> <r_epik_Charging_Adjusted_Penalty>
0.754525

> <i_epik_Tot_Q>
0

> <i_epik_Tot_abs_Q>
0

> <r_epik_Metal_State_Penalty>
0.754521

> <b_epik_Metal_Only>
0

> <s_lp_Force_Field>
OPLS_2005

> <r_lp_Energy>
19.6921

> <b_lp_Chiralities_Consistent>
1

> <s_lp_Variant>
AV-unprocessed.smi:2302-5

> <Gold.Version>
5.8.1

> <Gold.Id.Protein>
6NUR|6NUR_protein|mol2

> <Gold.PLP.Fitness>
42.7733

> <Gold.PLP.PLP>
-40.6367

> <Gold.PLP.part.hbond>
-1.0000

> <Gold.PLP.part.metal>
0.0000

> <Gold.PLP.part.buried>
-3.5053

> <Gold.PLP.part.nonpolar>
-35.6813

> <Gold.PLP.part.repulsive>
0.0829

> <Gold.PLP.ligand.clash>
0.0000

> <Gold.PLP.ligand.torsion>
0.3718

> <Gold.PLP.Chemscore.Hbond>
0.9600

> <Gold.PLP.Chemscore.CHOScore>
0.0000

> <Gold.PLP.Chemscore.Metal>
0.0000

> <Gold.Chemscore.Hbonds>
donor molecule, donor type, donor heavy atom, donor atom, acceptor molecule, acceptor atom, score
      P1  H  7997  8010       L1     9  0.76

> <Gold.PLP.Chemscore.Internal.Correction>
0.0002

> <Gold.Rescore>
     Score         DG    S(hbond)    S(metal)    S(lipo)     H(rot)  DE(clash)    DE(int)     intcor
     15.52     -17.35       0.97        0.00     101.02       1.25       0.14       1.69       ----

> <Gold.Chemscore.Fitness>
15.5179

> <Gold.Chemscore.DG>
-17.3479

> <Gold.Chemscore.ZeroCoef>
-5.4800

> <Gold.Chemscore.Hbond>
0.9731

> <Gold.Chemscore.Metal>
0.0000

> <Gold.Chemscore.Lipo>
101.0200

> <Gold.Chemscore.Internal_Hbond>
0.0000

> <Gold.Chemscore.DEClash>
0.1416

> <Gold.Chemscore.DEInternal>
1.6884

> <Gold.Chemscore.Rot>
1.2506

> <Gold.Chemscore.Internal.Correction>
   9.000000E+99

> <Gold.Chemscore.Hbonds>
donor molecule, donor type, donor heavy atom, donor atom, acceptor molecule, acceptor atom, score
      P1  H  7997  8010       L1     9  0.67

> <Gold.Chemscore.Hbond.Weighted>
-3.2501

> <Gold.Chemscore.Metal.Weighted>
-0.0000

> <Gold.Chemscore.Lipo.Weighted>
-11.8193

> <Gold.Chemscore.Internal_Hbond.Weighted>
0.0000

> <Gold.Chemscore.DEClash.Weighted>
0.1416

> <Gold.Chemscore.DEInternal.Weighted>
1.6884

> <Gold.Chemscore.Rot.Weighted>
3.2015

> <Gold.Chemscore.Internal.Correction.Weighted>
   9.000000E+99

> <Gold.Protein.RotatedTorsions>
[ 6907 6896 6895 6894 ] final -105.26 input  -60.11 | X-H torsion
[ 7974 7965 7964 7962 ] final   50.47 input  175.53 | X-H torsion
[ 8008 7997 7996 7995 ] final   18.26 input   59.86 | X-H torsion
[ 10167 10162 10161 10158 ] final   10.77 input  -65.29 | X-H torsion
[ 10718 10713 10712 10709 ] final   70.45 input   66.30 | X-H torsion
[ 10763 10752 10751 10750 ] final   32.59 input  -60.55 | X-H torsion
[ 11005 11000 10999 10996 ] final  130.62 input  -57.11 | X-H torsion

> <Gold.Protein.ActiveResidues>
 VAL166  LYS551  ARG553  GLY616  TRP617  ASP618  TYR619  PRO620  LYS621  CYS622 
 ASP623  PHE694  ASN695  SER759  ASP760  ASP761  ALA762  ILE779  LEU786  VAL792 
 PHE793  MET794  SER795  GLU796  ALA797  LYS798  CYS799  TRP800  GLU811  SER814 

> <Gold.Protein.RotatedAtoms>
  150.7328  134.0153  159.3682 H   0  0  0  0  0  0  0  0  0  0  0  0  # atno 6907 bound_to 6896
  151.8115  135.0677  160.0423 H   0  0  0  0  0  0  0  0  0  0  0  0  # atno 6908 bound_to 6896
  152.3069  133.5676  159.5691 H   0  0  0  0  0  0  0  0  0  0  0  0  # atno 6909 bound_to 6896
  146.0008  139.4437  143.0016 H   0  0  0  0  0  0  0  0  0  0  0  0  # atno 7974 bound_to 7965
  154.9034  140.3004  155.5305 H   0  0  0  0  0  0  0  0  0  0  0  0  # atno 8008 bound_to 7997
  156.3018  140.2402  156.3999 H   0  0  0  0  0  0  0  0  0  0  0  0  # atno 8009 bound_to 7997
  154.8498  140.0410  157.1586 H   0  0  0  0  0  0  0  0  0  0  0  0  # atno 8010 bound_to 7997
  140.6174  143.8279  150.7134 H   0  0  0  0  0  0  0  0  0  0  0  0  # atno 10167 bound_to 10162
  157.6400  130.9478  150.0652 H   0  0  0  0  0  0  0  0  0  0  0  0  # atno 10718 bound_to 10713
  153.0254  135.6409  154.1379 H   0  0  0  0  0  0  0  0  0  0  0  0  # atno 10763 bound_to 10752
  154.1109  135.2853  155.3232 H   0  0  0  0  0  0  0  0  0  0  0  0  # atno 10764 bound_to 10752
  154.6332  135.5485  153.7767 H   0  0  0  0  0  0  0  0  0  0  0  0  # atno 10765 bound_to 10752
  139.9682  134.9585  156.9320 H   0  0  0  0  0  0  0  0  0  0  0  0  # atno 11005 bound_to 11000
  145.7490  140.9980  143.1260 LP  0  0  0  0  0  0  0  0  0  0  0  0  # atno 17320 bound_to 7965
  144.6919  139.9191  143.7467 LP  0  0  0  0  0  0  0  0  0  0  0  0  # atno 17321 bound_to 7965
  140.1861  143.4074  152.1897 LP  0  0  0  0  0  0  0  0  0  0  0  0  # atno 17342 bound_to 10162
  139.5410  144.7256  151.4735 LP  0  0  0  0  0  0  0  0  0  0  0  0  # atno 17343 bound_to 10162
  156.1673  130.3645  149.9215 LP  0  0  0  0  0  0  0  0  0  0  0  0  # atno 17370 bound_to 10713
  156.7199  130.9002  151.3617 LP  0  0  0  0  0  0  0  0  0  0  0  0  # atno 17371 bound_to 10713
  140.5349  134.0776  155.7326 LP  0  0  0  0  0  0  0  0  0  0  0  0  # atno 17394 bound_to 11000
  141.1362  133.9217  157.2428 LP  0  0  0  0  0  0  0  0  0  0  0  0  # atno 17395 bound_to 11000

$$$$
