AV-unprocessed.smi:2675|AV-procd|sdf|10363|dock7
  -GOLD-   2272014393D 1   1.00000     0.00000
 Structure written by MMmdl.
 36 37  0  0  0  0  0  0  0  0  1 V2000
  152.6778  143.7228  162.2487 C   0  0  0  0  0  0  0  0  0  0  0  0
  152.2753  143.3114  160.8656 C   0  0  0  0  0  0  0  0  0  0  0  0
  152.1351  141.9640  160.5417 N   0  0  0  0  0  0  0  0  0  0  0  0
  151.7786  141.9793  159.2658 C   0  0  0  0  0  0  0  0  0  0  0  0
  151.6745  143.2039  158.7315 N   0  0  0  0  0  0  0  0  0  0  0  0
  151.3121  143.5184  157.3596 C   0  0  0  0  0  0  0  0  0  0  0  0
  150.8187  142.2724  156.6240 C   0  0  0  0  0  0  0  0  0  0  0  0
  151.5023  141.2499  156.6281 O   0  0  0  0  0  0  0  0  0  0  0  0
  149.6320  142.3828  156.0016 N   0  0  0  0  0  0  0  0  0  0  0  0
  148.8906  141.3567  155.2572 C   0  0  2  0  0  0  0  0  0  0  0  0
  148.0231  140.6258  156.2959 C   0  0  0  0  0  0  0  0  0  0  0  0
  149.7961  140.3609  154.6506 C   0  0  0  0  0  0  0  0  0  0  0  0
  150.5086  139.5821  154.1755 N   0  0  0  0  0  0  0  0  0  0  0  0
  147.9772  141.8857  154.1488 C   0  0  0  0  0  0  0  0  0  0  0  0
  146.5621  142.3717  154.3738 C   0  0  0  0  0  0  0  0  0  0  0  0
  146.8095  141.0887  153.6119 C   0  0  0  0  0  0  0  0  0  0  0  0
  151.9959  144.0892  159.7597 C   0  0  0  0  0  0  0  0  0  0  0  0
  152.0047  145.5750  159.5846 C   0  0  0  0  0  0  0  0  0  0  0  0
  152.7482  144.8051  162.3500 H   0  0  0  0  0  0  0  0  0  0  0  0
  153.6496  143.3058  162.5133 H   0  0  0  0  0  0  0  0  0  0  0  0
  151.9560  143.3722  162.9868 H   0  0  0  0  0  0  0  0  0  0  0  0
  151.5925  141.0759  158.7037 H   0  0  0  0  0  0  0  0  0  0  0  0
  150.5354  144.2847  157.3629 H   0  0  0  0  0  0  0  0  0  0  0  0
  152.1741  143.9439  156.8447 H   0  0  0  0  0  0  0  0  0  0  0  0
  149.1737  143.2798  156.0686 H   0  0  0  0  0  0  0  0  0  0  0  0
  147.4565  139.8136  155.8386 H   0  0  0  0  0  0  0  0  0  0  0  0
  147.3071  141.3025  156.7643 H   0  0  0  0  0  0  0  0  0  0  0  0
  148.6341  140.1900  157.0878 H   0  0  0  0  0  0  0  0  0  0  0  0
  148.5267  142.4548  153.4007 H   0  0  0  0  0  0  0  0  0  0  0  0
  146.1183  142.2821  155.3612 H   0  0  0  0  0  0  0  0  0  0  0  0
  146.2368  143.2384  153.8022 H   0  0  0  0  0  0  0  0  0  0  0  0
  146.6456  141.1034  152.5364 H   0  0  0  0  0  0  0  0  0  0  0  0
  146.5472  140.1565  154.1077 H   0  0  0  0  0  0  0  0  0  0  0  0
  152.3227  146.0850  160.4930 H   0  0  0  0  0  0  0  0  0  0  0  0
  151.0097  145.9404  159.3313 H   0  0  0  0  0  0  0  0  0  0  0  0
  152.6862  145.8681  158.7859 H   0  0  0  0  0  0  0  0  0  0  0  0
  1  2  1  0  0  0  0
  1 19  1  0  0  0  0
  1 20  1  0  0  0  0
  1 21  1  0  0  0  0
  2 17  2  0  0  0  0
  2  3  1  0  0  0  0
  3  4  2  0  0  0  0
  4  5  1  0  0  0  0
  4 22  1  0  0  0  0
  5  6  1  0  0  0  0
  5 17  1  0  0  0  0
  6  7  1  0  0  0  0
  6 23  1  0  0  0  0
  6 24  1  0  0  0  0
  7  8  2  0  0  0  0
  7  9  1  0  0  0  0
  9 10  1  0  0  0  0
  9 25  1  0  0  0  0
 10 11  1  0  0  0  0
 10 12  1  0  0  0  0
 10 14  1  0  0  0  0
 11 26  1  0  0  0  0
 11 27  1  0  0  0  0
 11 28  1  0  0  0  0
 12 13  3  0  0  0  0
 14 16  1  0  0  0  0
 14 15  1  0  0  0  0
 14 29  1  0  0  0  0
 15 16  1  0  0  0  0
 15 30  1  0  0  0  0
 15 31  1  0  0  0  0
 16 32  1  0  0  0  0
 16 33  1  0  0  0  0
 17 18  1  0  0  0  0
 18 34  1  0  0  0  0
 18 35  1  0  0  0  0
 18 36  1  0  0  0  0
M  END
> <s_m_source_file>
AV-unprocessed.smi

> <i_m_source_file_index>
2675

> <i_lp_mmshare_version>
43012

> <i_f3d_flags>
0

> <s_epik_input>
W0NIM11jMW5bY0hdbihjMVtDSDNdKVtDSDJdQyg9TylbTkhdW0NAQF0oW0NIM10pKEMjTilbQ0hdMltDSDJdW0NIMl0y

> <s_epik_cmdline>
J2VwaWtfcHl0aG9uJywgJy1waCcsICc3LjAnLCAnLXRuJywgJzgnLCAnLW1hJywgJzIwMCcsICctbWV0YWxfYmluZGluZycsICctaW1hZScsICc8aW5maWxlLm1hZT4nLCAnLW9tYWUnLCAnPG91dGZpbGUubWFlPic=

> <r_lp_tautomer_probability>
1

> <r_epik_Ionization_Penalty>
0.876174

> <r_epik_Ionization_Penalty_Charging>
0.876172

> <r_epik_Ionization_Penalty_Neutral>
2.64295e-06

> <r_epik_State_Penalty>
0.913958

> <r_epik_Charging_Adjusted_Penalty>
1.79013

> <i_epik_Tot_Q>
0

> <i_epik_Tot_abs_Q>
0

> <r_epik_Metal_State_Penalty>
0.359336

> <b_epik_Metal_Only>
0

> <s_lp_Force_Field>
OPLS_2005

> <r_lp_Energy>
15.5339

> <b_lp_Chiralities_Consistent>
1

> <s_lp_Variant>
AV-unprocessed.smi:2675-4

> <Gold.Version>
5.8.1

> <Gold.Id.Protein>
6NUR|6NUR_protein|mol2

> <Gold.PLP.Fitness>
45.7503

> <Gold.PLP.PLP>
-42.0932

> <Gold.PLP.part.hbond>
-2.1913

> <Gold.PLP.part.metal>
0.0000

> <Gold.PLP.part.buried>
-2.5447

> <Gold.PLP.part.nonpolar>
-37.4026

> <Gold.PLP.part.repulsive>
0.3359

> <Gold.PLP.ligand.clash>
0.0000

> <Gold.PLP.ligand.torsion>
1.4546

> <Gold.PLP.Chemscore.Hbond>
1.6913

> <Gold.PLP.Chemscore.CHOScore>
0.0000

> <Gold.PLP.Chemscore.Metal>
0.0000

> <Gold.Chemscore.Hbonds>
donor molecule, donor type, donor heavy atom, donor atom, acceptor molecule, acceptor atom, score
      L1  H     9    25       P1  8028  0.99
      P1  H  7989  7998       L1    13  0.70

> <Gold.PLP.Chemscore.Internal.Correction>
1.4925

> <Gold.Rescore>
     Score         DG    S(hbond)    S(metal)    S(lipo)     H(rot)  DE(clash)    DE(int)     intcor
     10.72     -14.96       1.00        0.00      90.68       1.74       0.06       4.18       ----

> <Gold.Chemscore.Fitness>
10.7181

> <Gold.Chemscore.DG>
-14.9563

> <Gold.Chemscore.ZeroCoef>
-5.4800

> <Gold.Chemscore.Hbond>
0.9964

> <Gold.Chemscore.Metal>
0.0000

> <Gold.Chemscore.Lipo>
90.6826

> <Gold.Chemscore.Internal_Hbond>
0.0000

> <Gold.Chemscore.DEClash>
0.0596

> <Gold.Chemscore.DEInternal>
4.1786

> <Gold.Chemscore.Rot>
1.7429

> <Gold.Chemscore.Internal.Correction>
   9.000000E+99

> <Gold.Chemscore.Hbonds>
donor molecule, donor type, donor heavy atom, donor atom, acceptor molecule, acceptor atom, score
      L1  H     9    25       P1  8028  0.91
      P1  H  7989  7998       L1    13  0.07

> <Gold.Chemscore.Hbond.Weighted>
-3.3281

> <Gold.Chemscore.Metal.Weighted>
-0.0000

> <Gold.Chemscore.Lipo.Weighted>
-10.6099

> <Gold.Chemscore.Internal_Hbond.Weighted>
0.0000

> <Gold.Chemscore.DEClash.Weighted>
0.0596

> <Gold.Chemscore.DEInternal.Weighted>
4.1786

> <Gold.Chemscore.Rot.Weighted>
4.4617

> <Gold.Chemscore.Internal.Correction.Weighted>
   9.000000E+99

> <Gold.Protein.RotatedTorsions>
[ 6907 6896 6895 6894 ] final  138.15 input  -60.11 | X-H torsion
[ 7974 7965 7964 7962 ] final -146.09 input  175.53 | X-H torsion
[ 8008 7997 7996 7995 ] final -131.34 input   59.86 | X-H torsion
[ 10167 10162 10161 10158 ] final  114.55 input  -65.29 | X-H torsion
[ 10718 10713 10712 10709 ] final   81.52 input   66.30 | X-H torsion
[ 10763 10752 10751 10750 ] final   42.28 input  -60.55 | X-H torsion
[ 11005 11000 10999 10996 ] final  -21.24 input  -57.11 | X-H torsion

> <Gold.Protein.ActiveResidues>
 VAL166  LYS551  ARG553  GLY616  TRP617  ASP618  TYR619  PRO620  LYS621  CYS622 
 ASP623  PHE694  ASN695  SER759  ASP760  ASP761  ALA762  ILE779  LEU786  VAL792 
 PHE793  MET794  SER795  GLU796  ALA797  LYS798  CYS799  TRP800  GLU811  SER814 

> <Gold.Protein.RotatedAtoms>
  152.2699  133.5372  159.5432 H   0  0  0  0  0  0  0  0  0  0  0  0  # atno 6907 bound_to 6896
  150.7155  134.0713  159.3874 H   0  0  0  0  0  0  0  0  0  0  0  0  # atno 6908 bound_to 6896
  151.8628  135.0518  160.0522 H   0  0  0  0  0  0  0  0  0  0  0  0  # atno 6909 bound_to 6896
  144.8183  140.5500  143.5596 H   0  0  0  0  0  0  0  0  0  0  0  0  # atno 7974 bound_to 7965
  155.3107  140.0457  157.3034 H   0  0  0  0  0  0  0  0  0  0  0  0  # atno 8008 bound_to 7997
  154.5434  140.2295  155.8569 H   0  0  0  0  0  0  0  0  0  0  0  0  # atno 8009 bound_to 7997
  156.1902  140.3052  155.9324 H   0  0  0  0  0  0  0  0  0  0  0  0  # atno 8010 bound_to 7997
  139.6380  144.7121  151.2294 H   0  0  0  0  0  0  0  0  0  0  0  0  # atno 10167 bound_to 10162
  157.6835  131.0007  150.2238 H   0  0  0  0  0  0  0  0  0  0  0  0  # atno 10718 bound_to 10713
  152.9887  135.6136  154.2924 H   0  0  0  0  0  0  0  0  0  0  0  0  # atno 10763 bound_to 10752
  154.2648  135.2781  155.2765 H   0  0  0  0  0  0  0  0  0  0  0  0  # atno 10764 bound_to 10752
  154.5174  135.5824  153.6710 H   0  0  0  0  0  0  0  0  0  0  0  0  # atno 10765 bound_to 10752
  140.8542  133.7834  156.0001 H   0  0  0  0  0  0  0  0  0  0  0  0  # atno 11005 bound_to 11000
  145.5164  139.1478  143.3576 LP  0  0  0  0  0  0  0  0  0  0  0  0  # atno 17320 bound_to 7965
  146.2487  140.5305  142.8903 LP  0  0  0  0  0  0  0  0  0  0  0  0  # atno 17321 bound_to 7965
  140.7476  143.6361  150.8378 LP  0  0  0  0  0  0  0  0  0  0  0  0  # atno 17342 bound_to 10162
  139.9995  143.5760  152.2881 LP  0  0  0  0  0  0  0  0  0  0  0  0  # atno 17343 bound_to 10162
  156.2885  130.3742  149.7865 LP  0  0  0  0  0  0  0  0  0  0  0  0  # atno 17370 bound_to 10713
  156.5532  130.8351  151.3306 LP  0  0  0  0  0  0  0  0  0  0  0  0  # atno 17371 bound_to 10713
  140.8755  134.2674  157.5170 LP  0  0  0  0  0  0  0  0  0  0  0  0  # atno 17394 bound_to 11000
  139.8705  134.9589  156.4315 LP  0  0  0  0  0  0  0  0  0  0  0  0  # atno 17395 bound_to 11000

$$$$
