AV-unprocessed.smi:1057|AV-procd|sdf|4651|dock3
  -GOLD-   22720 3163D 1   1.00000     0.00000
 Structure written by MMmdl.
 45 46  0  0  0  0  0  0  0  0  2 V2000
  145.3087  132.7316  162.1849 C   0  0  0  0  0  0  0  0  0  0  0  0
  146.1164  133.6473  162.1822 C   0  0  0  0  0  0  0  0  0  0  0  0
  147.0936  134.7459  162.1662 C   0  0  0  0  0  0  0  0  0  0  0  0
  147.6563  134.9518  160.8401 N   0  0  0  0  0  0  0  0  0  0  0  0
  148.0347  136.1431  160.3560 C   0  0  0  0  0  0  0  0  0  0  0  0
  147.9477  137.1900  160.9999 O   0  0  0  0  0  0  0  0  0  0  0  0
  148.6169  136.1368  158.9372 C   0  0  0  0  0  0  0  0  0  0  0  0
  148.6017  137.4567  158.3108 N   0  0  0  0  0  0  0  0  0  0  0  0
  149.5261  138.4099  158.4979 C   0  0  0  0  0  0  0  0  0  0  0  0
  150.4885  138.2864  159.2552 O   0  0  0  0  0  0  0  0  0  0  0  0
  149.2739  139.4893  157.7393 N   0  0  0  0  0  0  0  0  0  0  0  0
  150.0287  140.6928  157.6489 C   0  0  0  0  0  0  0  0  0  0  0  0
  151.2140  140.9093  158.3968 C   0  0  0  0  0  0  0  0  0  0  0  0
  151.8996  142.1350  158.2786 C   0  0  0  0  0  0  0  0  0  0  0  0
  151.3869  143.1278  157.4229 C   0  0  0  0  0  0  0  0  0  0  0  0
  150.2488  142.8964  156.7351 N   0  3  0  0  0  0  0  0  0  0  0  0
  149.5538  141.7353  156.8136 C   0  0  0  0  0  0  0  0  0  0  0  0
  148.3801  141.6018  156.0546 N   0  0  0  0  0  0  0  0  0  0  0  0
  147.2529  142.3585  156.5923 C   0  0  0  0  0  0  0  0  0  0  0  0
  145.9501  141.9835  155.8650 C   0  0  0  0  0  0  0  0  0  0  0  0
  146.1015  142.1503  154.3441 C   0  0  0  0  0  0  0  0  0  0  0  0
  147.3201  141.3600  153.8398 C   0  0  0  0  0  0  0  0  0  0  0  0
  148.5887  141.7519  154.6167 C   0  0  0  0  0  0  0  0  0  0  0  0
  144.6026  131.9316  162.1827 H   0  0  0  0  0  0  0  0  0  0  0  0
  146.5932  135.6521  162.5104 H   0  0  0  0  0  0  0  0  0  0  0  0
  147.8860  134.5093  162.8774 H   0  0  0  0  0  0  0  0  0  0  0  0
  147.7629  134.1374  160.2527 H   0  0  0  0  0  0  0  0  0  0  0  0
  149.6505  135.7941  158.9887 H   0  0  0  0  0  0  0  0  0  0  0  0
  148.0795  135.4171  158.3170 H   0  0  0  0  0  0  0  0  0  0  0  0
  147.8495  137.6399  157.6630 H   0  0  0  0  0  0  0  0  0  0  0  0
  148.5063  139.4059  157.0887 H   0  0  0  0  0  0  0  0  0  0  0  0
  151.6013  140.1607  159.0713 H   0  0  0  0  0  0  0  0  0  0  0  0
  152.8039  142.3123  158.8423 H   0  0  0  0  0  0  0  0  0  0  0  0
  151.8451  144.0947  157.2739 H   0  0  0  0  0  0  0  0  0  0  0  0
  147.1514  142.1621  157.6606 H   0  0  0  0  0  0  0  0  0  0  0  0
  147.4458  143.4263  156.4799 H   0  0  0  0  0  0  0  0  0  0  0  0
  145.6896  140.9492  156.0938 H   0  0  0  0  0  0  0  0  0  0  0  0
  145.1271  142.5983  156.2298 H   0  0  0  0  0  0  0  0  0  0  0  0
  145.1974  141.8143  153.8355 H   0  0  0  0  0  0  0  0  0  0  0  0
  146.2231  143.2065  154.1008 H   0  0  0  0  0  0  0  0  0  0  0  0
  147.1357  140.2913  153.9575 H   0  0  0  0  0  0  0  0  0  0  0  0
  147.4653  141.5343  152.7734 H   0  0  0  0  0  0  0  0  0  0  0  0
  148.8548  142.7858  154.3924 H   0  0  0  0  0  0  0  0  0  0  0  0
  149.4261  141.1292  154.2990 H   0  0  0  0  0  0  0  0  0  0  0  0
  149.8945  143.6339  156.1256 H   0  0  0  0  0  0  0  0  0  0  0  0
  1  2  3  0  0  0  0
  1 24  1  0  0  0  0
  2  3  1  0  0  0  0
  3  4  1  0  0  0  0
  3 25  1  0  0  0  0
  3 26  1  0  0  0  0
  4  5  1  0  0  0  0
  4 27  1  0  0  0  0
  5  6  2  0  0  0  0
  5  7  1  0  0  0  0
  7  8  1  0  0  0  0
  7 28  1  0  0  0  0
  7 29  1  0  0  0  0
  8  9  1  0  0  0  0
  8 30  1  0  0  0  0
  9 10  2  0  0  0  0
  9 11  1  0  0  0  0
 11 12  1  0  0  0  0
 11 31  1  0  0  0  0
 12 17  1  0  0  0  0
 12 13  2  0  0  0  0
 13 14  1  0  0  0  0
 13 32  1  0  0  0  0
 14 15  2  0  0  0  0
 14 33  1  0  0  0  0
 15 16  1  0  0  0  0
 15 34  1  0  0  0  0
 16 17  2  0  0  0  0
 16 45  1  0  0  0  0
 17 18  1  0  0  0  0
 18 23  1  0  0  0  0
 18 19  1  0  0  0  0
 19 20  1  0  0  0  0
 19 35  1  0  0  0  0
 19 36  1  0  0  0  0
 20 21  1  0  0  0  0
 20 37  1  0  0  0  0
 20 38  1  0  0  0  0
 21 22  1  0  0  0  0
 21 39  1  0  0  0  0
 21 40  1  0  0  0  0
 22 23  1  0  0  0  0
 22 41  1  0  0  0  0
 22 42  1  0  0  0  0
 23 43  1  0  0  0  0
 23 44  1  0  0  0  0
M  CHG  1  16   1
M  END
> <s_m_source_file>
AV-unprocessed.smi

> <i_m_source_file_index>
1057

> <i_lp_mmshare_version>
43012

> <i_f3d_flags>
0

> <s_epik_input>
W0NIXSNDW0NIMl1bTkhdQyg9TylbQ0gyXVtOSF1DKD1PKVtOSF1jMVtjSF1bY0hdW2NIXW5jMU4yW0NIMl1bQ0gyXVtDSDJdW0NIMl1bQ0gyXTI=

> <s_epik_cmdline>
J2VwaWtfcHl0aG9uJywgJy1waCcsICc3LjAnLCAnLXRuJywgJzgnLCAnLW1hJywgJzIwMCcsICctbWV0YWxfYmluZGluZycsICctaW1hZScsICc8aW5maWxlLm1hZT4nLCAnLW9tYWUnLCAnPG91dGZpbGUubWFlPic=

> <r_lp_tautomer_probability>
0.999994

> <r_epik_Ionization_Penalty>
0.641093

> <r_epik_Ionization_Penalty_Charging>
0.641074

> <r_epik_Ionization_Penalty_Neutral>
1.89753e-05

> <r_epik_State_Penalty>
0.658761

> <r_epik_Charging_Adjusted_Penalty>
1.29984

> <i_epik_Tot_Q>
1

> <i_epik_Tot_abs_Q>
1

> <r_epik_Metal_State_Penalty>
0.833895

> <b_epik_Metal_Only>
0

> <s_lp_Force_Field>
OPLS_2005

> <r_lp_Energy>
23.0781

> <b_lp_Chiralities_Consistent>
1

> <s_lp_Variant>
AV-unprocessed.smi:1057-2

> <Gold.Version>
5.8.1

> <Gold.Id.Protein>
6NUR|6NUR_protein|mol2

> <Gold.PLP.Fitness>
47.2483

> <Gold.PLP.PLP>
-37.4820

> <Gold.PLP.part.hbond>
-3.9830

> <Gold.PLP.part.metal>
0.0000

> <Gold.PLP.part.buried>
-4.0527

> <Gold.PLP.part.nonpolar>
-29.6051

> <Gold.PLP.part.repulsive>
0.4725

> <Gold.PLP.ligand.clash>
0.0000

> <Gold.PLP.ligand.torsion>
0.7889

> <Gold.PLP.Chemscore.Hbond>
3.7120

> <Gold.PLP.Chemscore.CHOScore>
0.0000

> <Gold.PLP.Chemscore.Metal>
0.0000

> <Gold.Chemscore.Hbonds>
donor molecule, donor type, donor heavy atom, donor atom, acceptor molecule, acceptor atom, score
      L1  H    16    45       P1  8028  2.00
      P1  H  6931  6943       L1     6  0.94
      P1  H  6934  6947       L1     6  0.77

> <Gold.PLP.Chemscore.Internal.Correction>
0.2081

> <Gold.Rescore>
     Score         DG    S(hbond)    S(metal)    S(lipo)     H(rot)  DE(clash)    DE(int)     intcor
     17.37     -19.51       2.75        0.00      81.05       1.82       0.06       2.08       ----

> <Gold.Chemscore.Fitness>
17.3665

> <Gold.Chemscore.DG>
-19.5095

> <Gold.Chemscore.ZeroCoef>
-5.4800

> <Gold.Chemscore.Hbond>
2.7531

> <Gold.Chemscore.Metal>
0.0000

> <Gold.Chemscore.Lipo>
81.0496

> <Gold.Chemscore.Internal_Hbond>
0.0000

> <Gold.Chemscore.DEClash>
0.0616

> <Gold.Chemscore.DEInternal>
2.0814

> <Gold.Chemscore.Rot>
1.8159

> <Gold.Chemscore.Internal.Correction>
   9.000000E+99

> <Gold.Chemscore.Hbonds>
donor molecule, donor type, donor heavy atom, donor atom, acceptor molecule, acceptor atom, score
      L1  H    16    45       P1  8028  0.94
      P1  H  6931  6943       L1     6  0.91
      P1  H  6934  6947       L1     6  0.74

> <Gold.Chemscore.Hbond.Weighted>
-9.1954

> <Gold.Chemscore.Metal.Weighted>
-0.0000

> <Gold.Chemscore.Lipo.Weighted>
-9.4828

> <Gold.Chemscore.Internal_Hbond.Weighted>
0.0000

> <Gold.Chemscore.DEClash.Weighted>
0.0616

> <Gold.Chemscore.DEInternal.Weighted>
2.0814

> <Gold.Chemscore.Rot.Weighted>
4.6486

> <Gold.Chemscore.Internal.Correction.Weighted>
   9.000000E+99

> <Gold.Protein.RotatedTorsions>
[ 6907 6896 6895 6894 ] final  118.96 input  -60.11 | X-H torsion
[ 7974 7965 7964 7962 ] final   71.47 input  175.53 | X-H torsion
[ 8008 7997 7996 7995 ] final   36.97 input   59.86 | X-H torsion
[ 10167 10162 10161 10158 ] final   93.72 input  -65.29 | X-H torsion
[ 10718 10713 10712 10709 ] final  -60.63 input   66.30 | X-H torsion
[ 10763 10752 10751 10750 ] final -154.59 input  -60.55 | X-H torsion
[ 11005 11000 10999 10996 ] final   52.06 input  -57.11 | X-H torsion

> <Gold.Protein.ActiveResidues>
 VAL166  LYS551  ARG553  GLY616  TRP617  ASP618  TYR619  PRO620  LYS621  CYS622 
 ASP623  PHE694  ASN695  SER759  ASP760  ASP761  ALA762  ILE779  LEU786  VAL792 
 PHE793  MET794  SER795  GLU796  ALA797  LYS798  CYS799  TRP800  GLU811  SER814 

> <Gold.Protein.RotatedAtoms>
  152.4506  133.7622  159.6752 H   0  0  0  0  0  0  0  0  0  0  0  0  # atno 6907 bound_to 6896
  150.8417  133.7915  159.3064 H   0  0  0  0  0  0  0  0  0  0  0  0  # atno 6908 bound_to 6896
  151.5537  135.1069  160.0008 H   0  0  0  0  0  0  0  0  0  0  0  0  # atno 6909 bound_to 6896
  145.7654  139.2819  143.1352 H   0  0  0  0  0  0  0  0  0  0  0  0  # atno 7974 bound_to 7965
  155.1961  140.3312  155.4350 H   0  0  0  0  0  0  0  0  0  0  0  0  # atno 8008 bound_to 7997
  156.2424  140.1902  156.7001 H   0  0  0  0  0  0  0  0  0  0  0  0  # atno 8009 bound_to 7997
  154.6173  140.0600  156.9556 H   0  0  0  0  0  0  0  0  0  0  0  0  # atno 8010 bound_to 7997
  139.8152  144.6756  150.9589 H   0  0  0  0  0  0  0  0  0  0  0  0  # atno 10167 bound_to 10162
  156.0977  130.4190  150.0881 H   0  0  0  0  0  0  0  0  0  0  0  0  # atno 10718 bound_to 10713
  154.7848  135.3186  154.7911 H   0  0  0  0  0  0  0  0  0  0  0  0  # atno 10763 bound_to 10752
  153.8614  135.6853  153.4787 H   0  0  0  0  0  0  0  0  0  0  0  0  # atno 10764 bound_to 10752
  153.1496  135.4705  154.9555 H   0  0  0  0  0  0  0  0  0  0  0  0  # atno 10765 bound_to 10752
  140.0881  134.5247  155.8879 H   0  0  0  0  0  0  0  0  0  0  0  0  # atno 11005 bound_to 11000
  146.0223  140.8336  142.9917 LP  0  0  0  0  0  0  0  0  0  0  0  0  # atno 17320 bound_to 7965
  144.6822  140.2647  143.7314 LP  0  0  0  0  0  0  0  0  0  0  0  0  # atno 17321 bound_to 7965
  140.7816  143.4145  151.0939 LP  0  0  0  0  0  0  0  0  0  0  0  0  # atno 17342 bound_to 10162
  139.7809  143.8356  152.3137 LP  0  0  0  0  0  0  0  0  0  0  0  0  # atno 17343 bound_to 10162
  156.8876  130.9578  151.3592 LP  0  0  0  0  0  0  0  0  0  0  0  0  # atno 17370 bound_to 10713
  157.6141  130.8605  149.8999 LP  0  0  0  0  0  0  0  0  0  0  0  0  # atno 17371 bound_to 10713
  141.2069  133.6659  156.6271 LP  0  0  0  0  0  0  0  0  0  0  0  0  # atno 17394 bound_to 11000
  140.3391  134.7864  157.4384 LP  0  0  0  0  0  0  0  0  0  0  0  0  # atno 17395 bound_to 11000

$$$$
