AV-unprocessed.smi:1607|AV-procd|sdf|6464|dock9
  -GOLD-   22720 7123D 1   1.00000     0.00000
 Structure written by MMmdl.
 39 40  0  0  0  0  0  0  0  0  2 V2000
  143.8887  132.7183  148.7798 C   0  0  0  0  0  0  0  0  0  0  0  0
  143.8997  132.8287  150.3146 C   0  0  1  0  0  0  0  0  0  0  0  0
  144.9186  131.8810  150.9745 C   0  0  0  0  0  0  0  0  0  0  0  0
  146.3556  132.3872  150.7848 C   0  0  0  0  0  0  0  0  0  0  0  0
  146.4956  133.8433  151.2567 C   0  0  0  0  0  0  0  0  0  0  0  0
  145.5222  134.7265  150.5641 N   0  3  2  0  0  0  0  0  0  0  0  0
  145.7395  136.1609  150.8798 C   0  0  0  0  0  0  0  0  0  0  0  0
  145.5440  136.4677  152.3776 C   0  0  0  0  0  0  0  0  0  0  0  0
  146.8051  136.4098  153.1078 N   0  0  0  0  0  0  0  0  0  0  0  0
  146.9844  136.8437  154.3651 C   0  0  0  0  0  0  0  0  0  0  0  0
  146.0880  137.3573  155.0346 O   0  0  0  0  0  0  0  0  0  0  0  0
  148.3852  136.6738  154.9572 C   0  0  0  0  0  0  0  0  0  0  0  0
  149.0893  137.9415  155.0144 N   0  0  0  0  0  0  0  0  0  0  0  0
  149.6957  138.6523  154.0614 C   0  0  0  0  0  0  0  0  0  0  0  0
  150.2251  139.7662  154.5437 N   0  0  0  0  0  0  0  0  0  0  0  0
  149.9056  139.7088  155.8901 N   0  0  0  0  0  0  0  0  0  0  0  0
  149.2313  138.6288  156.1751 N   0  0  0  0  0  0  0  0  0  0  0  0
  144.1213  134.2786  150.7922 C   0  0  0  0  0  0  0  0  0  0  0  0
  144.8377  133.0268  148.3414 H   0  0  0  0  0  0  0  0  0  0  0  0
  143.1086  133.3465  148.3486 H   0  0  0  0  0  0  0  0  0  0  0  0
  143.6941  131.6934  148.4623 H   0  0  0  0  0  0  0  0  0  0  0  0
  142.9081  132.5220  150.6503 H   0  0  0  0  0  0  0  0  0  0  0  0
  144.7045  131.8123  152.0420 H   0  0  0  0  0  0  0  0  0  0  0  0
  144.8165  130.8703  150.5775 H   0  0  0  0  0  0  0  0  0  0  0  0
  147.0478  131.7508  151.3369 H   0  0  0  0  0  0  0  0  0  0  0  0
  146.6427  132.3106  149.7357 H   0  0  0  0  0  0  0  0  0  0  0  0
  146.3442  133.9080  152.3354 H   0  0  0  0  0  0  0  0  0  0  0  0
  147.5128  134.1829  151.0579 H   0  0  0  0  0  0  0  0  0  0  0  0
  146.7314  136.4687  150.5452 H   0  0  0  0  0  0  0  0  0  0  0  0
  145.0252  136.7587  150.3120 H   0  0  0  0  0  0  0  0  0  0  0  0
  145.0824  137.4479  152.5100 H   0  0  0  0  0  0  0  0  0  0  0  0
  144.8723  135.7449  152.8392 H   0  0  0  0  0  0  0  0  0  0  0  0
  147.5942  136.0001  152.6286 H   0  0  0  0  0  0  0  0  0  0  0  0
  148.3346  136.2589  155.9652 H   0  0  0  0  0  0  0  0  0  0  0  0
  148.9540  135.9703  154.3475 H   0  0  0  0  0  0  0  0  0  0  0  0
  149.7506  138.3555  153.0244 H   0  0  0  0  0  0  0  0  0  0  0  0
  143.4182  134.9349  150.2804 H   0  0  0  0  0  0  0  0  0  0  0  0
  143.8934  134.3541  151.8568 H   0  0  0  0  0  0  0  0  0  0  0  0
  145.7071  134.6230  149.5764 H   0  0  0  0  0  0  0  0  0  0  0  0
  1  2  1  0  0  0  0
  1 19  1  0  0  0  0
  1 20  1  0  0  0  0
  1 21  1  0  0  0  0
  2 18  1  0  0  0  0
  2  3  1  0  0  0  0
  2 22  1  0  0  0  0
  3  4  1  0  0  0  0
  3 23  1  0  0  0  0
  3 24  1  0  0  0  0
  4  5  1  0  0  0  0
  4 25  1  0  0  0  0
  4 26  1  0  0  0  0
  5  6  1  0  0  0  0
  5 27  1  0  0  0  0
  5 28  1  0  0  0  0
  6  7  1  0  0  0  0
  6 18  1  0  0  0  0
  6 39  1  0  0  0  0
  7  8  1  0  0  0  0
  7 29  1  0  0  0  0
  7 30  1  0  0  0  0
  8  9  1  0  0  0  0
  8 31  1  0  0  0  0
  8 32  1  0  0  0  0
  9 10  1  0  0  0  0
  9 33  1  0  0  0  0
 10 11  2  0  0  0  0
 10 12  1  0  0  0  0
 12 13  1  0  0  0  0
 12 34  1  0  0  0  0
 12 35  1  0  0  0  0
 13 17  1  0  0  0  0
 13 14  1  0  0  0  0
 14 15  2  0  0  0  0
 14 36  1  0  0  0  0
 15 16  1  0  0  0  0
 16 17  2  0  0  0  0
 18 37  1  0  0  0  0
 18 38  1  0  0  0  0
M  CHG  1   6   1
M  END
> <s_m_source_file>
AV-unprocessed.smi

> <i_m_source_file_index>
1607

> <i_lp_mmshare_version>
43012

> <i_f3d_flags>
0

> <s_epik_input>
W0NIM11bQ0BASF0xW0NIMl1bQ0gyXVtDSDJdTihbQ0gyXTEpW0NIMl1bQ0gyXVtOSF1DKD1PKVtDSDJdbjJbY0hdbm5uMg==

> <s_epik_cmdline>
J2VwaWtfcHl0aG9uJywgJy1waCcsICc3LjAnLCAnLXRuJywgJzgnLCAnLW1hJywgJzIwMCcsICctbWV0YWxfYmluZGluZycsICctaW1hZScsICc8aW5maWxlLm1hZT4nLCAnLW9tYWUnLCAnPG91dGZpbGUubWFlPic=

> <r_lp_tautomer_probability>
1

> <r_epik_Ionization_Penalty>
0.00268321

> <r_epik_Ionization_Penalty_Charging>
0.00267875

> <r_epik_Ionization_Penalty_Neutral>
4.46125e-06

> <r_epik_State_Penalty>
0.00186642

> <r_epik_Charging_Adjusted_Penalty>
0.00454517

> <i_epik_Tot_Q>
1

> <i_epik_Tot_abs_Q>
1

> <r_epik_Metal_State_Penalty>
-0

> <b_epik_Metal_Only>
0

> <s_lp_Force_Field>
OPLS_2005

> <r_lp_Energy>
22.4706

> <b_lp_Chiralities_Consistent>
1

> <s_lp_Variant>
AV-unprocessed.smi:1607-2

> <Gold.Version>
5.8.1

> <Gold.Id.Protein>
6NUR|6NUR_protein|mol2

> <Gold.PLP.Fitness>
40.4316

> <Gold.PLP.PLP>
-27.2639

> <Gold.PLP.part.hbond>
-2.8866

> <Gold.PLP.part.metal>
0.0000

> <Gold.PLP.part.buried>
-1.3080

> <Gold.PLP.part.nonpolar>
-23.4130

> <Gold.PLP.part.repulsive>
0.2261

> <Gold.PLP.ligand.clash>
0.0000

> <Gold.PLP.ligand.torsion>
0.6979

> <Gold.PLP.Chemscore.Hbond>
2.9500

> <Gold.PLP.Chemscore.CHOScore>
1.8886

> <Gold.PLP.Chemscore.Metal>
0.0000

> <Gold.Chemscore.Hbonds>
donor molecule, donor type, donor heavy atom, donor atom, acceptor molecule, acceptor atom, score
      L1  H     6    39       P1  7921  1.00
      L1  H     9    33       P1  7948  0.98
      P1  H  7989  7998       L1    15  0.91
      L1  C    14    36       P1  7948  1.00
      L1  C    14    36       P1  7957  0.85

> <Gold.PLP.Chemscore.Internal.Correction>
0.0475

> <Gold.Rescore>
     Score         DG    S(hbond)    S(metal)    S(lipo)     H(rot)  DE(clash)    DE(int)     intcor
     14.91     -15.83       2.84        0.00      66.42       2.69       0.05       0.87       ----

> <Gold.Chemscore.Fitness>
14.9117

> <Gold.Chemscore.DG>
-15.8301

> <Gold.Chemscore.ZeroCoef>
-5.4800

> <Gold.Chemscore.Hbond>
2.8364

> <Gold.Chemscore.Metal>
0.0000

> <Gold.Chemscore.Lipo>
66.4185

> <Gold.Chemscore.Internal_Hbond>
0.0000

> <Gold.Chemscore.DEClash>
0.0466

> <Gold.Chemscore.DEInternal>
0.8719

> <Gold.Chemscore.Rot>
2.6932

> <Gold.Chemscore.Internal.Correction>
   9.000000E+99

> <Gold.Chemscore.Hbonds>
donor molecule, donor type, donor heavy atom, donor atom, acceptor molecule, acceptor atom, score
      L1  H     6    39       P1  7921  0.85
      L1  H     9    33       P1  7948  0.89
      P1  H  7989  7998       L1    15  0.86

> <Gold.Chemscore.Hbond.Weighted>
-9.4737

> <Gold.Chemscore.Metal.Weighted>
-0.0000

> <Gold.Chemscore.Lipo.Weighted>
-7.7710

> <Gold.Chemscore.Internal_Hbond.Weighted>
0.0000

> <Gold.Chemscore.DEClash.Weighted>
0.0466

> <Gold.Chemscore.DEInternal.Weighted>
0.8719

> <Gold.Chemscore.Rot.Weighted>
6.8945

> <Gold.Chemscore.Internal.Correction.Weighted>
   9.000000E+99

> <Gold.Protein.RotatedTorsions>
[ 6907 6896 6895 6894 ] final  139.23 input  -60.11 | X-H torsion
[ 7974 7965 7964 7962 ] final   35.36 input  175.53 | X-H torsion
[ 8008 7997 7996 7995 ] final  -14.50 input   59.86 | X-H torsion
[ 10167 10162 10161 10158 ] final -121.61 input  -65.29 | X-H torsion
[ 10718 10713 10712 10709 ] final  -23.18 input   66.30 | X-H torsion
[ 10763 10752 10751 10750 ] final  -62.77 input  -60.55 | X-H torsion
[ 11005 11000 10999 10996 ] final  124.88 input  -57.11 | X-H torsion

> <Gold.Protein.ActiveResidues>
 VAL166  LYS551  ARG553  GLY616  TRP617  ASP618  TYR619  PRO620  LYS621  CYS622 
 ASP623  PHE694  ASN695  SER759  ASP760  ASP761  ALA762  ILE779  LEU786  VAL792 
 PHE793  MET794  SER795  GLU796  ALA797  LYS798  CYS799  TRP800  GLU811  SER814 

> <Gold.Protein.RotatedAtoms>
  152.2573  133.5267  159.5360 H   0  0  0  0  0  0  0  0  0  0  0  0  # atno 6907 bound_to 6896
  150.7113  134.0878  159.3930 H   0  0  0  0  0  0  0  0  0  0  0  0  # atno 6908 bound_to 6896
  151.8796  135.0458  160.0538 H   0  0  0  0  0  0  0  0  0  0  0  0  # atno 6909 bound_to 6896
  146.1289  139.6153  142.9240 H   0  0  0  0  0  0  0  0  0  0  0  0  # atno 7974 bound_to 7965
  154.5205  140.2221  155.8985 H   0  0  0  0  0  0  0  0  0  0  0  0  # atno 8008 bound_to 7997
  156.1656  140.3133  155.8848 H   0  0  0  0  0  0  0  0  0  0  0  0  # atno 8009 bound_to 7997
  155.3662  140.0464  157.3036 H   0  0  0  0  0  0  0  0  0  0  0  0  # atno 8010 bound_to 7997
  140.0231  143.5324  152.2211 H   0  0  0  0  0  0  0  0  0  0  0  0  # atno 10167 bound_to 10162
  156.4945  130.4574  149.6736 H   0  0  0  0  0  0  0  0  0  0  0  0  # atno 10718 bound_to 10713
  154.3050  135.6227  153.5441 H   0  0  0  0  0  0  0  0  0  0  0  0  # atno 10763 bound_to 10752
  152.9836  135.5687  154.5242 H   0  0  0  0  0  0  0  0  0  0  0  0  # atno 10764 bound_to 10752
  154.4880  135.2866  155.1495 H   0  0  0  0  0  0  0  0  0  0  0  0  # atno 10765 bound_to 10752
  139.9380  134.9638  156.8476 H   0  0  0  0  0  0  0  0  0  0  0  0  # atno 11005 bound_to 11000
  145.5305  141.0427  143.2385 LP  0  0  0  0  0  0  0  0  0  0  0  0  # atno 17320 bound_to 7965
  144.7670  139.6822  143.7211 LP  0  0  0  0  0  0  0  0  0  0  0  0  # atno 17321 bound_to 7965
  139.6126  144.7612  151.2918 LP  0  0  0  0  0  0  0  0  0  0  0  0  # atno 17342 bound_to 10162
  140.7334  143.6796  150.8012 LP  0  0  0  0  0  0  0  0  0  0  0  0  # atno 17343 bound_to 10162
  156.3393  130.7373  151.2316 LP  0  0  0  0  0  0  0  0  0  0  0  0  # atno 17370 bound_to 10713
  157.7470  131.0408  150.4615 LP  0  0  0  0  0  0  0  0  0  0  0  0  # atno 17371 bound_to 10713
  140.6026  134.0158  155.7543 LP  0  0  0  0  0  0  0  0  0  0  0  0  # atno 17394 bound_to 11000
  141.1002  133.9780  157.3092 LP  0  0  0  0  0  0  0  0  0  0  0  0  # atno 17395 bound_to 11000

$$$$
