AV-unprocessed.smi:2151|AV-procd|sdf|8758|dock10
  -GOLD-   2272011533D 1   1.00000     0.00000
 Structure written by MMmdl.
 39 40  0  0  0  0  0  0  0  0  1 V2000
  151.7011  144.7872  158.7780 C   0  0  0  0  0  0  0  0  0  0  0  0
  152.3215  143.3788  158.7726 C   0  0  2  0  0  0  0  0  0  0  0  0
  151.2828  142.3842  158.5176 N   0  0  0  0  0  0  0  0  0  0  0  0
  151.4790  141.1788  157.9620 C   0  0  0  0  0  0  0  0  0  0  0  0
  152.5807  140.7844  157.5771 O   0  0  0  0  0  0  0  0  0  0  0  0
  150.2283  140.3026  157.8029 C   0  0  0  0  0  0  0  0  0  0  0  0
  149.3389  140.7483  156.7175 N   0  0  0  0  0  0  0  0  0  0  0  0
  148.0758  141.2491  157.0893 C   0  0  0  0  0  0  0  0  0  0  0  0
  147.1676  141.6845  156.1950 C   0  0  0  0  0  0  0  0  0  0  0  0
  145.8383  142.2824  156.6292 C   0  0  0  0  0  0  0  0  0  0  0  0
  145.1001  141.3849  157.2823 F   0  0  0  0  0  0  0  0  0  0  0  0
  146.0509  143.3154  157.4430 F   0  0  0  0  0  0  0  0  0  0  0  0
  145.1383  142.7171  155.5805 F   0  0  0  0  0  0  0  0  0  0  0  0
  147.5640  141.6430  154.8012 C   0  0  0  0  0  0  0  0  0  0  0  0
  148.7738  141.1806  154.4297 C   0  0  0  0  0  0  0  0  0  0  0  0
  149.7449  140.6967  155.4135 C   0  0  0  0  0  0  0  0  0  0  0  0
  150.8535  140.2725  155.0864 O   0  0  0  0  0  0  0  0  0  0  0  0
  153.0211  143.0460  160.1044 C   0  0  2  0  0  0  0  0  0  0  0  0
  153.6674  141.6590  160.1616 C   0  0  0  0  0  0  0  0  0  0  0  0
  153.6112  141.2837  161.6358 C   0  0  0  0  0  0  0  0  0  0  0  0
  152.7280  142.3630  162.2642 C   0  0  0  0  0  0  0  0  0  0  0  0
  152.0780  142.9794  161.1635 O   0  0  0  0  0  0  0  0  0  0  0  0
  152.4601  145.5548  158.9294 H   0  0  0  0  0  0  0  0  0  0  0  0
  150.9596  144.8910  159.5707 H   0  0  0  0  0  0  0  0  0  0  0  0
  151.2075  145.0058  157.8306 H   0  0  0  0  0  0  0  0  0  0  0  0
  153.0653  143.3273  157.9750 H   0  0  0  0  0  0  0  0  0  0  0  0
  150.3455  142.6254  158.8055 H   0  0  0  0  0  0  0  0  0  0  0  0
  150.5313  139.2663  157.6410 H   0  0  0  0  0  0  0  0  0  0  0  0
  149.6943  140.2968  158.7541 H   0  0  0  0  0  0  0  0  0  0  0  0
  147.8975  141.2684  158.1547 H   0  0  0  0  0  0  0  0  0  0  0  0
  146.8781  141.9865  154.0409 H   0  0  0  0  0  0  0  0  0  0  0  0
  149.0347  141.1639  153.3816 H   0  0  0  0  0  0  0  0  0  0  0  0
  153.7638  143.8093  160.3458 H   0  0  0  0  0  0  0  0  0  0  0  0
  153.0829  140.9421  159.5832 H   0  0  0  0  0  0  0  0  0  0  0  0
  154.6832  141.6582  159.7658 H   0  0  0  0  0  0  0  0  0  0  0  0
  153.1719  140.2933  161.7594 H   0  0  0  0  0  0  0  0  0  0  0  0
  154.6007  141.2719  162.0937 H   0  0  0  0  0  0  0  0  0  0  0  0
  152.0083  141.9568  162.9750 H   0  0  0  0  0  0  0  0  0  0  0  0
  153.3376  143.1051  162.7818 H   0  0  0  0  0  0  0  0  0  0  0  0
  1  2  1  0  0  0  0
  1 23  1  0  0  0  0
  1 24  1  0  0  0  0
  1 25  1  0  0  0  0
  2  3  1  0  0  0  0
  2 18  1  0  0  0  0
  2 26  1  0  0  0  0
  3  4  1  0  0  0  0
  3 27  1  0  0  0  0
  4  5  2  0  0  0  0
  4  6  1  0  0  0  0
  6  7  1  0  0  0  0
  6 28  1  0  0  0  0
  6 29  1  0  0  0  0
  7 16  1  0  0  0  0
  7  8  1  0  0  0  0
  8  9  2  0  0  0  0
  8 30  1  0  0  0  0
  9 10  1  0  0  0  0
  9 14  1  0  0  0  0
 10 11  1  0  0  0  0
 10 12  1  0  0  0  0
 10 13  1  0  0  0  0
 14 15  2  0  0  0  0
 14 31  1  0  0  0  0
 15 16  1  0  0  0  0
 15 32  1  0  0  0  0
 16 17  2  0  0  0  0
 18 22  1  0  0  0  0
 18 19  1  0  0  0  0
 18 33  1  0  0  0  0
 19 20  1  0  0  0  0
 19 34  1  0  0  0  0
 19 35  1  0  0  0  0
 20 21  1  0  0  0  0
 20 36  1  0  0  0  0
 20 37  1  0  0  0  0
 21 22  1  0  0  0  0
 21 38  1  0  0  0  0
 21 39  1  0  0  0  0
M  END
> <s_m_source_file>
AV-unprocessed.smi

> <i_m_source_file_index>
2151

> <i_lp_mmshare_version>
43012

> <i_f3d_flags>
0

> <s_epik_input>
TzFbQ0gyXVtDSDJdW0NIMl1bQ0BIXTFbQ0BIXShbQ0gzXSlbTkhdQyg9TylbQ0gyXW4yW2NIXWMoQyhGKShGKUYpW2NIXVtjSF1jMj1P

> <s_epik_cmdline>
J2VwaWtfcHl0aG9uJywgJy1waCcsICc3LjAnLCAnLXRuJywgJzgnLCAnLW1hJywgJzIwMCcsICctbWV0YWxfYmluZGluZycsICctaW1hZScsICc8aW5maWxlLm1hZT4nLCAnLW9tYWUnLCAnPG91dGZpbGUubWFlPic=

> <r_lp_tautomer_probability>
1

> <r_epik_Ionization_Penalty>
4.20109e-08

> <r_epik_Ionization_Penalty_Charging>
1.89977e-08

> <r_epik_Ionization_Penalty_Neutral>
2.30132e-08

> <r_epik_State_Penalty>
-0

> <r_epik_Charging_Adjusted_Penalty>
1.89977e-08

> <i_epik_Tot_Q>
0

> <i_epik_Tot_abs_Q>
0

> <r_epik_Metal_State_Penalty>
-0

> <b_epik_Metal_Only>
0

> <s_lp_Force_Field>
OPLS_2005

> <r_lp_Energy>
29.9007

> <b_lp_Chiralities_Consistent>
1

> <s_lp_Variant>
AV-unprocessed.smi:2151-1

> <Gold.Version>
5.8.1

> <Gold.Id.Protein>
6NUR|6NUR_protein|mol2

> <Gold.PLP.Fitness>
45.7006

> <Gold.PLP.PLP>
-41.9316

> <Gold.PLP.part.hbond>
-2.0000

> <Gold.PLP.part.metal>
0.0000

> <Gold.PLP.part.buried>
-1.4558

> <Gold.PLP.part.nonpolar>
-37.6986

> <Gold.PLP.part.repulsive>
0.2015

> <Gold.PLP.ligand.clash>
0.0000

> <Gold.PLP.ligand.torsion>
0.5924

> <Gold.PLP.Chemscore.Hbond>
1.6185

> <Gold.PLP.Chemscore.CHOScore>
0.0000

> <Gold.PLP.Chemscore.Metal>
0.0000

> <Gold.Chemscore.Hbonds>
donor molecule, donor type, donor heavy atom, donor atom, acceptor molecule, acceptor atom, score
      P1  H  7989  7998       L1    17  1.00
      P1  H  7997  8009       L1     5  0.55

> <Gold.PLP.Chemscore.Internal.Correction>
0.0982

> <Gold.Rescore>
     Score         DG    S(hbond)    S(metal)    S(lipo)     H(rot)  DE(clash)    DE(int)     intcor
     16.16     -17.02       1.66        0.00      90.96       1.82       0.13       0.73       ----

> <Gold.Chemscore.Fitness>
16.1577

> <Gold.Chemscore.DG>
-17.0168

> <Gold.Chemscore.ZeroCoef>
-5.4800

> <Gold.Chemscore.Hbond>
1.6648

> <Gold.Chemscore.Metal>
0.0000

> <Gold.Chemscore.Lipo>
90.9638

> <Gold.Chemscore.Internal_Hbond>
0.0000

> <Gold.Chemscore.DEClash>
0.1303

> <Gold.Chemscore.DEInternal>
0.7288

> <Gold.Chemscore.Rot>
1.8228

> <Gold.Chemscore.Internal.Correction>
   9.000000E+99

> <Gold.Chemscore.Hbonds>
donor molecule, donor type, donor heavy atom, donor atom, acceptor molecule, acceptor atom, score
      P1  H  7989  7998       L1    17  0.96
      P1  H  7997  8009       L1     5  0.55

> <Gold.Chemscore.Hbond.Weighted>
-5.5605

> <Gold.Chemscore.Metal.Weighted>
-0.0000

> <Gold.Chemscore.Lipo.Weighted>
-10.6428

> <Gold.Chemscore.Internal_Hbond.Weighted>
0.0000

> <Gold.Chemscore.DEClash.Weighted>
0.1303

> <Gold.Chemscore.DEInternal.Weighted>
0.7288

> <Gold.Chemscore.Rot.Weighted>
4.6665

> <Gold.Chemscore.Internal.Correction.Weighted>
   9.000000E+99

> <Gold.Protein.RotatedTorsions>
[ 6907 6896 6895 6894 ] final    2.27 input  -60.11 | X-H torsion
[ 7974 7965 7964 7962 ] final   92.51 input  175.53 | X-H torsion
[ 8008 7997 7996 7995 ] final  177.46 input   59.86 | X-H torsion
[ 10167 10162 10161 10158 ] final   48.15 input  -65.29 | X-H torsion
[ 10718 10713 10712 10709 ] final -169.96 input   66.30 | X-H torsion
[ 10763 10752 10751 10750 ] final  -36.23 input  -60.55 | X-H torsion
[ 11005 11000 10999 10996 ] final -148.66 input  -57.11 | X-H torsion

> <Gold.Protein.ActiveResidues>
 VAL166  LYS551  ARG553  GLY616  TRP617  ASP618  TYR619  PRO620  LYS621  CYS622 
 ASP623  PHE694  ASN695  SER759  ASP760  ASP761  ALA762  ILE779  LEU786  VAL792 
 PHE793  MET794  SER795  GLU796  ALA797  LYS798  CYS799  TRP800  GLU811  SER814 

> <Gold.Protein.RotatedAtoms>
  151.6062  135.1043  160.0070 H   0  0  0  0  0  0  0  0  0  0  0  0  # atno 6907 bound_to 6896
  152.4232  133.7147  159.6510 H   0  0  0  0  0  0  0  0  0  0  0  0  # atno 6908 bound_to 6896
  150.8120  133.8332  159.3200 H   0  0  0  0  0  0  0  0  0  0  0  0  # atno 6909 bound_to 6896
  145.4913  139.2276  143.2828 H   0  0  0  0  0  0  0  0  0  0  0  0  # atno 7974 bound_to 7965
  156.0654  140.1358  156.9892 H   0  0  0  0  0  0  0  0  0  0  0  0  # atno 8008 bound_to 7997
  154.4503  140.0983  156.6650 H   0  0  0  0  0  0  0  0  0  0  0  0  # atno 8009 bound_to 7997
  155.5312  140.3458  155.4429 H   0  0  0  0  0  0  0  0  0  0  0  0  # atno 8010 bound_to 7997
  140.2963  144.2987  150.6229 H   0  0  0  0  0  0  0  0  0  0  0  0  # atno 10167 bound_to 10162
  156.7192  130.9263  151.3096 H   0  0  0  0  0  0  0  0  0  0  0  0  # atno 10718 bound_to 10713
  153.8764  135.6826  153.4770 H   0  0  0  0  0  0  0  0  0  0  0  0  # atno 10763 bound_to 10752
  153.1258  135.4719  154.9268 H   0  0  0  0  0  0  0  0  0  0  0  0  # atno 10764 bound_to 10752
  154.7690  135.3233  154.8180 H   0  0  0  0  0  0  0  0  0  0  0  0  # atno 10765 bound_to 10752
  140.7589  134.3321  157.5107 H   0  0  0  0  0  0  0  0  0  0  0  0  # atno 11005 bound_to 11000
  146.2282  140.5707  142.8987 LP  0  0  0  0  0  0  0  0  0  0  0  0  # atno 17320 bound_to 7965
  144.7832  140.5883  143.6591 LP  0  0  0  0  0  0  0  0  0  0  0  0  # atno 17321 bound_to 7965
  140.5690  143.2183  151.7633 LP  0  0  0  0  0  0  0  0  0  0  0  0  # atno 17342 bound_to 10162
  139.4926  144.4244  151.9942 LP  0  0  0  0  0  0  0  0  0  0  0  0  # atno 17343 bound_to 10162
  157.6905  130.9228  150.0500 LP  0  0  0  0  0  0  0  0  0  0  0  0  # atno 17370 bound_to 10713
  156.1606  130.3644  149.9304 LP  0  0  0  0  0  0  0  0  0  0  0  0  # atno 17371 bound_to 10713
  139.8774  134.9189  156.3214 LP  0  0  0  0  0  0  0  0  0  0  0  0  # atno 17394 bound_to 11000
  140.9682  133.7344  156.0497 LP  0  0  0  0  0  0  0  0  0  0  0  0  # atno 17395 bound_to 11000

$$$$
