#       Name:                AV-unprocessed.smi:1535
#       Creating user name   scv26
#       Creation time:       Fri Mar 27 06:33:50 2020


#       File generated by GOLD software.
#

@<TRIPOS>MOLECULE
AV-unprocessed.smi:1535
    51    52     1
SMALL
NO_CHARGES


@<TRIPOS>ATOM
      1 ****        -5.1396   0.4073  -2.9283 C.3            1 S1                 0.0000
      2 ****        -3.9597   0.8232  -2.0674 C.ar           1 S1                 0.0000
      3 ****        -2.9932   1.7027  -2.6051 C.ar           1 S1                 0.0000
      4 ****        -1.8814   2.1135  -1.8378 C.ar           1 S1                 0.0000
      5 ****        -0.8289   2.9535  -2.1583 N.2            1 S1                 0.0000
      6 ****        -0.1210   2.9390  -1.0331 C.2            1 S1                 0.0000
      7 ****        -0.5834   2.1753  -0.0240 N.pl3          1 S1                 0.0000
      8 ****         0.0217   1.9896   1.2822 C.3            1 S1                 0.0000
      9 ****         0.5589   0.5590   1.4859 C.3            1 S1                 0.0000
     10 ****         1.1667   0.4987   2.7602 O.3            1 S1                 0.0000
     11 ****         1.5964   0.1291   0.4272 C.3            1 S1                 0.0000
     12 ****         1.9337  -1.3123   0.5483 N.4            1 S1                 1.0000
     13 ****         0.9798  -2.1798  -0.1819 C.3            1 S1                 0.0000
     14 ****         3.3444  -1.6174   0.2013 C.3            1 S1                 0.0000
     15 ****         4.3264  -1.1883   1.3091 C.3            1 S1                 0.0000
     16 ****         5.7786  -1.4960   0.9231 C.3            1 S1                 0.0000
     17 ****         3.9840  -1.8124   2.5974 C.1            1 S1                 0.0000
     18 ****         3.7108  -2.3027   3.6082 N.1            1 S1                 0.0000
     19 ****        -1.7612   1.6153  -0.5075 C.ar           1 S1                 0.0000
     20 ****        -2.7192   0.7440   0.0404 C.ar           1 S1                 0.0000
     21 ****        -3.8234   0.3432  -0.7401 C.ar           1 S1                 0.0000
     22 ****        -4.8514  -0.6000  -0.1405 C.3            1 S1                 0.0000
     23 ****        -5.0838   0.8517  -3.9224 H              1 S1                 0.0000
     24 ****        -6.0764   0.7268  -2.4712 H              1 S1                 0.0000
     25 ****        -5.1635  -0.6761  -3.0479 H              1 S1                 0.0000
     26 ****        -3.0984   2.0710  -3.6151 H              1 S1                 0.0000
     27 ****         0.7929   3.5076  -0.9413 H              1 S1                 0.0000
     28 ****         0.8272   2.7168   1.3977 H              1 S1                 0.0000
     29 ****        -0.7265   2.2275   2.0395 H              1 S1                 0.0000
     30 ****        -0.2823  -0.1337   1.4861 H              1 S1                 0.0000
     31 ****         0.5272   0.7429   3.4128 H              1 S1                 0.0000
     32 ****         1.2337   0.3156  -0.5844 H              1 S1                 0.0000
     33 ****         2.4838   0.7525   0.5364 H              1 S1                 0.0000
     34 ****         1.0573  -2.0255  -1.2591 H              1 S1                 0.0000
     35 ****        -0.0490  -1.9775   0.1163 H              1 S1                 0.0000
     36 ****         1.1788  -3.2315   0.0265 H              1 S1                 0.0000
     37 ****         3.4533  -2.6926   0.0507 H              1 S1                 0.0000
     38 ****         3.5976  -1.1458  -0.7495 H              1 S1                 0.0000
     39 ****         4.2503  -0.1139   1.4711 H              1 S1                 0.0000
     40 ****         6.4668  -1.1680   1.7026 H              1 S1                 0.0000
     41 ****         6.0574  -0.9864   0.0004 H              1 S1                 0.0000
     42 ****         5.9304  -2.5656   0.7747 H              1 S1                 0.0000
     43 ****        -2.6068   0.3870   1.0534 H              1 S1                 0.0000
     44 ****        -4.6049  -0.8542   0.8908 H              1 S1                 0.0000
     45 ****        -4.8974  -1.5273  -0.7118 H              1 S1                 0.0000
     46 ****        -5.8403  -0.1408  -0.1438 H              1 S1                 0.0000
     47 ****         1.8358  -1.5439   1.5272 H              1 S1                 0.0000
     48 ****        -0.6485   3.4425  -3.0117 LP             1 S1                 0.0000
     49 ****         1.9406   1.1310   2.7942 LP             1 S1                 0.0000
     50 ****         1.4884  -0.4317   2.9359 LP             1 S1                 0.0000
     51 ****         3.4745  -2.7268   4.4825 LP             1 S1                 0.0000
@<TRIPOS>BOND
    1    1    2 1     
    2    1   23 1     
    3    1   24 1     
    4    1   25 1     
    5    2   21 ar    
    6    2    3 ar    
    7    3    4 ar    
    8    3   26 1     
    9    4   19 ar    
   10    4    5 1     
   11    5    6 2     
   12    6    7 1     
   13    6   27 1     
   14    7    8 1     
   15    7   19 1     
   16    8    9 1     
   17    8   28 1     
   18    8   29 1     
   19    9   10 1     
   20    9   11 1     
   21    9   30 1     
   22   10   31 1     
   23   11   12 1     
   24   11   32 1     
   25   11   33 1     
   26   12   13 1     
   27   12   14 1     
   28   12   47 1     
   29   13   34 1     
   30   13   35 1     
   31   13   36 1     
   32   14   15 1     
   33   14   37 1     
   34   14   38 1     
   35   15   16 1     
   36   15   17 1     
   37   15   39 1     
   38   16   40 1     
   39   16   41 1     
   40   16   42 1     
   41   17   18 3     
   42   19   20 ar    
   43   20   21 ar    
   44   20   43 1     
   45   21   22 1     
   46   22   44 1     
   47   22   45 1     
   48   22   46 1     
   49    5   48 1     
   50   10   49 1     
   51   10   50 1     
   52   18   51 1     
@<TRIPOS>SUBSTRUCTURE
      1 S1             1
@<TRIPOS>SET
LONE_PAIRS      STATIC     ATOMS    <user>   **** ""
4 48 49 50 51
DONOR_HYDROGENS      STATIC     ATOMS    <user>   **** ""
2 31 47
ATOM$BLUE        STATIC     ATOMS    COLORGROUP SYSTEM
4 48 49 50 51
ATOM$RED        STATIC     ATOMS    COLORGROUP SYSTEM
2 31 47
