#       Name:                AV-unprocessed.smi:250
#       Creating user name   scv26
#       Creation time:       Thu Mar 26 21:05:21 2020


#       File generated by GOLD software.
#

@<TRIPOS>MOLECULE
AV-unprocessed.smi:250
    65    69     1
SMALL
NO_CHARGES


@<TRIPOS>ATOM
      1 ****        -7.1675  -1.4722  -0.0934 C.3            1 S1                 0.0000
      2 ****        -6.2923  -0.5463  -0.8010 N.am           1 S1                 0.0000
      3 ****        -6.5465   0.7537  -1.0251 C.2            1 S1                 0.0000
      4 ****        -7.5360   1.3779  -0.6470 O.2            1 S1                 0.0000
      5 ****        -5.5420   1.2600  -1.7464 N.am           1 S1                 0.0000
      6 ****        -4.5812   0.2514  -2.1392 C.3            1 S1                 0.0000
      7 ****        -3.1079   0.7262  -2.1457 C.3            1 S1                 0.0000
      8 ****        -2.3313   0.2982  -0.9818 N.pl3          1 S1                 0.0000
      9 ****        -1.0760   0.8101  -0.9041 C.ar           1 S1                 0.0000
     10 ****        -0.9569   2.1631  -0.8780 N.ar           1 S1                 0.0000
     11 ****         0.2462   2.7373  -0.7973 C.ar           1 S1                 0.0000
     12 ****         1.4445   2.1560  -0.7347 N.ar           1 S1                 0.0000
     13 ****         1.3372   0.7970  -0.7667 C.ar           1 S1                 0.0000
     14 ****         0.1292   0.0461  -0.8534 C.ar           1 S1                 0.0000
     15 ****         0.4294  -1.3119  -0.8865 N.2            1 S1                 0.0000
     16 ****         1.7307  -1.3592  -0.8130 C.2            1 S1                 0.0000
     17 ****         2.3574  -0.1380  -0.7203 N.pl3          1 S1                 0.0000
     18 ****         3.7913   0.1033  -0.6358 C.3            1 S1                 0.0000
     19 ****         4.3938   0.1091   0.8037 C.3            1 S1                 0.0000
     20 ****         5.8967   0.4900   0.6799 C.3            1 S1                 0.0000
     21 ****         6.6297  -0.4453  -0.0864 O.3            1 S1                 0.0000
     22 ****         3.6693   1.1485   1.6992 C.3            1 S1                 0.0000
     23 ****         4.0882   1.0629   3.1795 C.3            1 S1                 0.0000
     24 ****         3.8719  -0.2534   3.6731 O.3            1 S1                 0.0000
     25 ****         4.6276  -1.2396   2.9807 C.3            1 S1                 0.0000
     26 ****         4.2156  -1.2668   1.4976 C.3            1 S1                 0.0000
     27 ****        -2.5695  -1.0471  -0.4752 C.3            1 S1                 0.0000
     28 ****        -4.0342  -1.1737  -0.0644 C.3            1 S1                 0.0000
     29 ****        -4.9722  -0.9522  -1.2659 C.3            1 S1                 0.0000
     30 ****        -4.8430   0.0197  -3.1733 H              1 S1                 0.0000
     31 ****        -5.0302  -1.8566  -1.8736 H              1 S1                 0.0000
     32 ****        -8.1723  -1.4526  -0.5172 H              1 S1                 0.0000
     33 ****        -7.2325  -1.2024   0.9611 H              1 S1                 0.0000
     34 ****        -6.7941  -2.4944  -0.1604 H              1 S1                 0.0000
     35 ****        -5.4907   2.2189  -2.0585 H              1 S1                 0.0000
     36 ****        -2.6130   0.3122  -3.0251 H              1 S1                 0.0000
     37 ****        -3.0760   1.8099  -2.2649 H              1 S1                 0.0000
     38 ****         0.2486   3.8171  -0.7795 H              1 S1                 0.0000
     39 ****         2.2731  -2.2936  -0.8199 H              1 S1                 0.0000
     40 ****         4.2824  -0.6545  -1.2474 H              1 S1                 0.0000
     41 ****         3.9960   1.0560  -1.1263 H              1 S1                 0.0000
     42 ****         6.0006   1.4691   0.2111 H              1 S1                 0.0000
     43 ****         6.3841   0.5668   1.6500 H              1 S1                 0.0000
     44 ****         7.5283  -0.1560  -0.1340 H              1 S1                 0.0000
     45 ****         3.8354   2.1580   1.3214 H              1 S1                 0.0000
     46 ****         2.5924   0.9869   1.6683 H              1 S1                 0.0000
     47 ****         5.1279   1.3553   3.3265 H              1 S1                 0.0000
     48 ****         3.4889   1.7548   3.7714 H              1 S1                 0.0000
     49 ****         5.6953  -1.0548   3.1007 H              1 S1                 0.0000
     50 ****         4.4284  -2.2093   3.4368 H              1 S1                 0.0000
     51 ****         3.1699  -1.5693   1.4636 H              1 S1                 0.0000
     52 ****         4.7691  -2.0434   0.9692 H              1 S1                 0.0000
     53 ****        -2.3191  -1.7834  -1.2398 H              1 S1                 0.0000
     54 ****        -1.9402  -1.2427   0.3938 H              1 S1                 0.0000
     55 ****        -4.2174  -2.1543   0.3755 H              1 S1                 0.0000
     56 ****        -4.2398  -0.4423   0.7196 H              1 S1                 0.0000
     57 ****        -8.2473   0.9149  -0.1182 LP             1 S1                 0.0000
     58 ****        -7.6294   2.3486  -0.8683 LP             1 S1                 0.0000
     59 ****        -1.7769   2.7339  -0.9196 LP             1 S1                 0.0000
     60 ****         2.3103   2.6526  -0.6724 LP             1 S1                 0.0000
     61 ****        -0.2088  -2.0790  -0.9519 LP             1 S1                 0.0000
     62 ****         6.2446  -0.5023  -1.0075 LP             1 S1                 0.0000
     63 ****         6.5876  -1.3447   0.3487 LP             1 S1                 0.0000
     64 ****         2.9008  -0.4728   3.5797 LP             1 S1                 0.0000
     65 ****         4.1275  -0.2770   4.6396 LP             1 S1                 0.0000
@<TRIPOS>BOND
    1    1    2 1     
    2    1   32 1     
    3    1   33 1     
    4    1   34 1     
    5    2   29 1     
    6    2    3 am    
    7    3    4 2     
    8    3    5 am    
    9    5    6 1     
   10    5   35 1     
   11    6   30 1     
   12    6   29 1     
   13    6    7 1     
   14    7    8 1     
   15    7   36 1     
   16    7   37 1     
   17    8    9 1     
   18    8   27 1     
   19    9   14 ar    
   20    9   10 ar    
   21   10   11 ar    
   22   11   12 ar    
   23   11   38 1     
   24   12   13 ar    
   25   13   17 1     
   26   13   14 ar    
   27   14   15 1     
   28   15   16 2     
   29   16   17 1     
   30   16   39 1     
   31   17   18 1     
   32   18   19 1     
   33   18   40 1     
   34   18   41 1     
   35   19   26 1     
   36   19   20 1     
   37   19   22 1     
   38   20   21 1     
   39   20   42 1     
   40   20   43 1     
   41   21   44 1     
   42   22   23 1     
   43   22   45 1     
   44   22   46 1     
   45   23   24 1     
   46   23   47 1     
   47   23   48 1     
   48   24   25 1     
   49   25   26 1     
   50   25   49 1     
   51   25   50 1     
   52   26   51 1     
   53   26   52 1     
   54   27   28 1     
   55   27   53 1     
   56   27   54 1     
   57   28   29 1     
   58   28   55 1     
   59   28   56 1     
   60   29   31 1     
   61    4   57 1     
   62    4   58 1     
   63   10   59 1     
   64   12   60 1     
   65   15   61 1     
   66   21   62 1     
   67   21   63 1     
   68   24   64 1     
   69   24   65 1     
@<TRIPOS>SUBSTRUCTURE
      1 S1             1
@<TRIPOS>SET
LONE_PAIRS      STATIC     ATOMS    <user>   **** ""
9 57 58 59 60 61 62 63 64 65
DONOR_HYDROGENS      STATIC     ATOMS    <user>   **** ""
2 35 44
ATOM$BLUE        STATIC     ATOMS    COLORGROUP SYSTEM
9 57 58 59 60 61 62 63 64 65
ATOM$RED        STATIC     ATOMS    COLORGROUP SYSTEM
2 35 44
