AV-unprocessed.smi:2032|AV-procd|sdf|8258|dock4
  -GOLD-   2272010533D 1   1.00000     0.00000
 Structure written by MMmdl.
 42 43  0  0  0  0  0  0  0  0  3 V2000
  146.9211  138.7652  152.7285 C   0  0  0  0  0  0  0  0  0  0  0  0
  146.9671  138.6419  154.2622 C   0  0  1  0  0  0  0  0  0  0  0  0
  147.1523  137.1930  154.7576 C   0  0  0  0  0  0  0  0  0  0  0  0
  148.5475  136.7169  154.5523 N   0  3  2  0  0  0  0  0  0  0  0  0
  148.8245  135.2997  154.9533 C   0  0  1  0  0  0  0  0  0  0  0  0
  150.3143  135.0176  155.2653 C   0  0  0  0  0  0  0  0  0  0  0  0
  147.9410  134.9141  156.1684 C   0  0  0  0  0  0  0  0  0  0  0  0
  148.4155  135.4919  157.4218 N   0  0  0  0  0  0  0  0  0  0  0  0
  148.8305  134.7989  158.4915 C   0  0  0  0  0  0  0  0  0  0  0  0
  148.8107  133.5658  158.4696 O   0  0  0  0  0  0  0  0  0  0  0  0
  149.2484  135.5775  159.5142 N   0  5  0  0  0  0  0  0  0  0  0  0
  148.6907  135.4468  160.7290 C   0  0  0  0  0  0  0  0  0  0  0  0
  148.5426  136.4706  161.5773 N   0  0  0  0  0  0  0  0  0  0  0  0
  147.9446  136.1083  162.7855 C   0  0  0  0  0  0  0  0  0  0  0  0
  147.6379  134.7756  162.8622 C   0  0  0  0  0  0  0  0  0  0  0  0
  148.0940  133.9309  161.4103 S   0  0  0  0  0  0  0  0  0  0  0  0
  149.4918  137.6761  155.1832 C   0  0  0  0  0  0  0  0  0  0  0  0
  149.2930  139.0943  154.6223 C   0  0  2  0  0  0  0  0  0  0  0  0
  150.2085  140.1160  155.3060 C   0  0  0  0  0  0  0  0  0  0  0  0
  147.9467  139.5004  154.8419 O   0  0  0  0  0  0  0  0  0  0  0  0
  146.0721  138.2149  152.3221 H   0  0  0  0  0  0  0  0  0  0  0  0
  147.8186  138.3699  152.2535 H   0  0  0  0  0  0  0  0  0  0  0  0
  146.8123  139.8067  152.4253 H   0  0  0  0  0  0  0  0  0  0  0  0
  146.0042  138.9958  154.6321 H   0  0  0  0  0  0  0  0  0  0  0  0
  146.9090  137.1324  155.8196 H   0  0  0  0  0  0  0  0  0  0  0  0
  146.4372  136.5655  154.2265 H   0  0  0  0  0  0  0  0  0  0  0  0
  148.5606  134.6639  154.1068 H   0  0  0  0  0  0  0  0  0  0  0  0
  150.4717  133.9832  155.5709 H   0  0  0  0  0  0  0  0  0  0  0  0
  150.6818  135.6537  156.0711 H   0  0  0  0  0  0  0  0  0  0  0  0
  150.9500  135.1656  154.3922 H   0  0  0  0  0  0  0  0  0  0  0  0
  146.9212  135.2644  156.0061 H   0  0  0  0  0  0  0  0  0  0  0  0
  147.8686  133.8347  156.2976 H   0  0  0  0  0  0  0  0  0  0  0  0
  148.4428  136.4994  157.4829 H   0  0  0  0  0  0  0  0  0  0  0  0
  147.7753  136.8653  163.5366 H   0  0  0  0  0  0  0  0  0  0  0  0
  147.1758  134.2419  163.6788 H   0  0  0  0  0  0  0  0  0  0  0  0
  149.3391  137.6760  156.2641 H   0  0  0  0  0  0  0  0  0  0  0  0
  150.5245  137.3746  155.0158 H   0  0  0  0  0  0  0  0  0  0  0  0
  149.5160  139.1028  153.5553 H   0  0  0  0  0  0  0  0  0  0  0  0
  151.2585  139.8569  155.1679 H   0  0  0  0  0  0  0  0  0  0  0  0
  150.0144  140.1660  156.3778 H   0  0  0  0  0  0  0  0  0  0  0  0
  150.0562  141.1137  154.8933 H   0  0  0  0  0  0  0  0  0  0  0  0
  148.7069  136.7582  153.5560 H   0  0  0  0  0  0  0  0  0  0  0  0
  1  2  1  0  0  0  0
  1 21  1  0  0  0  0
  1 22  1  0  0  0  0
  1 23  1  0  0  0  0
  2 20  1  0  0  0  0
  2  3  1  0  0  0  0
  2 24  1  0  0  0  0
  3  4  1  0  0  0  0
  3 25  1  0  0  0  0
  3 26  1  0  0  0  0
  4  5  1  0  0  0  0
  4 17  1  0  0  0  0
  4 42  1  0  0  0  0
  5  6  1  0  0  0  0
  5  7  1  0  0  0  0
  5 27  1  0  0  0  0
  6 28  1  0  0  0  0
  6 29  1  0  0  0  0
  6 30  1  0  0  0  0
  7  8  1  0  0  0  0
  7 31  1  0  0  0  0
  7 32  1  0  0  0  0
  8  9  1  0  0  0  0
  8 33  1  0  0  0  0
  9 10  2  0  0  0  0
  9 11  1  0  0  0  0
 11 12  1  0  0  0  0
 12 16  1  0  0  0  0
 12 13  2  0  0  0  0
 13 14  1  0  0  0  0
 14 15  2  0  0  0  0
 14 34  1  0  0  0  0
 15 16  1  0  0  0  0
 15 35  1  0  0  0  0
 17 18  1  0  0  0  0
 17 36  1  0  0  0  0
 17 37  1  0  0  0  0
 18 19  1  0  0  0  0
 18 20  1  0  0  0  0
 18 38  1  0  0  0  0
 19 39  1  0  0  0  0
 19 40  1  0  0  0  0
 19 41  1  0  0  0  0
M  CHG  1   4   1
M  CHG  1  11  -1
M  END
> <s_m_source_file>
AV-unprocessed.smi

> <i_m_source_file_index>
2032

> <i_lp_mmshare_version>
43012

> <i_f3d_flags>
0

> <s_epik_input>
W0NIM11bQ0BASF0xW0NIMl1OKFtDSDJdW0NASF0oTzEpW0NIM10pW0NASF0oW0NIM10pW0NIMl1bTkhdQyg9TylbTkhdYzJuW2NIXVtjSF1zMg==

> <s_epik_cmdline>
J2VwaWtfcHl0aG9uJywgJy1waCcsICc3LjAnLCAnLXRuJywgJzgnLCAnLW1hJywgJzIwMCcsICctbWV0YWxfYmluZGluZycsICctaW1hZScsICc8aW5maWxlLm1hZT4nLCAnLW9tYWUnLCAnPG91dGZpbGUubWFlPic=

> <r_lp_tautomer_probability>
0.999

> <r_epik_Ionization_Penalty>
6.71699

> <r_epik_Ionization_Penalty_Charging>
5.88592

> <r_epik_Ionization_Penalty_Neutral>
0.831074

> <r_epik_State_Penalty>
6.08365

> <r_epik_Charging_Adjusted_Penalty>
11.9696

> <i_epik_Tot_Q>
0

> <i_epik_Tot_abs_Q>
2

> <r_epik_Metal_State_Penalty>
2.0947

> <b_epik_Metal_Only>
1

> <s_lp_Force_Field>
OPLS_2005

> <r_lp_Energy>
13.797

> <b_lp_Chiralities_Consistent>
1

> <s_lp_Variant>
AV-unprocessed.smi:2032-28

> <Gold.Version>
5.8.1

> <Gold.Id.Protein>
6NUR|6NUR_protein|mol2

> <Gold.PLP.Fitness>
40.9793

> <Gold.PLP.PLP>
-29.0039

> <Gold.PLP.part.hbond>
-3.0000

> <Gold.PLP.part.metal>
0.0000

> <Gold.PLP.part.buried>
-2.3984

> <Gold.PLP.part.nonpolar>
-23.4015

> <Gold.PLP.part.repulsive>
0.1094

> <Gold.PLP.ligand.clash>
0.0000

> <Gold.PLP.ligand.torsion>
1.5202

> <Gold.PLP.Chemscore.Hbond>
4.9825

> <Gold.PLP.Chemscore.CHOScore>
0.0000

> <Gold.PLP.Chemscore.Metal>
0.0000

> <Gold.Chemscore.Hbonds>
donor molecule, donor type, donor heavy atom, donor atom, acceptor molecule, acceptor atom, score
      L1  H     4    42       P1  7948  2.00
      P1  H  6896  6909       L1    11  2.00
      P1  H  6931  6943       L1    13  1.00

> <Gold.PLP.Chemscore.Internal.Correction>
0.0684

> <Gold.Rescore>
     Score         DG    S(hbond)    S(metal)    S(lipo)     H(rot)  DE(clash)    DE(int)     intcor
     11.38     -15.59       1.78        0.00      70.25       1.58       1.86       2.34       ----

> <Gold.Chemscore.Fitness>
11.3836

> <Gold.Chemscore.DG>
-15.5864

> <Gold.Chemscore.ZeroCoef>
-5.4800

> <Gold.Chemscore.Hbond>
1.7754

> <Gold.Chemscore.Metal>
0.0000

> <Gold.Chemscore.Lipo>
70.2492

> <Gold.Chemscore.Internal_Hbond>
0.0000

> <Gold.Chemscore.DEClash>
1.8599

> <Gold.Chemscore.DEInternal>
2.3428

> <Gold.Chemscore.Rot>
1.5791

> <Gold.Chemscore.Internal.Correction>
   9.000000E+99

> <Gold.Chemscore.Hbonds>
donor molecule, donor type, donor heavy atom, donor atom, acceptor molecule, acceptor atom, score
      L1  H     4    42       P1  7948  1.00
      P1  H  6896  6909       L1    11  0.10
      P1  H  6931  6943       L1    13  0.35

> <Gold.Chemscore.Hbond.Weighted>
-5.9297

> <Gold.Chemscore.Metal.Weighted>
-0.0000

> <Gold.Chemscore.Lipo.Weighted>
-8.2192

> <Gold.Chemscore.Internal_Hbond.Weighted>
0.0000

> <Gold.Chemscore.DEClash.Weighted>
1.8599

> <Gold.Chemscore.DEInternal.Weighted>
2.3428

> <Gold.Chemscore.Rot.Weighted>
4.0425

> <Gold.Chemscore.Internal.Correction.Weighted>
   9.000000E+99

> <Gold.Protein.RotatedTorsions>
[ 6907 6896 6895 6894 ] final   75.69 input  -60.11 | X-H torsion
[ 7974 7965 7964 7962 ] final   20.28 input  175.53 | X-H torsion
[ 8008 7997 7996 7995 ] final -156.15 input   59.86 | X-H torsion
[ 10167 10162 10161 10158 ] final  -36.77 input  -65.29 | X-H torsion
[ 10718 10713 10712 10709 ] final  -63.89 input   66.30 | X-H torsion
[ 10763 10752 10751 10750 ] final  177.21 input  -60.55 | X-H torsion
[ 11005 11000 10999 10996 ] final -148.54 input  -57.11 | X-H torsion

> <Gold.Protein.ActiveResidues>
 VAL166  LYS551  ARG553  GLY616  TRP617  ASP618  TYR619  PRO620  LYS621  CYS622 
 ASP623  PHE694  ASN695  SER759  ASP760  ASP761  ALA762  ILE779  LEU786  VAL792 
 PHE793  MET794  SER795  GLU796  ALA797  LYS798  CYS799  TRP800  GLU811  SER814 

> <Gold.Protein.RotatedAtoms>
  152.5038  134.4082  159.9439 H   0  0  0  0  0  0  0  0  0  0  0  0  # atno 6907 bound_to 6896
  151.4048  133.3739  159.2744 H   0  0  0  0  0  0  0  0  0  0  0  0  # atno 6908 bound_to 6896
  150.9334  134.8770  159.7625 H   0  0  0  0  0  0  0  0  0  0  0  0  # atno 6909 bound_to 6896
  146.2117  139.8193  142.8683 H   0  0  0  0  0  0  0  0  0  0  0  0  # atno 7974 bound_to 7965
  155.7128  140.0780  157.2364 H   0  0  0  0  0  0  0  0  0  0  0  0  # atno 8008 bound_to 7997
  154.4056  140.1627  156.2369 H   0  0  0  0  0  0  0  0  0  0  0  0  # atno 8009 bound_to 7997
  155.9267  140.3394  155.6219 H   0  0  0  0  0  0  0  0  0  0  0  0  # atno 8010 bound_to 7997
  140.7134  143.3386  151.2407 H   0  0  0  0  0  0  0  0  0  0  0  0  # atno 10167 bound_to 10162
  156.0763  130.4226  150.1342 H   0  0  0  0  0  0  0  0  0  0  0  0  # atno 10718 bound_to 10713
  154.4915  135.2779  155.1493 H   0  0  0  0  0  0  0  0  0  0  0  0  # atno 10763 bound_to 10752
  154.3163  135.6219  153.5491 H   0  0  0  0  0  0  0  0  0  0  0  0  # atno 10764 bound_to 10752
  152.9888  135.5732  154.5337 H   0  0  0  0  0  0  0  0  0  0  0  0  # atno 10765 bound_to 10752
  140.7602  134.3307  157.5103 H   0  0  0  0  0  0  0  0  0  0  0  0  # atno 11005 bound_to 11000
  145.3113  141.0220  143.3553 LP  0  0  0  0  0  0  0  0  0  0  0  0  # atno 17320 bound_to 7965
  144.8933  139.4745  143.6667 LP  0  0  0  0  0  0  0  0  0  0  0  0  # atno 17321 bound_to 7965
  139.6888  143.9728  152.2848 LP  0  0  0  0  0  0  0  0  0  0  0  0  # atno 17342 bound_to 10162
  139.9383  144.6698  150.8292 LP  0  0  0  0  0  0  0  0  0  0  0  0  # atno 17343 bound_to 10162
  156.9383  130.9736  151.3521 LP  0  0  0  0  0  0  0  0  0  0  0  0  # atno 17370 bound_to 10713
  157.5859  130.8409  149.8589 LP  0  0  0  0  0  0  0  0  0  0  0  0  # atno 17371 bound_to 10713
  139.8772  134.9197  156.3233 LP  0  0  0  0  0  0  0  0  0  0  0  0  # atno 17394 bound_to 11000
  140.9670  133.7352  156.0481 LP  0  0  0  0  0  0  0  0  0  0  0  0  # atno 17395 bound_to 11000

$$$$
