AV-unprocessed.smi:153|AV-procd|sdf|1262|dock5
  -GOLD-   2262018513D 1   1.00000     0.00000
 Structure written by MMmdl.
 59 62  0  0  0  0  0  0  0  0  1 V2000
  152.8960  144.9182  158.4483 C   0  0  0  0  0  0  0  0  0  0  0  0
  152.3709  143.7272  159.2649 C   0  0  2  0  0  0  0  0  0  0  0  0
  153.4612  143.2107  160.0243 O   0  0  0  0  0  0  0  0  0  0  0  0
  153.2747  141.8180  160.2054 C   0  0  0  0  0  0  0  0  0  0  0  0
  152.7460  141.3808  158.8481 C   0  0  0  0  0  0  0  0  0  0  0  0
  151.8061  142.5200  158.4629 C   0  0  1  0  0  0  0  0  0  0  0  0
  150.5235  142.2191  158.9880 O   0  0  0  0  0  0  0  0  0  0  0  0
  151.6597  142.7140  156.9307 C   0  0  0  0  0  0  0  0  0  0  0  0
  150.7982  141.7228  156.3032 N   0  0  0  0  0  0  0  0  0  0  0  0
  149.4711  141.8749  155.9696 C   0  0  0  0  0  0  0  0  0  0  0  0
  148.9143  140.8354  155.4109 N   0  0  0  0  0  0  0  0  0  0  0  0
  149.9358  139.8957  155.3506 C   0  0  0  0  0  0  0  0  0  0  0  0
  150.0308  138.5685  154.8467 C   0  0  0  0  0  0  0  0  0  0  0  0
  148.9783  137.9301  154.2761 N   0  0  0  0  0  0  0  0  0  0  0  0
  147.9717  138.8319  153.7286 C   0  0  0  0  0  0  0  0  0  0  0  0
  148.5287  136.6500  154.8284 C   0  0  0  0  0  0  0  0  0  0  0  0
  147.7360  136.7901  156.1470 C   0  0  1  0  0  0  0  0  0  0  0  0
  146.4050  137.1037  155.7945 O   0  0  0  0  0  0  0  0  0  0  0  0
  147.7211  135.4860  156.9809 C   0  0  0  0  0  0  0  0  0  0  0  0
  147.7233  135.6702  158.4331 N   0  0  0  0  0  0  0  0  0  0  0  0
  146.5872  136.4669  158.8945 C   0  0  0  0  0  0  0  0  0  0  0  0
  146.6190  136.7005  160.4140 C   0  0  0  0  0  0  0  0  0  0  0  0
  147.8502  137.3154  160.7781 O   0  0  0  0  0  0  0  0  0  0  0  0
  148.9820  136.5422  160.3934 C   0  0  0  0  0  0  0  0  0  0  0  0
  148.9566  136.3154  158.8719 C   0  0  0  0  0  0  0  0  0  0  0  0
  151.2332  137.9428  154.9506 N   0  0  0  0  0  0  0  0  0  0  0  0
  152.2757  138.5734  155.4988 C   0  0  0  0  0  0  0  0  0  0  0  0
  152.3348  139.8096  155.9977 N   0  0  0  0  0  0  0  0  0  0  0  0
  151.1294  140.4402  155.9021 C   0  0  0  0  0  0  0  0  0  0  0  0
  152.1070  145.3674  157.8451 H   0  0  0  0  0  0  0  0  0  0  0  0
  153.7086  144.6220  157.7845 H   0  0  0  0  0  0  0  0  0  0  0  0
  153.2827  145.6949  159.1085 H   0  0  0  0  0  0  0  0  0  0  0  0
  151.6244  144.0979  159.9701 H   0  0  0  0  0  0  0  0  0  0  0  0
  154.2043  141.3185  160.4784 H   0  0  0  0  0  0  0  0  0  0  0  0
  152.5398  141.6412  160.9921 H   0  0  0  0  0  0  0  0  0  0  0  0
  153.5816  141.3311  158.1492 H   0  0  0  0  0  0  0  0  0  0  0  0
  152.2691  140.3998  158.8659 H   0  0  0  0  0  0  0  0  0  0  0  0
  150.4759  141.2889  159.1479 H   0  0  0  0  0  0  0  0  0  0  0  0
  151.2585  143.7034  156.7069 H   0  0  0  0  0  0  0  0  0  0  0  0
  152.6336  142.6592  156.4439 H   0  0  0  0  0  0  0  0  0  0  0  0
  148.9236  142.7869  156.1579 H   0  0  0  0  0  0  0  0  0  0  0  0
  147.9217  139.7656  154.2913 H   0  0  0  0  0  0  0  0  0  0  0  0
  146.9800  138.3794  153.7510 H   0  0  0  0  0  0  0  0  0  0  0  0
  148.2056  139.0687  152.6905 H   0  0  0  0  0  0  0  0  0  0  0  0
  147.9259  136.1342  154.0797 H   0  0  0  0  0  0  0  0  0  0  0  0
  149.3989  136.0161  155.0039 H   0  0  0  0  0  0  0  0  0  0  0  0
  148.1077  137.6321  156.7288 H   0  0  0  0  0  0  0  0  0  0  0  0
  146.2585  138.0206  155.9708 H   0  0  0  0  0  0  0  0  0  0  0  0
  146.8507  134.8936  156.6934 H   0  0  0  0  0  0  0  0  0  0  0  0
  148.5766  134.8664  156.7078 H   0  0  0  0  0  0  0  0  0  0  0  0
  146.5804  137.4312  158.3839 H   0  0  0  0  0  0  0  0  0  0  0  0
  145.6497  135.9736  158.6444 H   0  0  0  0  0  0  0  0  0  0  0  0
  145.7938  137.3472  160.7131 H   0  0  0  0  0  0  0  0  0  0  0  0
  146.5010  135.7587  160.9519 H   0  0  0  0  0  0  0  0  0  0  0  0
  149.8899  137.0713  160.6830 H   0  0  0  0  0  0  0  0  0  0  0  0
  148.9805  135.5904  160.9269 H   0  0  0  0  0  0  0  0  0  0  0  0
  149.8146  135.7060  158.5861 H   0  0  0  0  0  0  0  0  0  0  0  0
  149.0732  137.2745  158.3645 H   0  0  0  0  0  0  0  0  0  0  0  0
  153.1944  138.0074  155.5416 H   0  0  0  0  0  0  0  0  0  0  0  0
  1  2  1  0  0  0  0
  1 30  1  0  0  0  0
  1 31  1  0  0  0  0
  1 32  1  0  0  0  0
  2  6  1  0  0  0  0
  2  3  1  0  0  0  0
  2 33  1  0  0  0  0
  3  4  1  0  0  0  0
  4  5  1  0  0  0  0
  4 34  1  0  0  0  0
  4 35  1  0  0  0  0
  5  6  1  0  0  0  0
  5 36  1  0  0  0  0
  5 37  1  0  0  0  0
  6  7  1  0  0  0  0
  6  8  1  0  0  0  0
  7 38  1  0  0  0  0
  8  9  1  0  0  0  0
  8 39  1  0  0  0  0
  8 40  1  0  0  0  0
  9 29  1  0  0  0  0
  9 10  1  0  0  0  0
 10 11  2  0  0  0  0
 10 41  1  0  0  0  0
 11 12  1  0  0  0  0
 12 29  2  0  0  0  0
 12 13  1  0  0  0  0
 13 14  1  0  0  0  0
 13 26  2  0  0  0  0
 14 15  1  0  0  0  0
 14 16  1  0  0  0  0
 15 42  1  0  0  0  0
 15 43  1  0  0  0  0
 15 44  1  0  0  0  0
 16 17  1  0  0  0  0
 16 45  1  0  0  0  0
 16 46  1  0  0  0  0
 17 18  1  0  0  0  0
 17 19  1  0  0  0  0
 17 47  1  0  0  0  0
 18 48  1  0  0  0  0
 19 20  1  0  0  0  0
 19 49  1  0  0  0  0
 19 50  1  0  0  0  0
 20 25  1  0  0  0  0
 20 21  1  0  0  0  0
 21 22  1  0  0  0  0
 21 51  1  0  0  0  0
 21 52  1  0  0  0  0
 22 23  1  0  0  0  0
 22 53  1  0  0  0  0
 22 54  1  0  0  0  0
 23 24  1  0  0  0  0
 24 25  1  0  0  0  0
 24 55  1  0  0  0  0
 24 56  1  0  0  0  0
 25 57  1  0  0  0  0
 25 58  1  0  0  0  0
 26 27  1  0  0  0  0
 27 28  2  0  0  0  0
 27 59  1  0  0  0  0
 28 29  1  0  0  0  0
M  END
> <s_m_source_file>
AV-unprocessed.smi

> <i_m_source_file_index>
153

> <i_lp_mmshare_version>
43012

> <i_f3d_flags>
0

> <s_epik_input>
W0NIMl0xW0NIMl1PW0NAQEhdKFtDSDNdKVtDQEBdMShbT0hdKVtDSDJdbihbY0hdbjIpYyhjMjMpbltjSF1uYzNOKFtDSDNdKVtDSDJdW0NASF0oW09IXSlbQ0gyXU40W0NIMl1bQ0gyXU9bQ0gyXVtDSDJdNA==

> <s_epik_cmdline>
J2VwaWtfcHl0aG9uJywgJy1waCcsICc3LjAnLCAnLXRuJywgJzgnLCAnLW1hJywgJzIwMCcsICctbWV0YWxfYmluZGluZycsICctaW1hZScsICc8aW5maWxlLm1hZT4nLCAnLW9tYWUnLCAnPG91dGZpbGUubWFlPic=

> <r_lp_tautomer_probability>
1

> <r_epik_Ionization_Penalty>
0.424123

> <r_epik_Ionization_Penalty_Charging>
0

> <r_epik_Ionization_Penalty_Neutral>
0.424123

> <r_epik_State_Penalty>
0.421495

> <r_epik_Charging_Adjusted_Penalty>
0.421495

> <i_epik_Tot_Q>
0

> <i_epik_Tot_abs_Q>
0

> <r_epik_Metal_State_Penalty>
0.421223

> <b_epik_Metal_Only>
0

> <s_lp_Force_Field>
OPLS_2005

> <r_lp_Energy>
51.9128

> <b_lp_Chiralities_Consistent>
1

> <s_lp_Variant>
AV-unprocessed.smi:153-13

> <Gold.Version>
5.8.1

> <Gold.Id.Protein>
6NUR|6NUR_protein|mol2

> <Gold.PLP.Fitness>
42.6573

> <Gold.PLP.PLP>
-37.6690

> <Gold.PLP.part.hbond>
-3.7742

> <Gold.PLP.part.metal>
0.0000

> <Gold.PLP.part.buried>
0.5859

> <Gold.PLP.part.nonpolar>
-35.5588

> <Gold.PLP.part.repulsive>
0.1928

> <Gold.PLP.ligand.clash>
0.0000

> <Gold.PLP.ligand.torsion>
2.0124

> <Gold.PLP.Chemscore.Hbond>
1.7599

> <Gold.PLP.Chemscore.CHOScore>
1.0000

> <Gold.PLP.Chemscore.Metal>
0.0000

> <Gold.Chemscore.Hbonds>
donor molecule, donor type, donor heavy atom, donor atom, acceptor molecule, acceptor atom, score
      P1  H  6931  6943       L1    23  0.24
      P1  H  6934  6947       L1    23  0.69
      P1  H  7997  8009       L1    28  0.94
      L1  C    10    41       P1  8028  0.91

> <Gold.PLP.Chemscore.Internal.Correction>
0.7336

> <Gold.Rescore>
     Score         DG    S(hbond)    S(metal)    S(lipo)     H(rot)  DE(clash)    DE(int)     intcor
      5.41     -10.34       0.98        0.00      90.56       3.52       1.57       3.36       ----

> <Gold.Chemscore.Fitness>
5.4067

> <Gold.Chemscore.DG>
-10.3403

> <Gold.Chemscore.ZeroCoef>
-5.4800

> <Gold.Chemscore.Hbond>
0.9786

> <Gold.Chemscore.Metal>
0.0000

> <Gold.Chemscore.Lipo>
90.5594

> <Gold.Chemscore.Internal_Hbond>
0.0000

> <Gold.Chemscore.DEClash>
1.5692

> <Gold.Chemscore.DEInternal>
3.3643

> <Gold.Chemscore.Rot>
3.5170

> <Gold.Chemscore.Internal.Correction>
   9.000000E+99

> <Gold.Chemscore.Hbonds>
donor molecule, donor type, donor heavy atom, donor atom, acceptor molecule, acceptor atom, score
      P1  H  6934  6947       L1    23  0.12
      P1  H  7997  8009       L1    28  0.45

> <Gold.Chemscore.Hbond.Weighted>
-3.2684

> <Gold.Chemscore.Metal.Weighted>
-0.0000

> <Gold.Chemscore.Lipo.Weighted>
-10.5955

> <Gold.Chemscore.Internal_Hbond.Weighted>
0.0000

> <Gold.Chemscore.DEClash.Weighted>
1.5692

> <Gold.Chemscore.DEInternal.Weighted>
3.3643

> <Gold.Chemscore.Rot.Weighted>
9.0036

> <Gold.Chemscore.Internal.Correction.Weighted>
   9.000000E+99

> <Gold.Protein.RotatedTorsions>
[ 6907 6896 6895 6894 ] final   94.99 input  -60.11 | X-H torsion
[ 7974 7965 7964 7962 ] final -171.48 input  175.53 | X-H torsion
[ 8008 7997 7996 7995 ] final -165.31 input   59.86 | X-H torsion
[ 10167 10162 10161 10158 ] final -150.35 input  -65.29 | X-H torsion
[ 10718 10713 10712 10709 ] final -144.33 input   66.30 | X-H torsion
[ 10763 10752 10751 10750 ] final   26.99 input  -60.55 | X-H torsion
[ 11005 11000 10999 10996 ] final  -44.10 input  -57.11 | X-H torsion

> <Gold.Protein.ActiveResidues>
 VAL166  LYS551  ARG553  GLY616  TRP617  ASP618  TYR619  PRO620  LYS621  CYS622 
 ASP623  PHE694  ASN695  SER759  ASP760  ASP761  ALA762  ILE779  LEU786  VAL792 
 PHE793  MET794  SER795  GLU796  ALA797  LYS798  CYS799  TRP800  GLU811  SER814 

> <Gold.Protein.RotatedAtoms>
  152.5446  134.1109  159.8357 H   0  0  0  0  0  0  0  0  0  0  0  0  # atno 6907 bound_to 6896
  151.1175  133.5120  159.2610 H   0  0  0  0  0  0  0  0  0  0  0  0  # atno 6908 bound_to 6896
  151.1815  135.0373  159.8849 H   0  0  0  0  0  0  0  0  0  0  0  0  # atno 6909 bound_to 6896
  144.7156  140.1915  143.6348 H   0  0  0  0  0  0  0  0  0  0  0  0  # atno 7974 bound_to 7965
  155.8480  140.0958  157.1693 H   0  0  0  0  0  0  0  0  0  0  0  0  # atno 8008 bound_to 7997
  154.3984  140.1388  156.3871 H   0  0  0  0  0  0  0  0  0  0  0  0  # atno 8009 bound_to 7997
  155.7993  140.3453  155.5396 H   0  0  0  0  0  0  0  0  0  0  0  0  # atno 8010 bound_to 7997
  139.7362  143.8732  152.2549 H   0  0  0  0  0  0  0  0  0  0  0  0  # atno 10167 bound_to 10162
  156.3688  130.7777  151.1955 H   0  0  0  0  0  0  0  0  0  0  0  0  # atno 10718 bound_to 10713
  153.0585  135.6547  154.0519 H   0  0  0  0  0  0  0  0  0  0  0  0  # atno 10763 bound_to 10752
  154.0192  135.2921  155.3384 H   0  0  0  0  0  0  0  0  0  0  0  0  # atno 10764 bound_to 10752
  154.6912  135.5282  153.8463 H   0  0  0  0  0  0  0  0  0  0  0  0  # atno 10765 bound_to 10752
  141.0428  133.6773  156.2825 H   0  0  0  0  0  0  0  0  0  0  0  0  # atno 11005 bound_to 11000
  145.8763  139.2299  143.1631 LP  0  0  0  0  0  0  0  0  0  0  0  0  # atno 17320 bound_to 7965
  146.0037  140.8498  143.0006 LP  0  0  0  0  0  0  0  0  0  0  0  0  # atno 17321 bound_to 7965
  139.8670  144.7088  150.9033 LP  0  0  0  0  0  0  0  0  0  0  0  0  # atno 17342 bound_to 10162
  140.7779  143.3770  151.1545 LP  0  0  0  0  0  0  0  0  0  0  0  0  # atno 17343 bound_to 10162
  157.7481  131.0378  150.4474 LP  0  0  0  0  0  0  0  0  0  0  0  0  # atno 17370 bound_to 10713
  156.4698  130.4050  149.6525 LP  0  0  0  0  0  0  0  0  0  0  0  0  # atno 17371 bound_to 10713
  140.6203  134.5368  157.5546 LP  0  0  0  0  0  0  0  0  0  0  0  0  # atno 17394 bound_to 11000
  139.9288  134.8003  156.0989 LP  0  0  0  0  0  0  0  0  0  0  0  0  # atno 17395 bound_to 11000

$$$$
