AV-unprocessed.smi:89|AV-procd|sdf|825|dock3
  -GOLD-   2262017233D 1   1.00000     0.00000
 Structure written by MMmdl.
 54 56  0  0  0  0  0  0  0  0  1 V2000
  148.6604  132.0382  158.4548 C   0  0  0  0  0  0  0  0  0  0  0  0
  148.6950  132.9230  157.1981 C   0  0  0  0  0  0  0  0  0  0  0  0
  147.5640  133.8510  157.1091 N   0  0  0  0  0  0  0  0  0  0  0  0
  146.8889  133.9237  155.9367 C   0  0  0  0  0  0  0  0  0  0  0  0
  145.6355  134.4420  155.9762 N   0  0  0  0  0  0  0  0  0  0  0  0
  144.9137  134.5399  154.8567 C   0  0  0  0  0  0  0  0  0  0  0  0
  145.2518  134.1927  153.6135 N   0  0  0  0  0  0  0  0  0  0  0  0
  146.5178  133.6874  153.5657 C   0  0  0  0  0  0  0  0  0  0  0  0
  147.3983  133.5137  154.6712 C   0  0  0  0  0  0  0  0  0  0  0  0
  148.6010  132.9707  154.2345 N   0  0  0  0  0  0  0  0  0  0  0  0
  148.4372  132.8231  152.9488 C   0  0  0  0  0  0  0  0  0  0  0  0
  147.2214  133.2433  152.4593 N   0  0  0  0  0  0  0  0  0  0  0  0
  146.7790  133.2015  151.0733 C   0  0  0  0  0  0  0  0  0  0  0  0
  145.7600  132.0743  150.7635 C   0  0  1  0  0  0  0  0  0  0  0  0
  146.3461  130.8203  151.0587 O   0  0  0  0  0  0  0  0  0  0  0  0
  144.4351  132.1961  151.5208 C   0  0  0  0  0  0  0  0  0  0  0  0
  143.5061  132.8213  150.4904 C   0  0  0  0  0  0  0  0  0  0  0  0
  143.8987  132.1693  149.2963 O   0  0  0  0  0  0  0  0  0  0  0  0
  145.3193  132.1005  149.2853 C   0  0  0  0  0  0  0  0  0  0  0  0
  147.5832  135.1105  157.8618 C   0  0  2  0  0  0  0  0  0  0  0  0
  148.7614  136.0065  157.4422 C   0  0  0  0  0  0  0  0  0  0  0  0
  147.5522  134.8830  159.3858 C   0  0  0  0  0  0  0  0  0  0  0  0
  147.6719  136.4760  160.3160 S   0  0  0  0  0  0  0  0  0  0  0  0
  149.0908  136.7408  160.5983 O   0  0  0  0  0  0  0  0  0  0  0  0
  146.8703  137.4848  159.6062 O   0  0  0  0  0  0  0  0  0  0  0  0
  146.8271  136.0705  161.9057 C   0  0  0  0  0  0  0  0  0  0  0  0
  147.7298  136.3229  163.1190 C   0  0  0  0  0  0  0  0  0  0  0  0
  149.5542  131.4172  158.5110 H   0  0  0  0  0  0  0  0  0  0  0  0
  147.7992  131.3701  158.4624 H   0  0  0  0  0  0  0  0  0  0  0  0
  148.6219  132.6463  159.3591 H   0  0  0  0  0  0  0  0  0  0  0  0
  149.6232  133.4918  157.2085 H   0  0  0  0  0  0  0  0  0  0  0  0
  148.7387  132.3026  156.3037 H   0  0  0  0  0  0  0  0  0  0  0  0
  143.9246  134.9576  154.9738 H   0  0  0  0  0  0  0  0  0  0  0  0
  149.2086  132.4087  152.3159 H   0  0  0  0  0  0  0  0  0  0  0  0
  146.3472  134.1729  150.8292 H   0  0  0  0  0  0  0  0  0  0  0  0
  147.6606  133.0938  150.4397 H   0  0  0  0  0  0  0  0  0  0  0  0
  147.2071  130.7924  150.6705 H   0  0  0  0  0  0  0  0  0  0  0  0
  144.0487  131.2097  151.7840 H   0  0  0  0  0  0  0  0  0  0  0  0
  144.4886  132.7763  152.4404 H   0  0  0  0  0  0  0  0  0  0  0  0
  142.4522  132.6552  150.7147 H   0  0  0  0  0  0  0  0  0  0  0  0
  143.6796  133.8950  150.4027 H   0  0  0  0  0  0  0  0  0  0  0  0
  145.7018  132.9851  148.7739 H   0  0  0  0  0  0  0  0  0  0  0  0
  145.6517  131.2293  148.7193 H   0  0  0  0  0  0  0  0  0  0  0  0
  146.6778  135.6694  157.6194 H   0  0  0  0  0  0  0  0  0  0  0  0
  148.7151  136.9722  157.9461 H   0  0  0  0  0  0  0  0  0  0  0  0
  148.7498  136.1978  156.3689 H   0  0  0  0  0  0  0  0  0  0  0  0
  149.7209  135.5518  157.6902 H   0  0  0  0  0  0  0  0  0  0  0  0
  146.6535  134.3558  159.7013 H   0  0  0  0  0  0  0  0  0  0  0  0
  148.4036  134.2712  159.6839 H   0  0  0  0  0  0  0  0  0  0  0  0
  145.9120  136.6590  161.9690 H   0  0  0  0  0  0  0  0  0  0  0  0
  146.5380  135.0200  161.8674 H   0  0  0  0  0  0  0  0  0  0  0  0
  147.2204  136.0442  164.0417 H   0  0  0  0  0  0  0  0  0  0  0  0
  148.0060  137.3734  163.2012 H   0  0  0  0  0  0  0  0  0  0  0  0
  148.6470  135.7372  163.0579 H   0  0  0  0  0  0  0  0  0  0  0  0
  1  2  1  0  0  0  0
  1 28  1  0  0  0  0
  1 29  1  0  0  0  0
  1 30  1  0  0  0  0
  2  3  1  0  0  0  0
  2 31  1  0  0  0  0
  2 32  1  0  0  0  0
  3  4  1  0  0  0  0
  3 20  1  0  0  0  0
  4  9  1  0  0  0  0
  4  5  2  0  0  0  0
  5  6  1  0  0  0  0
  6  7  2  0  0  0  0
  6 33  1  0  0  0  0
  7  8  1  0  0  0  0
  8 12  1  0  0  0  0
  8  9  2  0  0  0  0
  9 10  1  0  0  0  0
 10 11  2  0  0  0  0
 11 12  1  0  0  0  0
 11 34  1  0  0  0  0
 12 13  1  0  0  0  0
 13 14  1  0  0  0  0
 13 35  1  0  0  0  0
 13 36  1  0  0  0  0
 14 19  1  0  0  0  0
 14 15  1  0  0  0  0
 14 16  1  0  0  0  0
 15 37  1  0  0  0  0
 16 17  1  0  0  0  0
 16 38  1  0  0  0  0
 16 39  1  0  0  0  0
 17 18  1  0  0  0  0
 17 40  1  0  0  0  0
 17 41  1  0  0  0  0
 18 19  1  0  0  0  0
 19 42  1  0  0  0  0
 19 43  1  0  0  0  0
 20 21  1  0  0  0  0
 20 22  1  0  0  0  0
 20 44  1  0  0  0  0
 21 45  1  0  0  0  0
 21 46  1  0  0  0  0
 21 47  1  0  0  0  0
 22 23  1  0  0  0  0
 22 48  1  0  0  0  0
 22 49  1  0  0  0  0
 23 24  2  0  0  0  0
 23 25  2  0  0  0  0
 23 26  1  0  0  0  0
 26 27  1  0  0  0  0
 26 50  1  0  0  0  0
 26 51  1  0  0  0  0
 27 52  1  0  0  0  0
 27 53  1  0  0  0  0
 27 54  1  0  0  0  0
M  END
> <s_m_source_file>
AV-unprocessed.smi

> <i_m_source_file_index>
89

> <i_lp_mmshare_version>
43012

> <i_f3d_flags>
0

> <s_epik_input>
W0NIM11bQ0gyXVMoPU8pKD1PKVtDSDJdW0NAQEhdKFtDSDNdKU4oW0NIMl1bQ0gzXSljKG5bY0hdbjEpYyhjMTIpbltjSF1uMltDSDJdW0NAQF0zKFtPSF0pW0NIMl1bQ0gyXU9bQ0gyXTM=

> <s_epik_cmdline>
J2VwaWtfcHl0aG9uJywgJy1waCcsICc3LjAnLCAnLXRuJywgJzgnLCAnLW1hJywgJzIwMCcsICctbWV0YWxfYmluZGluZycsICctaW1hZScsICc8aW5maWxlLm1hZT4nLCAnLW9tYWUnLCAnPG91dGZpbGUubWFlPic=

> <r_lp_tautomer_probability>
1

> <r_epik_Ionization_Penalty>
0.00103773

> <r_epik_Ionization_Penalty_Charging>
0

> <r_epik_Ionization_Penalty_Neutral>
0.00103773

> <r_epik_State_Penalty>
0.000558914

> <r_epik_Charging_Adjusted_Penalty>
0.000558914

> <i_epik_Tot_Q>
0

> <i_epik_Tot_abs_Q>
0

> <r_epik_Metal_State_Penalty>
-0

> <b_epik_Metal_Only>
0

> <s_lp_Force_Field>
OPLS_2005

> <r_lp_Energy>
26.0666

> <b_lp_Chiralities_Consistent>
1

> <s_lp_Variant>
AV-unprocessed.smi:89-1

> <Gold.Version>
5.8.1

> <Gold.Id.Protein>
6NUR|6NUR_protein|mol2

> <Gold.PLP.Fitness>
48.3022

> <Gold.PLP.PLP>
-38.4195

> <Gold.PLP.part.hbond>
-4.0000

> <Gold.PLP.part.metal>
0.0000

> <Gold.PLP.part.buried>
-6.8188

> <Gold.PLP.part.nonpolar>
-29.4562

> <Gold.PLP.part.repulsive>
0.4532

> <Gold.PLP.ligand.clash>
0.0000

> <Gold.PLP.ligand.torsion>
1.9105

> <Gold.PLP.Chemscore.Hbond>
3.1295

> <Gold.PLP.Chemscore.CHOScore>
0.9114

> <Gold.PLP.Chemscore.Metal>
0.0000

> <Gold.Chemscore.Hbonds>
donor molecule, donor type, donor heavy atom, donor atom, acceptor molecule, acceptor atom, score
      L1  H    15    37       P1 10747  1.00
      P1  H  6931  6943       L1    24  0.78
      P1  H  6934  6947       L1    25  0.86
      P1  H 10785 10796       L1    18  0.43
      L1  C    11    34       P1 10747  0.97

> <Gold.PLP.Chemscore.Internal.Correction>
1.5810

> <Gold.Rescore>
     Score         DG    S(hbond)    S(metal)    S(lipo)     H(rot)  DE(clash)    DE(int)     intcor
     11.59     -15.76       2.65        0.00      80.97       3.14       0.15       4.02       ----

> <Gold.Chemscore.Fitness>
11.5892

> <Gold.Chemscore.DG>
-15.7592

> <Gold.Chemscore.ZeroCoef>
-5.4800

> <Gold.Chemscore.Hbond>
2.6471

> <Gold.Chemscore.Metal>
0.0000

> <Gold.Chemscore.Lipo>
80.9651

> <Gold.Chemscore.Internal_Hbond>
0.0000

> <Gold.Chemscore.DEClash>
0.1524

> <Gold.Chemscore.DEInternal>
4.0176

> <Gold.Chemscore.Rot>
3.1386

> <Gold.Chemscore.Internal.Correction>
   9.000000E+99

> <Gold.Chemscore.Hbonds>
donor molecule, donor type, donor heavy atom, donor atom, acceptor molecule, acceptor atom, score
      L1  H    15    37       P1 10747  1.00
      P1  H  6931  6943       L1    24  0.38
      P1  H  6934  6947       L1    25  0.15
      P1  H 10785 10796       L1    18  0.21

> <Gold.Chemscore.Hbond.Weighted>
-8.8412

> <Gold.Chemscore.Metal.Weighted>
-0.0000

> <Gold.Chemscore.Lipo.Weighted>
-9.4729

> <Gold.Chemscore.Internal_Hbond.Weighted>
0.0000

> <Gold.Chemscore.DEClash.Weighted>
0.1524

> <Gold.Chemscore.DEInternal.Weighted>
4.0176

> <Gold.Chemscore.Rot.Weighted>
8.0349

> <Gold.Chemscore.Internal.Correction.Weighted>
   9.000000E+99

> <Gold.Protein.RotatedTorsions>
[ 6907 6896 6895 6894 ] final  146.89 input  -60.11 | X-H torsion
[ 7974 7965 7964 7962 ] final  -25.32 input  175.53 | X-H torsion
[ 8008 7997 7996 7995 ] final -148.43 input   59.86 | X-H torsion
[ 10167 10162 10161 10158 ] final   -3.49 input  -65.29 | X-H torsion
[ 10718 10713 10712 10709 ] final   99.65 input   66.30 | X-H torsion
[ 10763 10752 10751 10750 ] final   13.89 input  -60.55 | X-H torsion
[ 11005 11000 10999 10996 ] final  -59.72 input  -57.11 | X-H torsion

> <Gold.Protein.ActiveResidues>
 VAL166  LYS551  ARG553  GLY616  TRP617  ASP618  TYR619  PRO620  LYS621  CYS622 
 ASP623  PHE694  ASN695  SER759  ASP760  ASP761  ALA762  ILE779  LEU786  VAL792 
 PHE793  MET794  SER795  GLU796  ALA797  LYS798  CYS799  TRP800  GLU811  SER814 

> <Gold.Protein.RotatedAtoms>
  152.1620  133.4588  159.4865 H   0  0  0  0  0  0  0  0  0  0  0  0  # atno 6907 bound_to 6896
  150.6908  134.2059  159.4349 H   0  0  0  0  0  0  0  0  0  0  0  0  # atno 6908 bound_to 6896
  151.9962  134.9952  160.0614 H   0  0  0  0  0  0  0  0  0  0  0  0  # atno 6909 bound_to 6896
  146.1498  140.4871  142.8616 H   0  0  0  0  0  0  0  0  0  0  0  0  # atno 7974 bound_to 7965
  155.5914  140.0653  157.2757 H   0  0  0  0  0  0  0  0  0  0  0  0  # atno 8008 bound_to 7997
  154.4304  140.1834  156.1125 H   0  0  0  0  0  0  0  0  0  0  0  0  # atno 8009 bound_to 7997
  156.0229  140.3315  155.7062 H   0  0  0  0  0  0  0  0  0  0  0  0  # atno 8010 bound_to 7997
  140.6892  143.6534  150.8330 H   0  0  0  0  0  0  0  0  0  0  0  0  # atno 10167 bound_to 10162
  157.6871  131.0676  150.4981 H   0  0  0  0  0  0  0  0  0  0  0  0  # atno 10718 bound_to 10713
  153.1676  135.6807  153.8653 H   0  0  0  0  0  0  0  0  0  0  0  0  # atno 10763 bound_to 10752
  153.8027  135.3153  155.3393 H   0  0  0  0  0  0  0  0  0  0  0  0  # atno 10764 bound_to 10752
  154.7976  135.4797  154.0289 H   0  0  0  0  0  0  0  0  0  0  0  0  # atno 10765 bound_to 10752
  141.1259  133.6618  156.5115 H   0  0  0  0  0  0  0  0  0  0  0  0  # atno 11005 bound_to 11000
  144.7890  140.5995  143.6554 LP  0  0  0  0  0  0  0  0  0  0  0  0  # atno 17320 bound_to 7965
  145.4850  139.1492  143.3741 LP  0  0  0  0  0  0  0  0  0  0  0  0  # atno 17321 bound_to 7965
  140.0245  143.5508  152.2786 LP  0  0  0  0  0  0  0  0  0  0  0  0  # atno 17342 bound_to 10162
  139.6278  144.7640  151.2601 LP  0  0  0  0  0  0  0  0  0  0  0  0  # atno 17343 bound_to 10162
  156.5304  130.4183  149.6204 LP  0  0  0  0  0  0  0  0  0  0  0  0  # atno 17370 bound_to 10713
  156.3074  130.7210  151.2096 LP  0  0  0  0  0  0  0  0  0  0  0  0  # atno 17371 bound_to 10713
  140.4365  134.7054  157.4969 LP  0  0  0  0  0  0  0  0  0  0  0  0  # atno 17394 bound_to 11000
  140.0258  134.6479  155.9175 LP  0  0  0  0  0  0  0  0  0  0  0  0  # atno 17395 bound_to 11000

$$$$
