AV-unprocessed.smi:1809|AV-procd|sdf|7323|dock2
  -GOLD-   22720 8583D 1   1.00000     0.00000
 Structure written by MMmdl.
 39 41  0  0  0  0  0  0  0  0  3 V2000
  149.0370  141.2246  154.7954 C   0  0  0  0  0  0  0  0  0  0  0  0
  149.8692  139.9887  154.7742 C   0  0  0  0  0  0  0  0  0  0  0  0
  151.1949  140.0079  154.9328 N   0  0  0  0  0  0  0  0  0  0  0  0
  151.7468  138.7362  154.8737 N   0  0  0  0  0  0  0  0  0  0  0  0
  150.8349  137.7767  154.6618 C   0  0  0  0  0  0  0  0  0  0  0  0
  151.1622  136.4767  154.5752 N   0  5  0  0  0  0  0  0  0  0  0  0
  150.4043  135.5467  155.1983 C   0  0  0  0  0  0  0  0  0  0  0  0
  150.5594  135.1230  156.3459 O   0  0  0  0  0  0  0  0  0  0  0  0
  149.4044  135.0751  154.4435 N   0  0  0  0  0  0  0  0  0  0  0  0
  148.4439  134.0630  154.8617 C   0  0  0  0  0  0  0  0  0  0  0  0
  147.3264  133.9146  153.8204 C   0  0  2  0  0  0  0  0  0  0  0  0
  145.9697  133.5995  154.4801 C   0  0  0  0  0  0  0  0  0  0  0  0
  144.9190  133.3058  153.4776 N   0  3  1  0  0  0  0  0  0  0  0  0
  144.2811  134.4722  152.8291 C   0  0  0  0  0  0  0  0  0  0  0  0
  143.8521  134.0050  151.4290 C   0  0  0  0  0  0  0  0  0  0  0  0
  144.2503  132.5270  151.3484 C   0  0  0  0  0  0  0  0  0  0  0  0
  145.3355  132.3685  152.4146 C   0  0  1  0  0  0  0  0  0  0  0  0
  146.7412  132.7175  151.8770 C   0  0  0  0  0  0  0  0  0  0  0  0
  147.6605  132.8366  152.9527 O   0  0  0  0  0  0  0  0  0  0  0  0
  149.1860  138.3892  154.5366 S   0  0  0  0  0  0  0  0  0  0  0  0
  149.1624  141.7739  153.8623 H   0  0  0  0  0  0  0  0  0  0  0  0
  149.3360  141.8660  155.6250 H   0  0  0  0  0  0  0  0  0  0  0  0
  147.9835  140.9706  154.9137 H   0  0  0  0  0  0  0  0  0  0  0  0
  149.3112  135.4441  153.5086 H   0  0  0  0  0  0  0  0  0  0  0  0
  148.9493  133.1072  155.0106 H   0  0  0  0  0  0  0  0  0  0  0  0
  148.0230  134.3592  155.8236 H   0  0  0  0  0  0  0  0  0  0  0  0
  147.2561  134.8414  153.2480 H   0  0  0  0  0  0  0  0  0  0  0  0
  146.0746  132.7197  155.1161 H   0  0  0  0  0  0  0  0  0  0  0  0
  145.6481  134.4162  155.1277 H   0  0  0  0  0  0  0  0  0  0  0  0
  143.4326  134.8106  153.4242 H   0  0  0  0  0  0  0  0  0  0  0  0
  144.9802  135.3051  152.7452 H   0  0  0  0  0  0  0  0  0  0  0  0
  142.7837  134.1429  151.2589 H   0  0  0  0  0  0  0  0  0  0  0  0
  144.3818  134.5800  150.6683 H   0  0  0  0  0  0  0  0  0  0  0  0
  143.3917  131.9068  151.6096 H   0  0  0  0  0  0  0  0  0  0  0  0
  144.5794  132.2288  150.3522 H   0  0  0  0  0  0  0  0  0  0  0  0
  145.3476  131.3533  152.8133 H   0  0  0  0  0  0  0  0  0  0  0  0
  147.0875  131.9335  151.2033 H   0  0  0  0  0  0  0  0  0  0  0  0
  146.7320  133.6430  151.2991 H   0  0  0  0  0  0  0  0  0  0  0  0
  144.1699  132.8430  153.9725 H   0  0  0  0  0  0  0  0  0  0  0  0
  1  2  1  0  0  0  0
  1 21  1  0  0  0  0
  1 22  1  0  0  0  0
  1 23  1  0  0  0  0
  2 20  1  0  0  0  0
  2  3  2  0  0  0  0
  3  4  1  0  0  0  0
  4  5  2  0  0  0  0
  5  6  1  0  0  0  0
  5 20  1  0  0  0  0
  6  7  1  0  0  0  0
  7  8  2  0  0  0  0
  7  9  1  0  0  0  0
  9 10  1  0  0  0  0
  9 24  1  0  0  0  0
 10 11  1  0  0  0  0
 10 25  1  0  0  0  0
 10 26  1  0  0  0  0
 11 19  1  0  0  0  0
 11 12  1  0  0  0  0
 11 27  1  0  0  0  0
 12 13  1  0  0  0  0
 12 28  1  0  0  0  0
 12 29  1  0  0  0  0
 13 17  1  0  0  0  0
 13 14  1  0  0  0  0
 13 39  1  0  0  0  0
 14 15  1  0  0  0  0
 14 30  1  0  0  0  0
 14 31  1  0  0  0  0
 15 16  1  0  0  0  0
 15 32  1  0  0  0  0
 15 33  1  0  0  0  0
 16 17  1  0  0  0  0
 16 34  1  0  0  0  0
 16 35  1  0  0  0  0
 17 18  1  0  0  0  0
 17 36  1  0  0  0  0
 18 19  1  0  0  0  0
 18 37  1  0  0  0  0
 18 38  1  0  0  0  0
M  CHG  1   6  -1
M  CHG  1  13   1
M  END
> <s_m_source_file>
AV-unprocessed.smi

> <i_m_source_file_index>
1809

> <i_lp_mmshare_version>
43012

> <i_f3d_flags>
0

> <s_epik_input>
W0NIM11jMW5uYyhzMSlbTkhdQyg9TylbTkhdW0NIMl1bQ0BIXShbQ0gyXTIpT1tDSDJdW0NAQEhdKE4yMylbQ0gyXVtDSDJdW0NIMl0z

> <s_epik_cmdline>
J2VwaWtfcHl0aG9uJywgJy1waCcsICc3LjAnLCAnLXRuJywgJzgnLCAnLW1hJywgJzIwMCcsICctbWV0YWxfYmluZGluZycsICctaW1hZScsICc8aW5maWxlLm1hZT4nLCAnLW9tYWUnLCAnPG91dGZpbGUubWFlPic=

> <r_lp_tautomer_probability>
1

> <r_epik_Ionization_Penalty>
3.2601

> <r_epik_Ionization_Penalty_Charging>
3.1406

> <r_epik_Ionization_Penalty_Neutral>
0.119497

> <r_epik_State_Penalty>
3.08894

> <r_epik_Charging_Adjusted_Penalty>
6.22954

> <i_epik_Tot_Q>
0

> <i_epik_Tot_abs_Q>
2

> <r_epik_Metal_State_Penalty>
0.510807

> <b_epik_Metal_Only>
1

> <s_lp_Force_Field>
OPLS_2005

> <r_lp_Energy>
30.6493

> <b_lp_Chiralities_Consistent>
1

> <s_lp_Variant>
AV-unprocessed.smi:1809-15

> <Gold.Version>
5.8.1

> <Gold.Id.Protein>
6NUR|6NUR_protein|mol2

> <Gold.PLP.Fitness>
45.8353

> <Gold.PLP.PLP>
-30.9912

> <Gold.PLP.part.hbond>
-3.9919

> <Gold.PLP.part.metal>
0.0000

> <Gold.PLP.part.buried>
-6.4200

> <Gold.PLP.part.nonpolar>
-22.4830

> <Gold.PLP.part.repulsive>
1.3226

> <Gold.PLP.ligand.clash>
0.0000

> <Gold.PLP.ligand.torsion>
1.5997

> <Gold.PLP.Chemscore.Hbond>
6.0000

> <Gold.PLP.Chemscore.CHOScore>
0.0000

> <Gold.PLP.Chemscore.Metal>
0.0000

> <Gold.Chemscore.Hbonds>
donor molecule, donor type, donor heavy atom, donor atom, acceptor molecule, acceptor atom, score
      L1  H     9    24       P1  7948  1.00
      L1  H    13    39       P1 10957  2.00
      P1  H  7989  7998       L1     3  1.00
      P1  H 10752 10764       L1     6  2.00

> <Gold.PLP.Chemscore.Internal.Correction>
0.0434

> <Gold.Rescore>
     Score         DG    S(hbond)    S(metal)    S(lipo)     H(rot)  DE(clash)    DE(int)     intcor
     14.83     -16.57       2.44        0.00      54.13       1.32       0.02       1.73       ----

> <Gold.Chemscore.Fitness>
14.8302

> <Gold.Chemscore.DG>
-16.5750

> <Gold.Chemscore.ZeroCoef>
-5.4800

> <Gold.Chemscore.Hbond>
2.4411

> <Gold.Chemscore.Metal>
0.0000

> <Gold.Chemscore.Lipo>
54.1266

> <Gold.Chemscore.Internal_Hbond>
0.0000

> <Gold.Chemscore.DEClash>
0.0174

> <Gold.Chemscore.DEInternal>
1.7273

> <Gold.Chemscore.Rot>
1.3246

> <Gold.Chemscore.Internal.Correction>
   9.000000E+99

> <Gold.Chemscore.Hbonds>
donor molecule, donor type, donor heavy atom, donor atom, acceptor molecule, acceptor atom, score
      L1  H     9    24       P1  7948  0.30
      L1  H    13    39       P1 10957  0.86
      P1  H  7989  7998       L1     3  0.18
      P1  H 10752 10764       L1     6  0.49

> <Gold.Chemscore.Hbond.Weighted>
-8.1531

> <Gold.Chemscore.Metal.Weighted>
-0.0000

> <Gold.Chemscore.Lipo.Weighted>
-6.3328

> <Gold.Chemscore.Internal_Hbond.Weighted>
0.0000

> <Gold.Chemscore.DEClash.Weighted>
0.0174

> <Gold.Chemscore.DEInternal.Weighted>
1.7273

> <Gold.Chemscore.Rot.Weighted>
3.3910

> <Gold.Chemscore.Internal.Correction.Weighted>
   9.000000E+99

> <Gold.Protein.RotatedTorsions>
[ 6907 6896 6895 6894 ] final  -55.07 input  -60.11 | X-H torsion
[ 7974 7965 7964 7962 ] final  103.72 input  175.53 | X-H torsion
[ 8008 7997 7996 7995 ] final -109.41 input   59.86 | X-H torsion
[ 10167 10162 10161 10158 ] final  175.73 input  -65.29 | X-H torsion
[ 10718 10713 10712 10709 ] final -160.84 input   66.30 | X-H torsion
[ 10763 10752 10751 10750 ] final  -73.20 input  -60.55 | X-H torsion
[ 11005 11000 10999 10996 ] final   53.51 input  -57.11 | X-H torsion

> <Gold.Protein.ActiveResidues>
 VAL166  LYS551  ARG553  GLY616  TRP617  ASP618  TYR619  PRO620  LYS621  CYS622 
 ASP623  PHE694  ASN695  SER759  ASP760  ASP761  ALA762  ILE779  LEU786  VAL792 
 PHE793  MET794  SER795  GLU796  ALA797  LYS798  CYS799  TRP800  GLU811  SER814 

> <Gold.Protein.RotatedAtoms>
  150.8283  134.7524  159.6831 H   0  0  0  0  0  0  0  0  0  0  0  0  # atno 6907 bound_to 6896
  152.4391  134.5624  159.9908 H   0  0  0  0  0  0  0  0  0  0  0  0  # atno 6908 bound_to 6896
  151.5791  133.3342  159.3041 H   0  0  0  0  0  0  0  0  0  0  0  0  # atno 6909 bound_to 6896
  145.3422  139.2459  143.3603 H   0  0  0  0  0  0  0  0  0  0  0  0  # atno 7974 bound_to 7965
  154.9589  140.0399  157.2180 H   0  0  0  0  0  0  0  0  0  0  0  0  # atno 8008 bound_to 7997
  154.7908  140.2835  155.5971 H   0  0  0  0  0  0  0  0  0  0  0  0  # atno 8009 bound_to 7997
  156.2949  140.2573  156.2755 H   0  0  0  0  0  0  0  0  0  0  0  0  # atno 8010 bound_to 7997
  139.5188  144.2997  152.0390 H   0  0  0  0  0  0  0  0  0  0  0  0  # atno 10167 bound_to 10162
  156.5877  130.8757  151.2881 H   0  0  0  0  0  0  0  0  0  0  0  0  # atno 10718 bound_to 10713
  154.4562  135.5905  153.6224 H   0  0  0  0  0  0  0  0  0  0  0  0  # atno 10763 bound_to 10752
  152.9818  135.6033  154.3544 H   0  0  0  0  0  0  0  0  0  0  0  0  # atno 10764 bound_to 10752
  154.3410  135.2841  155.2401 H   0  0  0  0  0  0  0  0  0  0  0  0  # atno 10765 bound_to 10752
  140.0761  134.5402  155.8994 H   0  0  0  0  0  0  0  0  0  0  0  0  # atno 11005 bound_to 11000
  146.3002  140.4022  142.8706 LP  0  0  0  0  0  0  0  0  0  0  0  0  # atno 17320 bound_to 7965
  144.8781  140.7364  143.6004 LP  0  0  0  0  0  0  0  0  0  0  0  0  # atno 17321 bound_to 7965
  140.2445  144.4234  150.6246 LP  0  0  0  0  0  0  0  0  0  0  0  0  # atno 17342 bound_to 10162
  140.6268  143.2182  151.6581 LP  0  0  0  0  0  0  0  0  0  0  0  0  # atno 17343 bound_to 10162
  157.7311  130.9695  150.1865 LP  0  0  0  0  0  0  0  0  0  0  0  0  # atno 17370 bound_to 10713
  156.2576  130.3707  149.8165 LP  0  0  0  0  0  0  0  0  0  0  0  0  # atno 17371 bound_to 10713
  141.2030  133.6629  156.6038 LP  0  0  0  0  0  0  0  0  0  0  0  0  # atno 17394 bound_to 11000
  140.3555  134.7732  157.4497 LP  0  0  0  0  0  0  0  0  0  0  0  0  # atno 17395 bound_to 11000

$$$$
