AV-unprocessed.smi:2439|AV-procd|sdf|9604|dock2
  -GOLD-   2272013233D 1   1.00000     0.00000
 Structure written by MMmdl.
 41 43  0  0  0  0  0  0  0  0  2 V2000
  154.0264  140.0630  158.6798 N   0  0  0  0  0  0  0  0  0  0  0  0
  153.3060  140.9677  158.7152 C   0  0  0  0  0  0  0  0  0  0  0  0
  152.3998  142.1088  158.7596 C   0  0  0  0  0  0  0  0  0  0  0  0
  152.5188  143.0359  159.8162 C   0  0  0  0  0  0  0  0  0  0  0  0
  151.6483  144.1402  159.8606 C   0  0  0  0  0  0  0  0  0  0  0  0
  150.6880  144.2733  158.8416 C   0  0  0  0  0  0  0  0  0  0  0  0
  150.5630  143.3943  157.8250 N   0  0  0  0  0  0  0  0  0  0  0  0
  151.3990  142.3281  157.7751 C   0  0  0  0  0  0  0  0  0  0  0  0
  151.2447  141.4317  156.7028 N   0  0  0  0  0  0  0  0  0  0  0  0
  150.2748  141.6825  155.6462 C   0  0  0  0  0  0  0  0  0  0  0  0
  149.1951  140.5838  155.5960 C   0  0  1  0  0  0  0  0  0  0  0  0
  148.0123  140.8590  156.5435 C   0  0  0  0  0  0  0  0  0  0  0  0
  147.1734  141.9760  156.0488 N   0  3  2  0  0  0  0  0  0  0  0  0
  146.0507  142.2842  156.9710 C   0  0  0  0  0  0  0  0  0  0  0  0
  145.2477  143.5000  156.4827 C   0  0  0  0  0  0  0  0  0  0  0  0
  144.7377  143.2767  155.0537 C   0  0  0  0  0  0  0  0  0  0  0  0
  145.9116  142.9378  154.1260 C   0  0  0  0  0  0  0  0  0  0  0  0
  146.7169  141.7327  154.6534 C   0  0  1  0  0  0  0  0  0  0  0  0
  147.9263  141.4372  153.7459 C   0  0  0  0  0  0  0  0  0  0  0  0
  148.6977  140.3641  154.2756 O   0  0  0  0  0  0  0  0  0  0  0  0
  153.2670  142.9081  160.5856 H   0  0  0  0  0  0  0  0  0  0  0  0
  151.7158  144.8673  160.6564 H   0  0  0  0  0  0  0  0  0  0  0  0
  150.0024  145.1078  158.8411 H   0  0  0  0  0  0  0  0  0  0  0  0
  151.8956  140.6666  156.5945 H   0  0  0  0  0  0  0  0  0  0  0  0
  149.8014  142.6456  155.8406 H   0  0  0  0  0  0  0  0  0  0  0  0
  150.7834  141.7756  154.6869 H   0  0  0  0  0  0  0  0  0  0  0  0
  149.6616  139.6505  155.9140 H   0  0  0  0  0  0  0  0  0  0  0  0
  147.3968  139.9617  156.6279 H   0  0  0  0  0  0  0  0  0  0  0  0
  148.3792  141.0845  157.5457 H   0  0  0  0  0  0  0  0  0  0  0  0
  145.3971  141.4145  157.0550 H   0  0  0  0  0  0  0  0  0  0  0  0
  146.4426  142.4838  157.9691 H   0  0  0  0  0  0  0  0  0  0  0  0
  144.4080  143.6861  157.1530 H   0  0  0  0  0  0  0  0  0  0  0  0
  145.8742  144.3923  156.5151 H   0  0  0  0  0  0  0  0  0  0  0  0
  144.0109  142.4634  155.0430 H   0  0  0  0  0  0  0  0  0  0  0  0
  144.2183  144.1661  154.6954 H   0  0  0  0  0  0  0  0  0  0  0  0
  145.5382  142.7285  153.1229 H   0  0  0  0  0  0  0  0  0  0  0  0
  146.5637  143.8082  154.0365 H   0  0  0  0  0  0  0  0  0  0  0  0
  146.0686  140.8545  154.6592 H   0  0  0  0  0  0  0  0  0  0  0  0
  147.5832  141.1513  152.7513 H   0  0  0  0  0  0  0  0  0  0  0  0
  148.5459  142.3240  153.6105 H   0  0  0  0  0  0  0  0  0  0  0  0
  147.7632  142.7958  156.0237 H   0  0  0  0  0  0  0  0  0  0  0  0
  1  2  3  0  0  0  0
  2  3  1  0  0  0  0
  3  8  1  0  0  0  0
  3  4  2  0  0  0  0
  4  5  1  0  0  0  0
  4 21  1  0  0  0  0
  5  6  2  0  0  0  0
  5 22  1  0  0  0  0
  6  7  1  0  0  0  0
  6 23  1  0  0  0  0
  7  8  2  0  0  0  0
  8  9  1  0  0  0  0
  9 10  1  0  0  0  0
  9 24  1  0  0  0  0
 10 11  1  0  0  0  0
 10 25  1  0  0  0  0
 10 26  1  0  0  0  0
 11 20  1  0  0  0  0
 11 12  1  0  0  0  0
 11 27  1  0  0  0  0
 12 13  1  0  0  0  0
 12 28  1  0  0  0  0
 12 29  1  0  0  0  0
 13 18  1  0  0  0  0
 13 14  1  0  0  0  0
 13 41  1  0  0  0  0
 14 15  1  0  0  0  0
 14 30  1  0  0  0  0
 14 31  1  0  0  0  0
 15 16  1  0  0  0  0
 15 32  1  0  0  0  0
 15 33  1  0  0  0  0
 16 17  1  0  0  0  0
 16 34  1  0  0  0  0
 16 35  1  0  0  0  0
 17 18  1  0  0  0  0
 17 36  1  0  0  0  0
 17 37  1  0  0  0  0
 18 19  1  0  0  0  0
 18 38  1  0  0  0  0
 19 20  1  0  0  0  0
 19 39  1  0  0  0  0
 19 40  1  0  0  0  0
M  CHG  1  13   1
M  END
> <s_m_source_file>
AV-unprocessed.smi

> <i_m_source_file_index>
2439

> <i_lp_mmshare_version>
43012

> <i_f3d_flags>
0

> <s_epik_input>
TiNDYzFbY0hdW2NIXVtjSF1uYzFbTkhdW0NIMl1bQ0BIXShbQ0gyXTIpT1tDSDJdW0NAQEhdKE4yMylbQ0gyXVtDSDJdW0NIMl1bQ0gyXTM=

> <s_epik_cmdline>
J2VwaWtfcHl0aG9uJywgJy1waCcsICc3LjAnLCAnLXRuJywgJzgnLCAnLW1hJywgJzIwMCcsICctbWV0YWxfYmluZGluZycsICctaW1hZScsICc8aW5maWxlLm1hZT4nLCAnLW9tYWUnLCAnPG91dGZpbGUubWFlPic=

> <r_epik_Ionization_Penalty>
0.0803594

> <r_epik_Ionization_Penalty_Charging>
0.0803403

> <r_epik_Ionization_Penalty_Neutral>
1.90988e-05

> <r_epik_State_Penalty>
0.0711481

> <r_epik_Charging_Adjusted_Penalty>
0.151488

> <i_epik_Tot_Q>
1

> <i_epik_Tot_abs_Q>
1

> <r_epik_Metal_State_Penalty>
0.0711482

> <b_epik_Metal_Only>
0

> <s_lp_Force_Field>
OPLS_2005

> <r_lp_Energy>
31.556

> <b_lp_Chiralities_Consistent>
1

> <s_lp_Variant>
AV-unprocessed.smi:2439-2

> <Gold.Version>
5.8.1

> <Gold.Id.Protein>
6NUR|6NUR_protein|mol2

> <Gold.PLP.Fitness>
47.1902

> <Gold.PLP.PLP>
-36.1370

> <Gold.PLP.part.hbond>
-1.9888

> <Gold.PLP.part.metal>
0.0000

> <Gold.PLP.part.buried>
-6.5144

> <Gold.PLP.part.nonpolar>
-28.8222

> <Gold.PLP.part.repulsive>
2.2205

> <Gold.PLP.ligand.clash>
0.0000

> <Gold.PLP.ligand.torsion>
0.3612

> <Gold.PLP.Chemscore.Hbond>
2.9516

> <Gold.PLP.Chemscore.CHOScore>
0.9713

> <Gold.PLP.Chemscore.Metal>
0.0000

> <Gold.Chemscore.Hbonds>
donor molecule, donor type, donor heavy atom, donor atom, acceptor molecule, acceptor atom, score
      L1  H    13    41       P1  8028  0.98
      P1  H  7997  8010       L1     1  1.00
      L1  C     6    23       P1  8029  0.46

> <Gold.PLP.Chemscore.Internal.Correction>
0.0068

> <Gold.Rescore>
     Score         DG    S(hbond)    S(metal)    S(lipo)     H(rot)  DE(clash)    DE(int)     intcor
     14.86     -16.68       1.16        0.00      90.22       1.27       1.38       0.44       ----

> <Gold.Chemscore.Fitness>
14.8637

> <Gold.Chemscore.DG>
-16.6803

> <Gold.Chemscore.ZeroCoef>
-5.4800

> <Gold.Chemscore.Hbond>
1.1632

> <Gold.Chemscore.Metal>
0.0000

> <Gold.Chemscore.Lipo>
90.2206

> <Gold.Chemscore.Internal_Hbond>
0.0000

> <Gold.Chemscore.DEClash>
1.3775

> <Gold.Chemscore.DEInternal>
0.4391

> <Gold.Chemscore.Rot>
1.2659

> <Gold.Chemscore.Internal.Correction>
   9.000000E+99

> <Gold.Chemscore.Hbonds>
donor molecule, donor type, donor heavy atom, donor atom, acceptor molecule, acceptor atom, score
      L1  H    13    41       P1  8028  0.22
      P1  H  7997  8010       L1     1  0.74

> <Gold.Chemscore.Hbond.Weighted>
-3.8852

> <Gold.Chemscore.Metal.Weighted>
-0.0000

> <Gold.Chemscore.Lipo.Weighted>
-10.5558

> <Gold.Chemscore.Internal_Hbond.Weighted>
0.0000

> <Gold.Chemscore.DEClash.Weighted>
1.3775

> <Gold.Chemscore.DEInternal.Weighted>
0.4391

> <Gold.Chemscore.Rot.Weighted>
3.2408

> <Gold.Chemscore.Internal.Correction.Weighted>
   9.000000E+99

> <Gold.Protein.RotatedTorsions>
[ 6907 6896 6895 6894 ] final  156.11 input  -60.11 | X-H torsion
[ 7974 7965 7964 7962 ] final   46.20 input  175.53 | X-H torsion
[ 8008 7997 7996 7995 ] final   14.59 input   59.86 | X-H torsion
[ 10167 10162 10161 10158 ] final -125.73 input  -65.29 | X-H torsion
[ 10718 10713 10712 10709 ] final   86.64 input   66.30 | X-H torsion
[ 10763 10752 10751 10750 ] final  -66.44 input  -60.55 | X-H torsion
[ 11005 11000 10999 10996 ] final  -63.89 input  -57.11 | X-H torsion

> <Gold.Protein.ActiveResidues>
 VAL166  LYS551  ARG553  GLY616  TRP617  ASP618  TYR619  PRO620  LYS621  CYS622 
 ASP623  PHE694  ASN695  SER759  ASP760  ASP761  ALA762  ILE779  LEU786  VAL792 
 PHE793  MET794  SER795  GLU796  ALA797  LYS798  CYS799  TRP800  GLU811  SER814 

> <Gold.Protein.RotatedAtoms>
  152.0344  133.3951  159.4310 H   0  0  0  0  0  0  0  0  0  0  0  0  # atno 6907 bound_to 6896
  150.6880  134.3485  159.4908 H   0  0  0  0  0  0  0  0  0  0  0  0  # atno 6908 bound_to 6896
  152.1275  134.9159  160.0611 H   0  0  0  0  0  0  0  0  0  0  0  0  # atno 6909 bound_to 6896
  146.0411  139.4882  142.9777 H   0  0  0  0  0  0  0  0  0  0  0  0  # atno 7974 bound_to 7965
  154.8506  140.2929  155.5601 H   0  0  0  0  0  0  0  0  0  0  0  0  # atno 8008 bound_to 7997
  156.3016  140.2496  156.3396 H   0  0  0  0  0  0  0  0  0  0  0  0  # atno 8009 bound_to 7997
  154.9025  140.0391  157.1890 H   0  0  0  0  0  0  0  0  0  0  0  0  # atno 8010 bound_to 7997
  139.9790  143.5763  152.2385 H   0  0  0  0  0  0  0  0  0  0  0  0  # atno 10167 bound_to 10162
  157.6931  131.0223  150.3003 H   0  0  0  0  0  0  0  0  0  0  0  0  # atno 10718 bound_to 10713
  154.3599  135.6118  153.5685 H   0  0  0  0  0  0  0  0  0  0  0  0  # atno 10763 bound_to 10752
  152.9794  135.5812  154.4645 H   0  0  0  0  0  0  0  0  0  0  0  0  # atno 10764 bound_to 10752
  154.4381  135.2849  155.1844 H   0  0  0  0  0  0  0  0  0  0  0  0  # atno 10765 bound_to 10752
  141.1408  133.6658  156.5750 H   0  0  0  0  0  0  0  0  0  0  0  0  # atno 11005 bound_to 11000
  145.6882  141.0172  143.1569 LP  0  0  0  0  0  0  0  0  0  0  0  0  # atno 17320 bound_to 7965
  144.7075  139.8501  143.7425 LP  0  0  0  0  0  0  0  0  0  0  0  0  # atno 17321 bound_to 7965
  139.6424  144.7655  151.2312 LP  0  0  0  0  0  0  0  0  0  0  0  0  # atno 17342 bound_to 10162
  140.7495  143.6295  150.8436 LP  0  0  0  0  0  0  0  0  0  0  0  0  # atno 17343 bound_to 10162
  156.3520  130.3832  149.7321 LP  0  0  0  0  0  0  0  0  0  0  0  0  # atno 17370 bound_to 10713
  156.4796  130.8035  151.3050 LP  0  0  0  0  0  0  0  0  0  0  0  0  # atno 17371 bound_to 10713
  140.3883  134.7463  157.4705 LP  0  0  0  0  0  0  0  0  0  0  0  0  # atno 17394 bound_to 11000
  140.0586  134.6028  155.8776 LP  0  0  0  0  0  0  0  0  0  0  0  0  # atno 17395 bound_to 11000

$$$$
