AV-unprocessed.smi:1702|AV-procd|sdf|6849|dock9
  -GOLD-   22720 8 33D 1   1.00000     0.00000
 Structure written by MMmdl.
 45 47  0  0  0  0  0  0  0  0  3 V2000
  144.6233  135.6082  152.0956 C   0  0  0  0  0  0  0  0  0  0  0  0
  145.4566  136.4451  153.0764 C   0  0  2  0  0  0  0  0  0  0  0  0
  146.1498  137.6235  152.3726 C   0  0  0  0  0  0  0  0  0  0  0  0
  147.0048  138.4379  153.3577 C   0  0  0  0  0  0  0  0  0  0  0  0
  148.0128  137.5766  154.0316 N   0  3  1  0  0  0  0  0  0  0  0  0
  148.9476  138.3338  154.9037 C   0  0  0  0  0  0  0  0  0  0  0  0
  150.3127  138.6126  154.2343 C   0  0  2  0  0  0  0  0  0  0  0  0
  150.8535  137.3956  153.7612 O   0  0  0  0  0  0  0  0  0  0  0  0
  151.3534  139.2288  155.1908 C   0  0  0  0  0  0  0  0  0  0  0  0
  150.9716  140.5615  155.6805 N   0  0  0  0  0  0  0  0  0  0  0  0
  149.9883  141.3944  155.2417 C   0  0  0  0  0  0  0  0  0  0  0  0
  150.0348  142.5235  156.0015 N   0  3  0  0  0  0  0  0  0  0  0  0
  151.0661  142.4150  156.9365 C   0  0  0  0  0  0  0  0  0  0  0  0
  151.5023  143.3001  157.9173 C   0  0  0  0  0  0  0  0  0  0  0  0
  152.5908  142.8829  158.7111 C   0  0  0  0  0  0  0  0  0  0  0  0
  153.0558  143.7062  159.6803 F   0  0  0  0  0  0  0  0  0  0  0  0
  153.2019  141.6265  158.5153 C   0  0  0  0  0  0  0  0  0  0  0  0
  154.2427  141.2629  159.3013 F   0  0  0  0  0  0  0  0  0  0  0  0
  152.7506  140.7374  157.5176 C   0  0  0  0  0  0  0  0  0  0  0  0
  151.6749  141.1577  156.7355 C   0  0  0  0  0  0  0  0  0  0  0  0
  147.3673  136.4476  154.7505 C   0  0  0  0  0  0  0  0  0  0  0  0
  146.5152  135.5933  153.7969 C   0  0  0  0  0  0  0  0  0  0  0  0
  145.2475  135.1698  151.3164 H   0  0  0  0  0  0  0  0  0  0  0  0
  143.8621  136.2179  151.6082 H   0  0  0  0  0  0  0  0  0  0  0  0
  144.1124  134.7936  152.6100 H   0  0  0  0  0  0  0  0  0  0  0  0
  144.7761  136.8498  153.8274 H   0  0  0  0  0  0  0  0  0  0  0  0
  146.7803  137.2534  151.5628 H   0  0  0  0  0  0  0  0  0  0  0  0
  145.4048  138.2727  151.9106 H   0  0  0  0  0  0  0  0  0  0  0  0
  147.4933  139.2439  152.8120 H   0  0  0  0  0  0  0  0  0  0  0  0
  146.3658  138.9077  154.1071 H   0  0  0  0  0  0  0  0  0  0  0  0
  148.4631  139.2632  155.2049 H   0  0  0  0  0  0  0  0  0  0  0  0
  149.1273  137.7737  155.8228 H   0  0  0  0  0  0  0  0  0  0  0  0
  150.1958  139.2830  153.3834 H   0  0  0  0  0  0  0  0  0  0  0  0
  150.2341  136.9879  153.1755 H   0  0  0  0  0  0  0  0  0  0  0  0
  151.5497  138.5716  156.0380 H   0  0  0  0  0  0  0  0  0  0  0  0
  152.3070  139.3452  154.6737 H   0  0  0  0  0  0  0  0  0  0  0  0
  149.2980  141.1978  154.4335 H   0  0  0  0  0  0  0  0  0  0  0  0
  151.0375  144.2631  158.0706 H   0  0  0  0  0  0  0  0  0  0  0  0
  153.2301  139.7798  157.3810 H   0  0  0  0  0  0  0  0  0  0  0  0
  148.1309  135.8155  155.2056 H   0  0  0  0  0  0  0  0  0  0  0  0
  146.7508  136.8351  155.5632 H   0  0  0  0  0  0  0  0  0  0  0  0
  146.0317  134.7918  154.3567 H   0  0  0  0  0  0  0  0  0  0  0  0
  147.1636  135.1098  153.0646 H   0  0  0  0  0  0  0  0  0  0  0  0
  148.5761  137.1567  153.3061 H   0  0  0  0  0  0  0  0  0  0  0  0
  149.4112  143.3123  155.8831 H   0  0  0  0  0  0  0  0  0  0  0  0
  1  2  1  0  0  0  0
  1 23  1  0  0  0  0
  1 24  1  0  0  0  0
  1 25  1  0  0  0  0
  2 22  1  0  0  0  0
  2  3  1  0  0  0  0
  2 26  1  0  0  0  0
  3  4  1  0  0  0  0
  3 27  1  0  0  0  0
  3 28  1  0  0  0  0
  4  5  1  0  0  0  0
  4 29  1  0  0  0  0
  4 30  1  0  0  0  0
  5  6  1  0  0  0  0
  5 21  1  0  0  0  0
  5 44  1  0  0  0  0
  6  7  1  0  0  0  0
  6 31  1  0  0  0  0
  6 32  1  0  0  0  0
  7  8  1  0  0  0  0
  7  9  1  0  0  0  0
  7 33  1  0  0  0  0
  8 34  1  0  0  0  0
  9 10  1  0  0  0  0
  9 35  1  0  0  0  0
  9 36  1  0  0  0  0
 10 20  1  0  0  0  0
 10 11  1  0  0  0  0
 11 12  2  0  0  0  0
 11 37  1  0  0  0  0
 12 13  1  0  0  0  0
 12 45  1  0  0  0  0
 13 20  2  0  0  0  0
 13 14  1  0  0  0  0
 14 15  2  0  0  0  0
 14 38  1  0  0  0  0
 15 16  1  0  0  0  0
 15 17  1  0  0  0  0
 17 18  1  0  0  0  0
 17 19  2  0  0  0  0
 19 20  1  0  0  0  0
 19 39  1  0  0  0  0
 21 22  1  0  0  0  0
 21 40  1  0  0  0  0
 21 41  1  0  0  0  0
 22 42  1  0  0  0  0
 22 43  1  0  0  0  0
M  CHG  1   5   1
M  CHG  1  12   1
M  END
> <s_m_source_file>
AV-unprocessed.smi

> <i_m_source_file_index>
1702

> <i_lp_mmshare_version>
43012

> <i_f3d_flags>
0

> <s_epik_input>
W0NIM11bQ0hdMVtDSDJdW0NIMl1OKFtDSDJdW0NIMl0xKVtDSDJdW0NASF0oW09IXSlbQ0gyXW4oW2NIXW4yKWMoYzIzKVtjSF1jKEYpYyhGKVtjSF0z

> <s_epik_cmdline>
J2VwaWtfcHl0aG9uJywgJy1waCcsICc3LjAnLCAnLXRuJywgJzgnLCAnLW1hJywgJzIwMCcsICctbWV0YWxfYmluZGluZycsICctaW1hZScsICc8aW5maWxlLm1hZT4nLCAnLW9tYWUnLCAnPG91dGZpbGUubWFlPic=

> <r_epik_Ionization_Penalty>
2.33291

> <r_epik_Ionization_Penalty_Charging>
2.33291

> <r_epik_Ionization_Penalty_Neutral>
6.90208e-07

> <r_epik_State_Penalty>
2.4838

> <r_epik_Charging_Adjusted_Penalty>
4.81672

> <i_epik_Tot_Q>
2

> <i_epik_Tot_abs_Q>
2

> <r_epik_Metal_State_Penalty>
6.56754

> <b_epik_Metal_Only>
0

> <s_lp_Force_Field>
OPLS_2005

> <r_lp_Energy>
33.9441

> <b_lp_Chiralities_Consistent>
1

> <s_lp_Variant>
AV-unprocessed.smi:1702-5

> <Gold.Version>
5.8.1

> <Gold.Id.Protein>
6NUR|6NUR_protein|mol2

> <Gold.PLP.Fitness>
57.5515

> <Gold.PLP.PLP>
-44.3801

> <Gold.PLP.part.hbond>
-4.0000

> <Gold.PLP.part.metal>
0.0000

> <Gold.PLP.part.buried>
-3.5627

> <Gold.PLP.part.nonpolar>
-37.2381

> <Gold.PLP.part.repulsive>
0.1313

> <Gold.PLP.ligand.clash>
0.0000

> <Gold.PLP.ligand.torsion>
0.7817

> <Gold.PLP.Chemscore.Hbond>
4.9000

> <Gold.PLP.Chemscore.CHOScore>
0.0000

> <Gold.PLP.Chemscore.Metal>
0.0000

> <Gold.Chemscore.Hbonds>
donor molecule, donor type, donor heavy atom, donor atom, acceptor molecule, acceptor atom, score
      L1  H     5    44       P1  7948  2.00
      L1  H     8    34       P1  7948  0.55
      L1  H    12    45       P1  8028  1.95

> <Gold.PLP.Chemscore.Internal.Correction>
0.0347

> <Gold.Rescore>
     Score         DG    S(hbond)    S(metal)    S(lipo)     H(rot)  DE(clash)    DE(int)     intcor
     17.50     -18.69       2.66        0.00      87.72       2.32       0.23       0.96       ----

> <Gold.Chemscore.Fitness>
17.5032

> <Gold.Chemscore.DG>
-18.6894

> <Gold.Chemscore.ZeroCoef>
-5.4800

> <Gold.Chemscore.Hbond>
2.6612

> <Gold.Chemscore.Metal>
0.0000

> <Gold.Chemscore.Lipo>
87.7155

> <Gold.Chemscore.Internal_Hbond>
0.0000

> <Gold.Chemscore.DEClash>
0.2299

> <Gold.Chemscore.DEInternal>
0.9563

> <Gold.Chemscore.Rot>
2.3210

> <Gold.Chemscore.Internal.Correction>
   9.000000E+99

> <Gold.Chemscore.Hbonds>
donor molecule, donor type, donor heavy atom, donor atom, acceptor molecule, acceptor atom, score
      L1  H     5    44       P1  7948  0.99
      L1  H     8    34       P1  7948  0.03
      L1  H    12    45       P1  8028  0.91

> <Gold.Chemscore.Hbond.Weighted>
-8.8883

> <Gold.Chemscore.Metal.Weighted>
-0.0000

> <Gold.Chemscore.Lipo.Weighted>
-10.2627

> <Gold.Chemscore.Internal_Hbond.Weighted>
0.0000

> <Gold.Chemscore.DEClash.Weighted>
0.2299

> <Gold.Chemscore.DEInternal.Weighted>
0.9563

> <Gold.Chemscore.Rot.Weighted>
5.9416

> <Gold.Chemscore.Internal.Correction.Weighted>
   9.000000E+99

> <Gold.Protein.RotatedTorsions>
[ 6907 6896 6895 6894 ] final   43.32 input  -60.11 | X-H torsion
[ 7974 7965 7964 7962 ] final  158.73 input  175.53 | X-H torsion
[ 8008 7997 7996 7995 ] final  -78.01 input   59.86 | X-H torsion
[ 10167 10162 10161 10158 ] final  160.94 input  -65.29 | X-H torsion
[ 10718 10713 10712 10709 ] final  152.06 input   66.30 | X-H torsion
[ 10763 10752 10751 10750 ] final  -66.01 input  -60.55 | X-H torsion
[ 11005 11000 10999 10996 ] final  145.43 input  -57.11 | X-H torsion

> <Gold.Protein.ActiveResidues>
 VAL166  LYS551  ARG553  GLY616  TRP617  ASP618  TYR619  PRO620  LYS621  CYS622 
 ASP623  PHE694  ASN695  SER759  ASP760  ASP761  ALA762  ILE779  LEU786  VAL792 
 PHE793  MET794  SER795  GLU796  ALA797  LYS798  CYS799  TRP800  GLU811  SER814 

> <Gold.Protein.RotatedAtoms>
  152.2188  134.8432  160.0488 H   0  0  0  0  0  0  0  0  0  0  0  0  # atno 6907 bound_to 6896
  151.9224  133.3584  159.3910 H   0  0  0  0  0  0  0  0  0  0  0  0  # atno 6908 bound_to 6896
  150.6994  134.4547  159.5396 H   0  0  0  0  0  0  0  0  0  0  0  0  # atno 6909 bound_to 6896
  144.7829  139.7519  143.6252 H   0  0  0  0  0  0  0  0  0  0  0  0  # atno 7974 bound_to 7965
  154.5649  140.0701  156.8876 H   0  0  0  0  0  0  0  0  0  0  0  0  # atno 8008 bound_to 7997
  155.2742  140.3367  155.4245 H   0  0  0  0  0  0  0  0  0  0  0  0  # atno 8009 bound_to 7997
  156.2072  140.1745  156.7759 H   0  0  0  0  0  0  0  0  0  0  0  0  # atno 8010 bound_to 7997
  139.4844  144.4585  151.8736 H   0  0  0  0  0  0  0  0  0  0  0  0  # atno 10167 bound_to 10162
  157.2626  131.0801  151.1655 H   0  0  0  0  0  0  0  0  0  0  0  0  # atno 10718 bound_to 10713
  154.3535  135.6131  153.5654 H   0  0  0  0  0  0  0  0  0  0  0  0  # atno 10763 bound_to 10752
  152.9797  135.5798  154.4716 H   0  0  0  0  0  0  0  0  0  0  0  0  # atno 10764 bound_to 10752
  154.4441  135.2851  155.1804 H   0  0  0  0  0  0  0  0  0  0  0  0  # atno 10765 bound_to 10752
  140.0711  134.9151  157.1347 H   0  0  0  0  0  0  0  0  0  0  0  0  # atno 11005 bound_to 11000
  146.2047  139.5363  142.9720 LP  0  0  0  0  0  0  0  0  0  0  0  0  # atno 17320 bound_to 7965
  145.6000  141.0356  143.2023 LP  0  0  0  0  0  0  0  0  0  0  0  0  # atno 17321 bound_to 7965
  140.4046  144.2448  150.5891 LP  0  0  0  0  0  0  0  0  0  0  0  0  # atno 17342 bound_to 10162
  140.5024  143.2314  151.8658 LP  0  0  0  0  0  0  0  0  0  0  0  0  # atno 17343 bound_to 10162
  157.3159  130.6913  149.6241 LP  0  0  0  0  0  0  0  0  0  0  0  0  # atno 17370 bound_to 10713
  155.9664  130.4350  150.5072 LP  0  0  0  0  0  0  0  0  0  0  0  0  # atno 17371 bound_to 10713
  140.3625  134.2478  155.7185 LP  0  0  0  0  0  0  0  0  0  0  0  0  # atno 17394 bound_to 11000
  141.2012  133.7968  157.0451 LP  0  0  0  0  0  0  0  0  0  0  0  0  # atno 17395 bound_to 11000

$$$$
