#       Name:                AV-unprocessed.smi:486
#       Creating user name   scv26
#       Creation time:       Thu Mar 26 23:12:51 2020


#       File generated by GOLD software.
#

@<TRIPOS>MOLECULE
AV-unprocessed.smi:486
    50    52     1
SMALL
NO_CHARGES


@<TRIPOS>ATOM
      1 ****        -7.7220   1.1575   0.1654 C.3            1 S1                 0.0000
      2 ****        -6.7903   2.1818   0.4809 O.3            1 S1                 0.0000
      3 ****        -5.4475   1.8731   0.4372 C.ar           1 S1                 0.0000
      4 ****        -4.5420   2.9009   0.7653 C.ar           1 S1                 0.0000
      5 ****        -3.1534   2.6709   0.7472 C.ar           1 S1                 0.0000
      6 ****        -2.6357   1.4083   0.3979 C.ar           1 S1                 0.0000
      7 ****        -1.2643   1.2696   0.4033 O.3            1 S1                 0.0000
      8 ****        -0.7117   0.0158   0.0236 C.3            1 S1                 0.0000
      9 ****         0.8207   0.1100   0.0900 C.3            1 S1                 0.0000
     10 ****         1.2793   0.7534  -1.0828 O.3            1 S1                 0.0000
     11 ****         1.4790  -1.2812   0.1929 C.3            1 S1                 0.0000
     12 ****         2.9316  -1.2135   0.2853 N.pl3          1 S1                 0.0000
     13 ****         3.6887  -1.0563   1.3989 C.2            1 S1                 0.0000
     14 ****         3.0771  -0.9317   2.7583 C.3            1 S1                 0.0000
     15 ****         5.0075  -1.0261   1.2070 N.2            1 S1                 0.0000
     16 ****         5.1176  -1.1805  -0.1616 C.ar           1 S1                 0.0000
     17 ****         6.2612  -1.2322  -0.9904 C.ar           1 S1                 0.0000
     18 ****         6.1257  -1.4008  -2.3842 C.ar           1 S1                 0.0000
     19 ****         4.8477  -1.5189  -2.9679 C.ar           1 S1                 0.0000
     20 ****         3.6951  -1.4695  -2.1603 C.ar           1 S1                 0.0000
     21 ****         3.8355  -1.3021  -0.7695 C.ar           1 S1                 0.0000
     22 ****        -3.5423   0.3711   0.0674 C.ar           1 S1                 0.0000
     23 ****        -4.9320   0.6008   0.0871 C.ar           1 S1                 0.0000
     24 ****        -8.7341   1.5527   0.2508 H              1 S1                 0.0000
     25 ****        -7.6379   0.3166   0.8548 H              1 S1                 0.0000
     26 ****        -7.5925   0.8013  -0.8576 H              1 S1                 0.0000
     27 ****        -4.9158   3.8779   1.0347 H              1 S1                 0.0000
     28 ****        -2.4780   3.4739   1.0038 H              1 S1                 0.0000
     29 ****        -1.0578  -0.7394   0.7312 H              1 S1                 0.0000
     30 ****        -1.0380  -0.2858  -0.9735 H              1 S1                 0.0000
     31 ****         1.1103   0.7083   0.9542 H              1 S1                 0.0000
     32 ****         0.8966   1.6169  -1.1185 H              1 S1                 0.0000
     33 ****         1.0996  -1.8164   1.0639 H              1 S1                 0.0000
     34 ****         1.2136  -1.8899  -0.6724 H              1 S1                 0.0000
     35 ****         3.8469  -0.7453   3.5080 H              1 S1                 0.0000
     36 ****         2.5566  -1.8522   3.0225 H              1 S1                 0.0000
     37 ****         2.3689  -0.1041   2.7841 H              1 S1                 0.0000
     38 ****         7.2444  -1.1421  -0.5529 H              1 S1                 0.0000
     39 ****         7.0067  -1.4391  -3.0079 H              1 S1                 0.0000
     40 ****         4.7525  -1.6460  -4.0363 H              1 S1                 0.0000
     41 ****         2.7147  -1.5556  -2.6047 H              1 S1                 0.0000
     42 ****        -3.1970  -0.6146  -0.2048 H              1 S1                 0.0000
     43 ****        -5.5838  -0.2196  -0.1714 H              1 S1                 0.0000
     44 ****        -6.9936   2.4927   1.4094 LP             1 S1                 0.0000
     45 ****        -6.9439   2.9316  -0.1627 LP             1 S1                 0.0000
     46 ****        -0.9511   1.4617   1.3334 LP             1 S1                 0.0000
     47 ****        -0.8948   1.9574  -0.2215 LP             1 S1                 0.0000
     48 ****         1.0019   0.2276  -1.8869 LP             1 S1                 0.0000
     49 ****         2.2763   0.8266  -1.0600 LP             1 S1                 0.0000
     50 ****         5.7352  -0.9185   1.8844 LP             1 S1                 0.0000
@<TRIPOS>BOND
    1    1    2 1     
    2    1   24 1     
    3    1   25 1     
    4    1   26 1     
    5    2    3 1     
    6    3   23 ar    
    7    3    4 ar    
    8    4    5 ar    
    9    4   27 1     
   10    5    6 ar    
   11    5   28 1     
   12    6    7 1     
   13    6   22 ar    
   14    7    8 1     
   15    8    9 1     
   16    8   29 1     
   17    8   30 1     
   18    9   10 1     
   19    9   11 1     
   20    9   31 1     
   21   10   32 1     
   22   11   12 1     
   23   11   33 1     
   24   11   34 1     
   25   12   21 1     
   26   12   13 1     
   27   13   14 1     
   28   13   15 2     
   29   14   35 1     
   30   14   36 1     
   31   14   37 1     
   32   15   16 1     
   33   16   21 ar    
   34   16   17 ar    
   35   17   18 ar    
   36   17   38 1     
   37   18   19 ar    
   38   18   39 1     
   39   19   20 ar    
   40   19   40 1     
   41   20   21 ar    
   42   20   41 1     
   43   22   23 ar    
   44   22   42 1     
   45   23   43 1     
   46    2   44 1     
   47    2   45 1     
   48    7   46 1     
   49    7   47 1     
   50   10   48 1     
   51   10   49 1     
   52   15   50 1     
@<TRIPOS>SUBSTRUCTURE
      1 S1             1
@<TRIPOS>SET
LONE_PAIRS      STATIC     ATOMS    <user>   **** ""
7 44 45 46 47 48 49 50
DONOR_HYDROGENS      STATIC     ATOMS    <user>   **** ""
1 32
ATOM$BLUE        STATIC     ATOMS    COLORGROUP SYSTEM
7 44 45 46 47 48 49 50
ATOM$RED        STATIC     ATOMS    COLORGROUP SYSTEM
1 32
