AV-unprocessed.smi:1446|AV-procd|sdf|5890|dock4
  -GOLD-   22720 5573D 1   1.00000     0.00000
 Structure written by MMmdl.
 47 48  0  0  0  0  0  0  0  0  1 V2000
  151.4149  143.9924  158.0720 C   0  0  0  0  0  0  0  0  0  0  0  0
  151.3423  142.5340  157.6338 C   0  0  0  0  0  0  0  0  0  0  0  0
  152.0946  141.6988  158.1349 O   0  0  0  0  0  0  0  0  0  0  0  0
  150.4303  142.2421  156.6933 N   0  0  0  0  0  0  0  0  0  0  0  0
  150.1825  140.9117  156.1328 C   0  0  1  0  0  0  0  0  0  0  0  0
  149.1379  140.1883  157.0054 C   0  0  0  0  0  0  0  0  0  0  0  0
  148.0296  140.6960  157.1867 O   0  0  0  0  0  0  0  0  0  0  0  0
  149.5250  139.0006  157.5080 N   0  0  0  0  0  0  0  0  0  0  0  0
  148.7749  138.0924  158.3004 C   0  0  0  0  0  0  0  0  0  0  0  0
  149.5285  137.0689  158.9124 C   0  0  0  0  0  0  0  0  0  0  0  0
  148.8753  136.1086  159.7076 C   0  0  0  0  0  0  0  0  0  0  0  0
  147.4746  136.1788  159.8810 C   0  0  0  0  0  0  0  0  0  0  0  0
  146.7997  135.2214  160.6693 N   0  0  0  0  0  0  0  0  0  0  0  0
  147.5659  134.0924  161.1887 C   0  0  0  0  0  0  0  0  0  0  0  0
  146.6212  133.0179  161.7536 C   0  0  0  0  0  0  0  0  0  0  0  0
  145.7669  133.5982  162.7334 O   0  0  0  0  0  0  0  0  0  0  0  0
  144.9475  134.6225  162.1799 C   0  0  0  0  0  0  0  0  0  0  0  0
  145.8298  135.7540  161.6236 C   0  0  0  0  0  0  0  0  0  0  0  0
  146.8093  137.2487  159.2340 C   0  0  0  0  0  0  0  0  0  0  0  0
  147.4335  138.1697  158.4701 N   0  0  0  0  0  0  0  0  0  0  0  0
  149.6446  141.0713  154.6794 C   0  0  0  0  0  0  0  0  0  0  0  0
  148.3271  141.8712  154.6042 C   0  0  0  0  0  0  0  0  0  0  0  0
  149.4436  139.7073  153.9898 C   0  0  0  0  0  0  0  0  0  0  0  0
  150.4486  144.3246  158.4524 H   0  0  0  0  0  0  0  0  0  0  0  0
  151.6936  144.6288  157.2317 H   0  0  0  0  0  0  0  0  0  0  0  0
  152.1559  144.1242  158.8609 H   0  0  0  0  0  0  0  0  0  0  0  0
  149.8519  142.9933  156.3460 H   0  0  0  0  0  0  0  0  0  0  0  0
  151.1139  140.3416  156.1138 H   0  0  0  0  0  0  0  0  0  0  0  0
  150.4657  138.7093  157.2860 H   0  0  0  0  0  0  0  0  0  0  0  0
  150.5990  137.0151  158.7774 H   0  0  0  0  0  0  0  0  0  0  0  0
  149.4591  135.3355  160.1846 H   0  0  0  0  0  0  0  0  0  0  0  0
  148.1770  133.6551  160.3988 H   0  0  0  0  0  0  0  0  0  0  0  0
  148.2392  134.4422  161.9723 H   0  0  0  0  0  0  0  0  0  0  0  0
  146.0267  132.5652  160.9582 H   0  0  0  0  0  0  0  0  0  0  0  0
  147.1979  132.2164  162.2154 H   0  0  0  0  0  0  0  0  0  0  0  0
  144.3079  134.2090  161.3983 H   0  0  0  0  0  0  0  0  0  0  0  0
  144.2887  135.0088  162.9576 H   0  0  0  0  0  0  0  0  0  0  0  0
  146.3689  136.2396  162.4383 H   0  0  0  0  0  0  0  0  0  0  0  0
  145.1904  136.5110  161.1715 H   0  0  0  0  0  0  0  0  0  0  0  0
  145.7404  137.3801  159.3063 H   0  0  0  0  0  0  0  0  0  0  0  0
  150.3864  141.6181  154.0944 H   0  0  0  0  0  0  0  0  0  0  0  0
  147.5491  141.4081  155.2118 H   0  0  0  0  0  0  0  0  0  0  0  0
  147.9586  141.9228  153.5794 H   0  0  0  0  0  0  0  0  0  0  0  0
  148.4484  142.9000  154.9437 H   0  0  0  0  0  0  0  0  0  0  0  0
  148.7377  139.0866  154.5426 H   0  0  0  0  0  0  0  0  0  0  0  0
  150.3773  139.1518  153.9018 H   0  0  0  0  0  0  0  0  0  0  0  0
  149.0536  139.8311  152.9790 H   0  0  0  0  0  0  0  0  0  0  0  0
  1  2  1  0  0  0  0
  1 24  1  0  0  0  0
  1 25  1  0  0  0  0
  1 26  1  0  0  0  0
  2  3  2  0  0  0  0
  2  4  1  0  0  0  0
  4  5  1  0  0  0  0
  4 27  1  0  0  0  0
  5  6  1  0  0  0  0
  5 21  1  0  0  0  0
  5 28  1  0  0  0  0
  6  7  2  0  0  0  0
  6  8  1  0  0  0  0
  8  9  1  0  0  0  0
  8 29  1  0  0  0  0
  9 20  1  0  0  0  0
  9 10  2  0  0  0  0
 10 11  1  0  0  0  0
 10 30  1  0  0  0  0
 11 12  2  0  0  0  0
 11 31  1  0  0  0  0
 12 13  1  0  0  0  0
 12 19  1  0  0  0  0
 13 18  1  0  0  0  0
 13 14  1  0  0  0  0
 14 15  1  0  0  0  0
 14 32  1  0  0  0  0
 14 33  1  0  0  0  0
 15 16  1  0  0  0  0
 15 34  1  0  0  0  0
 15 35  1  0  0  0  0
 16 17  1  0  0  0  0
 17 18  1  0  0  0  0
 17 36  1  0  0  0  0
 17 37  1  0  0  0  0
 18 38  1  0  0  0  0
 18 39  1  0  0  0  0
 19 20  2  0  0  0  0
 19 40  1  0  0  0  0
 21 22  1  0  0  0  0
 21 23  1  0  0  0  0
 21 41  1  0  0  0  0
 22 42  1  0  0  0  0
 22 43  1  0  0  0  0
 22 44  1  0  0  0  0
 23 45  1  0  0  0  0
 23 46  1  0  0  0  0
 23 47  1  0  0  0  0
M  END
> <s_m_source_file>
AV-unprocessed.smi

> <i_m_source_file_index>
1446

> <i_lp_mmshare_version>
43012

> <i_f3d_flags>
0

> <s_epik_input>
W0NIM11DKD1PKVtOSF1bQ0BASF0oW0NIXShbQ0gzXSlbQ0gzXSlDKD1PKVtOSF1jMVtjSF1bY0hdYyhbY0hdbjEpTjJbQ0gyXVtDSDJdT1tDSDJdW0NIMl0y

> <s_epik_cmdline>
J2VwaWtfcHl0aG9uJywgJy1waCcsICc3LjAnLCAnLXRuJywgJzgnLCAnLW1hJywgJzIwMCcsICctbWV0YWxfYmluZGluZycsICctaW1hZScsICc8aW5maWxlLm1hZT4nLCAnLW9tYWUnLCAnPG91dGZpbGUubWFlPic=

> <r_lp_tautomer_probability>
1

> <r_epik_Ionization_Penalty>
0.00298315

> <r_epik_Ionization_Penalty_Charging>
0

> <r_epik_Ionization_Penalty_Neutral>
0.00298315

> <r_epik_State_Penalty>
0.0038483

> <r_epik_Charging_Adjusted_Penalty>
0.0038483

> <i_epik_Tot_Q>
0

> <i_epik_Tot_abs_Q>
0

> <r_epik_Metal_State_Penalty>
-0

> <b_epik_Metal_Only>
0

> <s_lp_Force_Field>
OPLS_2005

> <r_lp_Energy>
27.8209

> <b_lp_Chiralities_Consistent>
1

> <s_lp_Variant>
AV-unprocessed.smi:1446-2

> <Gold.Version>
5.8.1

> <Gold.Id.Protein>
6NUR|6NUR_protein|mol2

> <Gold.PLP.Fitness>
36.9680

> <Gold.PLP.PLP>
-34.8462

> <Gold.PLP.part.hbond>
-3.0000

> <Gold.PLP.part.metal>
0.0000

> <Gold.PLP.part.buried>
-1.9341

> <Gold.PLP.part.nonpolar>
-30.7537

> <Gold.PLP.part.repulsive>
0.2332

> <Gold.PLP.ligand.clash>
0.0000

> <Gold.PLP.ligand.torsion>
0.6274

> <Gold.PLP.Chemscore.Hbond>
1.0000

> <Gold.PLP.Chemscore.CHOScore>
0.0000

> <Gold.PLP.Chemscore.Metal>
0.0000

> <Gold.Chemscore.Hbonds>
donor molecule, donor type, donor heavy atom, donor atom, acceptor molecule, acceptor atom, score
      L1  H     4    27       P1  8028  0.84

> <Gold.PLP.Chemscore.Internal.Correction>
0.3767

> <Gold.Rescore>
     Score         DG    S(hbond)    S(metal)    S(lipo)     H(rot)  DE(clash)    DE(int)     intcor
     10.09     -14.09       0.96        0.00      84.19       1.74       0.98       3.02       ----

> <Gold.Chemscore.Fitness>
10.0861

> <Gold.Chemscore.DG>
-14.0916

> <Gold.Chemscore.ZeroCoef>
-5.4800

> <Gold.Chemscore.Hbond>
0.9623

> <Gold.Chemscore.Metal>
0.0000

> <Gold.Chemscore.Lipo>
84.1912

> <Gold.Chemscore.Internal_Hbond>
0.0000

> <Gold.Chemscore.DEClash>
0.9838

> <Gold.Chemscore.DEInternal>
3.0217

> <Gold.Chemscore.Rot>
1.7394

> <Gold.Chemscore.Internal.Correction>
   9.000000E+99

> <Gold.Chemscore.Hbonds>
donor molecule, donor type, donor heavy atom, donor atom, acceptor molecule, acceptor atom, score
      L1  H     4    27       P1  8028  0.82

> <Gold.Chemscore.Hbond.Weighted>
-3.2140

> <Gold.Chemscore.Metal.Weighted>
-0.0000

> <Gold.Chemscore.Lipo.Weighted>
-9.8504

> <Gold.Chemscore.Internal_Hbond.Weighted>
0.0000

> <Gold.Chemscore.DEClash.Weighted>
0.9838

> <Gold.Chemscore.DEInternal.Weighted>
3.0217

> <Gold.Chemscore.Rot.Weighted>
4.4528

> <Gold.Chemscore.Internal.Correction.Weighted>
   9.000000E+99

> <Gold.Protein.RotatedTorsions>
[ 6907 6896 6895 6894 ] final -121.63 input  -60.11 | X-H torsion
[ 7974 7965 7964 7962 ] final   43.29 input  175.53 | X-H torsion
[ 8008 7997 7996 7995 ] final -141.18 input   59.86 | X-H torsion
[ 10167 10162 10161 10158 ] final  -26.08 input  -65.29 | X-H torsion
[ 10718 10713 10712 10709 ] final  -63.28 input   66.30 | X-H torsion
[ 10763 10752 10751 10750 ] final  -42.37 input  -60.55 | X-H torsion
[ 11005 11000 10999 10996 ] final  -80.35 input  -57.11 | X-H torsion

> <Gold.Protein.ActiveResidues>
 VAL166  LYS551  ARG553  GLY616  TRP617  ASP618  TYR619  PRO620  LYS621  CYS622 
 ASP623  PHE694  ASN695  SER759  ASP760  ASP761  ALA762  ILE779  LEU786  VAL792 
 PHE793  MET794  SER795  GLU796  ALA797  LYS798  CYS799  TRP800  GLU811  SER814 

> <Gold.Protein.RotatedAtoms>
  150.8501  133.7801  159.3028 H   0  0  0  0  0  0  0  0  0  0  0  0  # atno 6907 bound_to 6896
  151.5475  135.1066  159.9951 H   0  0  0  0  0  0  0  0  0  0  0  0  # atno 6908 bound_to 6896
  152.4545  133.7653  159.6825 H   0  0  0  0  0  0  0  0  0  0  0  0  # atno 6909 bound_to 6896
  146.0668  139.5203  142.9623 H   0  0  0  0  0  0  0  0  0  0  0  0  # atno 7974 bound_to 7965
  155.4735  140.0555  157.2976 H   0  0  0  0  0  0  0  0  0  0  0  0  # atno 8008 bound_to 7997
  154.4689  140.2031  156.0000 H   0  0  0  0  0  0  0  0  0  0  0  0  # atno 8009 bound_to 7997
  156.1021  140.3217  155.7961 H   0  0  0  0  0  0  0  0  0  0  0  0  # atno 8010 bound_to 7997
  140.7284  143.4209  151.0953 H   0  0  0  0  0  0  0  0  0  0  0  0  # atno 10167 bound_to 10162
  156.0801  130.4219  150.1255 H   0  0  0  0  0  0  0  0  0  0  0  0  # atno 10718 bound_to 10713
  153.9779  135.6720  153.4749 H   0  0  0  0  0  0  0  0  0  0  0  0  # atno 10763 bound_to 10752
  153.0762  135.4947  154.8405 H   0  0  0  0  0  0  0  0  0  0  0  0  # atno 10764 bound_to 10752
  154.7181  135.3111  154.9052 H   0  0  0  0  0  0  0  0  0  0  0  0  # atno 10765 bound_to 10752
  141.1668  133.7146  156.8259 H   0  0  0  0  0  0  0  0  0  0  0  0  # atno 11005 bound_to 11000
  145.6463  141.0273  143.1784 LP  0  0  0  0  0  0  0  0  0  0  0  0  # atno 17320 bound_to 7965
  144.7207  139.8040  143.7383 LP  0  0  0  0  0  0  0  0  0  0  0  0  # atno 17321 bound_to 7965
  139.7855  143.8294  152.3144 LP  0  0  0  0  0  0  0  0  0  0  0  0  # atno 17342 bound_to 10162
  139.8260  144.7275  150.9512 LP  0  0  0  0  0  0  0  0  0  0  0  0  # atno 17343 bound_to 10162
  156.9288  130.9707  151.3536 LP  0  0  0  0  0  0  0  0  0  0  0  0  # atno 17370 bound_to 10713
  157.5914  130.8446  149.8664 LP  0  0  0  0  0  0  0  0  0  0  0  0  # atno 17371 bound_to 10713
  140.2086  134.8844  157.3249 LP  0  0  0  0  0  0  0  0  0  0  0  0  # atno 17394 bound_to 11000
  140.2111  134.4137  155.7612 LP  0  0  0  0  0  0  0  0  0  0  0  0  # atno 17395 bound_to 11000

$$$$
