#       Name:                AV-unprocessed.smi:1637
#       Creating user name   scv26
#       Creation time:       Fri Mar 27 07:22:53 2020


#       File generated by GOLD software.
#

@<TRIPOS>MOLECULE
AV-unprocessed.smi:1637
    45    46     1
SMALL
NO_CHARGES


@<TRIPOS>ATOM
      1 ****        -7.1752   2.4288  -0.4376 C.3            1 S1                 0.0000
      2 ****        -6.6016   1.1654  -0.1199 O.3            1 S1                 0.0000
      3 ****        -5.2368   1.0133  -0.2549 C.ar           1 S1                 0.0000
      4 ****        -4.6612  -0.2302   0.0739 C.ar           1 S1                 0.0000
      5 ****        -3.2687  -0.3930  -0.0571 C.ar           1 S1                 0.0000
      6 ****        -2.4921   0.7008  -0.5081 C.ar           1 S1                 0.0000
      7 ****        -1.0847   0.6578  -0.6976 N.am           1 S1                 0.0000
      8 ****        -0.1897  -0.1633  -0.1226 C.2            1 S1                 0.0000
      9 ****        -0.4533  -1.0396   0.7005 O.2            1 S1                 0.0000
     10 ****         1.0537   0.1059  -0.5453 N.am           1 S1                 0.0000
     11 ****         2.2683  -0.5954  -0.1292 C.3            1 S1                 0.0000
     12 ****         2.7544  -0.0784   1.2496 C.3            1 S1                 0.0000
     13 ****         4.2582  -0.2528   1.5488 C.3            1 S1                 0.0000
     14 ****         4.8060  -1.6853   1.3875 C.3            1 S1                 0.0000
     15 ****         4.5726  -2.3691   0.0193 C.3            1 S1                 0.0000
     16 ****         4.3804  -1.4412  -1.0947 N.am           1 S1                 0.0000
     17 ****         3.3335  -0.6109  -1.2424 C.2            1 S1                 0.0000
     18 ****         3.2340   0.1294  -2.2201 O.2            1 S1                 0.0000
     19 ****        -3.1667   1.8972  -0.8275 C.ar           1 S1                 0.0000
     20 ****        -4.5005   2.0606  -0.7020 N.ar           1 S1                 0.0000
     21 ****        -8.2534   2.3841  -0.2858 H              1 S1                 0.0000
     22 ****        -6.9991   2.6967  -1.4803 H              1 S1                 0.0000
     23 ****        -6.7830   3.2174   0.2062 H              1 S1                 0.0000
     24 ****        -5.2778  -1.0474   0.4180 H              1 S1                 0.0000
     25 ****        -2.8305  -1.3510   0.1764 H              1 S1                 0.0000
     26 ****        -0.7058   1.3803  -1.2924 H              1 S1                 0.0000
     27 ****         1.1754   0.8435  -1.2241 H              1 S1                 0.0000
     28 ****         1.9804  -1.6397  -0.0011 H              1 S1                 0.0000
     29 ****         2.5257   0.9846   1.3379 H              1 S1                 0.0000
     30 ****         2.1744  -0.5680   2.0327 H              1 S1                 0.0000
     31 ****         4.8340   0.4261   0.9182 H              1 S1                 0.0000
     32 ****         4.4499   0.0806   2.5692 H              1 S1                 0.0000
     33 ****         5.8801  -1.6482   1.5723 H              1 S1                 0.0000
     34 ****         4.3987  -2.3222   2.1733 H              1 S1                 0.0000
     35 ****         5.4205  -3.0134  -0.2137 H              1 S1                 0.0000
     36 ****         3.7134  -3.0382   0.0782 H              1 S1                 0.0000
     37 ****         5.0867  -1.4419  -1.8164 H              1 S1                 0.0000
     38 ****        -2.6192   2.7549  -1.1900 H              1 S1                 0.0000
     39 ****        -7.0351   0.4863  -0.7122 LP             1 S1                 0.0000
     40 ****        -6.8284   0.9690   0.8341 LP             1 S1                 0.0000
     41 ****        -1.3991  -1.1841   0.9914 LP             1 S1                 0.0000
     42 ****         0.2783  -1.6070   1.0784 LP             1 S1                 0.0000
     43 ****         2.4547   0.7511  -2.2993 LP             1 S1                 0.0000
     44 ****         3.9324   0.1094  -2.9355 LP             1 S1                 0.0000
     45 ****        -4.9346   2.9315  -0.9327 LP             1 S1                 0.0000
@<TRIPOS>BOND
    1    1    2 1     
    2    1   21 1     
    3    1   22 1     
    4    1   23 1     
    5    2    3 1     
    6    3   20 ar    
    7    3    4 ar    
    8    4    5 ar    
    9    4   24 1     
   10    5    6 ar    
   11    5   25 1     
   12    6    7 1     
   13    6   19 ar    
   14    7    8 am    
   15    7   26 1     
   16    8    9 2     
   17    8   10 am    
   18   10   11 1     
   19   10   27 1     
   20   11   17 1     
   21   11   12 1     
   22   11   28 1     
   23   12   13 1     
   24   12   29 1     
   25   12   30 1     
   26   13   14 1     
   27   13   31 1     
   28   13   32 1     
   29   14   15 1     
   30   14   33 1     
   31   14   34 1     
   32   15   16 1     
   33   15   35 1     
   34   15   36 1     
   35   16   17 am    
   36   16   37 1     
   37   17   18 2     
   38   19   20 ar    
   39   19   38 1     
   40    2   39 1     
   41    2   40 1     
   42    9   41 1     
   43    9   42 1     
   44   18   43 1     
   45   18   44 1     
   46   20   45 1     
@<TRIPOS>SUBSTRUCTURE
      1 S1             1
@<TRIPOS>SET
LONE_PAIRS      STATIC     ATOMS    <user>   **** ""
7 39 40 41 42 43 44 45
DONOR_HYDROGENS      STATIC     ATOMS    <user>   **** ""
3 26 27 37
ATOM$BLUE        STATIC     ATOMS    COLORGROUP SYSTEM
7 39 40 41 42 43 44 45
ATOM$RED        STATIC     ATOMS    COLORGROUP SYSTEM
3 26 27 37
