AV-unprocessed.smi:200|AV-procd|sdf|1576|dock4
  -GOLD-   2262019453D 1   1.00000     0.00000
 Structure written by MMmdl.
 56 59  0  0  0  0  0  0  0  0  1 V2000
  151.0936  138.5849  154.2938 C   0  0  0  0  0  0  0  0  0  0  0  0
  150.6988  139.9251  154.5289 O   0  0  0  0  0  0  0  0  0  0  0  0
  150.6544  140.2445  155.9090 C   0  0  0  0  0  0  0  0  0  0  0  0
  152.0491  140.7210  156.3457 C   0  0  0  0  0  0  0  0  0  0  0  0
  152.2043  140.8041  157.8014 N   0  0  0  0  0  0  0  0  0  0  0  0
  152.1719  139.6347  158.4834 C   0  0  0  0  0  0  0  0  0  0  0  0
  150.9921  138.9658  158.5022 N   0  0  0  0  0  0  0  0  0  0  0  0
  150.8934  137.7997  159.1466 C   0  0  0  0  0  0  0  0  0  0  0  0
  151.8366  137.1332  159.8148 N   0  0  0  0  0  0  0  0  0  0  0  0
  153.0286  137.7949  159.7864 C   0  0  0  0  0  0  0  0  0  0  0  0
  153.2823  139.0449  159.1531 C   0  0  0  0  0  0  0  0  0  0  0  0
  154.6127  139.4032  159.3345 N   0  0  0  0  0  0  0  0  0  0  0  0
  155.1140  138.4269  160.0395 C   0  0  0  0  0  0  0  0  0  0  0  0
  154.2366  137.4100  160.3420 N   0  0  0  0  0  0  0  0  0  0  0  0
  154.5382  136.2024  161.0957 C   0  0  0  0  0  0  0  0  0  0  0  0
  154.7964  136.4426  162.5986 C   0  0  0  0  0  0  0  0  0  0  0  0
  156.0559  137.3016  162.8108 C   0  0  0  0  0  0  0  0  0  0  0  0
  157.1810  136.7371  162.1678 O   0  0  0  0  0  0  0  0  0  0  0  0
  153.5772  136.8773  163.4234 C   0  0  0  0  0  0  0  0  0  0  0  0
  153.8087  135.8509  164.4111 O   0  0  0  0  0  0  0  0  0  0  0  0
  154.7204  135.2018  163.5004 C   0  0  0  0  0  0  0  0  0  0  0  0
  151.5630  141.8956  158.5414 C   0  0  2  0  0  0  0  0  0  0  0  0
  150.3885  142.5625  157.8143 C   0  0  0  0  0  0  0  0  0  0  0  0
  150.2524  143.9014  158.5332 C   0  0  0  0  0  0  0  0  0  0  0  0
  151.7010  144.3415  158.7826 C   0  0  1  0  0  0  0  0  0  0  0  0
  151.8523  145.3264  159.9496 C   0  0  0  0  0  0  0  0  0  0  0  0
  152.5070  143.0399  158.9548 C   0  0  0  0  0  0  0  0  0  0  0  0
  151.1071  138.3901  153.2215 H   0  0  0  0  0  0  0  0  0  0  0  0
  150.3990  137.8817  154.7550 H   0  0  0  0  0  0  0  0  0  0  0  0
  152.0947  138.3950  154.6827 H   0  0  0  0  0  0  0  0  0  0  0  0
  149.9051  141.0183  156.0814 H   0  0  0  0  0  0  0  0  0  0  0  0
  150.3624  139.3653  156.4854 H   0  0  0  0  0  0  0  0  0  0  0  0
  152.7908  140.0329  155.9435 H   0  0  0  0  0  0  0  0  0  0  0  0
  152.2669  141.6850  155.8883 H   0  0  0  0  0  0  0  0  0  0  0  0
  149.9202  137.3321  159.1197 H   0  0  0  0  0  0  0  0  0  0  0  0
  156.1492  138.4141  160.3480 H   0  0  0  0  0  0  0  0  0  0  0  0
  153.7130  135.5024  160.9594 H   0  0  0  0  0  0  0  0  0  0  0  0
  155.4018  135.7259  160.6299 H   0  0  0  0  0  0  0  0  0  0  0  0
  155.9086  138.3028  162.4037 H   0  0  0  0  0  0  0  0  0  0  0  0
  156.2777  137.4395  163.8692 H   0  0  0  0  0  0  0  0  0  0  0  0
  157.9424  136.8888  162.7068 H   0  0  0  0  0  0  0  0  0  0  0  0
  153.6537  137.8836  163.8373 H   0  0  0  0  0  0  0  0  0  0  0  0
  152.6235  136.7387  162.9114 H   0  0  0  0  0  0  0  0  0  0  0  0
  154.2591  134.3324  163.0304 H   0  0  0  0  0  0  0  0  0  0  0  0
  155.6672  134.9331  163.9703 H   0  0  0  0  0  0  0  0  0  0  0  0
  151.1610  141.4896  159.4720 H   0  0  0  0  0  0  0  0  0  0  0  0
  150.6223  142.7426  156.7648 H   0  0  0  0  0  0  0  0  0  0  0  0
  149.4757  141.9676  157.8565 H   0  0  0  0  0  0  0  0  0  0  0  0
  149.6873  144.6316  157.9533 H   0  0  0  0  0  0  0  0  0  0  0  0
  149.7323  143.7544  159.4809 H   0  0  0  0  0  0  0  0  0  0  0  0
  152.0560  144.8297  157.8736 H   0  0  0  0  0  0  0  0  0  0  0  0
  151.5022  144.8892  160.8853 H   0  0  0  0  0  0  0  0  0  0  0  0
  151.2774  146.2351  159.7703 H   0  0  0  0  0  0  0  0  0  0  0  0
  152.8951  145.6143  160.0860 H   0  0  0  0  0  0  0  0  0  0  0  0
  152.8258  142.8956  159.9879 H   0  0  0  0  0  0  0  0  0  0  0  0
  153.4152  143.0835  158.3545 H   0  0  0  0  0  0  0  0  0  0  0  0
  1  2  1  0  0  0  0
  1 28  1  0  0  0  0
  1 29  1  0  0  0  0
  1 30  1  0  0  0  0
  2  3  1  0  0  0  0
  3  4  1  0  0  0  0
  3 31  1  0  0  0  0
  3 32  1  0  0  0  0
  4  5  1  0  0  0  0
  4 33  1  0  0  0  0
  4 34  1  0  0  0  0
  5  6  1  0  0  0  0
  5 22  1  0  0  0  0
  6 11  1  0  0  0  0
  6  7  2  0  0  0  0
  7  8  1  0  0  0  0
  8  9  2  0  0  0  0
  8 35  1  0  0  0  0
  9 10  1  0  0  0  0
 10 14  1  0  0  0  0
 10 11  2  0  0  0  0
 11 12  1  0  0  0  0
 12 13  2  0  0  0  0
 13 14  1  0  0  0  0
 13 36  1  0  0  0  0
 14 15  1  0  0  0  0
 15 16  1  0  0  0  0
 15 37  1  0  0  0  0
 15 38  1  0  0  0  0
 16 21  1  0  0  0  0
 16 17  1  0  0  0  0
 16 19  1  0  0  0  0
 17 18  1  0  0  0  0
 17 39  1  0  0  0  0
 17 40  1  0  0  0  0
 18 41  1  0  0  0  0
 19 20  1  0  0  0  0
 19 42  1  0  0  0  0
 19 43  1  0  0  0  0
 20 21  1  0  0  0  0
 21 44  1  0  0  0  0
 21 45  1  0  0  0  0
 22 27  1  0  0  0  0
 22 23  1  0  0  0  0
 22 46  1  0  0  0  0
 23 24  1  0  0  0  0
 23 47  1  0  0  0  0
 23 48  1  0  0  0  0
 24 25  1  0  0  0  0
 24 49  1  0  0  0  0
 24 50  1  0  0  0  0
 25 26  1  0  0  0  0
 25 27  1  0  0  0  0
 25 51  1  0  0  0  0
 26 52  1  0  0  0  0
 26 53  1  0  0  0  0
 26 54  1  0  0  0  0
 27 55  1  0  0  0  0
 27 56  1  0  0  0  0
M  END
> <s_m_source_file>
AV-unprocessed.smi

> <i_m_source_file_index>
200

> <i_lp_mmshare_version>
43012

> <i_f3d_flags>
0

> <s_epik_input>
W0NIM11bQ0BASF0oW0NIMl0xKVtDSDJdW0NIMl1bQ0BIXTFOKFtDSDJdW0NIMl1PW0NIM10pYyhuW2NIXW4yKWMoYzIzKW5bY0hdbjNbQ0gyXUM0KFtDSDJdW09IXSlbQ0gyXU9bQ0gyXTQ=

> <s_epik_cmdline>
J2VwaWtfcHl0aG9uJywgJy1waCcsICc3LjAnLCAnLXRuJywgJzgnLCAnLW1hJywgJzIwMCcsICctbWV0YWxfYmluZGluZycsICctaW1hZScsICc8aW5maWxlLm1hZT4nLCAnLW9tYWUnLCAnPG91dGZpbGUubWFlPic=

> <r_lp_tautomer_probability>
1

> <r_epik_Ionization_Penalty>
0.00363087

> <r_epik_Ionization_Penalty_Charging>
0

> <r_epik_Ionization_Penalty_Neutral>
0.00363087

> <r_epik_State_Penalty>
0.0024341

> <r_epik_Charging_Adjusted_Penalty>
0.0024341

> <i_epik_Tot_Q>
0

> <i_epik_Tot_abs_Q>
0

> <r_epik_Metal_State_Penalty>
-0

> <b_epik_Metal_Only>
0

> <s_lp_Force_Field>
OPLS_2005

> <r_lp_Energy>
49.2687

> <b_lp_Chiralities_Consistent>
1

> <s_lp_Variant>
AV-unprocessed.smi:200-1

> <Gold.Version>
5.8.1

> <Gold.Id.Protein>
6NUR|6NUR_protein|mol2

> <Gold.PLP.Fitness>
52.0519

> <Gold.PLP.PLP>
-45.9452

> <Gold.PLP.part.hbond>
-3.0000

> <Gold.PLP.part.metal>
0.0000

> <Gold.PLP.part.buried>
-8.1470

> <Gold.PLP.part.nonpolar>
-35.5643

> <Gold.PLP.part.repulsive>
0.1717

> <Gold.PLP.ligand.clash>
0.0000

> <Gold.PLP.ligand.torsion>
2.1404

> <Gold.PLP.Chemscore.Hbond>
3.0000

> <Gold.PLP.Chemscore.CHOScore>
0.0000

> <Gold.PLP.Chemscore.Metal>
0.0000

> <Gold.Chemscore.Hbonds>
donor molecule, donor type, donor heavy atom, donor atom, acceptor molecule, acceptor atom, score
      P1  H  6896  6907       L1     9  1.00
      P1  H  7989  7998       L1     2  1.00
      P1  H  7997  8008       L1    12  0.68

> <Gold.PLP.Chemscore.Internal.Correction>
1.3875

> <Gold.Rescore>
     Score         DG    S(hbond)    S(metal)    S(lipo)     H(rot)  DE(clash)    DE(int)     intcor
     14.93     -18.77       2.57        0.00     111.92       3.28       0.17       3.67       ----

> <Gold.Chemscore.Fitness>
14.9305

> <Gold.Chemscore.DG>
-18.7745

> <Gold.Chemscore.ZeroCoef>
-5.4800

> <Gold.Chemscore.Hbond>
2.5709

> <Gold.Chemscore.Metal>
0.0000

> <Gold.Chemscore.Lipo>
111.9180

> <Gold.Chemscore.Internal_Hbond>
0.0000

> <Gold.Chemscore.DEClash>
0.1736

> <Gold.Chemscore.DEInternal>
3.6703

> <Gold.Chemscore.Rot>
3.2761

> <Gold.Chemscore.Internal.Correction>
   9.000000E+99

> <Gold.Chemscore.Hbonds>
donor molecule, donor type, donor heavy atom, donor atom, acceptor molecule, acceptor atom, score
      P1  H  6896  6907       L1     9  0.88
      P1  H  7989  7998       L1     2  0.54
      P1  H  7997  8008       L1    12  0.27

> <Gold.Chemscore.Hbond.Weighted>
-8.5869

> <Gold.Chemscore.Metal.Weighted>
-0.0000

> <Gold.Chemscore.Lipo.Weighted>
-13.0944

> <Gold.Chemscore.Internal_Hbond.Weighted>
0.0000

> <Gold.Chemscore.DEClash.Weighted>
0.1736

> <Gold.Chemscore.DEInternal.Weighted>
3.6703

> <Gold.Chemscore.Rot.Weighted>
8.3868

> <Gold.Chemscore.Internal.Correction.Weighted>
   9.000000E+99

> <Gold.Protein.RotatedTorsions>
[ 6907 6896 6895 6894 ] final   -4.06 input  -60.11 | X-H torsion
[ 7974 7965 7964 7962 ] final  -62.30 input  175.53 | X-H torsion
[ 8008 7997 7996 7995 ] final -126.47 input   59.86 | X-H torsion
[ 10167 10162 10161 10158 ] final -148.08 input  -65.29 | X-H torsion
[ 10718 10713 10712 10709 ] final   76.32 input   66.30 | X-H torsion
[ 10763 10752 10751 10750 ] final   80.29 input  -60.55 | X-H torsion
[ 11005 11000 10999 10996 ] final -167.37 input  -57.11 | X-H torsion

> <Gold.Protein.ActiveResidues>
 VAL166  LYS551  ARG553  GLY616  TRP617  ASP618  TYR619  PRO620  LYS621  CYS622 
 ASP623  PHE694  ASN695  SER759  ASP760  ASP761  ALA762  ILE779  LEU786  VAL792 
 PHE793  MET794  SER795  GLU796  ALA797  LYS798  CYS799  TRP800  GLU811  SER814 

> <Gold.Protein.RotatedAtoms>
  151.5037  135.1062  159.9835 H   0  0  0  0  0  0  0  0  0  0  0  0  # atno 6907 bound_to 6896
  152.4691  133.7985  159.6950 H   0  0  0  0  0  0  0  0  0  0  0  0  # atno 6908 bound_to 6896
  150.8690  133.7469  159.2993 H   0  0  0  0  0  0  0  0  0  0  0  0  # atno 6909 bound_to 6896
  145.7929  140.8699  143.0271 H   0  0  0  0  0  0  0  0  0  0  0  0  # atno 7974 bound_to 7965
  155.2302  140.0425  157.2961 H   0  0  0  0  0  0  0  0  0  0  0  0  # atno 8008 bound_to 7997
  154.5893  140.2422  155.7913 H   0  0  0  0  0  0  0  0  0  0  0  0  # atno 8009 bound_to 7997
  156.2248  140.2958  156.0049 H   0  0  0  0  0  0  0  0  0  0  0  0  # atno 8010 bound_to 7997
  139.7564  143.8442  152.2598 H   0  0  0  0  0  0  0  0  0  0  0  0  # atno 10167 bound_to 10162
  157.6669  130.9768  150.1479 H   0  0  0  0  0  0  0  0  0  0  0  0  # atno 10718 bound_to 10713
  153.1021  135.4808  154.8886 H   0  0  0  0  0  0  0  0  0  0  0  0  # atno 10763 bound_to 10752
  154.7391  135.3078  154.8763 H   0  0  0  0  0  0  0  0  0  0  0  0  # atno 10764 bound_to 10752
  153.9376  135.6837  153.4798 H   0  0  0  0  0  0  0  0  0  0  0  0  # atno 10765 bound_to 10752
  140.5540  134.5400  157.5129 H   0  0  0  0  0  0  0  0  0  0  0  0  # atno 11005 bound_to 11000
  144.6779  140.0149  143.7484 LP  0  0  0  0  0  0  0  0  0  0  0  0  # atno 17320 bound_to 7965
  145.9958  139.3051  143.0957 LP  0  0  0  0  0  0  0  0  0  0  0  0  # atno 17321 bound_to 7965
  139.8435  144.7198  150.9301 LP  0  0  0  0  0  0  0  0  0  0  0  0  # atno 17342 bound_to 10162
  140.7803  143.3962  151.1226 LP  0  0  0  0  0  0  0  0  0  0  0  0  # atno 17343 bound_to 10162
  156.2286  130.3680  149.8471 LP  0  0  0  0  0  0  0  0  0  0  0  0  # atno 17370 bound_to 10713
  156.6305  130.8663  151.3494 LP  0  0  0  0  0  0  0  0  0  0  0  0  # atno 17371 bound_to 10713
  139.9441  134.7734  156.0606 LP  0  0  0  0  0  0  0  0  0  0  0  0  # atno 17394 bound_to 11000
  141.1154  133.6629  156.3082 LP  0  0  0  0  0  0  0  0  0  0  0  0  # atno 17395 bound_to 11000

$$$$
