AV-unprocessed.smi:3279|AV-procd|sdf|12551|dock6
  -GOLD-   2272018473D 1   1.00000     0.00000
 Structure written by MMmdl.
 36 36  0  0  0  0  0  0  0  0  1 V2000
  147.3412  140.3909  153.4429 C   0  0  0  0  0  0  0  0  0  0  0  0
  148.6223  140.8147  154.1831 C   0  0  1  0  0  0  0  0  0  0  0  0
  148.3528  141.5870  155.4922 C   0  0  0  0  0  0  0  0  0  0  0  0
  149.5778  141.8557  156.2397 N   0  0  0  0  0  0  0  0  0  0  0  0
  149.8037  141.5206  157.5197 C   0  0  0  0  0  0  0  0  0  0  0  0
  148.9878  140.9256  158.2231 O   0  0  0  0  0  0  0  0  0  0  0  0
  151.1622  141.9169  158.0917 C   0  0  0  0  0  0  0  0  0  0  0  0
  150.9574  142.9346  159.0679 O   0  0  0  0  0  0  0  0  0  0  0  0
  152.0844  143.7085  159.4862 C   0  0  0  0  0  0  0  0  0  0  0  0
  153.1049  142.6643  159.9665 C   0  0  0  0  0  0  0  0  0  0  0  0
  151.7056  144.6345  160.6588 C   0  0  0  0  0  0  0  0  0  0  0  0
  152.6818  144.5101  158.3124 C   0  0  0  0  0  0  0  0  0  0  0  0
  149.5142  139.6364  154.4284 C   0  0  0  0  0  0  0  0  0  0  0  0
  149.9348  139.1975  155.6092 N   0  0  0  0  0  0  0  0  0  0  0  0
  150.7169  138.0987  155.2926 N   0  0  0  0  0  0  0  0  0  0  0  0
  150.7547  137.8970  154.0058 N   0  0  0  0  0  0  0  0  0  0  0  0
  149.9939  138.8663  153.4493 N   0  0  0  0  0  0  0  0  0  0  0  0
  149.8424  138.9535  152.4548 H   0  0  0  0  0  0  0  0  0  0  0  0
  147.5815  139.8647  152.5185 H   0  0  0  0  0  0  0  0  0  0  0  0
  146.7275  141.2502  153.1736 H   0  0  0  0  0  0  0  0  0  0  0  0
  146.7317  139.7255  154.0554 H   0  0  0  0  0  0  0  0  0  0  0  0
  149.1649  141.4888  153.5179 H   0  0  0  0  0  0  0  0  0  0  0  0
  147.8068  142.5092  155.2854 H   0  0  0  0  0  0  0  0  0  0  0  0
  147.7063  140.9926  156.1387 H   0  0  0  0  0  0  0  0  0  0  0  0
  150.3120  142.3451  155.7485 H   0  0  0  0  0  0  0  0  0  0  0  0
  151.6339  141.0373  158.5300 H   0  0  0  0  0  0  0  0  0  0  0  0
  151.7901  142.2642  157.2717 H   0  0  0  0  0  0  0  0  0  0  0  0
  154.0223  143.1368  160.3195 H   0  0  0  0  0  0  0  0  0  0  0  0
  153.3747  141.9779  159.1630 H   0  0  0  0  0  0  0  0  0  0  0  0
  152.7041  142.0675  160.7865 H   0  0  0  0  0  0  0  0  0  0  0  0
  151.2228  144.0767  161.4619 H   0  0  0  0  0  0  0  0  0  0  0  0
  151.0281  145.4307  160.3513 H   0  0  0  0  0  0  0  0  0  0  0  0
  152.5900  145.1153  161.0777 H   0  0  0  0  0  0  0  0  0  0  0  0
  153.6215  144.9822  158.6007 H   0  0  0  0  0  0  0  0  0  0  0  0
  152.0168  145.3069  157.9792 H   0  0  0  0  0  0  0  0  0  0  0  0
  152.8863  143.8657  157.4568 H   0  0  0  0  0  0  0  0  0  0  0  0
  1  2  1  0  0  0  0
  1 19  1  0  0  0  0
  1 20  1  0  0  0  0
  1 21  1  0  0  0  0
  2  3  1  0  0  0  0
  2 13  1  0  0  0  0
  2 22  1  0  0  0  0
  3  4  1  0  0  0  0
  3 23  1  0  0  0  0
  3 24  1  0  0  0  0
  4  5  1  0  0  0  0
  4 25  1  0  0  0  0
  5  6  2  0  0  0  0
  5  7  1  0  0  0  0
  7  8  1  0  0  0  0
  7 26  1  0  0  0  0
  7 27  1  0  0  0  0
  8  9  1  0  0  0  0
  9 10  1  0  0  0  0
  9 11  1  0  0  0  0
  9 12  1  0  0  0  0
 10 28  1  0  0  0  0
 10 29  1  0  0  0  0
 10 30  1  0  0  0  0
 11 31  1  0  0  0  0
 11 32  1  0  0  0  0
 11 33  1  0  0  0  0
 12 34  1  0  0  0  0
 12 35  1  0  0  0  0
 12 36  1  0  0  0  0
 13 17  1  0  0  0  0
 13 14  2  0  0  0  0
 14 15  1  0  0  0  0
 15 16  2  0  0  0  0
 16 17  1  0  0  0  0
 17 18  1  0  0  0  0
M  END
> <s_m_source_file>
AV-unprocessed.smi

> <i_m_source_file_index>
3279

> <i_lp_mmshare_version>
43012

> <i_f3d_flags>
0

> <s_epik_input>
W25IXTFubm5jMVtDQEhdKFtDSDNdKVtDSDJdW05IXUMoPU8pW0NIMl1PQyhbQ0gzXSkoW0NIM10pW0NIM10=

> <s_epik_cmdline>
J2VwaWtfcHl0aG9uJywgJy1waCcsICc3LjAnLCAnLXRuJywgJzgnLCAnLW1hJywgJzIwMCcsICctbWV0YWxfYmluZGluZycsICctaW1hZScsICc8aW5maWxlLm1hZT4nLCAnLW9tYWUnLCAnPG91dGZpbGUubWFlPic=

> <r_lp_tautomer_probability>
0.3

> <r_epik_Ionization_Penalty>
1.45055

> <r_epik_Ionization_Penalty_Charging>
0

> <r_epik_Ionization_Penalty_Neutral>
1.45055

> <r_epik_State_Penalty>
2.31845

> <r_epik_Charging_Adjusted_Penalty>
2.31845

> <i_epik_Tot_Q>
0

> <i_epik_Tot_abs_Q>
0

> <r_epik_Metal_State_Penalty>
2.36898

> <b_epik_Metal_Only>
0

> <s_lp_Force_Field>
OPLS_2005

> <r_lp_Energy>
7.01933

> <b_lp_Chiralities_Consistent>
1

> <s_lp_Variant>
AV-unprocessed.smi:3279-4

> <Gold.Version>
5.8.1

> <Gold.Id.Protein>
6NUR|6NUR_protein|mol2

> <Gold.PLP.Fitness>
37.1846

> <Gold.PLP.PLP>
-35.0289

> <Gold.PLP.part.hbond>
-2.5360

> <Gold.PLP.part.metal>
0.0000

> <Gold.PLP.part.buried>
-3.4004

> <Gold.PLP.part.nonpolar>
-28.8375

> <Gold.PLP.part.repulsive>
0.6435

> <Gold.PLP.ligand.clash>
0.0000

> <Gold.PLP.ligand.torsion>
0.2459

> <Gold.PLP.Chemscore.Hbond>
0.8320

> <Gold.PLP.Chemscore.CHOScore>
0.0000

> <Gold.PLP.Chemscore.Metal>
0.0000

> <Gold.Chemscore.Hbonds>
donor molecule, donor type, donor heavy atom, donor atom, acceptor molecule, acceptor atom, score
      L1  H    17    18       P1  7957  0.93

> <Gold.PLP.Chemscore.Internal.Correction>
0.1516

> <Gold.Rescore>
     Score         DG    S(hbond)    S(metal)    S(lipo)     H(rot)  DE(clash)    DE(int)     intcor
      9.37     -10.93       0.96        0.00      78.48       2.71       0.03       1.52       ----

> <Gold.Chemscore.Fitness>
9.3727

> <Gold.Chemscore.DG>
-10.9287

> <Gold.Chemscore.ZeroCoef>
-5.4800

> <Gold.Chemscore.Hbond>
0.9587

> <Gold.Chemscore.Metal>
0.0000

> <Gold.Chemscore.Lipo>
78.4833

> <Gold.Chemscore.Internal_Hbond>
0.0000

> <Gold.Chemscore.DEClash>
0.0317

> <Gold.Chemscore.DEInternal>
1.5243

> <Gold.Chemscore.Rot>
2.7094

> <Gold.Chemscore.Internal.Correction>
   9.000000E+99

> <Gold.Chemscore.Hbonds>
donor molecule, donor type, donor heavy atom, donor atom, acceptor molecule, acceptor atom, score
      L1  H    17    18       P1  7957  0.55

> <Gold.Chemscore.Hbond.Weighted>
-3.2021

> <Gold.Chemscore.Metal.Weighted>
-0.0000

> <Gold.Chemscore.Lipo.Weighted>
-9.1825

> <Gold.Chemscore.Internal_Hbond.Weighted>
0.0000

> <Gold.Chemscore.DEClash.Weighted>
0.0317

> <Gold.Chemscore.DEInternal.Weighted>
1.5243

> <Gold.Chemscore.Rot.Weighted>
6.9360

> <Gold.Chemscore.Internal.Correction.Weighted>
   9.000000E+99

> <Gold.Protein.RotatedTorsions>
[ 6907 6896 6895 6894 ] final -127.86 input  -60.11 | X-H torsion
[ 7974 7965 7964 7962 ] final  129.26 input  175.53 | X-H torsion
[ 8008 7997 7996 7995 ] final  106.83 input   59.86 | X-H torsion
[ 10167 10162 10161 10158 ] final   65.55 input  -65.29 | X-H torsion
[ 10718 10713 10712 10709 ] final  -97.20 input   66.30 | X-H torsion
[ 10763 10752 10751 10750 ] final  163.96 input  -60.55 | X-H torsion
[ 11005 11000 10999 10996 ] final   85.55 input  -57.11 | X-H torsion

> <Gold.Protein.ActiveResidues>
 VAL166  LYS551  ARG553  GLY616  TRP617  ASP618  TYR619  PRO620  LYS621  CYS622 
 ASP623  PHE694  ASN695  SER759  ASP760  ASP761  ALA762  ILE779  LEU786  VAL792 
 PHE793  MET794  SER795  GLU796  ALA797  LYS798  CYS799  TRP800  GLU811  SER814 

> <Gold.Protein.RotatedAtoms>
  150.9118  133.6988  159.2852 H   0  0  0  0  0  0  0  0  0  0  0  0  # atno 6907 bound_to 6896
  151.4473  135.1025  159.9697 H   0  0  0  0  0  0  0  0  0  0  0  0  # atno 6908 bound_to 6896
  152.4933  133.8512  159.7257 H   0  0  0  0  0  0  0  0  0  0  0  0  # atno 6909 bound_to 6896
  145.0306  139.4049  143.5151 H   0  0  0  0  0  0  0  0  0  0  0  0  # atno 7974 bound_to 7965
  156.1775  140.3106  155.9086 H   0  0  0  0  0  0  0  0  0  0  0  0  # atno 8008 bound_to 7997
  155.3456  140.0468  157.3062 H   0  0  0  0  0  0  0  0  0  0  0  0  # atno 8009 bound_to 7997
  154.5306  140.2229  155.8821 H   0  0  0  0  0  0  0  0  0  0  0  0  # atno 8010 bound_to 7997
  140.1101  144.4826  150.6983 H   0  0  0  0  0  0  0  0  0  0  0  0  # atno 10167 bound_to 10162
  156.0078  130.5184  150.6339 H   0  0  0  0  0  0  0  0  0  0  0  0  # atno 10718 bound_to 10713
  154.3017  135.2759  155.2608 H   0  0  0  0  0  0  0  0  0  0  0  0  # atno 10763 bound_to 10752
  154.5042  135.5800  153.6558 H   0  0  0  0  0  0  0  0  0  0  0  0  # atno 10764 bound_to 10752
  152.9899  135.6165  154.3188 H   0  0  0  0  0  0  0  0  0  0  0  0  # atno 10765 bound_to 10752
  139.8968  134.8294  156.2597 H   0  0  0  0  0  0  0  0  0  0  0  0  # atno 11005 bound_to 11000
  146.3498  139.9854  142.8691 LP  0  0  0  0  0  0  0  0  0  0  0  0  # atno 17320 bound_to 7965
  145.1775  140.9751  143.4285 LP  0  0  0  0  0  0  0  0  0  0  0  0  # atno 17321 bound_to 7965
  140.6930  143.2387  151.5078 LP  0  0  0  0  0  0  0  0  0  0  0  0  # atno 17342 bound_to 10162
  139.5624  144.2124  152.1712 LP  0  0  0  0  0  0  0  0  0  0  0  0  # atno 17343 bound_to 10162
  157.4131  131.0826  151.1202 LP  0  0  0  0  0  0  0  0  0  0  0  0  # atno 17370 bound_to 10713
  157.1827  130.6316  149.5677 LP  0  0  0  0  0  0  0  0  0  0  0  0  # atno 17371 bound_to 10713
  141.0170  133.7063  156.1205 LP  0  0  0  0  0  0  0  0  0  0  0  0  # atno 17394 bound_to 11000
  140.7287  134.4278  157.5568 LP  0  0  0  0  0  0  0  0  0  0  0  0  # atno 17395 bound_to 11000

$$$$
