AV-unprocessed.smi:434|AV-procd|sdf|2552|dock3
  -GOLD-   2262022513D 1   1.00000     0.00000
 Structure written by MMmdl.
 39 41  0  0  0  0  0  0  0  0  1 V2000
  151.6841  139.3976  154.9257 C   0  0  0  0  0  0  0  0  0  0  0  0
  151.7188  140.3231  156.1002 C   0  0  0  0  0  0  0  0  0  0  0  0
  152.4920  140.0962  157.1621 N   0  0  0  0  0  0  0  0  0  0  0  0
  152.2051  141.1714  157.9811 C   0  0  0  0  0  0  0  0  0  0  0  0
  152.7045  141.5119  159.2588 C   0  0  0  0  0  0  0  0  0  0  0  0
  152.2572  142.6791  159.9120 C   0  0  0  0  0  0  0  0  0  0  0  0
  151.3065  143.5206  159.2989 C   0  0  0  0  0  0  0  0  0  0  0  0
  150.7963  143.2002  158.0262 C   0  0  0  0  0  0  0  0  0  0  0  0
  151.2462  142.0344  157.3778 C   0  0  0  0  0  0  0  0  0  0  0  0
  150.9595  141.4452  156.1498 N   0  0  0  0  0  0  0  0  0  0  0  0
  150.0329  141.9442  155.1419 C   0  0  0  0  0  0  0  0  0  0  0  0
  149.0703  140.8551  154.6267 C   0  0  2  0  0  0  0  0  0  0  0  0
  148.8015  141.0853  153.2573 O   0  0  0  0  0  0  0  0  0  0  0  0
  147.7370  140.8579  155.3908 C   0  0  0  0  0  0  0  0  0  0  0  0
  147.0973  142.1081  155.1960 O   0  0  0  0  0  0  0  0  0  0  0  0
  145.6842  142.0100  155.2169 C   0  0  0  0  0  0  0  0  0  0  0  0
  145.1635  143.2512  154.5756 C   0  0  0  0  0  0  0  0  0  0  0  0
  145.4195  143.8748  153.3855 C   0  0  0  0  0  0  0  0  0  0  0  0
  144.5939  145.0328  153.3539 C   0  0  0  0  0  0  0  0  0  0  0  0
  143.8958  145.0294  154.5278 C   0  0  0  0  0  0  0  0  0  0  0  0
  144.2316  143.9490  155.2849 O   0  0  0  0  0  0  0  0  0  0  0  0
  152.4073  138.5911  155.0529 H   0  0  0  0  0  0  0  0  0  0  0  0
  151.9295  139.9340  154.0095 H   0  0  0  0  0  0  0  0  0  0  0  0
  150.6928  138.9558  154.8232 H   0  0  0  0  0  0  0  0  0  0  0  0
  153.4335  140.8744  159.7366 H   0  0  0  0  0  0  0  0  0  0  0  0
  152.6458  142.9303  160.8882 H   0  0  0  0  0  0  0  0  0  0  0  0
  150.9697  144.4133  159.8057 H   0  0  0  0  0  0  0  0  0  0  0  0
  150.0705  143.8449  157.5529 H   0  0  0  0  0  0  0  0  0  0  0  0
  149.4709  142.7766  155.5662 H   0  0  0  0  0  0  0  0  0  0  0  0
  150.6092  142.3616  154.3151 H   0  0  0  0  0  0  0  0  0  0  0  0
  149.5455  139.8793  154.7311 H   0  0  0  0  0  0  0  0  0  0  0  0
  148.1262  140.4852  152.9797 H   0  0  0  0  0  0  0  0  0  0  0  0
  147.0836  140.0780  154.9962 H   0  0  0  0  0  0  0  0  0  0  0  0
  147.8888  140.6456  156.4508 H   0  0  0  0  0  0  0  0  0  0  0  0
  145.3490  141.1289  154.6677 H   0  0  0  0  0  0  0  0  0  0  0  0
  145.3192  141.9291  156.2417 H   0  0  0  0  0  0  0  0  0  0  0  0
  146.1139  143.5376  152.6303 H   0  0  0  0  0  0  0  0  0  0  0  0
  144.5200  145.7737  152.5717 H   0  0  0  0  0  0  0  0  0  0  0  0
  143.1569  145.6860  154.9631 H   0  0  0  0  0  0  0  0  0  0  0  0
  1  2  1  0  0  0  0
  1 22  1  0  0  0  0
  1 23  1  0  0  0  0
  1 24  1  0  0  0  0
  2 10  1  0  0  0  0
  2  3  2  0  0  0  0
  3  4  1  0  0  0  0
  4  9  2  0  0  0  0
  4  5  1  0  0  0  0
  5  6  2  0  0  0  0
  5 25  1  0  0  0  0
  6  7  1  0  0  0  0
  6 26  1  0  0  0  0
  7  8  2  0  0  0  0
  7 27  1  0  0  0  0
  8  9  1  0  0  0  0
  8 28  1  0  0  0  0
  9 10  1  0  0  0  0
 10 11  1  0  0  0  0
 11 12  1  0  0  0  0
 11 29  1  0  0  0  0
 11 30  1  0  0  0  0
 12 13  1  0  0  0  0
 12 14  1  0  0  0  0
 12 31  1  0  0  0  0
 13 32  1  0  0  0  0
 14 15  1  0  0  0  0
 14 33  1  0  0  0  0
 14 34  1  0  0  0  0
 15 16  1  0  0  0  0
 16 17  1  0  0  0  0
 16 35  1  0  0  0  0
 16 36  1  0  0  0  0
 17 21  1  0  0  0  0
 17 18  2  0  0  0  0
 18 19  1  0  0  0  0
 18 37  1  0  0  0  0
 19 20  2  0  0  0  0
 19 38  1  0  0  0  0
 20 21  1  0  0  0  0
 20 39  1  0  0  0  0
M  END
> <s_m_source_file>
AV-unprocessed.smi

> <i_m_source_file_index>
434

> <i_lp_mmshare_version>
43012

> <i_f3d_flags>
0

> <s_epik_input>
W2NIXTFbY0hdW2NIXVtjSF1jKGMxMiluKGMobjIpW0NIM10pW0NIMl1bQ0BIXShbT0hdKVtDSDJdT1tDSDJdYzNbY0hdW2NIXVtjSF1vMw==

> <s_epik_cmdline>
J2VwaWtfcHl0aG9uJywgJy1waCcsICc3LjAnLCAnLXRuJywgJzgnLCAnLW1hJywgJzIwMCcsICctbWV0YWxfYmluZGluZycsICctaW1hZScsICc8aW5maWxlLm1hZT4nLCAnLW9tYWUnLCAnPG91dGZpbGUubWFlPic=

> <r_epik_Ionization_Penalty>
0.126634

> <r_epik_Ionization_Penalty_Charging>
0

> <r_epik_Ionization_Penalty_Neutral>
0.126634

> <r_epik_State_Penalty>
0.116082

> <r_epik_Charging_Adjusted_Penalty>
0.116082

> <i_epik_Tot_Q>
0

> <i_epik_Tot_abs_Q>
0

> <r_epik_Metal_State_Penalty>
0.00012822

> <b_epik_Metal_Only>
0

> <s_lp_Force_Field>
OPLS_2005

> <r_lp_Energy>
9.40114

> <b_lp_Chiralities_Consistent>
1

> <s_lp_Variant>
AV-unprocessed.smi:434-1

> <Gold.Version>
5.8.1

> <Gold.Id.Protein>
6NUR|6NUR_protein|mol2

> <Gold.PLP.Fitness>
49.2874

> <Gold.PLP.PLP>
-44.9197

> <Gold.PLP.part.hbond>
-3.1367

> <Gold.PLP.part.metal>
0.0000

> <Gold.PLP.part.buried>
-4.6171

> <Gold.PLP.part.nonpolar>
-37.4068

> <Gold.PLP.part.repulsive>
0.3981

> <Gold.PLP.ligand.clash>
0.0000

> <Gold.PLP.ligand.torsion>
0.9194

> <Gold.PLP.Chemscore.Hbond>
2.0000

> <Gold.PLP.Chemscore.CHOScore>
0.0000

> <Gold.PLP.Chemscore.Metal>
0.0000

> <Gold.Chemscore.Hbonds>
donor molecule, donor type, donor heavy atom, donor atom, acceptor molecule, acceptor atom, score
      P1  H  7997  8009       L1     3  1.00
      P1  H  8011  8017       L1    13  1.00

> <Gold.PLP.Chemscore.Internal.Correction>
0.2066

> <Gold.Rescore>
     Score         DG    S(hbond)    S(metal)    S(lipo)     H(rot)  DE(clash)    DE(int)     intcor
     15.58     -18.10       1.61        0.00     113.49       2.36       0.64       1.88       ----

> <Gold.Chemscore.Fitness>
15.5800

> <Gold.Chemscore.DG>
-18.1042

> <Gold.Chemscore.ZeroCoef>
-5.4800

> <Gold.Chemscore.Hbond>
1.6124

> <Gold.Chemscore.Metal>
0.0000

> <Gold.Chemscore.Lipo>
113.4861

> <Gold.Chemscore.Internal_Hbond>
0.0000

> <Gold.Chemscore.DEClash>
0.6391

> <Gold.Chemscore.DEInternal>
1.8850

> <Gold.Chemscore.Rot>
2.3591

> <Gold.Chemscore.Internal.Correction>
   9.000000E+99

> <Gold.Chemscore.Hbonds>
donor molecule, donor type, donor heavy atom, donor atom, acceptor molecule, acceptor atom, score
      P1  H  7997  8009       L1     3  0.59
      P1  H  8011  8017       L1    13  0.95

> <Gold.Chemscore.Hbond.Weighted>
-5.3856

> <Gold.Chemscore.Metal.Weighted>
-0.0000

> <Gold.Chemscore.Lipo.Weighted>
-13.2779

> <Gold.Chemscore.Internal_Hbond.Weighted>
0.0000

> <Gold.Chemscore.DEClash.Weighted>
0.6391

> <Gold.Chemscore.DEInternal.Weighted>
1.8850

> <Gold.Chemscore.Rot.Weighted>
6.0393

> <Gold.Chemscore.Internal.Correction.Weighted>
   9.000000E+99

> <Gold.Protein.RotatedTorsions>
[ 6907 6896 6895 6894 ] final  121.88 input  -60.11 | X-H torsion
[ 7974 7965 7964 7962 ] final  -73.16 input  175.53 | X-H torsion
[ 8008 7997 7996 7995 ] final  177.14 input   59.86 | X-H torsion
[ 10167 10162 10161 10158 ] final  142.89 input  -65.29 | X-H torsion
[ 10718 10713 10712 10709 ] final  146.90 input   66.30 | X-H torsion
[ 10763 10752 10751 10750 ] final -170.95 input  -60.55 | X-H torsion
[ 11005 11000 10999 10996 ] final  -69.23 input  -57.11 | X-H torsion

> <Gold.Protein.ActiveResidues>
 VAL166  LYS551  ARG553  GLY616  TRP617  ASP618  TYR619  PRO620  LYS621  CYS622 
 ASP623  PHE694  ASN695  SER759  ASP760  ASP761  ALA762  ILE779  LEU786  VAL792 
 PHE793  MET794  SER795  GLU796  ALA797  LYS798  CYS799  TRP800  GLU811  SER814 

> <Gold.Protein.RotatedAtoms>
  152.4287  133.7240  159.6549 H   0  0  0  0  0  0  0  0  0  0  0  0  # atno 6907 bound_to 6896
  150.8165  133.8318  159.3164 H   0  0  0  0  0  0  0  0  0  0  0  0  # atno 6908 bound_to 6896
  151.6012  135.1049  160.0112 H   0  0  0  0  0  0  0  0  0  0  0  0  # atno 6909 bound_to 6896
  145.6557  140.9268  143.0961 H   0  0  0  0  0  0  0  0  0  0  0  0  # atno 7974 bound_to 7965
  156.0689  140.1366  156.9852 H   0  0  0  0  0  0  0  0  0  0  0  0  # atno 8008 bound_to 7997
  154.4521  140.0976  156.6700 H   0  0  0  0  0  0  0  0  0  0  0  0  # atno 8009 bound_to 7997
  155.5260  140.3457  155.4418 H   0  0  0  0  0  0  0  0  0  0  0  0  # atno 8010 bound_to 7997
  139.4983  144.6077  151.6342 H   0  0  0  0  0  0  0  0  0  0  0  0  # atno 10167 bound_to 10162
  157.3276  131.0915  151.1189 H   0  0  0  0  0  0  0  0  0  0  0  0  # atno 10718 bound_to 10713
  154.6359  135.2892  155.0161 H   0  0  0  0  0  0  0  0  0  0  0  0  # atno 10763 bound_to 10752
  154.1305  135.6534  153.4925 H   0  0  0  0  0  0  0  0  0  0  0  0  # atno 10764 bound_to 10752
  153.0302  135.5309  154.7205 H   0  0  0  0  0  0  0  0  0  0  0  0  # atno 10765 bound_to 10752
  141.1549  133.6759  156.6568 H   0  0  0  0  0  0  0  0  0  0  0  0  # atno 11005 bound_to 11000
  144.7106  139.8384  143.7415 LP  0  0  0  0  0  0  0  0  0  0  0  0  # atno 17320 bound_to 7965
  146.1167  139.4179  143.0254 LP  0  0  0  0  0  0  0  0  0  0  0  0  # atno 17321 bound_to 7965
  140.5743  144.0056  150.6233 LP  0  0  0  0  0  0  0  0  0  0  0  0  # atno 17342 bound_to 10162
  140.3184  143.3153  152.0809 LP  0  0  0  0  0  0  0  0  0  0  0  0  # atno 17343 bound_to 10162
  157.2450  130.6587  149.5906 LP  0  0  0  0  0  0  0  0  0  0  0  0  # atno 17370 bound_to 10713
  155.9692  130.4556  150.5894 LP  0  0  0  0  0  0  0  0  0  0  0  0  # atno 17371 bound_to 10713
  140.3278  134.7954  157.4302 LP  0  0  0  0  0  0  0  0  0  0  0  0  # atno 17394 bound_to 11000
  140.1042  134.5431  155.8324 LP  0  0  0  0  0  0  0  0  0  0  0  0  # atno 17395 bound_to 11000

$$$$
