AV-unprocessed.smi:942|AV-procd|sdf|4226|dock2
  -GOLD-   22720 2133D 1   1.00000     0.00000
 Structure written by MMmdl.
 42 44  0  0  0  0  0  0  0  0  1 V2000
  148.9156  141.7751  158.4348 O   0  0  0  0  0  0  0  0  0  0  0  0
  149.8878  141.6820  157.6848 C   0  0  0  0  0  0  0  0  0  0  0  0
  149.8356  141.1065  156.4742 N   0  0  0  0  0  0  0  0  0  0  0  0
  148.6650  140.4542  155.8836 C   0  0  1  0  0  0  0  0  0  0  0  0
  147.6774  141.5142  155.3536 C   0  0  0  0  0  0  0  0  0  0  0  0
  147.6654  141.3841  153.8233 C   0  0  0  0  0  0  0  0  0  0  0  0
  148.9092  140.5693  153.4721 C   0  0  0  0  0  0  0  0  0  0  0  0
  149.0470  139.6033  154.6533 C   0  0  1  0  0  0  0  0  0  0  0  0
  150.3330  138.9190  154.7598 N   0  0  0  0  0  0  0  0  0  0  0  0
  151.6138  139.4616  154.7042 C   0  0  0  0  0  0  0  0  0  0  0  0
  152.4943  138.4140  154.8503 C   0  0  0  0  0  0  0  0  0  0  0  0
  151.7879  137.2219  154.9808 N   0  0  0  0  0  0  0  0  0  0  0  0
  150.5184  137.5990  154.9092 C   0  0  0  0  0  0  0  0  0  0  0  0
  151.2557  142.2233  158.1196 C   0  0  0  0  0  0  0  0  0  0  0  0
  151.7839  141.4542  159.3496 C   0  0  0  0  0  0  0  0  0  0  0  0
  153.1498  141.9953  159.8034 C   0  0  0  0  0  0  0  0  0  0  0  0
  153.0852  143.5046  160.0874 C   0  0  0  0  0  0  0  0  0  0  0  0
  152.5533  144.2777  158.8702 C   0  0  0  0  0  0  0  0  0  0  0  0
  151.1868  143.7357  158.4205 C   0  0  0  0  0  0  0  0  0  0  0  0
  150.6867  141.0799  155.9315 H   0  0  0  0  0  0  0  0  0  0  0  0
  148.1725  139.8162  156.6195 H   0  0  0  0  0  0  0  0  0  0  0  0
  146.6767  141.3545  155.7567 H   0  0  0  0  0  0  0  0  0  0  0  0
  147.9779  142.5211  155.6471 H   0  0  0  0  0  0  0  0  0  0  0  0
  146.7739  140.8389  153.5108 H   0  0  0  0  0  0  0  0  0  0  0  0
  147.6499  142.3526  153.3229 H   0  0  0  0  0  0  0  0  0  0  0  0
  148.8160  140.0559  152.5146 H   0  0  0  0  0  0  0  0  0  0  0  0
  149.7692  141.2383  153.4171 H   0  0  0  0  0  0  0  0  0  0  0  0
  148.2876  138.8289  154.5320 H   0  0  0  0  0  0  0  0  0  0  0  0
  151.7985  140.5172  154.5736 H   0  0  0  0  0  0  0  0  0  0  0  0
  153.5743  138.4268  154.8654 H   0  0  0  0  0  0  0  0  0  0  0  0
  149.6996  136.8976  154.9776 H   0  0  0  0  0  0  0  0  0  0  0  0
  151.9604  142.0736  157.2994 H   0  0  0  0  0  0  0  0  0  0  0  0
  151.0757  141.5321  160.1761 H   0  0  0  0  0  0  0  0  0  0  0  0
  151.8718  140.3914  159.1188 H   0  0  0  0  0  0  0  0  0  0  0  0
  153.4822  141.4633  160.6954 H   0  0  0  0  0  0  0  0  0  0  0  0
  153.8951  141.7997  159.0316 H   0  0  0  0  0  0  0  0  0  0  0  0
  152.4383  143.6871  160.9467 H   0  0  0  0  0  0  0  0  0  0  0  0
  154.0737  143.8745  160.3603 H   0  0  0  0  0  0  0  0  0  0  0  0
  152.4717  145.3383  159.1098 H   0  0  0  0  0  0  0  0  0  0  0  0
  153.2658  144.2006  158.0479 H   0  0  0  0  0  0  0  0  0  0  0  0
  150.8524  144.2798  157.5362 H   0  0  0  0  0  0  0  0  0  0  0  0
  150.4500  143.9326  159.2011 H   0  0  0  0  0  0  0  0  0  0  0  0
  1  2  2  0  0  0  0
  2  3  1  0  0  0  0
  2 14  1  0  0  0  0
  3  4  1  0  0  0  0
  3 20  1  0  0  0  0
  4  8  1  0  0  0  0
  4  5  1  0  0  0  0
  4 21  1  0  0  0  0
  5  6  1  0  0  0  0
  5 22  1  0  0  0  0
  5 23  1  0  0  0  0
  6  7  1  0  0  0  0
  6 24  1  0  0  0  0
  6 25  1  0  0  0  0
  7  8  1  0  0  0  0
  7 26  1  0  0  0  0
  7 27  1  0  0  0  0
  8  9  1  0  0  0  0
  8 28  1  0  0  0  0
  9 13  1  0  0  0  0
  9 10  1  0  0  0  0
 10 11  2  0  0  0  0
 10 29  1  0  0  0  0
 11 12  1  0  0  0  0
 11 30  1  0  0  0  0
 12 13  2  0  0  0  0
 13 31  1  0  0  0  0
 14 19  1  0  0  0  0
 14 15  1  0  0  0  0
 14 32  1  0  0  0  0
 15 16  1  0  0  0  0
 15 33  1  0  0  0  0
 15 34  1  0  0  0  0
 16 17  1  0  0  0  0
 16 35  1  0  0  0  0
 16 36  1  0  0  0  0
 17 18  1  0  0  0  0
 17 37  1  0  0  0  0
 17 38  1  0  0  0  0
 18 19  1  0  0  0  0
 18 39  1  0  0  0  0
 18 40  1  0  0  0  0
 19 41  1  0  0  0  0
 19 42  1  0  0  0  0
M  END
> <s_m_source_file>
AV-unprocessed.smi

> <i_m_source_file_index>
942

> <i_lp_mmshare_version>
43012

> <i_f3d_flags>
0

> <s_epik_input>
W0NIMl0xW0NIMl1bQ0gyXVtDSDJdW0NIMl1bQ0hdMUMoPU8pW05IXVtDQEBIXTJbQ0gyXVtDSDJdW0NIMl1bQ0BIXTJuM1tjSF1bY0hdbltjSF0z

> <s_epik_cmdline>
J2VwaWtfcHl0aG9uJywgJy1waCcsICc3LjAnLCAnLXRuJywgJzgnLCAnLW1hJywgJzIwMCcsICctbWV0YWxfYmluZGluZycsICctaW1hZScsICc8aW5maWxlLm1hZT4nLCAnLW9tYWUnLCAnPG91dGZpbGUubWFlPic=

> <r_lp_tautomer_probability>
1

> <r_epik_Ionization_Penalty>
0.778458

> <r_epik_Ionization_Penalty_Charging>
0.778458

> <r_epik_Ionization_Penalty_Neutral>
2.79355e-08

> <r_epik_State_Penalty>
0.807804

> <r_epik_Charging_Adjusted_Penalty>
1.58626

> <i_epik_Tot_Q>
0

> <i_epik_Tot_abs_Q>
0

> <r_epik_Metal_State_Penalty>
0.343007

> <b_epik_Metal_Only>
0

> <s_lp_Force_Field>
OPLS_2005

> <r_lp_Energy>
33.2342

> <b_lp_Chiralities_Consistent>
1

> <s_lp_Variant>
AV-unprocessed.smi:942-6

> <Gold.Version>
5.8.1

> <Gold.Id.Protein>
6NUR|6NUR_protein|mol2

> <Gold.PLP.Fitness>
39.8595

> <Gold.PLP.PLP>
-37.7237

> <Gold.PLP.part.hbond>
-1.1196

> <Gold.PLP.part.metal>
0.0000

> <Gold.PLP.part.buried>
1.0730

> <Gold.PLP.part.nonpolar>
-38.0762

> <Gold.PLP.part.repulsive>
0.2173

> <Gold.PLP.ligand.clash>
0.0000

> <Gold.PLP.ligand.torsion>
0.4461

> <Gold.PLP.Chemscore.Hbond>
1.0000

> <Gold.PLP.Chemscore.CHOScore>
0.0000

> <Gold.PLP.Chemscore.Metal>
0.0000

> <Gold.Chemscore.Hbonds>
donor molecule, donor type, donor heavy atom, donor atom, acceptor molecule, acceptor atom, score
      P1  H 10752 10764       L1    12  1.00

> <Gold.PLP.Chemscore.Internal.Correction>
0.0279

> <Gold.Rescore>
     Score         DG    S(hbond)    S(metal)    S(lipo)     H(rot)  DE(clash)    DE(int)     intcor
     14.16     -17.62       0.87        0.00     110.31       1.44       1.94       1.52       ----

> <Gold.Chemscore.Fitness>
14.1609

> <Gold.Chemscore.DG>
-17.6201

> <Gold.Chemscore.ZeroCoef>
-5.4800

> <Gold.Chemscore.Hbond>
0.8739

> <Gold.Chemscore.Metal>
0.0000

> <Gold.Chemscore.Lipo>
110.3110

> <Gold.Chemscore.Internal_Hbond>
0.0000

> <Gold.Chemscore.DEClash>
1.9400

> <Gold.Chemscore.DEInternal>
1.5192

> <Gold.Chemscore.Rot>
1.4395

> <Gold.Chemscore.Internal.Correction>
   9.000000E+99

> <Gold.Chemscore.Hbonds>
donor molecule, donor type, donor heavy atom, donor atom, acceptor molecule, acceptor atom, score
      P1  H 10752 10764       L1    12  0.70

> <Gold.Chemscore.Hbond.Weighted>
-2.9189

> <Gold.Chemscore.Metal.Weighted>
-0.0000

> <Gold.Chemscore.Lipo.Weighted>
-12.9064

> <Gold.Chemscore.Internal_Hbond.Weighted>
0.0000

> <Gold.Chemscore.DEClash.Weighted>
1.9400

> <Gold.Chemscore.DEInternal.Weighted>
1.5192

> <Gold.Chemscore.Rot.Weighted>
3.6852

> <Gold.Chemscore.Internal.Correction.Weighted>
   9.000000E+99

> <Gold.Protein.RotatedTorsions>
[ 6907 6896 6895 6894 ] final   39.52 input  -60.11 | X-H torsion
[ 7974 7965 7964 7962 ] final -121.59 input  175.53 | X-H torsion
[ 8008 7997 7996 7995 ] final  -14.46 input   59.86 | X-H torsion
[ 10167 10162 10161 10158 ] final -155.72 input  -65.29 | X-H torsion
[ 10718 10713 10712 10709 ] final  -48.68 input   66.30 | X-H torsion
[ 10763 10752 10751 10750 ] final  -64.08 input  -60.55 | X-H torsion
[ 11005 11000 10999 10996 ] final -125.13 input  -57.11 | X-H torsion

> <Gold.Protein.ActiveResidues>
 VAL166  LYS551  ARG553  GLY616  TRP617  ASP618  TYR619  PRO620  LYS621  CYS622 
 ASP623  PHE694  ASN695  SER759  ASP760  ASP761  ALA762  ILE779  LEU786  VAL792 
 PHE793  MET794  SER795  GLU796  ALA797  LYS798  CYS799  TRP800  GLU811  SER814 

> <Gold.Protein.RotatedAtoms>
  152.1706  134.8837  160.0534 H   0  0  0  0  0  0  0  0  0  0  0  0  # atno 6907 bound_to 6896
  151.9798  133.3749  159.4111 H   0  0  0  0  0  0  0  0  0  0  0  0  # atno 6908 bound_to 6896
  150.6901  134.3974  159.5147 H   0  0  0  0  0  0  0  0  0  0  0  0  # atno 6909 bound_to 6896
  145.0387  140.8127  143.4279 H   0  0  0  0  0  0  0  0  0  0  0  0  # atno 7974 bound_to 7965
  154.5208  140.2222  155.8979 H   0  0  0  0  0  0  0  0  0  0  0  0  # atno 8008 bound_to 7997
  156.1660  140.3132  155.8854 H   0  0  0  0  0  0  0  0  0  0  0  0  # atno 8009 bound_to 7997
  155.3655  140.0463  157.3036 H   0  0  0  0  0  0  0  0  0  0  0  0  # atno 8010 bound_to 7997
  139.6909  143.9423  152.2384 H   0  0  0  0  0  0  0  0  0  0  0  0  # atno 10167 bound_to 10162
  156.1965  130.4154  149.9299 H   0  0  0  0  0  0  0  0  0  0  0  0  # atno 10718 bound_to 10713
  154.3247  135.6189  153.5524 H   0  0  0  0  0  0  0  0  0  0  0  0  # atno 10763 bound_to 10752
  152.9816  135.5732  154.5029 H   0  0  0  0  0  0  0  0  0  0  0  0  # atno 10764 bound_to 10752
  154.4704  135.2859  155.1623 H   0  0  0  0  0  0  0  0  0  0  0  0  # atno 10765 bound_to 10752
  140.9786  134.0704  157.3790 H   0  0  0  0  0  0  0  0  0  0  0  0  # atno 11005 bound_to 11000
  145.1675  139.2423  143.5359 LP  0  0  0  0  0  0  0  0  0  0  0  0  # atno 17320 bound_to 7965
  146.3507  140.1418  142.8594 LP  0  0  0  0  0  0  0  0  0  0  0  0  # atno 17321 bound_to 7965
  139.9239  144.6783  150.8433 LP  0  0  0  0  0  0  0  0  0  0  0  0  # atno 17342 bound_to 10162
  140.7682  143.3356  151.2317 LP  0  0  0  0  0  0  0  0  0  0  0  0  # atno 17343 bound_to 10162
  156.7022  130.8937  151.3600 LP  0  0  0  0  0  0  0  0  0  0  0  0  # atno 17370 bound_to 10713
  157.6961  130.9283  150.0648 LP  0  0  0  0  0  0  0  0  0  0  0  0  # atno 17371 bound_to 10713
  139.8941  135.0134  156.6933 LP  0  0  0  0  0  0  0  0  0  0  0  0  # atno 17394 bound_to 11000
  140.7220  133.9132  155.8153 LP  0  0  0  0  0  0  0  0  0  0  0  0  # atno 17395 bound_to 11000

$$$$
