AV-unprocessed.smi:1047|AV-procd|sdf|4603|dock8
  -GOLD-   22720 3 93D 1   1.00000     0.00000
 Structure written by MMmdl.
 57 59  0  0  0  0  0  0  0  0  3 V2000
  147.9779  131.7077  161.3455 C   0  0  0  0  0  0  0  0  0  0  0  0
  147.0986  132.7862  161.9940 C   0  0  0  0  0  0  0  0  0  0  0  0
  147.7946  134.0911  162.1213 N   0  3  2  0  0  0  0  0  0  0  0  0
  147.0445  135.0880  162.9250 C   0  0  0  0  0  0  0  0  0  0  0  0
  147.8364  136.4017  163.0265 C   0  0  0  0  0  0  0  0  0  0  0  0
  148.1205  136.8862  161.7206 O   0  0  0  0  0  0  0  0  0  0  0  0
  148.9344  135.9857  160.9760 C   0  0  2  0  0  0  0  0  0  0  0  0
  149.2469  136.6391  159.6219 C   0  0  0  0  0  0  0  0  0  0  0  0
  150.6673  136.5373  159.3036 N   0  0  0  0  0  0  0  0  0  0  0  0
  151.0375  137.2319  158.0741 C   0  0  0  0  0  0  0  0  0  0  0  0
  151.6561  138.6089  158.3711 C   0  0  1  0  0  0  0  0  0  0  0  0
  152.8498  138.4184  159.1047 O   0  0  0  0  0  0  0  0  0  0  0  0
  151.9739  139.3816  157.0756 C   0  0  0  0  0  0  0  0  0  0  0  0
  151.4036  140.7367  157.0670 N   0  0  0  0  0  0  0  0  0  0  0  0
  150.5914  141.3267  156.1486 C   0  0  0  0  0  0  0  0  0  0  0  0
  150.3305  142.5908  156.5814 N   0  3  0  0  0  0  0  0  0  0  0  0
  150.9860  142.8125  157.7941 C   0  0  0  0  0  0  0  0  0  0  0  0
  151.0240  143.9335  158.6147 C   0  0  0  0  0  0  0  0  0  0  0  0
  151.7896  143.8404  159.7986 C   0  0  0  0  0  0  0  0  0  0  0  0
  151.8511  145.0474  160.7193 C   0  0  0  0  0  0  0  0  0  0  0  0
  152.4862  142.6483  160.1251 C   0  0  0  0  0  0  0  0  0  0  0  0
  153.3060  142.5596  161.4010 C   0  0  0  0  0  0  0  0  0  0  0  0
  152.4347  141.5186  159.2771 C   0  0  0  0  0  0  0  0  0  0  0  0
  151.6766  141.6267  158.1133 C   0  0  0  0  0  0  0  0  0  0  0  0
  148.1629  134.6623  160.8034 C   0  0  0  0  0  0  0  0  0  0  0  0
  147.4064  130.7927  161.1879 H   0  0  0  0  0  0  0  0  0  0  0  0
  148.8336  131.4481  161.9682 H   0  0  0  0  0  0  0  0  0  0  0  0
  148.3517  132.0344  160.3747 H   0  0  0  0  0  0  0  0  0  0  0  0
  146.2142  132.9152  161.3682 H   0  0  0  0  0  0  0  0  0  0  0  0
  146.7414  132.4552  162.9703 H   0  0  0  0  0  0  0  0  0  0  0  0
  146.0734  135.2751  162.4639 H   0  0  0  0  0  0  0  0  0  0  0  0
  146.8547  134.7074  163.9280 H   0  0  0  0  0  0  0  0  0  0  0  0
  147.2535  137.1514  163.5617 H   0  0  0  0  0  0  0  0  0  0  0  0
  148.7622  136.2593  163.5863 H   0  0  0  0  0  0  0  0  0  0  0  0
  149.8670  135.7953  161.5115 H   0  0  0  0  0  0  0  0  0  0  0  0
  148.6669  136.1488  158.8390 H   0  0  0  0  0  0  0  0  0  0  0  0
  148.9320  137.6833  159.6362 H   0  0  0  0  0  0  0  0  0  0  0  0
  151.2177  136.8957  160.0777 H   0  0  0  0  0  0  0  0  0  0  0  0
  151.7158  136.6252  157.4723 H   0  0  0  0  0  0  0  0  0  0  0  0
  150.1392  137.3753  157.4720 H   0  0  0  0  0  0  0  0  0  0  0  0
  150.9679  139.2053  158.9726 H   0  0  0  0  0  0  0  0  0  0  0  0
  153.3471  137.7267  158.6962 H   0  0  0  0  0  0  0  0  0  0  0  0
  153.0477  139.4352  156.8955 H   0  0  0  0  0  0  0  0  0  0  0  0
  151.5486  138.8565  156.2193 H   0  0  0  0  0  0  0  0  0  0  0  0
  150.2200  140.8741  155.2404 H   0  0  0  0  0  0  0  0  0  0  0  0
  150.4899  144.8373  158.3599 H   0  0  0  0  0  0  0  0  0  0  0  0
  152.8774  145.4019  160.8179 H   0  0  0  0  0  0  0  0  0  0  0  0
  151.4747  144.7922  161.7102 H   0  0  0  0  0  0  0  0  0  0  0  0
  151.2487  145.8720  160.3371 H   0  0  0  0  0  0  0  0  0  0  0  0
  153.7890  141.5869  161.4990 H   0  0  0  0  0  0  0  0  0  0  0  0
  152.6703  142.7058  162.2746 H   0  0  0  0  0  0  0  0  0  0  0  0
  154.0868  143.3206  161.4084 H   0  0  0  0  0  0  0  0  0  0  0  0
  152.9616  140.6112  159.5310 H   0  0  0  0  0  0  0  0  0  0  0  0
  148.7790  133.9485  160.2547 H   0  0  0  0  0  0  0  0  0  0  0  0
  147.2594  134.8260  160.2129 H   0  0  0  0  0  0  0  0  0  0  0  0
  148.6630  133.9118  162.6052 H   0  0  0  0  0  0  0  0  0  0  0  0
  149.7465  143.2510  156.0844 H   0  0  0  0  0  0  0  0  0  0  0  0
  1  2  1  0  0  0  0
  1 26  1  0  0  0  0
  1 27  1  0  0  0  0
  1 28  1  0  0  0  0
  2  3  1  0  0  0  0
  2 29  1  0  0  0  0
  2 30  1  0  0  0  0
  3 25  1  0  0  0  0
  3  4  1  0  0  0  0
  3 56  1  0  0  0  0
  4  5  1  0  0  0  0
  4 31  1  0  0  0  0
  4 32  1  0  0  0  0
  5  6  1  0  0  0  0
  5 33  1  0  0  0  0
  5 34  1  0  0  0  0
  6  7  1  0  0  0  0
  7  8  1  0  0  0  0
  7 25  1  0  0  0  0
  7 35  1  0  0  0  0
  8  9  1  0  0  0  0
  8 36  1  0  0  0  0
  8 37  1  0  0  0  0
  9 10  1  0  0  0  0
  9 38  1  0  0  0  0
 10 11  1  0  0  0  0
 10 39  1  0  0  0  0
 10 40  1  0  0  0  0
 11 12  1  0  0  0  0
 11 13  1  0  0  0  0
 11 41  1  0  0  0  0
 12 42  1  0  0  0  0
 13 14  1  0  0  0  0
 13 43  1  0  0  0  0
 13 44  1  0  0  0  0
 14 24  1  0  0  0  0
 14 15  1  0  0  0  0
 15 16  2  0  0  0  0
 15 45  1  0  0  0  0
 16 17  1  0  0  0  0
 16 57  1  0  0  0  0
 17 24  2  0  0  0  0
 17 18  1  0  0  0  0
 18 19  2  0  0  0  0
 18 46  1  0  0  0  0
 19 20  1  0  0  0  0
 19 21  1  0  0  0  0
 20 47  1  0  0  0  0
 20 48  1  0  0  0  0
 20 49  1  0  0  0  0
 21 22  1  0  0  0  0
 21 23  2  0  0  0  0
 22 50  1  0  0  0  0
 22 51  1  0  0  0  0
 22 52  1  0  0  0  0
 23 24  1  0  0  0  0
 23 53  1  0  0  0  0
 25 54  1  0  0  0  0
 25 55  1  0  0  0  0
M  CHG  1   3   1
M  CHG  1  16   1
M  END
> <s_m_source_file>
AV-unprocessed.smi

> <i_m_source_file_index>
1047

> <i_lp_mmshare_version>
43012

> <i_f3d_flags>
0

> <s_epik_input>
W0NIM11bQ0gyXU4xW0NIMl1bQ0gyXU9bQ0BIXShbQ0gyXTEpW0NIMl1bTkhdW0NIMl1bQ0BIXShbT0hdKVtDSDJdbihbY0hdbjIpYyhjMjMpW2NIXWMoW0NIM10pYyhbY0hdMylbQ0gzXQ==

> <s_epik_cmdline>
J2VwaWtfcHl0aG9uJywgJy1waCcsICc3LjAnLCAnLXRuJywgJzgnLCAnLW1hJywgJzIwMCcsICctbWV0YWxfYmluZGluZycsICctaW1hZScsICc8aW5maWxlLm1hZT4nLCAnLW9tYWUnLCAnPG91dGZpbGUubWFlPic=

> <r_epik_Ionization_Penalty>
2.03028

> <r_epik_Ionization_Penalty_Charging>
1.21256

> <r_epik_Ionization_Penalty_Neutral>
0.817715

> <r_epik_State_Penalty>
2.54959

> <r_epik_Charging_Adjusted_Penalty>
3.76215

> <i_epik_Tot_Q>
2

> <i_epik_Tot_abs_Q>
2

> <r_epik_Metal_State_Penalty>
6.52811

> <b_epik_Metal_Only>
0

> <s_lp_Force_Field>
OPLS_2005

> <r_lp_Energy>
34.649

> <b_lp_Chiralities_Consistent>
1

> <s_lp_Variant>
AV-unprocessed.smi:1047-44

> <Gold.Version>
5.8.1

> <Gold.Id.Protein>
6NUR|6NUR_protein|mol2

> <Gold.PLP.Fitness>
65.6814

> <Gold.PLP.PLP>
-56.1354

> <Gold.PLP.part.hbond>
-4.0000

> <Gold.PLP.part.metal>
0.0000

> <Gold.PLP.part.buried>
-7.0135

> <Gold.PLP.part.nonpolar>
-44.8832

> <Gold.PLP.part.repulsive>
0.1829

> <Gold.PLP.ligand.clash>
0.0000

> <Gold.PLP.ligand.torsion>
1.7343

> <Gold.PLP.Chemscore.Hbond>
4.2692

> <Gold.PLP.Chemscore.CHOScore>
0.0000

> <Gold.PLP.Chemscore.Metal>
0.0000

> <Gold.Chemscore.Hbonds>
donor molecule, donor type, donor heavy atom, donor atom, acceptor molecule, acceptor atom, score
      L1  H    16    57       P1  8028  2.00
      P1  H  6896  6909       L1     9  0.55
      P1  H  6931  6943       L1     6  1.00

> <Gold.PLP.Chemscore.Internal.Correction>
0.2069

> <Gold.Rescore>
     Score         DG    S(hbond)    S(metal)    S(lipo)     H(rot)  DE(clash)    DE(int)     intcor
     19.89     -21.64       1.71        0.00     148.60       2.71       0.10       1.65       ----

> <Gold.Chemscore.Fitness>
19.8883

> <Gold.Chemscore.DG>
-21.6438

> <Gold.Chemscore.ZeroCoef>
-5.4800

> <Gold.Chemscore.Hbond>
1.7103

> <Gold.Chemscore.Metal>
0.0000

> <Gold.Chemscore.Lipo>
148.5984

> <Gold.Chemscore.Internal_Hbond>
0.0000

> <Gold.Chemscore.DEClash>
0.1029

> <Gold.Chemscore.DEInternal>
1.6526

> <Gold.Chemscore.Rot>
2.7088

> <Gold.Chemscore.Internal.Correction>
   9.000000E+99

> <Gold.Chemscore.Hbonds>
donor molecule, donor type, donor heavy atom, donor atom, acceptor molecule, acceptor atom, score
      L1  H    16    57       P1  8028  1.00
      P1  H  6896  6909       L1     9  0.02
      P1  H  6931  6943       L1     6  0.28
      P1  H  6934  6947       L1     6  0.03

> <Gold.Chemscore.Hbond.Weighted>
-5.7124

> <Gold.Chemscore.Metal.Weighted>
-0.0000

> <Gold.Chemscore.Lipo.Weighted>
-17.3860

> <Gold.Chemscore.Internal_Hbond.Weighted>
0.0000

> <Gold.Chemscore.DEClash.Weighted>
0.1029

> <Gold.Chemscore.DEInternal.Weighted>
1.6526

> <Gold.Chemscore.Rot.Weighted>
6.9346

> <Gold.Chemscore.Internal.Correction.Weighted>
   9.000000E+99

> <Gold.Protein.RotatedTorsions>
[ 6907 6896 6895 6894 ] final   64.59 input  -60.11 | X-H torsion
[ 7974 7965 7964 7962 ] final   55.51 input  175.53 | X-H torsion
[ 8008 7997 7996 7995 ] final -160.90 input   59.86 | X-H torsion
[ 10167 10162 10161 10158 ] final -129.94 input  -65.29 | X-H torsion
[ 10718 10713 10712 10709 ] final  -10.94 input   66.30 | X-H torsion
[ 10763 10752 10751 10750 ] final   75.79 input  -60.55 | X-H torsion
[ 11005 11000 10999 10996 ] final   77.78 input  -57.11 | X-H torsion

> <Gold.Protein.ActiveResidues>
 VAL166  LYS551  ARG553  GLY616  TRP617  ASP618  TYR619  PRO620  LYS621  CYS622 
 ASP623  PHE694  ASN695  SER759  ASP760  ASP761  ALA762  ILE779  LEU786  VAL792 
 PHE793  MET794  SER795  GLU796  ALA797  LYS798  CYS799  TRP800  GLU811  SER814 

> <Gold.Protein.RotatedAtoms>
  152.4343  134.5717  159.9922 H   0  0  0  0  0  0  0  0  0  0  0  0  # atno 6907 bound_to 6896
  151.5832  133.3369  159.3020 H   0  0  0  0  0  0  0  0  0  0  0  0  # atno 6908 bound_to 6896
  150.8239  134.7496  159.6861 H   0  0  0  0  0  0  0  0  0  0  0  0  # atno 6909 bound_to 6896
  145.9497  139.3961  143.0314 H   0  0  0  0  0  0  0  0  0  0  0  0  # atno 7974 bound_to 7965
  155.7843  140.0869  157.2043 H   0  0  0  0  0  0  0  0  0  0  0  0  # atno 8008 bound_to 7997
  154.3988  140.1502  156.3146 H   0  0  0  0  0  0  0  0  0  0  0  0  # atno 8009 bound_to 7997
  155.8623  140.3429  155.5767 H   0  0  0  0  0  0  0  0  0  0  0  0  # atno 8010 bound_to 7997
  139.9346  143.6233  152.2520 H   0  0  0  0  0  0  0  0  0  0  0  0  # atno 10167 bound_to 10162
  156.6663  130.4996  149.6014 H   0  0  0  0  0  0  0  0  0  0  0  0  # atno 10718 bound_to 10713
  153.0679  135.4975  154.8241 H   0  0  0  0  0  0  0  0  0  0  0  0  # atno 10763 bound_to 10752
  154.6980  135.2996  154.9385 H   0  0  0  0  0  0  0  0  0  0  0  0  # atno 10764 bound_to 10752
  154.0118  135.6753  153.4818 H   0  0  0  0  0  0  0  0  0  0  0  0  # atno 10765 bound_to 10752
  139.9240  134.7711  156.1566 H   0  0  0  0  0  0  0  0  0  0  0  0  # atno 11005 bound_to 11000
  145.8188  140.9689  143.0909 LP  0  0  0  0  0  0  0  0  0  0  0  0  # atno 17320 bound_to 7965
  144.6793  140.0015  143.7484 LP  0  0  0  0  0  0  0  0  0  0  0  0  # atno 17321 bound_to 7965
  139.6754  144.7659  151.1705 LP  0  0  0  0  0  0  0  0  0  0  0  0  # atno 17342 bound_to 10162
  140.7628  143.5802  150.8903 LP  0  0  0  0  0  0  0  0  0  0  0  0  # atno 17343 bound_to 10162
  156.1973  130.6597  151.1128 LP  0  0  0  0  0  0  0  0  0  0  0  0  # atno 17370 bound_to 10713
  157.7092  131.0742  150.6559 LP  0  0  0  0  0  0  0  0  0  0  0  0  # atno 17371 bound_to 10713
  141.0783  133.6765  156.2283 LP  0  0  0  0  0  0  0  0  0  0  0  0  # atno 17394 bound_to 11000
  140.6391  134.5185  157.5567 LP  0  0  0  0  0  0  0  0  0  0  0  0  # atno 17395 bound_to 11000

$$$$
