AV-unprocessed.smi:2931|AV-procd|sdf|11245|dock6
  -GOLD-   2272016143D 1   1.00000     0.00000
 Structure written by MMmdl.
 42 43  0  0  0  0  0  0  0  0  2 V2000
  147.9330  128.4113  151.7118 C   0  0  0  0  0  0  0  0  0  0  0  0
  148.0659  129.6732  152.4710 N   0  3  2  0  0  0  0  0  0  0  0  0
  148.8673  129.5071  153.7092 C   0  0  0  0  0  0  0  0  0  0  0  0
  149.0956  130.8606  154.4026 C   0  0  0  0  0  0  0  0  0  0  0  0
  147.7622  131.5617  154.6970 C   0  0  0  0  0  0  0  0  0  0  0  0
  146.9344  131.6892  153.4057 C   0  0  2  0  0  0  0  0  0  0  0  0
  145.6287  132.2791  153.6844 N   0  0  0  0  0  0  0  0  0  0  0  0
  145.2861  133.5466  153.4160 C   0  0  0  0  0  0  0  0  0  0  0  0
  146.0498  134.3743  152.9190 O   0  0  0  0  0  0  0  0  0  0  0  0
  144.0077  133.7955  153.7360 N   0  0  0  0  0  0  0  0  0  0  0  0
  143.3068  135.0553  153.4969 C   0  0  0  0  0  0  0  0  0  0  0  0
  141.7798  134.9091  153.6459 C   0  0  0  0  0  0  0  0  0  0  0  0
  141.0385  136.2352  153.6673 C   0  0  0  0  0  0  0  0  0  0  0  0
  139.6465  136.2756  153.8875 C   0  0  0  0  0  0  0  0  0  0  0  0
  139.0080  137.5312  153.9256 C   0  0  0  0  0  0  0  0  0  0  0  0
  139.6616  138.7010  153.7570 N   0  0  0  0  0  0  0  0  0  0  0  0
  140.9935  138.6541  153.5395 C   0  0  0  0  0  0  0  0  0  0  0  0
  141.7278  137.4526  153.4867 C   0  0  0  0  0  0  0  0  0  0  0  0
  146.7533  130.3120  152.7400 C   0  0  0  0  0  0  0  0  0  0  0  0
  147.3831  127.6645  152.2862 H   0  0  0  0  0  0  0  0  0  0  0  0
  148.9143  128.0027  151.4691 H   0  0  0  0  0  0  0  0  0  0  0  0
  147.4029  128.5806  150.7739 H   0  0  0  0  0  0  0  0  0  0  0  0
  148.3573  128.8194  154.3859 H   0  0  0  0  0  0  0  0  0  0  0  0
  149.8301  129.0566  153.4648 H   0  0  0  0  0  0  0  0  0  0  0  0
  149.6533  130.7170  155.3284 H   0  0  0  0  0  0  0  0  0  0  0  0
  149.7117  131.4982  153.7668 H   0  0  0  0  0  0  0  0  0  0  0  0
  147.2063  130.9912  155.4424 H   0  0  0  0  0  0  0  0  0  0  0  0
  147.9478  132.5451  155.1307 H   0  0  0  0  0  0  0  0  0  0  0  0
  147.4734  132.3301  152.7043 H   0  0  0  0  0  0  0  0  0  0  0  0
  144.9308  131.6755  154.0944 H   0  0  0  0  0  0  0  0  0  0  0  0
  143.4660  133.0479  154.1444 H   0  0  0  0  0  0  0  0  0  0  0  0
  143.6739  135.7903  154.2133 H   0  0  0  0  0  0  0  0  0  0  0  0
  143.5490  135.4507  152.5089 H   0  0  0  0  0  0  0  0  0  0  0  0
  141.3904  134.2953  152.8326 H   0  0  0  0  0  0  0  0  0  0  0  0
  141.5524  134.3693  154.5658 H   0  0  0  0  0  0  0  0  0  0  0  0
  139.0812  135.3674  154.0357 H   0  0  0  0  0  0  0  0  0  0  0  0
  137.9440  137.5978  154.0986 H   0  0  0  0  0  0  0  0  0  0  0  0
  141.4906  139.6037  153.4075 H   0  0  0  0  0  0  0  0  0  0  0  0
  142.7944  137.4698  153.3175 H   0  0  0  0  0  0  0  0  0  0  0  0
  146.2106  130.4292  151.8007 H   0  0  0  0  0  0  0  0  0  0  0  0
  146.1532  129.6569  153.3742 H   0  0  0  0  0  0  0  0  0  0  0  0
  148.5798  130.3106  151.8793 H   0  0  0  0  0  0  0  0  0  0  0  0
  1  2  1  0  0  0  0
  1 20  1  0  0  0  0
  1 21  1  0  0  0  0
  1 22  1  0  0  0  0
  2 19  1  0  0  0  0
  2  3  1  0  0  0  0
  2 42  1  0  0  0  0
  3  4  1  0  0  0  0
  3 23  1  0  0  0  0
  3 24  1  0  0  0  0
  4  5  1  0  0  0  0
  4 25  1  0  0  0  0
  4 26  1  0  0  0  0
  5  6  1  0  0  0  0
  5 27  1  0  0  0  0
  5 28  1  0  0  0  0
  6  7  1  0  0  0  0
  6 19  1  0  0  0  0
  6 29  1  0  0  0  0
  7  8  1  0  0  0  0
  7 30  1  0  0  0  0
  8  9  2  0  0  0  0
  8 10  1  0  0  0  0
 10 11  1  0  0  0  0
 10 31  1  0  0  0  0
 11 12  1  0  0  0  0
 11 32  1  0  0  0  0
 11 33  1  0  0  0  0
 12 13  1  0  0  0  0
 12 34  1  0  0  0  0
 12 35  1  0  0  0  0
 13 18  1  0  0  0  0
 13 14  2  0  0  0  0
 14 15  1  0  0  0  0
 14 36  1  0  0  0  0
 15 16  2  0  0  0  0
 15 37  1  0  0  0  0
 16 17  1  0  0  0  0
 17 18  2  0  0  0  0
 17 38  1  0  0  0  0
 18 39  1  0  0  0  0
 19 40  1  0  0  0  0
 19 41  1  0  0  0  0
M  CHG  1   2   1
M  END
> <s_m_source_file>
AV-unprocessed.smi

> <i_m_source_file_index>
2931

> <i_lp_mmshare_version>
43012

> <i_f3d_flags>
0

> <s_epik_input>
W0NIM11OMVtDSDJdW0NIMl1bQ0gyXVtDQEhdKFtDSDJdMSlbTkhdQyg9TylbTkhdW0NIMl1bQ0gyXWMyW2NIXVtjSF1uW2NIXVtjSF0y

> <s_epik_cmdline>
J2VwaWtfcHl0aG9uJywgJy1waCcsICc3LjAnLCAnLXRuJywgJzgnLCAnLW1hJywgJzIwMCcsICctbWV0YWxfYmluZGluZycsICctaW1hZScsICc8aW5maWxlLm1hZT4nLCAnLW9tYWUnLCAnPG91dGZpbGUubWFlPic=

> <r_epik_Ionization_Penalty>
0.0573876

> <r_epik_Ionization_Penalty_Charging>
0.00229982

> <r_epik_Ionization_Penalty_Neutral>
0.0550878

> <r_epik_State_Penalty>
0.0473925

> <r_epik_Charging_Adjusted_Penalty>
0.0496923

> <i_epik_Tot_Q>
1

> <i_epik_Tot_abs_Q>
1

> <r_epik_Metal_State_Penalty>
0.0433388

> <b_epik_Metal_Only>
0

> <s_lp_Force_Field>
OPLS_2005

> <r_lp_Energy>
13.2125

> <b_lp_Chiralities_Consistent>
1

> <s_lp_Variant>
AV-unprocessed.smi:2931-4

> <Gold.Version>
5.8.1

> <Gold.Id.Protein>
6NUR|6NUR_protein|mol2

> <Gold.PLP.Fitness>
44.7970

> <Gold.PLP.PLP>
-34.5598

> <Gold.PLP.part.hbond>
-2.4942

> <Gold.PLP.part.metal>
0.0000

> <Gold.PLP.part.buried>
-3.9094

> <Gold.PLP.part.nonpolar>
-27.7019

> <Gold.PLP.part.repulsive>
0.2799

> <Gold.PLP.ligand.clash>
0.0000

> <Gold.PLP.ligand.torsion>
0.3224

> <Gold.PLP.Chemscore.Hbond>
2.0304

> <Gold.PLP.Chemscore.CHOScore>
1.5889

> <Gold.PLP.Chemscore.Metal>
0.0000

> <Gold.Chemscore.Hbonds>
donor molecule, donor type, donor heavy atom, donor atom, acceptor molecule, acceptor atom, score
      L1  H     2    42       P1 10747  0.98
      L1  H     7    30       P1 10957  0.07
      L1  H    10    31       P1 10957  1.00
      L1  C    17    38       P1 10160  0.06
      L1  C    17    38       P1 10175  1.00

> <Gold.PLP.Chemscore.Internal.Correction>
0.0242

> <Gold.Rescore>
     Score         DG    S(hbond)    S(metal)    S(lipo)     H(rot)  DE(clash)    DE(int)     intcor
     17.78     -18.30       1.98        0.00      87.06       1.56       0.10       0.43       ----

> <Gold.Chemscore.Fitness>
17.7794

> <Gold.Chemscore.DG>
-18.3034

> <Gold.Chemscore.ZeroCoef>
-5.4800

> <Gold.Chemscore.Hbond>
1.9847

> <Gold.Chemscore.Metal>
0.0000

> <Gold.Chemscore.Lipo>
87.0586

> <Gold.Chemscore.Internal_Hbond>
0.0000

> <Gold.Chemscore.DEClash>
0.0980

> <Gold.Chemscore.DEInternal>
0.4260

> <Gold.Chemscore.Rot>
1.5592

> <Gold.Chemscore.Internal.Correction>
   9.000000E+99

> <Gold.Chemscore.Hbonds>
donor molecule, donor type, donor heavy atom, donor atom, acceptor molecule, acceptor atom, score
      L1  H     2    42       P1 10747  0.61
      L1  H    10    31       P1 10957  1.00

> <Gold.Chemscore.Hbond.Weighted>
-6.6290

> <Gold.Chemscore.Metal.Weighted>
-0.0000

> <Gold.Chemscore.Lipo.Weighted>
-10.1859

> <Gold.Chemscore.Internal_Hbond.Weighted>
0.0000

> <Gold.Chemscore.DEClash.Weighted>
0.0980

> <Gold.Chemscore.DEInternal.Weighted>
0.4260

> <Gold.Chemscore.Rot.Weighted>
3.9915

> <Gold.Chemscore.Internal.Correction.Weighted>
   9.000000E+99

> <Gold.Protein.RotatedTorsions>
[ 6907 6896 6895 6894 ] final    7.98 input  -60.11 | X-H torsion
[ 7974 7965 7964 7962 ] final   55.36 input  175.53 | X-H torsion
[ 8008 7997 7996 7995 ] final    4.49 input   59.86 | X-H torsion
[ 10167 10162 10161 10158 ] final  115.02 input  -65.29 | X-H torsion
[ 10718 10713 10712 10709 ] final   17.98 input   66.30 | X-H torsion
[ 10763 10752 10751 10750 ] final  108.28 input  -60.55 | X-H torsion
[ 11005 11000 10999 10996 ] final   -6.58 input  -57.11 | X-H torsion

> <Gold.Protein.ActiveResidues>
 VAL166  LYS551  ARG553  GLY616  TRP617  ASP618  TYR619  PRO620  LYS621  CYS622 
 ASP623  PHE694  ASN695  SER759  ASP760  ASP761  ALA762  ILE779  LEU786  VAL792 
 PHE793  MET794  SER795  GLU796  ALA797  LYS798  CYS799  TRP800  GLU811  SER814 

> <Gold.Protein.RotatedAtoms>
  151.6986  135.0934  160.0246 H   0  0  0  0  0  0  0  0  0  0  0  0  # atno 6907 bound_to 6896
  152.3734  133.6445  159.6113 H   0  0  0  0  0  0  0  0  0  0  0  0  # atno 6908 bound_to 6896
  150.7691  133.9149  159.3422 H   0  0  0  0  0  0  0  0  0  0  0  0  # atno 6909 bound_to 6896
  145.9513  139.3974  143.0304 H   0  0  0  0  0  0  0  0  0  0  0  0  # atno 7974 bound_to 7965
  154.7166  140.2703  155.6580 H   0  0  0  0  0  0  0  0  0  0  0  0  # atno 8008 bound_to 7997
  156.2811  140.2743  156.1749 H   0  0  0  0  0  0  0  0  0  0  0  0  # atno 8009 bound_to 7997
  155.0563  140.0371  157.2551 H   0  0  0  0  0  0  0  0  0  0  0  0  # atno 8010 bound_to 7997
  139.6347  144.7118  151.2360 H   0  0  0  0  0  0  0  0  0  0  0  0  # atno 10167 bound_to 10162
  157.0898  130.6423  149.5846 H   0  0  0  0  0  0  0  0  0  0  0  0  # atno 10718 bound_to 10713
  153.4184  135.3817  155.2095 H   0  0  0  0  0  0  0  0  0  0  0  0  # atno 10763 bound_to 10752
  154.8743  135.3811  154.4414 H   0  0  0  0  0  0  0  0  0  0  0  0  # atno 10764 bound_to 10752
  153.4931  135.7088  153.5935 H   0  0  0  0  0  0  0  0  0  0  0  0  # atno 10765 bound_to 10752
  140.7035  133.8969  155.8700 H   0  0  0  0  0  0  0  0  0  0  0  0  # atno 11005 bound_to 11000
  145.8168  140.9699  143.0920 LP  0  0  0  0  0  0  0  0  0  0  0  0  # atno 17320 bound_to 7965
  144.6796  139.9990  143.7484 LP  0  0  0  0  0  0  0  0  0  0  0  0  # atno 17321 bound_to 7965
  140.7458  143.6418  150.8328 LP  0  0  0  0  0  0  0  0  0  0  0  0  # atno 17342 bound_to 10162
  140.0047  143.5706  152.2862 LP  0  0  0  0  0  0  0  0  0  0  0  0  # atno 17343 bound_to 10162
  155.9901  130.4951  150.7242 LP  0  0  0  0  0  0  0  0  0  0  0  0  # atno 17370 bound_to 10713
  157.4730  131.0895  151.0621 LP  0  0  0  0  0  0  0  0  0  0  0  0  # atno 17371 bound_to 10713
  141.0144  134.0976  157.4188 LP  0  0  0  0  0  0  0  0  0  0  0  0  # atno 17394 bound_to 11000
  139.8890  135.0102  156.6655 LP  0  0  0  0  0  0  0  0  0  0  0  0  # atno 17395 bound_to 11000

$$$$
