AV-unprocessed.smi:1235|AV-procd|sdf|5178|dock6
  -GOLD-   22720 4253D 1   1.00000     0.00000
 Structure written by MMmdl.
 50 51  0  0  0  0  0  0  0  0  2 V2000
  152.5828  142.4539  159.6439 C   0  0  0  0  0  0  0  0  0  0  0  0
  152.0197  142.7272  158.3728 O   0  0  0  0  0  0  0  0  0  0  0  0
  151.5563  141.5564  157.7221 C   0  0  0  0  0  0  0  0  0  0  0  0
  151.1815  141.9076  156.2742 C   0  0  0  0  0  0  0  0  0  0  0  0
  150.8695  140.7067  155.4925 N   0  0  0  0  0  0  0  0  0  0  0  0
  149.6363  140.7464  154.8629 N   0  0  0  0  0  0  0  0  0  0  0  0
  149.2386  139.7430  154.1493 C   0  0  0  0  0  0  0  0  0  0  0  0
  147.9223  139.7462  153.4520 C   0  0  0  0  0  0  0  0  0  0  0  0
  147.1802  140.7299  153.4669 O   0  0  0  0  0  0  0  0  0  0  0  0
  147.6007  138.6055  152.8150 N   0  0  0  0  0  0  0  0  0  0  0  0
  146.3631  138.3811  152.0763 C   0  0  0  0  0  0  0  0  0  0  0  0
  145.5920  137.1625  152.6273 C   0  0  0  0  0  0  0  0  0  0  0  0
  146.2373  135.8563  152.3059 N   0  3  1  0  0  0  0  0  0  0  0  0
  146.6482  135.1253  153.5404 C   0  0  0  0  0  0  0  0  0  0  0  0
  147.4189  133.8365  153.2228 C   0  0  0  0  0  0  0  0  0  0  0  0
  146.5804  132.9158  152.3382 C   0  0  0  0  0  0  0  0  0  0  0  0
  146.1732  133.6711  151.0718 C   0  0  0  0  0  0  0  0  0  0  0  0
  145.4254  134.9850  151.3917 C   0  0  2  0  0  0  0  0  0  0  0  0
  145.0585  135.6709  150.0584 C   0  0  0  0  0  0  0  0  0  0  0  0
  150.0713  138.5619  153.9962 C   0  0  0  0  0  0  0  0  0  0  0  0
  151.2706  138.5373  154.6176 C   0  0  0  0  0  0  0  0  0  0  0  0
  151.7440  139.6574  155.4322 C   0  0  0  0  0  0  0  0  0  0  0  0
  152.8282  139.6553  156.0142 O   0  0  0  0  0  0  0  0  0  0  0  0
  152.9211  143.3833  160.1019 H   0  0  0  0  0  0  0  0  0  0  0  0
  153.4428  141.7881  159.5600 H   0  0  0  0  0  0  0  0  0  0  0  0
  151.8501  141.9972  160.3108 H   0  0  0  0  0  0  0  0  0  0  0  0
  152.3329  140.7900  157.7396 H   0  0  0  0  0  0  0  0  0  0  0  0
  150.6871  141.1579  158.2483 H   0  0  0  0  0  0  0  0  0  0  0  0
  150.3239  142.5828  156.2764 H   0  0  0  0  0  0  0  0  0  0  0  0
  151.9907  142.4691  155.8037 H   0  0  0  0  0  0  0  0  0  0  0  0
  148.2635  137.8434  152.8455 H   0  0  0  0  0  0  0  0  0  0  0  0
  145.7411  139.2772  152.1089 H   0  0  0  0  0  0  0  0  0  0  0  0
  146.6473  138.2340  151.0357 H   0  0  0  0  0  0  0  0  0  0  0  0
  145.4584  137.2498  153.7067 H   0  0  0  0  0  0  0  0  0  0  0  0
  144.5969  137.2063  152.1930 H   0  0  0  0  0  0  0  0  0  0  0  0
  147.2906  135.7457  154.1621 H   0  0  0  0  0  0  0  0  0  0  0  0
  145.7639  134.8930  154.1360 H   0  0  0  0  0  0  0  0  0  0  0  0
  148.3571  134.0799  152.7221 H   0  0  0  0  0  0  0  0  0  0  0  0
  147.6843  133.3230  154.1475 H   0  0  0  0  0  0  0  0  0  0  0  0
  147.1461  132.0201  152.0797 H   0  0  0  0  0  0  0  0  0  0  0  0
  145.6926  132.5835  152.8780 H   0  0  0  0  0  0  0  0  0  0  0  0
  147.0629  133.8882  150.4784 H   0  0  0  0  0  0  0  0  0  0  0  0
  145.5466  133.0235  150.4573 H   0  0  0  0  0  0  0  0  0  0  0  0
  144.4980  134.7312  151.9080 H   0  0  0  0  0  0  0  0  0  0  0  0
  144.6306  134.9536  149.3573 H   0  0  0  0  0  0  0  0  0  0  0  0
  145.9346  136.1105  149.5812 H   0  0  0  0  0  0  0  0  0  0  0  0
  144.3067  136.4497  150.1804 H   0  0  0  0  0  0  0  0  0  0  0  0
  149.7474  137.7199  153.4018 H   0  0  0  0  0  0  0  0  0  0  0  0
  151.9001  137.6660  154.5120 H   0  0  0  0  0  0  0  0  0  0  0  0
  147.0848  136.0746  151.8016 H   0  0  0  0  0  0  0  0  0  0  0  0
  1  2  1  0  0  0  0
  1 24  1  0  0  0  0
  1 25  1  0  0  0  0
  1 26  1  0  0  0  0
  2  3  1  0  0  0  0
  3  4  1  0  0  0  0
  3 27  1  0  0  0  0
  3 28  1  0  0  0  0
  4  5  1  0  0  0  0
  4 29  1  0  0  0  0
  4 30  1  0  0  0  0
  5 22  1  0  0  0  0
  5  6  1  0  0  0  0
  6  7  2  0  0  0  0
  7  8  1  0  0  0  0
  7 20  1  0  0  0  0
  8  9  2  0  0  0  0
  8 10  1  0  0  0  0
 10 11  1  0  0  0  0
 10 31  1  0  0  0  0
 11 12  1  0  0  0  0
 11 32  1  0  0  0  0
 11 33  1  0  0  0  0
 12 13  1  0  0  0  0
 12 34  1  0  0  0  0
 12 35  1  0  0  0  0
 13 18  1  0  0  0  0
 13 14  1  0  0  0  0
 13 50  1  0  0  0  0
 14 15  1  0  0  0  0
 14 36  1  0  0  0  0
 14 37  1  0  0  0  0
 15 16  1  0  0  0  0
 15 38  1  0  0  0  0
 15 39  1  0  0  0  0
 16 17  1  0  0  0  0
 16 40  1  0  0  0  0
 16 41  1  0  0  0  0
 17 18  1  0  0  0  0
 17 42  1  0  0  0  0
 17 43  1  0  0  0  0
 18 19  1  0  0  0  0
 18 44  1  0  0  0  0
 19 45  1  0  0  0  0
 19 46  1  0  0  0  0
 19 47  1  0  0  0  0
 20 21  2  0  0  0  0
 20 48  1  0  0  0  0
 21 22  1  0  0  0  0
 21 49  1  0  0  0  0
 22 23  2  0  0  0  0
M  CHG  1  13   1
M  END
> <s_m_source_file>
AV-unprocessed.smi

> <i_m_source_file_index>
1235

> <i_lp_mmshare_version>
43012

> <i_f3d_flags>
0

> <s_epik_input>
W0NIM11PW0NIMl1bQ0gyXW4xbmMoW2NIXVtjSF1jMT1PKUMoPU8pW05IXVtDSDJdW0NIMl1OMltDSDJdW0NIMl1bQ0gyXVtDSDJdW0NASF0yW0NIM10=

> <s_epik_cmdline>
J2VwaWtfcHl0aG9uJywgJy1waCcsICc3LjAnLCAnLXRuJywgJzgnLCAnLW1hJywgJzIwMCcsICctbWV0YWxfYmluZGluZycsICctaW1hZScsICc8aW5maWxlLm1hZT4nLCAnLW9tYWUnLCAnPG91dGZpbGUubWFlPic=

> <r_lp_tautomer_probability>
1

> <r_epik_Ionization_Penalty>
0.00271975

> <r_epik_Ionization_Penalty_Charging>
0.00271407

> <r_epik_Ionization_Penalty_Neutral>
5.6803e-06

> <r_epik_State_Penalty>
0.00189271

> <r_epik_Charging_Adjusted_Penalty>
0.00460678

> <i_epik_Tot_Q>
1

> <i_epik_Tot_abs_Q>
1

> <r_epik_Metal_State_Penalty>
-0

> <b_epik_Metal_Only>
0

> <s_lp_Force_Field>
OPLS_2005

> <r_lp_Energy>
40.1633

> <b_lp_Chiralities_Consistent>
1

> <s_lp_Variant>
AV-unprocessed.smi:1235-4

> <Gold.Version>
5.8.1

> <Gold.Id.Protein>
6NUR|6NUR_protein|mol2

> <Gold.PLP.Fitness>
52.0102

> <Gold.PLP.PLP>
-42.3670

> <Gold.PLP.part.hbond>
-3.0836

> <Gold.PLP.part.metal>
0.0000

> <Gold.PLP.part.buried>
-2.0688

> <Gold.PLP.part.nonpolar>
-37.2509

> <Gold.PLP.part.repulsive>
0.2837

> <Gold.PLP.ligand.clash>
0.4068

> <Gold.PLP.ligand.torsion>
0.8676

> <Gold.PLP.Chemscore.Hbond>
3.8800

> <Gold.PLP.Chemscore.CHOScore>
0.0000

> <Gold.PLP.Chemscore.Metal>
0.0000

> <Gold.Chemscore.Hbonds>
donor molecule, donor type, donor heavy atom, donor atom, acceptor molecule, acceptor atom, score
      L1  H    10    31       P1  7948  0.88
      L1  H    13    50       P1  7948  1.92
      P1  H  7997  8008       L1    23  1.00

> <Gold.PLP.Chemscore.Internal.Correction>
0.1452

> <Gold.Rescore>
     Score         DG    S(hbond)    S(metal)    S(lipo)     H(rot)  DE(clash)    DE(int)     intcor
     17.84     -19.92       2.78        0.00      87.80       2.00       0.14       1.94       ----

> <Gold.Chemscore.Fitness>
17.8371

> <Gold.Chemscore.DG>
-19.9187

> <Gold.Chemscore.ZeroCoef>
-5.4800

> <Gold.Chemscore.Hbond>
2.7817

> <Gold.Chemscore.Metal>
0.0000

> <Gold.Chemscore.Lipo>
87.8046

> <Gold.Chemscore.Internal_Hbond>
0.0000

> <Gold.Chemscore.DEClash>
0.1377

> <Gold.Chemscore.DEInternal>
1.9439

> <Gold.Chemscore.Rot>
2.0020

> <Gold.Chemscore.Internal.Correction>
   9.000000E+99

> <Gold.Chemscore.Hbonds>
donor molecule, donor type, donor heavy atom, donor atom, acceptor molecule, acceptor atom, score
      L1  H    10    31       P1  7948  0.84
      L1  H    13    50       P1  7948  0.92
      P1  H  7997  8008       L1    23  0.99

> <Gold.Chemscore.Hbond.Weighted>
-9.2907

> <Gold.Chemscore.Metal.Weighted>
-0.0000

> <Gold.Chemscore.Lipo.Weighted>
-10.2731

> <Gold.Chemscore.Internal_Hbond.Weighted>
0.0000

> <Gold.Chemscore.DEClash.Weighted>
0.1377

> <Gold.Chemscore.DEInternal.Weighted>
1.9439

> <Gold.Chemscore.Rot.Weighted>
5.1252

> <Gold.Chemscore.Internal.Correction.Weighted>
   9.000000E+99

> <Gold.Protein.RotatedTorsions>
[ 6907 6896 6895 6894 ] final  143.66 input  -60.11 | X-H torsion
[ 7974 7965 7964 7962 ] final -128.34 input  175.53 | X-H torsion
[ 8008 7997 7996 7995 ] final  -36.72 input   59.86 | X-H torsion
[ 10167 10162 10161 10158 ] final  144.14 input  -65.29 | X-H torsion
[ 10718 10713 10712 10709 ] final  -53.85 input   66.30 | X-H torsion
[ 10763 10752 10751 10750 ] final   91.34 input  -60.55 | X-H torsion
[ 11005 11000 10999 10996 ] final   56.87 input  -57.11 | X-H torsion

> <Gold.Protein.ActiveResidues>
 VAL166  LYS551  ARG553  GLY616  TRP617  ASP618  TYR619  PRO620  LYS621  CYS622 
 ASP623  PHE694  ASN695  SER759  ASP760  ASP761  ALA762  ILE779  LEU786  VAL792 
 PHE793  MET794  SER795  GLU796  ALA797  LYS798  CYS799  TRP800  GLU811  SER814 

> <Gold.Protein.RotatedAtoms>
  152.2035  133.4858  159.5070 H   0  0  0  0  0  0  0  0  0  0  0  0  # atno 6907 bound_to 6896
  150.6974  134.1560  159.4167 H   0  0  0  0  0  0  0  0  0  0  0  0  # atno 6908 bound_to 6896
  151.9478  135.0183  160.0590 H   0  0  0  0  0  0  0  0  0  0  0  0  # atno 6909 bound_to 6896
  144.9681  140.7517  143.4687 H   0  0  0  0  0  0  0  0  0  0  0  0  # atno 7974 bound_to 7965
  154.4067  140.1623  156.2421 H   0  0  0  0  0  0  0  0  0  0  0  0  # atno 8008 bound_to 7997
  155.9192  140.3422  155.6137 H   0  0  0  0  0  0  0  0  0  0  0  0  # atno 8009 bound_to 7997
  155.7242  140.0772  157.2308 H   0  0  0  0  0  0  0  0  0  0  0  0  # atno 8010 bound_to 7997
  139.4953  144.5992  151.6517 H   0  0  0  0  0  0  0  0  0  0  0  0  # atno 10167 bound_to 10162
  156.1500  130.4151  149.9960 H   0  0  0  0  0  0  0  0  0  0  0  0  # atno 10718 bound_to 10713
  153.2072  135.4401  155.0337 H   0  0  0  0  0  0  0  0  0  0  0  0  # atno 10763 bound_to 10752
  154.8180  135.3324  154.7123 H   0  0  0  0  0  0  0  0  0  0  0  0  # atno 10764 bound_to 10752
  153.7564  135.6994  153.4990 H   0  0  0  0  0  0  0  0  0  0  0  0  # atno 10765 bound_to 10752
  140.0496  134.5756  155.9280 H   0  0  0  0  0  0  0  0  0  0  0  0  # atno 11005 bound_to 11000
  145.2600  139.1996  143.4897 LP  0  0  0  0  0  0  0  0  0  0  0  0  # atno 17320 bound_to 7965
  146.3374  140.2528  142.8599 LP  0  0  0  0  0  0  0  0  0  0  0  0  # atno 17321 bound_to 7965
  140.5638  144.0225  150.6182 LP  0  0  0  0  0  0  0  0  0  0  0  0  # atno 17342 bound_to 10162
  140.3319  143.3072  152.0678 LP  0  0  0  0  0  0  0  0  0  0  0  0  # atno 17343 bound_to 10162
  156.7821  130.9225  151.3646 LP  0  0  0  0  0  0  0  0  0  0  0  0  # atno 17370 bound_to 10713
  157.6649  130.8999  149.9910 LP  0  0  0  0  0  0  0  0  0  0  0  0  # atno 17371 bound_to 10713
  141.1924  133.6575  156.5499 LP  0  0  0  0  0  0  0  0  0  0  0  0  # atno 17394 bound_to 11000
  140.3938  134.7416  157.4738 LP  0  0  0  0  0  0  0  0  0  0  0  0  # atno 17395 bound_to 11000

$$$$
