AV-unprocessed.smi:72|AV-procd|sdf|709|dock1
  -GOLD-   2262017 33D 1   1.00000     0.00000
 Structure written by MMmdl.
 30 31  0  0  0  0  0  0  0  0  2 V2000
  145.8304  138.9647  152.0014 N   0  0  0  0  0  0  0  0  0  0  0  0
  146.8131  139.4527  152.8373 C   0  0  0  0  0  0  0  0  0  0  0  0
  148.0111  138.7630  152.8914 N   0  3  0  0  0  0  0  0  0  0  0  0
  149.0647  139.1058  153.6451 C   0  0  0  0  0  0  0  0  0  0  0  0
  148.9847  140.1790  154.4054 N   0  0  0  0  0  0  0  0  0  0  0  0
  150.1295  140.6118  155.2883 C   0  0  2  0  0  0  0  0  0  0  0  0
  151.2877  139.9570  154.8619 O   0  0  0  0  0  0  0  0  0  0  0  0
  151.6687  138.9614  155.8085 C   0  0  1  0  0  0  0  0  0  0  0  0
  153.1748  138.6827  155.6930 C   0  0  0  0  0  0  0  0  0  0  0  0
  153.4458  138.0079  154.4834 O   0  0  0  0  0  0  0  0  0  0  0  0
  151.2610  139.6197  157.1256 C   0  0  2  0  0  0  0  0  0  0  0  0
  151.1936  138.7119  158.2094 O   0  0  0  0  0  0  0  0  0  0  0  0
  149.9147  140.2436  156.7745 C   0  0  2  0  0  0  0  0  0  0  0  0
  148.8418  139.3353  156.9813 O   0  0  0  0  0  0  0  0  0  0  0  0
  147.7910  140.9451  154.4260 C   0  0  0  0  0  0  0  0  0  0  0  0
  147.7002  141.9371  155.1484 O   0  0  0  0  0  0  0  0  0  0  0  0
  146.7457  140.5099  153.5984 N   0  0  0  0  0  0  0  0  0  0  0  0
  150.2636  141.6807  155.1135 H   0  0  0  0  0  0  0  0  0  0  0  0
  151.0859  138.0506  155.6591 H   0  0  0  0  0  0  0  0  0  0  0  0
  151.9716  140.4108  157.3711 H   0  0  0  0  0  0  0  0  0  0  0  0
  149.7250  141.1470  157.3554 H   0  0  0  0  0  0  0  0  0  0  0  0
  144.9257  139.4026  151.8976 H   0  0  0  0  0  0  0  0  0  0  0  0
  145.9340  138.1373  151.4318 H   0  0  0  0  0  0  0  0  0  0  0  0
  149.9568  138.4952  153.6138 H   0  0  0  0  0  0  0  0  0  0  0  0
  153.7569  139.6027  155.7551 H   0  0  0  0  0  0  0  0  0  0  0  0
  153.5015  138.0364  156.5082 H   0  0  0  0  0  0  0  0  0  0  0  0
  153.7646  138.6366  153.8536 H   0  0  0  0  0  0  0  0  0  0  0  0
  150.4719  138.9608  158.7668 H   0  0  0  0  0  0  0  0  0  0  0  0
  148.2606  139.7019  157.6307 H   0  0  0  0  0  0  0  0  0  0  0  0
  148.0953  137.9364  152.3172 H   0  0  0  0  0  0  0  0  0  0  0  0
  1  2  1  0  0  0  0
  1 22  1  0  0  0  0
  1 23  1  0  0  0  0
  2 17  2  0  0  0  0
  2  3  1  0  0  0  0
  3  4  2  0  0  0  0
  3 30  1  0  0  0  0
  4  5  1  0  0  0  0
  4 24  1  0  0  0  0
  5  6  1  0  0  0  0
  5 15  1  0  0  0  0
  6 18  1  0  0  0  0
  6 13  1  0  0  0  0
  6  7  1  0  0  0  0
  7  8  1  0  0  0  0
  8 19  1  0  0  0  0
  8  9  1  0  0  0  0
  8 11  1  0  0  0  0
  9 10  1  0  0  0  0
  9 25  1  0  0  0  0
  9 26  1  0  0  0  0
 10 27  1  0  0  0  0
 11 20  1  0  0  0  0
 11 12  1  0  0  0  0
 11 13  1  0  0  0  0
 12 28  1  0  0  0  0
 13 21  1  0  0  0  0
 13 14  1  0  0  0  0
 14 29  1  0  0  0  0
 15 16  2  0  0  0  0
 15 17  1  0  0  0  0
M  CHG  1   3   1
M  END
> <s_m_source_file>
AV-unprocessed.smi

> <i_m_source_file_index>
72

> <i_lp_mmshare_version>
43012

> <i_f3d_flags>
0

> <s_epik_input>
W05IMl1jMW5bY0hdbihjKD1PKW4xKVtDQEBIXTJPW0NASF0oW0NIMl1bT0hdKVtDQEBIXShbT0hdKVtDQEhdMltPSF0=

> <s_epik_cmdline>
J2VwaWtfcHl0aG9uJywgJy1waCcsICc3LjAnLCAnLXRuJywgJzgnLCAnLW1hJywgJzIwMCcsICctbWV0YWxfYmluZGluZycsICctaW1hZScsICc8aW5maWxlLm1hZT4nLCAnLW9tYWUnLCAnPG91dGZpbGUubWFlPic=

> <r_lp_tautomer_probability>
4.77166e-05

> <r_epik_Ionization_Penalty>
0.104979

> <r_epik_Ionization_Penalty_Charging>
0.0999619

> <r_epik_Ionization_Penalty_Neutral>
0.00501745

> <r_epik_State_Penalty>
2.51541

> <r_epik_Charging_Adjusted_Penalty>
2.61537

> <i_epik_Tot_Q>
1

> <i_epik_Tot_abs_Q>
1

> <r_epik_Metal_State_Penalty>
3.53763

> <b_epik_Metal_Only>
0

> <s_epik_Chemistry_Notes>
This compound contains an acetal/aminal-like group ( X-CH(R)-Y where X, Y are N, S, or O) that may be acid/base labile, releasing an aldehyde.

> <s_lp_Force_Field>
OPLS_2005

> <r_lp_Energy>
36.649

> <b_lp_Chiralities_Consistent>
1

> <s_lp_Variant>
AV-unprocessed.smi:72-47

> <Gold.Version>
5.8.1

> <Gold.Id.Protein>
6NUR|6NUR_protein|mol2

> <Gold.PLP.Fitness>
34.1806

> <Gold.PLP.PLP>
-22.8977

> <Gold.PLP.part.hbond>
-6.0000

> <Gold.PLP.part.metal>
0.0000

> <Gold.PLP.part.buried>
0.0709

> <Gold.PLP.part.nonpolar>
-18.6553

> <Gold.PLP.part.repulsive>
1.0547

> <Gold.PLP.ligand.clash>
0.0000

> <Gold.PLP.ligand.torsion>
0.4710

> <Gold.PLP.Chemscore.Hbond>
4.0351

> <Gold.PLP.Chemscore.CHOScore>
0.0000

> <Gold.PLP.Chemscore.Metal>
0.0000

> <Gold.Chemscore.Hbonds>
donor molecule, donor type, donor heavy atom, donor atom, acceptor molecule, acceptor atom, score
      L1  H     1    22       P1 10175  1.00
      L1  H     3    30       P1  7948  2.00
      P1  H  7989  7998       L1     7  1.00
      P1  H 10752 10765       L1    10  0.03

> <Gold.PLP.Chemscore.Internal.Correction>
0.1195

> <Gold.Rescore>
     Score         DG    S(hbond)    S(metal)    S(lipo)     H(rot)  DE(clash)    DE(int)     intcor
      4.62      -6.77       2.74        0.00      21.93       4.08       1.75       0.41       ----

> <Gold.Chemscore.Fitness>
4.6175

> <Gold.Chemscore.DG>
-6.7730

> <Gold.Chemscore.ZeroCoef>
-5.4800

> <Gold.Chemscore.Hbond>
2.7446

> <Gold.Chemscore.Metal>
0.0000

> <Gold.Chemscore.Lipo>
21.9349

> <Gold.Chemscore.Internal_Hbond>
0.0000

> <Gold.Chemscore.DEClash>
1.7462

> <Gold.Chemscore.DEInternal>
0.4093

> <Gold.Chemscore.Rot>
4.0783

> <Gold.Chemscore.Internal.Correction>
   9.000000E+99

> <Gold.Chemscore.Hbonds>
donor molecule, donor type, donor heavy atom, donor atom, acceptor molecule, acceptor atom, score
      L1  H     1    22       P1 10175  0.92
      L1  H     3    30       P1  7948  0.95
      P1  H  7989  7998       L1     7  0.26
      P1  H 10752 10765       L1    10  0.03

> <Gold.Chemscore.Hbond.Weighted>
-9.1670

> <Gold.Chemscore.Metal.Weighted>
-0.0000

> <Gold.Chemscore.Lipo.Weighted>
-2.5664

> <Gold.Chemscore.Internal_Hbond.Weighted>
0.0000

> <Gold.Chemscore.DEClash.Weighted>
1.7462

> <Gold.Chemscore.DEInternal.Weighted>
0.4093

> <Gold.Chemscore.Rot.Weighted>
10.4404

> <Gold.Chemscore.Internal.Correction.Weighted>
   9.000000E+99

> <Gold.Protein.RotatedTorsions>
[ 6907 6896 6895 6894 ] final   15.04 input  -60.11 | X-H torsion
[ 7974 7965 7964 7962 ] final -132.30 input  175.53 | X-H torsion
[ 8008 7997 7996 7995 ] final  -84.74 input   59.86 | X-H torsion
[ 10167 10162 10161 10158 ] final   19.38 input  -65.29 | X-H torsion
[ 10718 10713 10712 10709 ] final   31.60 input   66.30 | X-H torsion
[ 10763 10752 10751 10750 ] final  138.94 input  -60.55 | X-H torsion
[ 11005 11000 10999 10996 ] final  -25.34 input  -57.11 | X-H torsion

> <Gold.Protein.ActiveResidues>
 VAL166  LYS551  ARG553  GLY616  TRP617  ASP618  TYR619  PRO620  LYS621  CYS622 
 ASP623  PHE694  ASN695  SER759  ASP760  ASP761  ALA762  ILE779  LEU786  VAL792 
 PHE793  MET794  SER795  GLU796  ALA797  LYS798  CYS799  TRP800  GLU811  SER814 

> <Gold.Protein.RotatedAtoms>
  151.8118  135.0678  160.0413 H   0  0  0  0  0  0  0  0  0  0  0  0  # atno 6907 bound_to 6896
  152.3015  133.5655  159.5630 H   0  0  0  0  0  0  0  0  0  0  0  0  # atno 6908 bound_to 6896
  150.7276  134.0201  159.3740 H   0  0  0  0  0  0  0  0  0  0  0  0  # atno 6909 bound_to 6896
  144.9298  140.7115  143.4913 H   0  0  0  0  0  0  0  0  0  0  0  0  # atno 7974 bound_to 7965
  154.6331  140.0601  156.9756 H   0  0  0  0  0  0  0  0  0  0  0  0  # atno 8008 bound_to 7997
  155.1634  140.3284  155.4388 H   0  0  0  0  0  0  0  0  0  0  0  0  # atno 8009 bound_to 7997
  156.2493  140.1926  156.6740 H   0  0  0  0  0  0  0  0  0  0  0  0  # atno 8010 bound_to 7997
  140.5583  143.9384  150.6624 H   0  0  0  0  0  0  0  0  0  0  0  0  # atno 10167 bound_to 10162
  157.2746  130.7225  149.6523 H   0  0  0  0  0  0  0  0  0  0  0  0  # atno 10718 bound_to 10713
  153.8979  135.3025  155.3448 H   0  0  0  0  0  0  0  0  0  0  0  0  # atno 10763 bound_to 10752
  154.7685  135.4898  153.9604 H   0  0  0  0  0  0  0  0  0  0  0  0  # atno 10764 bound_to 10752
  153.1261  135.6793  153.9354 H   0  0  0  0  0  0  0  0  0  0  0  0  # atno 10765 bound_to 10752
  140.8929  133.7576  156.0444 H   0  0  0  0  0  0  0  0  0  0  0  0  # atno 11005 bound_to 11000
  145.3160  139.1803  143.4613 LP  0  0  0  0  0  0  0  0  0  0  0  0  # atno 17320 bound_to 7965
  146.3242  140.3170  142.8630 LP  0  0  0  0  0  0  0  0  0  0  0  0  # atno 17321 bound_to 7965
  140.2828  143.3377  152.1135 LP  0  0  0  0  0  0  0  0  0  0  0  0  # atno 17342 bound_to 10162
  139.5058  144.6802  151.6028 LP  0  0  0  0  0  0  0  0  0  0  0  0  # atno 17343 bound_to 10162
  155.9663  130.4357  150.5102 LP  0  0  0  0  0  0  0  0  0  0  0  0  # atno 17370 bound_to 10713
  157.3033  131.0649  151.2052 LP  0  0  0  0  0  0  0  0  0  0  0  0  # atno 17371 bound_to 10713
  140.8325  134.3161  157.5343 LP  0  0  0  0  0  0  0  0  0  0  0  0  # atno 17394 bound_to 11000
  139.8732  134.9371  156.3679 LP  0  0  0  0  0  0  0  0  0  0  0  0  # atno 17395 bound_to 11000

$$$$
