AV-unprocessed.smi:1208|AV-procd|sdf|5065|dock8
  -GOLD-   22720 4103D 1   1.00000     0.00000
 Structure written by MMmdl.
 36 37  0  0  0  0  0  0  0  0  1 V2000
  154.1218  141.3686  160.6441 C   0  0  0  0  0  0  0  0  0  0  0  0
  152.7969  141.9887  160.1685 C   0  0  2  0  0  0  0  0  0  0  0  0
  152.5199  141.5556  158.8014 N   0  0  0  0  0  0  0  0  0  0  0  0
  151.3024  141.4565  158.2463 C   0  0  0  0  0  0  0  0  0  0  0  0
  150.2586  141.6918  158.8566 O   0  0  0  0  0  0  0  0  0  0  0  0
  151.2631  140.9951  156.7826 C   0  0  0  0  0  0  0  0  0  0  0  0
  151.3106  139.5329  156.6412 N   0  0  0  0  0  0  0  0  0  0  0  0
  151.5384  138.8537  157.8286 N   0  0  0  0  0  0  0  0  0  0  0  0
  151.5852  137.5644  157.8346 C   0  0  0  0  0  0  0  0  0  0  0  0
  151.8094  136.9321  159.0327 O   0  0  0  0  0  0  0  0  0  0  0  0
  151.4075  136.8027  156.6178 C   0  0  0  0  0  0  0  0  0  0  0  0
  151.1926  137.4737  155.4651 C   0  0  0  0  0  0  0  0  0  0  0  0
  151.1350  138.9358  155.4222 C   0  0  0  0  0  0  0  0  0  0  0  0
  150.9460  139.5727  154.3859 O   0  0  0  0  0  0  0  0  0  0  0  0
  152.8168  143.5288  160.2155 C   0  0  2  0  0  0  0  0  0  0  0  0
  151.5032  144.1692  160.6715 C   0  0  0  0  0  0  0  0  0  0  0  0
  151.5630  145.5197  159.9964 C   0  0  0  0  0  0  0  0  0  0  0  0
  152.1788  145.1565  158.6509 C   0  0  0  0  0  0  0  0  0  0  0  0
  153.0517  144.0614  158.9113 O   0  0  0  0  0  0  0  0  0  0  0  0
  152.7003  137.1445  159.2649 H   0  0  0  0  0  0  0  0  0  0  0  0
  154.3359  141.6345  161.6793 H   0  0  0  0  0  0  0  0  0  0  0  0
  154.9596  141.7064  160.0333 H   0  0  0  0  0  0  0  0  0  0  0  0
  154.0892  140.2799  160.5910 H   0  0  0  0  0  0  0  0  0  0  0  0
  151.9965  141.6428  160.8251 H   0  0  0  0  0  0  0  0  0  0  0  0
  153.3207  141.3432  158.2242 H   0  0  0  0  0  0  0  0  0  0  0  0
  150.3703  141.3875  156.2913 H   0  0  0  0  0  0  0  0  0  0  0  0
  152.1071  141.4533  156.2641 H   0  0  0  0  0  0  0  0  0  0  0  0
  151.4476  135.7237  156.6406 H   0  0  0  0  0  0  0  0  0  0  0  0
  151.0578  136.9178  154.5488 H   0  0  0  0  0  0  0  0  0  0  0  0
  153.6247  143.8774  160.8611 H   0  0  0  0  0  0  0  0  0  0  0  0
  150.6475  143.6060  160.2957 H   0  0  0  0  0  0  0  0  0  0  0  0
  151.4169  144.2383  161.7563 H   0  0  0  0  0  0  0  0  0  0  0  0
  150.5885  146.0001  159.9051 H   0  0  0  0  0  0  0  0  0  0  0  0
  152.2264  146.1874  160.5480 H   0  0  0  0  0  0  0  0  0  0  0  0
  151.4059  144.8242  157.9567 H   0  0  0  0  0  0  0  0  0  0  0  0
  152.7097  145.9917  158.1937 H   0  0  0  0  0  0  0  0  0  0  0  0
  1  2  1  0  0  0  0
  1 21  1  0  0  0  0
  1 22  1  0  0  0  0
  1 23  1  0  0  0  0
  2  3  1  0  0  0  0
  2 15  1  0  0  0  0
  2 24  1  0  0  0  0
  3  4  1  0  0  0  0
  3 25  1  0  0  0  0
  4  5  2  0  0  0  0
  4  6  1  0  0  0  0
  6 26  1  0  0  0  0
  6 27  1  0  0  0  0
  6  7  1  0  0  0  0
  7  8  1  0  0  0  0
  7 13  1  0  0  0  0
  8  9  2  0  0  0  0
  9 10  1  0  0  0  0
  9 11  1  0  0  0  0
 10 20  1  0  0  0  0
 11 28  1  0  0  0  0
 11 12  2  0  0  0  0
 12 29  1  0  0  0  0
 12 13  1  0  0  0  0
 13 14  2  0  0  0  0
 15 19  1  0  0  0  0
 15 16  1  0  0  0  0
 15 30  1  0  0  0  0
 16 17  1  0  0  0  0
 16 31  1  0  0  0  0
 16 32  1  0  0  0  0
 17 18  1  0  0  0  0
 17 33  1  0  0  0  0
 17 34  1  0  0  0  0
 18 19  1  0  0  0  0
 18 35  1  0  0  0  0
 18 36  1  0  0  0  0
M  END
> <s_m_source_file>
AV-unprocessed.smi

> <i_m_source_file_index>
1208

> <i_lp_mmshare_version>
43012

> <i_f3d_flags>
0

> <s_epik_input>
TzFbQ0gyXVtDSDJdW0NIMl1bQ0BIXTFbQ0BIXShbQ0gzXSlbTkhdQyg9TylbQ0gyXW4yW25IXWMoPU8pW2NIXVtjSF1jMj1P

> <s_epik_cmdline>
J2VwaWtfcHl0aG9uJywgJy1waCcsICc3LjAnLCAnLXRuJywgJzgnLCAnLW1hJywgJzIwMCcsICctbWV0YWxfYmluZGluZycsICctaW1hZScsICc8aW5maWxlLm1hZT4nLCAnLW9tYWUnLCAnPG91dGZpbGUubWFlPic=

> <r_lp_tautomer_probability>
0.9996

> <r_epik_Ionization_Penalty>
2.12735

> <r_epik_Ionization_Penalty_Charging>
3.86665e-08

> <r_epik_Ionization_Penalty_Neutral>
2.12735

> <r_epik_State_Penalty>
1.70441

> <r_epik_Charging_Adjusted_Penalty>
1.70441

> <i_epik_Tot_Q>
0

> <i_epik_Tot_abs_Q>
0

> <r_epik_Metal_State_Penalty>
1.70441

> <b_epik_Metal_Only>
0

> <s_lp_Force_Field>
OPLS_2005

> <r_lp_Energy>
29.6219

> <b_lp_Chiralities_Consistent>
1

> <s_lp_Variant>
AV-unprocessed.smi:1208-5

> <Gold.Version>
5.8.1

> <Gold.Id.Protein>
6NUR|6NUR_protein|mol2

> <Gold.PLP.Fitness>
41.1624

> <Gold.PLP.PLP>
-38.8047

> <Gold.PLP.part.hbond>
-2.7892

> <Gold.PLP.part.metal>
0.0000

> <Gold.PLP.part.buried>
-6.1580

> <Gold.PLP.part.nonpolar>
-30.0060

> <Gold.PLP.part.repulsive>
0.2366

> <Gold.PLP.ligand.clash>
0.0000

> <Gold.PLP.ligand.torsion>
1.8183

> <Gold.PLP.Chemscore.Hbond>
1.9920

> <Gold.PLP.Chemscore.CHOScore>
0.0000

> <Gold.PLP.Chemscore.Metal>
0.0000

> <Gold.Chemscore.Hbonds>
donor molecule, donor type, donor heavy atom, donor atom, acceptor molecule, acceptor atom, score
      P1  H  6896  6909       L1    10  0.98
      P1  H  7989  7998       L1    14  1.00

> <Gold.PLP.Chemscore.Internal.Correction>
0.0183

> <Gold.Rescore>
     Score         DG    S(hbond)    S(metal)    S(lipo)     H(rot)  DE(clash)    DE(int)     intcor
     12.57     -15.23       1.90        0.00      86.60       2.63       0.02       2.65       ----

> <Gold.Chemscore.Fitness>
12.5653

> <Gold.Chemscore.DG>
-15.2306

> <Gold.Chemscore.ZeroCoef>
-5.4800

> <Gold.Chemscore.Hbond>
1.8987

> <Gold.Chemscore.Metal>
0.0000

> <Gold.Chemscore.Lipo>
86.6023

> <Gold.Chemscore.Internal_Hbond>
0.0000

> <Gold.Chemscore.DEClash>
0.0174

> <Gold.Chemscore.DEInternal>
2.6479

> <Gold.Chemscore.Rot>
2.6264

> <Gold.Chemscore.Internal.Correction>
   9.000000E+99

> <Gold.Chemscore.Hbonds>
donor molecule, donor type, donor heavy atom, donor atom, acceptor molecule, acceptor atom, score
      P1  H  6896  6909       L1    10  0.23
      P1  H  7989  7998       L1    14  1.00

> <Gold.Chemscore.Hbond.Weighted>
-6.3418

> <Gold.Chemscore.Metal.Weighted>
-0.0000

> <Gold.Chemscore.Lipo.Weighted>
-10.1325

> <Gold.Chemscore.Internal_Hbond.Weighted>
0.0000

> <Gold.Chemscore.DEClash.Weighted>
0.0174

> <Gold.Chemscore.DEInternal.Weighted>
2.6479

> <Gold.Chemscore.Rot.Weighted>
6.7237

> <Gold.Chemscore.Internal.Correction.Weighted>
   9.000000E+99

> <Gold.Protein.RotatedTorsions>
[ 6907 6896 6895 6894 ] final  122.86 input  -60.11 | X-H torsion
[ 7974 7965 7964 7962 ] final -176.00 input  175.53 | X-H torsion
[ 8008 7997 7996 7995 ] final  -12.63 input   59.86 | X-H torsion
[ 10167 10162 10161 10158 ] final -102.32 input  -65.29 | X-H torsion
[ 10718 10713 10712 10709 ] final  116.82 input   66.30 | X-H torsion
[ 10763 10752 10751 10750 ] final  -53.34 input  -60.55 | X-H torsion
[ 11005 11000 10999 10996 ] final -116.31 input  -57.11 | X-H torsion

> <Gold.Protein.ActiveResidues>
 VAL166  LYS551  ARG553  GLY616  TRP617  ASP618  TYR619  PRO620  LYS621  CYS622 
 ASP623  PHE694  ASN695  SER759  ASP760  ASP761  ALA762  ILE779  LEU786  VAL792 
 PHE793  MET794  SER795  GLU796  ALA797  LYS798  CYS799  TRP800  GLU811  SER814 

> <Gold.Protein.RotatedAtoms>
  152.4209  133.7114  159.6480 H   0  0  0  0  0  0  0  0  0  0  0  0  # atno 6907 bound_to 6896
  150.8085  133.8455  159.3200 H   0  0  0  0  0  0  0  0  0  0  0  0  # atno 6908 bound_to 6896
  151.6172  135.1037  160.0145 H   0  0  0  0  0  0  0  0  0  0  0  0  # atno 6909 bound_to 6896
  144.7127  140.1237  143.6403 H   0  0  0  0  0  0  0  0  0  0  0  0  # atno 7974 bound_to 7965
  154.5361  140.2271  155.8721 H   0  0  0  0  0  0  0  0  0  0  0  0  # atno 8008 bound_to 7997
  156.1812  140.3099  155.9116 H   0  0  0  0  0  0  0  0  0  0  0  0  # atno 8009 bound_to 7997
  155.3352  140.0447  157.3034 H   0  0  0  0  0  0  0  0  0  0  0  0  # atno 8010 bound_to 7997
  140.2319  143.3600  152.0879 H   0  0  0  0  0  0  0  0  0  0  0  0  # atno 10167 bound_to 10162
  157.6136  131.1030  150.7527 H   0  0  0  0  0  0  0  0  0  0  0  0  # atno 10718 bound_to 10713
  154.1573  135.6480  153.4977 H   0  0  0  0  0  0  0  0  0  0  0  0  # atno 10763 bound_to 10752
  153.0120  135.5352  154.6747 H   0  0  0  0  0  0  0  0  0  0  0  0  # atno 10764 bound_to 10752
  154.6051  135.2948  155.0465 H   0  0  0  0  0  0  0  0  0  0  0  0  # atno 10765 bound_to 10752
  141.0430  133.9806  157.2963 H   0  0  0  0  0  0  0  0  0  0  0  0  # atno 11005 bound_to 11000
  145.9349  139.2630  143.1303 LP  0  0  0  0  0  0  0  0  0  0  0  0  # atno 17320 bound_to 7965
  145.9485  140.8927  143.0271 LP  0  0  0  0  0  0  0  0  0  0  0  0  # atno 17321 bound_to 7965
  139.5107  144.6888  151.5815 LP  0  0  0  0  0  0  0  0  0  0  0  0  # atno 17342 bound_to 10162
  140.6178  143.9315  150.6502 LP  0  0  0  0  0  0  0  0  0  0  0  0  # atno 17343 bound_to 10162
  156.7899  130.4887  149.5386 LP  0  0  0  0  0  0  0  0  0  0  0  0  # atno 17370 bound_to 10713
  156.1249  130.6136  151.0248 LP  0  0  0  0  0  0  0  0  0  0  0  0  # atno 17371 bound_to 10713
  139.9290  135.0200  156.8336 LP  0  0  0  0  0  0  0  0  0  0  0  0  # atno 17394 bound_to 11000
  140.6199  134.0004  155.7613 LP  0  0  0  0  0  0  0  0  0  0  0  0  # atno 17395 bound_to 11000

$$$$
