AV-unprocessed.smi:1633|AV-procd|sdf|6534|dock4
  -GOLD-   22720 7213D 1   1.00000     0.00000
 Structure written by MMmdl.
 52 54  0  0  0  0  0  0  0  0  3 V2000
  145.9056  138.0356  157.3186 C   0  0  0  0  0  0  0  0  0  0  0  0
  146.4374  138.7890  156.0974 C   0  0  0  0  0  0  0  0  0  0  0  0
  146.1010  139.9638  155.9512 O   0  0  0  0  0  0  0  0  0  0  0  0
  147.2513  138.1481  155.2246 N   0  0  0  0  0  0  0  0  0  0  0  0
  147.6919  136.7637  155.4191 C   0  0  0  0  0  0  0  0  0  0  0  0
  149.2115  136.7461  155.6640 C   0  0  0  0  0  0  0  0  0  0  0  0
  149.9482  137.4229  154.5634 N   0  3  0  0  0  0  0  0  0  0  0  0
  151.4198  137.3865  154.7668 C   0  0  0  0  0  0  0  0  0  0  0  0
  151.9925  138.7327  155.2554 C   0  0  2  0  0  0  0  0  0  0  0  0
  153.3963  138.6099  155.3754 O   0  0  0  0  0  0  0  0  0  0  0  0
  151.3928  139.1473  156.6137 C   0  0  0  0  0  0  0  0  0  0  0  0
  150.9819  140.5588  156.6524 N   0  0  0  0  0  0  0  0  0  0  0  0
  150.2029  141.2594  155.7833 C   0  0  0  0  0  0  0  0  0  0  0  0
  150.1049  142.5335  156.2534 N   0  3  0  0  0  0  0  0  0  0  0  0
  150.8298  142.6495  157.4411 C   0  0  0  0  0  0  0  0  0  0  0  0
  151.0299  143.7381  158.2813 C   0  0  0  0  0  0  0  0  0  0  0  0
  151.8327  143.5308  159.4254 C   0  0  0  0  0  0  0  0  0  0  0  0
  152.0769  144.7021  160.3617 C   0  0  0  0  0  0  0  0  0  0  0  0
  152.4010  142.2595  159.6978 C   0  0  0  0  0  0  0  0  0  0  0  0
  153.2613  142.0477  160.9320 C   0  0  0  0  0  0  0  0  0  0  0  0
  152.1841  141.1641  158.8313 C   0  0  0  0  0  0  0  0  0  0  0  0
  151.3934  141.3857  157.7057 C   0  0  0  0  0  0  0  0  0  0  0  0
  149.4173  138.7836  154.2725 C   0  0  0  0  0  0  0  0  0  0  0  0
  147.8934  138.7556  154.0546 C   0  0  0  0  0  0  0  0  0  0  0  0
  145.3114  137.1737  157.0141 H   0  0  0  0  0  0  0  0  0  0  0  0
  145.2672  138.6830  157.9211 H   0  0  0  0  0  0  0  0  0  0  0  0
  146.7260  137.6968  157.9520 H   0  0  0  0  0  0  0  0  0  0  0  0
  147.1821  136.2660  156.2452 H   0  0  0  0  0  0  0  0  0  0  0  0
  147.4487  136.1834  154.5277 H   0  0  0  0  0  0  0  0  0  0  0  0
  149.4400  137.2412  156.6095 H   0  0  0  0  0  0  0  0  0  0  0  0
  149.5520  135.7139  155.7546 H   0  0  0  0  0  0  0  0  0  0  0  0
  151.6663  136.5877  155.4678 H   0  0  0  0  0  0  0  0  0  0  0  0
  151.9092  137.1267  153.8267 H   0  0  0  0  0  0  0  0  0  0  0  0
  151.7808  139.5211  154.5337 H   0  0  0  0  0  0  0  0  0  0  0  0
  153.5900  137.8053  155.8323 H   0  0  0  0  0  0  0  0  0  0  0  0
  150.5025  138.5523  156.8209 H   0  0  0  0  0  0  0  0  0  0  0  0
  152.0855  138.9504  157.4325 H   0  0  0  0  0  0  0  0  0  0  0  0
  149.7429  140.8748  154.8843 H   0  0  0  0  0  0  0  0  0  0  0  0
  150.5929  144.7030  158.0690 H   0  0  0  0  0  0  0  0  0  0  0  0
  151.6676  144.4931  161.3503 H   0  0  0  0  0  0  0  0  0  0  0  0
  151.6069  145.6138  159.9918 H   0  0  0  0  0  0  0  0  0  0  0  0
  153.1448  144.8972  160.4627 H   0  0  0  0  0  0  0  0  0  0  0  0
  153.5738  141.0074  161.0275 H   0  0  0  0  0  0  0  0  0  0  0  0
  152.7103  142.3120  161.8349 H   0  0  0  0  0  0  0  0  0  0  0  0
  154.1600  142.6630  160.8807 H   0  0  0  0  0  0  0  0  0  0  0  0
  152.6220  140.1993  159.0391 H   0  0  0  0  0  0  0  0  0  0  0  0
  149.6579  139.4516  155.1014 H   0  0  0  0  0  0  0  0  0  0  0  0
  149.8936  139.1966  153.3843 H   0  0  0  0  0  0  0  0  0  0  0  0
  147.6556  138.1595  153.1722 H   0  0  0  0  0  0  0  0  0  0  0  0
  147.5383  139.7604  153.8303 H   0  0  0  0  0  0  0  0  0  0  0  0
  149.7693  136.8661  153.7392 H   0  0  0  0  0  0  0  0  0  0  0  0
  149.5789  143.2679  155.7967 H   0  0  0  0  0  0  0  0  0  0  0  0
  1  2  1  0  0  0  0
  1 25  1  0  0  0  0
  1 26  1  0  0  0  0
  1 27  1  0  0  0  0
  2  3  2  0  0  0  0
  2  4  1  0  0  0  0
  4 24  1  0  0  0  0
  4  5  1  0  0  0  0
  5  6  1  0  0  0  0
  5 28  1  0  0  0  0
  5 29  1  0  0  0  0
  6  7  1  0  0  0  0
  6 30  1  0  0  0  0
  6 31  1  0  0  0  0
  7  8  1  0  0  0  0
  7 23  1  0  0  0  0
  7 51  1  0  0  0  0
  8  9  1  0  0  0  0
  8 32  1  0  0  0  0
  8 33  1  0  0  0  0
  9 10  1  0  0  0  0
  9 11  1  0  0  0  0
  9 34  1  0  0  0  0
 10 35  1  0  0  0  0
 11 12  1  0  0  0  0
 11 36  1  0  0  0  0
 11 37  1  0  0  0  0
 12 22  1  0  0  0  0
 12 13  1  0  0  0  0
 13 14  2  0  0  0  0
 13 38  1  0  0  0  0
 14 15  1  0  0  0  0
 14 52  1  0  0  0  0
 15 22  2  0  0  0  0
 15 16  1  0  0  0  0
 16 17  2  0  0  0  0
 16 39  1  0  0  0  0
 17 18  1  0  0  0  0
 17 19  1  0  0  0  0
 18 40  1  0  0  0  0
 18 41  1  0  0  0  0
 18 42  1  0  0  0  0
 19 20  1  0  0  0  0
 19 21  2  0  0  0  0
 20 43  1  0  0  0  0
 20 44  1  0  0  0  0
 20 45  1  0  0  0  0
 21 22  1  0  0  0  0
 21 46  1  0  0  0  0
 23 24  1  0  0  0  0
 23 47  1  0  0  0  0
 23 48  1  0  0  0  0
 24 49  1  0  0  0  0
 24 50  1  0  0  0  0
M  CHG  1   7   1
M  CHG  1  14   1
M  END
> <s_m_source_file>
AV-unprocessed.smi

> <i_m_source_file_index>
1633

> <i_lp_mmshare_version>
43012

> <i_f3d_flags>
0

> <s_epik_input>
W0NIM11DKD1PKU4xW0NIMl1bQ0gyXU4oW0NIMl1bQ0gyXTEpW0NIMl1bQ0BIXShbT0hdKVtDSDJdbihbY0hdbjIpYyhjMjMpW2NIXWMoW0NIM10pYyhbY0hdMylbQ0gzXQ==

> <s_epik_cmdline>
J2VwaWtfcHl0aG9uJywgJy1waCcsICc3LjAnLCAnLXRuJywgJzgnLCAnLW1hJywgJzIwMCcsICctbWV0YWxfYmluZGluZycsICctaW1hZScsICc8aW5maWxlLm1hZT4nLCAnLW9tYWUnLCAnPG91dGZpbGUubWFlPic=

> <r_epik_Ionization_Penalty>
1.18448

> <r_epik_Ionization_Penalty_Charging>
1.18447

> <r_epik_Ionization_Penalty_Neutral>
4.53746e-06

> <r_epik_State_Penalty>
1.28566

> <r_epik_Charging_Adjusted_Penalty>
2.47013

> <i_epik_Tot_Q>
2

> <i_epik_Tot_abs_Q>
2

> <r_epik_Metal_State_Penalty>
5.30076

> <b_epik_Metal_Only>
0

> <s_lp_Force_Field>
OPLS_2005

> <r_lp_Energy>
52.9318

> <b_lp_Chiralities_Consistent>
1

> <s_lp_Variant>
AV-unprocessed.smi:1633-3

> <Gold.Version>
5.8.1

> <Gold.Id.Protein>
6NUR|6NUR_protein|mol2

> <Gold.PLP.Fitness>
58.6663

> <Gold.PLP.PLP>
-46.2430

> <Gold.PLP.part.hbond>
-2.9054

> <Gold.PLP.part.metal>
0.0000

> <Gold.PLP.part.buried>
-5.8104

> <Gold.PLP.part.nonpolar>
-39.1918

> <Gold.PLP.part.repulsive>
0.1932

> <Gold.PLP.ligand.clash>
0.0000

> <Gold.PLP.ligand.torsion>
1.2780

> <Gold.PLP.Chemscore.Hbond>
4.9825

> <Gold.PLP.Chemscore.CHOScore>
0.0000

> <Gold.PLP.Chemscore.Metal>
0.0000

> <Gold.Chemscore.Hbonds>
donor molecule, donor type, donor heavy atom, donor atom, acceptor molecule, acceptor atom, score
      L1  H     7    51       P1  7948  1.59
      L1  H    14    52       P1  8028  2.00
      P1  H  7997  8008       L1    10  0.91

> <Gold.PLP.Chemscore.Internal.Correction>
0.0318

> <Gold.Rescore>
     Score         DG    S(hbond)    S(metal)    S(lipo)     H(rot)  DE(clash)    DE(int)     intcor
     20.73     -21.95       2.61        0.00     114.74       2.22       0.10       1.11       ----

> <Gold.Chemscore.Fitness>
20.7337

> <Gold.Chemscore.DG>
-21.9495

> <Gold.Chemscore.ZeroCoef>
-5.4800

> <Gold.Chemscore.Hbond>
2.6116

> <Gold.Chemscore.Metal>
0.0000

> <Gold.Chemscore.Lipo>
114.7369

> <Gold.Chemscore.Internal_Hbond>
0.0000

> <Gold.Chemscore.DEClash>
0.1024

> <Gold.Chemscore.DEInternal>
1.1133

> <Gold.Chemscore.Rot>
2.2178

> <Gold.Chemscore.Internal.Correction>
   9.000000E+99

> <Gold.Chemscore.Hbonds>
donor molecule, donor type, donor heavy atom, donor atom, acceptor molecule, acceptor atom, score
      L1  H     7    51       P1  7948  0.47
      L1  H    14    52       P1  8028  0.97
      P1  H  7997  8008       L1    10  0.79

> <Gold.Chemscore.Hbond.Weighted>
-8.7228

> <Gold.Chemscore.Metal.Weighted>
-0.0000

> <Gold.Chemscore.Lipo.Weighted>
-13.4242

> <Gold.Chemscore.Internal_Hbond.Weighted>
0.0000

> <Gold.Chemscore.DEClash.Weighted>
0.1024

> <Gold.Chemscore.DEInternal.Weighted>
1.1133

> <Gold.Chemscore.Rot.Weighted>
5.6775

> <Gold.Chemscore.Internal.Correction.Weighted>
   9.000000E+99

> <Gold.Protein.RotatedTorsions>
[ 6907 6896 6895 6894 ] final  -76.82 input  -60.11 | X-H torsion
[ 7974 7965 7964 7962 ] final  155.13 input  175.53 | X-H torsion
[ 8008 7997 7996 7995 ] final  -16.57 input   59.86 | X-H torsion
[ 10167 10162 10161 10158 ] final  -49.91 input  -65.29 | X-H torsion
[ 10718 10713 10712 10709 ] final  -92.90 input   66.30 | X-H torsion
[ 10763 10752 10751 10750 ] final  -37.23 input  -60.55 | X-H torsion
[ 11005 11000 10999 10996 ] final   37.98 input  -57.11 | X-H torsion

> <Gold.Protein.ActiveResidues>
 VAL166  LYS551  ARG553  GLY616  TRP617  ASP618  TYR619  PRO620  LYS621  CYS622 
 ASP623  PHE694  ASN695  SER759  ASP760  ASP761  ALA762  ILE779  LEU786  VAL792 
 PHE793  MET794  SER795  GLU796  ALA797  LYS798  CYS799  TRP800  GLU811  SER814 

> <Gold.Protein.RotatedAtoms>
  150.7016  134.4514  159.5337 H   0  0  0  0  0  0  0  0  0  0  0  0  # atno 6907 bound_to 6896
  152.2206  134.8413  160.0495 H   0  0  0  0  0  0  0  0  0  0  0  0  # atno 6908 bound_to 6896
  151.9265  133.3564  159.3952 H   0  0  0  0  0  0  0  0  0  0  0  0  # atno 6909 bound_to 6896
  144.8044  139.7027  143.6168 H   0  0  0  0  0  0  0  0  0  0  0  0  # atno 7974 bound_to 7965
  154.5043  140.2166  155.9282 H   0  0  0  0  0  0  0  0  0  0  0  0  # atno 8008 bound_to 7997
  156.1474  140.3168  155.8559 H   0  0  0  0  0  0  0  0  0  0  0  0  # atno 8009 bound_to 7997
  155.4005  140.0484  157.3027 H   0  0  0  0  0  0  0  0  0  0  0  0  # atno 8010 bound_to 7997
  140.6663  143.2678  151.4284 H   0  0  0  0  0  0  0  0  0  0  0  0  # atno 10167 bound_to 10162
  156.0007  130.5005  150.5695 H   0  0  0  0  0  0  0  0  0  0  0  0  # atno 10718 bound_to 10713
  153.8929  135.6810  153.4759 H   0  0  0  0  0  0  0  0  0  0  0  0  # atno 10763 bound_to 10752
  153.1171  135.4756  154.9132 H   0  0  0  0  0  0  0  0  0  0  0  0  # atno 10764 bound_to 10752
  154.7614  135.3211  154.8325 H   0  0  0  0  0  0  0  0  0  0  0  0  # atno 10765 bound_to 10752
  140.2172  134.3684  155.8021 H   0  0  0  0  0  0  0  0  0  0  0  0  # atno 11005 bound_to 11000
  146.2333  139.5855  142.9541 LP  0  0  0  0  0  0  0  0  0  0  0  0  # atno 17320 bound_to 7965
  145.5474  141.0416  143.2297 LP  0  0  0  0  0  0  0  0  0  0  0  0  # atno 17321 bound_to 7965
  139.5913  144.1494  152.2091 LP  0  0  0  0  0  0  0  0  0  0  0  0  # atno 17342 bound_to 10162
  140.0849  144.5669  150.7096 LP  0  0  0  0  0  0  0  0  0  0  0  0  # atno 17343 bound_to 10162
  157.3592  131.0747  151.1650 LP  0  0  0  0  0  0  0  0  0  0  0  0  # atno 17370 bound_to 10713
  157.2440  130.6583  149.5902 LP  0  0  0  0  0  0  0  0  0  0  0  0  # atno 17371 bound_to 10713
  141.2224  133.7174  156.8515 LP  0  0  0  0  0  0  0  0  0  0  0  0  # atno 17394 bound_to 11000
  140.1888  134.8980  157.3036 LP  0  0  0  0  0  0  0  0  0  0  0  0  # atno 17395 bound_to 11000

$$$$
