AV-unprocessed.smi:1856|AV-procd|sdf|7536|dock5
  -GOLD-   22720 9253D 1   1.00000     0.00000
 Structure written by MMmdl.
 44 45  0  0  0  0  0  0  0  0  1 V2000
  154.3952  136.8823  164.3606 C   0  0  0  0  0  0  0  0  0  0  0  0
  153.7452  137.3260  163.0413 C   0  0  0  0  0  0  0  0  0  0  0  0
  154.5642  137.0010  161.7758 C   0  0  0  0  0  0  0  0  0  0  0  0
  153.7590  137.0820  160.4740 C   0  0  0  0  0  0  0  0  0  0  0  0
  153.5756  136.0764  159.7882 O   0  0  0  0  0  0  0  0  0  0  0  0
  153.2689  138.2891  160.1497 N   0  0  0  0  0  0  0  0  0  0  0  0
  152.4910  138.5864  158.9491 C   0  0  1  0  0  0  0  0  0  0  0  0
  151.1177  137.9046  159.0194 C   0  0  0  0  0  0  0  0  0  0  0  0
  152.3752  140.0847  158.8126 C   0  0  0  0  0  0  0  0  0  0  0  0
  152.9946  140.9169  159.6543 N   0  0  0  0  0  0  0  0  0  0  0  0
  152.6314  142.1612  159.1815 C   0  0  0  0  0  0  0  0  0  0  0  0
  152.9611  143.4529  159.6503 C   0  0  0  0  0  0  0  0  0  0  0  0
  152.4605  144.5983  158.9976 C   0  0  0  0  0  0  0  0  0  0  0  0
  151.6250  144.4684  157.8696 C   0  0  0  0  0  0  0  0  0  0  0  0
  151.2863  143.1904  157.3854 C   0  0  0  0  0  0  0  0  0  0  0  0
  151.7891  142.0496  158.0402 C   0  0  0  0  0  0  0  0  0  0  0  0
  151.6504  140.6805  157.8293 N   0  0  0  0  0  0  0  0  0  0  0  0
  150.8804  140.0561  156.7614 C   0  0  0  0  0  0  0  0  0  0  0  0
  151.7129  139.0689  155.9195 C   0  0  1  0  0  0  0  0  0  0  0  0
  151.0628  138.6906  154.5792 C   0  0  0  0  0  0  0  0  0  0  0  0
  152.9722  139.6525  155.6618 O   0  0  0  0  0  0  0  0  0  0  0  0
  153.7154  137.0451  165.1972 H   0  0  0  0  0  0  0  0  0  0  0  0
  155.3074  137.4384  164.5735 H   0  0  0  0  0  0  0  0  0  0  0  0
  154.6446  135.8212  164.3395 H   0  0  0  0  0  0  0  0  0  0  0  0
  152.7758  136.8339  162.9560 H   0  0  0  0  0  0  0  0  0  0  0  0
  153.5311  138.3949  163.0821 H   0  0  0  0  0  0  0  0  0  0  0  0
  155.4219  137.6704  161.7015 H   0  0  0  0  0  0  0  0  0  0  0  0
  154.9755  135.9951  161.8742 H   0  0  0  0  0  0  0  0  0  0  0  0
  153.4666  139.0632  160.7667 H   0  0  0  0  0  0  0  0  0  0  0  0
  153.0141  138.1641  158.0925 H   0  0  0  0  0  0  0  0  0  0  0  0
  150.5337  138.1117  158.1222 H   0  0  0  0  0  0  0  0  0  0  0  0
  150.5414  138.2517  159.8777 H   0  0  0  0  0  0  0  0  0  0  0  0
  151.2213  136.8223  159.1033 H   0  0  0  0  0  0  0  0  0  0  0  0
  153.5993  143.5628  160.5145 H   0  0  0  0  0  0  0  0  0  0  0  0
  152.7178  145.5809  159.3651 H   0  0  0  0  0  0  0  0  0  0  0  0
  151.2443  145.3505  157.3760 H   0  0  0  0  0  0  0  0  0  0  0  0
  150.6448  143.0905  156.5227 H   0  0  0  0  0  0  0  0  0  0  0  0
  150.0325  139.5365  157.2087 H   0  0  0  0  0  0  0  0  0  0  0  0
  150.4453  140.8346  156.1344 H   0  0  0  0  0  0  0  0  0  0  0  0
  151.8870  138.1583  156.4928 H   0  0  0  0  0  0  0  0  0  0  0  0
  150.1181  138.1672  154.7283 H   0  0  0  0  0  0  0  0  0  0  0  0
  151.7106  138.0297  154.0021 H   0  0  0  0  0  0  0  0  0  0  0  0
  150.8611  139.5741  153.9726 H   0  0  0  0  0  0  0  0  0  0  0  0
  153.0325  139.8435  154.7381 H   0  0  0  0  0  0  0  0  0  0  0  0
  1  2  1  0  0  0  0
  1 22  1  0  0  0  0
  1 23  1  0  0  0  0
  1 24  1  0  0  0  0
  2  3  1  0  0  0  0
  2 25  1  0  0  0  0
  2 26  1  0  0  0  0
  3  4  1  0  0  0  0
  3 27  1  0  0  0  0
  3 28  1  0  0  0  0
  4  5  2  0  0  0  0
  4  6  1  0  0  0  0
  6  7  1  0  0  0  0
  6 29  1  0  0  0  0
  7  8  1  0  0  0  0
  7  9  1  0  0  0  0
  7 30  1  0  0  0  0
  8 31  1  0  0  0  0
  8 32  1  0  0  0  0
  8 33  1  0  0  0  0
  9 17  1  0  0  0  0
  9 10  2  0  0  0  0
 10 11  1  0  0  0  0
 11 16  2  0  0  0  0
 11 12  1  0  0  0  0
 12 13  2  0  0  0  0
 12 34  1  0  0  0  0
 13 14  1  0  0  0  0
 13 35  1  0  0  0  0
 14 15  2  0  0  0  0
 14 36  1  0  0  0  0
 15 16  1  0  0  0  0
 15 37  1  0  0  0  0
 16 17  1  0  0  0  0
 17 18  1  0  0  0  0
 18 19  1  0  0  0  0
 18 38  1  0  0  0  0
 18 39  1  0  0  0  0
 19 20  1  0  0  0  0
 19 21  1  0  0  0  0
 19 40  1  0  0  0  0
 20 41  1  0  0  0  0
 20 42  1  0  0  0  0
 20 43  1  0  0  0  0
 21 44  1  0  0  0  0
M  END
> <s_m_source_file>
AV-unprocessed.smi

> <i_m_source_file_index>
1856

> <i_lp_mmshare_version>
43012

> <i_f3d_flags>
0

> <s_epik_input>
W0NIM11bQ0gyXVtDSDJdQyg9TylbTkhdW0NASF0oW0NIM10pYyhuMSluKFtDSDJdW0NASF0oW0NIM10pW09IXSljKGMxMilbY0hdW2NIXVtjSF1bY0hdMg==

> <s_epik_cmdline>
J2VwaWtfcHl0aG9uJywgJy1waCcsICc3LjAnLCAnLXRuJywgJzgnLCAnLW1hJywgJzIwMCcsICctbWV0YWxfYmluZGluZycsICctaW1hZScsICc8aW5maWxlLm1hZT4nLCAnLW9tYWUnLCAnPG91dGZpbGUubWFlPic=

> <r_epik_Ionization_Penalty>
0.134222

> <r_epik_Ionization_Penalty_Charging>
0

> <r_epik_Ionization_Penalty_Neutral>
0.134222

> <r_epik_State_Penalty>
0.123585

> <r_epik_Charging_Adjusted_Penalty>
0.123585

> <i_epik_Tot_Q>
0

> <i_epik_Tot_abs_Q>
0

> <r_epik_Metal_State_Penalty>
0.100548

> <b_epik_Metal_Only>
0

> <s_lp_Force_Field>
OPLS_2005

> <r_lp_Energy>
2.58859

> <b_lp_Chiralities_Consistent>
1

> <s_lp_Variant>
AV-unprocessed.smi:1856-4

> <Gold.Version>
5.8.1

> <Gold.Id.Protein>
6NUR|6NUR_protein|mol2

> <Gold.PLP.Fitness>
54.1374

> <Gold.PLP.PLP>
-48.8558

> <Gold.PLP.part.hbond>
-2.0000

> <Gold.PLP.part.metal>
0.0000

> <Gold.PLP.part.buried>
-6.0251

> <Gold.PLP.part.nonpolar>
-40.5033

> <Gold.PLP.part.repulsive>
0.0758

> <Gold.PLP.ligand.clash>
0.0000

> <Gold.PLP.ligand.torsion>
0.3764

> <Gold.PLP.Chemscore.Hbond>
2.0000

> <Gold.PLP.Chemscore.CHOScore>
0.0000

> <Gold.PLP.Chemscore.Metal>
0.0000

> <Gold.Chemscore.Hbonds>
donor molecule, donor type, donor heavy atom, donor atom, acceptor molecule, acceptor atom, score
      P1  H  6896  6907       L1     5  1.00
      P1  H  7997  8009       L1    21  1.00

> <Gold.PLP.Chemscore.Internal.Correction>
0.0344

> <Gold.Rescore>
     Score         DG    S(hbond)    S(metal)    S(lipo)     H(rot)  DE(clash)    DE(int)     intcor
     19.70     -20.00       1.97        0.00     121.36       2.45       0.01       0.29       ----

> <Gold.Chemscore.Fitness>
19.6963

> <Gold.Chemscore.DG>
-19.9968

> <Gold.Chemscore.ZeroCoef>
-5.4800

> <Gold.Chemscore.Hbond>
1.9699

> <Gold.Chemscore.Metal>
0.0000

> <Gold.Chemscore.Lipo>
121.3555

> <Gold.Chemscore.Internal_Hbond>
0.0000

> <Gold.Chemscore.DEClash>
0.0073

> <Gold.Chemscore.DEInternal>
0.2931

> <Gold.Chemscore.Rot>
2.4459

> <Gold.Chemscore.Internal.Correction>
   9.000000E+99

> <Gold.Chemscore.Hbonds>
donor molecule, donor type, donor heavy atom, donor atom, acceptor molecule, acceptor atom, score
      P1  H  6896  6907       L1     5  0.99
      P1  H  7997  8009       L1    21  0.54

> <Gold.Chemscore.Hbond.Weighted>
-6.5796

> <Gold.Chemscore.Metal.Weighted>
-0.0000

> <Gold.Chemscore.Lipo.Weighted>
-14.1986

> <Gold.Chemscore.Internal_Hbond.Weighted>
0.0000

> <Gold.Chemscore.DEClash.Weighted>
0.0073

> <Gold.Chemscore.DEInternal.Weighted>
0.2931

> <Gold.Chemscore.Rot.Weighted>
6.2614

> <Gold.Chemscore.Internal.Correction.Weighted>
   9.000000E+99

> <Gold.Protein.RotatedTorsions>
[ 6907 6896 6895 6894 ] final   61.89 input  -60.11 | X-H torsion
[ 7974 7965 7964 7962 ] final  -73.28 input  175.53 | X-H torsion
[ 8008 7997 7996 7995 ] final -162.22 input   59.86 | X-H torsion
[ 10167 10162 10161 10158 ] final  -39.28 input  -65.29 | X-H torsion
[ 10718 10713 10712 10709 ] final  -43.23 input   66.30 | X-H torsion
[ 10763 10752 10751 10750 ] final   67.34 input  -60.55 | X-H torsion
[ 11005 11000 10999 10996 ] final -147.03 input  -57.11 | X-H torsion

> <Gold.Protein.ActiveResidues>
 VAL166  LYS551  ARG553  GLY616  TRP617  ASP618  TYR619  PRO620  LYS621  CYS622 
 ASP623  PHE694  ASN695  SER759  ASP760  ASP761  ALA762  ILE779  LEU786  VAL792 
 PHE793  MET794  SER795  GLU796  ALA797  LYS798  CYS799  TRP800  GLU811  SER814 

> <Gold.Protein.RotatedAtoms>
  152.4127  134.6096  160.0021 H   0  0  0  0  0  0  0  0  0  0  0  0  # atno 6907 bound_to 6896
  151.6269  133.3329  159.3108 H   0  0  0  0  0  0  0  0  0  0  0  0  # atno 6908 bound_to 6896
  150.8017  134.7155  159.6673 H   0  0  0  0  0  0  0  0  0  0  0  0  # atno 6909 bound_to 6896
  145.6542  140.9273  143.0968 H   0  0  0  0  0  0  0  0  0  0  0  0  # atno 7974 bound_to 7965
  155.8037  140.0895  157.1943 H   0  0  0  0  0  0  0  0  0  0  0  0  # atno 8008 bound_to 7997
  154.3981  140.1467  156.3363 H   0  0  0  0  0  0  0  0  0  0  0  0  # atno 8009 bound_to 7997
  155.8437  140.3437  155.5651 H   0  0  0  0  0  0  0  0  0  0  0  0  # atno 8010 bound_to 7997
  140.7068  143.3224  151.2760 H   0  0  0  0  0  0  0  0  0  0  0  0  # atno 10167 bound_to 10162
  156.2512  130.4188  149.8648 H   0  0  0  0  0  0  0  0  0  0  0  0  # atno 10718 bound_to 10713
  153.0181  135.5287  154.6964 H   0  0  0  0  0  0  0  0  0  0  0  0  # atno 10763 bound_to 10752
  154.6084  135.2875  155.0461 H   0  0  0  0  0  0  0  0  0  0  0  0  # atno 10764 bound_to 10752
  154.1492  135.6566  153.5012 H   0  0  0  0  0  0  0  0  0  0  0  0  # atno 10765 bound_to 10752
  140.7758  134.3136  157.5061 H   0  0  0  0  0  0  0  0  0  0  0  0  # atno 11005 bound_to 11000
  144.7111  139.8366  143.7414 LP  0  0  0  0  0  0  0  0  0  0  0  0  # atno 17320 bound_to 7965
  146.1178  139.4192  143.0247 LP  0  0  0  0  0  0  0  0  0  0  0  0  # atno 17321 bound_to 7965
  139.6682  144.0067  152.2736 LP  0  0  0  0  0  0  0  0  0  0  0  0  # atno 17342 bound_to 10162
  139.9657  144.6528  150.8037 LP  0  0  0  0  0  0  0  0  0  0  0  0  # atno 17343 bound_to 10162
  156.6196  130.8620  151.3472 LP  0  0  0  0  0  0  0  0  0  0  0  0  # atno 17370 bound_to 10713
  157.7215  130.9565  150.1458 LP  0  0  0  0  0  0  0  0  0  0  0  0  # atno 17371 bound_to 10713
  139.8749  134.9289  156.3462 LP  0  0  0  0  0  0  0  0  0  0  0  0  # atno 17394 bound_to 11000
  140.9530  133.7439  156.0297 LP  0  0  0  0  0  0  0  0  0  0  0  0  # atno 17395 bound_to 11000

$$$$
