AV-unprocessed.smi:725|AV-procd|sdf|3508|dock5
  -GOLD-   22720 0503D 1   1.00000     0.00000
 Structure written by MMmdl.
 47 48  0  0  0  0  0  0  0  0  1 V2000
  141.4707  134.8016  153.1705 C   0  0  0  0  0  0  0  0  0  0  0  0
  142.9489  134.9040  152.7789 C   0  0  0  0  0  0  0  0  0  0  0  0
  143.4198  136.3654  152.6454 C   0  0  0  0  0  0  0  0  0  0  0  0
  144.9524  136.5674  152.5228 C   0  0  1  0  0  0  0  0  0  0  0  0
  145.5279  135.9518  151.2315 C   0  0  0  0  0  0  0  0  0  0  0  0
  145.2115  137.9572  152.4791 O   0  0  0  0  0  0  0  0  0  0  0  0
  145.6879  136.0450  153.7817 C   0  0  0  0  0  0  0  0  0  0  0  0
  147.0305  136.6007  153.9304 N   0  0  0  0  0  0  0  0  0  0  0  0
  147.4789  137.2856  154.9944 C   0  0  0  0  0  0  0  0  0  0  0  0
  146.7993  137.5092  155.9965 O   0  0  0  0  0  0  0  0  0  0  0  0
  148.9093  137.7481  154.8977 C   0  0  0  0  0  0  0  0  0  0  0  0
  149.9517  136.7963  154.9898 C   0  0  0  0  0  0  0  0  0  0  0  0
  151.2874  137.2122  154.8508 C   0  0  0  0  0  0  0  0  0  0  0  0
  151.5374  138.5744  154.6146 C   0  0  0  0  0  0  0  0  0  0  0  0
  150.5597  139.4974  154.5207 N   0  0  0  0  0  0  0  0  0  0  0  0
  149.2672  139.1083  154.6568 C   0  0  0  0  0  0  0  0  0  0  0  0
  148.2943  140.1260  154.5911 N   0  0  0  0  0  0  0  0  0  0  0  0
  148.7122  141.4280  154.0823 C   0  0  0  0  0  0  0  0  0  0  0  0
  147.4778  142.3153  153.8478 C   0  0  0  0  0  0  0  0  0  0  0  0
  146.7252  142.4159  155.0537 O   0  0  0  0  0  0  0  0  0  0  0  0
  146.2597  141.1463  155.5034 C   0  0  0  0  0  0  0  0  0  0  0  0
  147.4588  140.2240  155.7816 C   0  0  0  0  0  0  0  0  0  0  0  0
  141.1646  133.7593  153.2621 H   0  0  0  0  0  0  0  0  0  0  0  0
  140.8315  135.2707  152.4221 H   0  0  0  0  0  0  0  0  0  0  0  0
  141.2819  135.2890  154.1273 H   0  0  0  0  0  0  0  0  0  0  0  0
  143.5439  134.3849  153.5302 H   0  0  0  0  0  0  0  0  0  0  0  0
  143.1021  134.3725  151.8394 H   0  0  0  0  0  0  0  0  0  0  0  0
  142.9349  136.8094  151.7744 H   0  0  0  0  0  0  0  0  0  0  0  0
  143.0486  136.9221  153.5067 H   0  0  0  0  0  0  0  0  0  0  0  0
  145.2831  134.8924  151.1517 H   0  0  0  0  0  0  0  0  0  0  0  0
  146.6144  136.0413  151.2021 H   0  0  0  0  0  0  0  0  0  0  0  0
  145.1424  136.4440  150.3384 H   0  0  0  0  0  0  0  0  0  0  0  0
  144.4037  138.4187  152.6454 H   0  0  0  0  0  0  0  0  0  0  0  0
  145.0942  136.2335  154.6783 H   0  0  0  0  0  0  0  0  0  0  0  0
  145.7955  134.9613  153.7226 H   0  0  0  0  0  0  0  0  0  0  0  0
  147.6678  136.4558  153.1610 H   0  0  0  0  0  0  0  0  0  0  0  0
  149.7364  135.7501  155.1543 H   0  0  0  0  0  0  0  0  0  0  0  0
  152.0993  136.5030  154.9158 H   0  0  0  0  0  0  0  0  0  0  0  0
  152.5493  138.9334  154.4979 H   0  0  0  0  0  0  0  0  0  0  0  0
  149.3801  141.9079  154.7989 H   0  0  0  0  0  0  0  0  0  0  0  0
  149.2664  141.3032  153.1513 H   0  0  0  0  0  0  0  0  0  0  0  0
  147.7859  143.3131  153.5357 H   0  0  0  0  0  0  0  0  0  0  0  0
  146.8534  141.9096  153.0500 H   0  0  0  0  0  0  0  0  0  0  0  0
  145.6720  141.2839  156.4109 H   0  0  0  0  0  0  0  0  0  0  0  0
  145.5966  140.7051  154.7576 H   0  0  0  0  0  0  0  0  0  0  0  0
  147.1059  139.2401  156.0911 H   0  0  0  0  0  0  0  0  0  0  0  0
  148.0548  140.6221  156.6037 H   0  0  0  0  0  0  0  0  0  0  0  0
  1  2  1  0  0  0  0
  1 23  1  0  0  0  0
  1 24  1  0  0  0  0
  1 25  1  0  0  0  0
  2  3  1  0  0  0  0
  2 26  1  0  0  0  0
  2 27  1  0  0  0  0
  3  4  1  0  0  0  0
  3 28  1  0  0  0  0
  3 29  1  0  0  0  0
  4  5  1  0  0  0  0
  4  6  1  0  0  0  0
  4  7  1  0  0  0  0
  5 30  1  0  0  0  0
  5 31  1  0  0  0  0
  5 32  1  0  0  0  0
  6 33  1  0  0  0  0
  7  8  1  0  0  0  0
  7 34  1  0  0  0  0
  7 35  1  0  0  0  0
  8  9  1  0  0  0  0
  8 36  1  0  0  0  0
  9 10  2  0  0  0  0
  9 11  1  0  0  0  0
 11 16  1  0  0  0  0
 11 12  2  0  0  0  0
 12 13  1  0  0  0  0
 12 37  1  0  0  0  0
 13 14  2  0  0  0  0
 13 38  1  0  0  0  0
 14 15  1  0  0  0  0
 14 39  1  0  0  0  0
 15 16  2  0  0  0  0
 16 17  1  0  0  0  0
 17 22  1  0  0  0  0
 17 18  1  0  0  0  0
 18 19  1  0  0  0  0
 18 40  1  0  0  0  0
 18 41  1  0  0  0  0
 19 20  1  0  0  0  0
 19 42  1  0  0  0  0
 19 43  1  0  0  0  0
 20 21  1  0  0  0  0
 21 22  1  0  0  0  0
 21 44  1  0  0  0  0
 21 45  1  0  0  0  0
 22 46  1  0  0  0  0
 22 47  1  0  0  0  0
M  END
> <s_m_source_file>
AV-unprocessed.smi

> <i_m_source_file_index>
725

> <i_lp_mmshare_version>
43012

> <i_f3d_flags>
0

> <s_epik_input>
W0NIM11bQ0gyXVtDSDJdW0NAQF0oW0NIM10pKFtPSF0pW0NIMl1bTkhdQyg9TyljMVtjSF1bY0hdW2NIXW5jMU4yW0NIMl1bQ0gyXU9bQ0gyXVtDSDJdMg==

> <s_epik_cmdline>
J2VwaWtfcHl0aG9uJywgJy1waCcsICc3LjAnLCAnLXRuJywgJzgnLCAnLW1hJywgJzIwMCcsICctbWV0YWxfYmluZGluZycsICctaW1hZScsICc8aW5maWxlLm1hZT4nLCAnLW9tYWUnLCAnPG91dGZpbGUubWFlPic=

> <r_lp_tautomer_probability>
1

> <r_epik_Ionization_Penalty>
1.23446e-05

> <r_epik_Ionization_Penalty_Charging>
0

> <r_epik_Ionization_Penalty_Neutral>
1.23446e-05

> <r_epik_State_Penalty>
-0

> <r_epik_Charging_Adjusted_Penalty>
0

> <i_epik_Tot_Q>
0

> <i_epik_Tot_abs_Q>
0

> <r_epik_Metal_State_Penalty>
-0

> <b_epik_Metal_Only>
0

> <s_lp_Force_Field>
OPLS_2005

> <r_lp_Energy>
26.7516

> <b_lp_Chiralities_Consistent>
1

> <s_lp_Variant>
AV-unprocessed.smi:725-1

> <Gold.Version>
5.8.1

> <Gold.Id.Protein>
6NUR|6NUR_protein|mol2

> <Gold.PLP.Fitness>
36.6254

> <Gold.PLP.PLP>
-32.7139

> <Gold.PLP.part.hbond>
-3.8813

> <Gold.PLP.part.metal>
0.0000

> <Gold.PLP.part.buried>
-5.1362

> <Gold.PLP.part.nonpolar>
-24.7764

> <Gold.PLP.part.repulsive>
0.3738

> <Gold.PLP.ligand.clash>
0.0000

> <Gold.PLP.ligand.torsion>
1.7752

> <Gold.PLP.Chemscore.Hbond>
2.3632

> <Gold.PLP.Chemscore.CHOScore>
0.0000

> <Gold.PLP.Chemscore.Metal>
0.0000

> <Gold.Chemscore.Hbonds>
donor molecule, donor type, donor heavy atom, donor atom, acceptor molecule, acceptor atom, score
      L1  H     6    33       P1 10175  0.50
      L1  H     8    36       P1  7948  1.00
      P1  H  7989  7998       L1    15  0.85

> <Gold.PLP.Chemscore.Internal.Correction>
0.3722

> <Gold.Rescore>
     Score         DG    S(hbond)    S(metal)    S(lipo)     H(rot)  DE(clash)    DE(int)     intcor
     11.40     -15.99       2.32        0.00      71.44       2.19       1.49       3.09       ----

> <Gold.Chemscore.Fitness>
11.4047

> <Gold.Chemscore.DG>
-15.9851

> <Gold.Chemscore.ZeroCoef>
-5.4800

> <Gold.Chemscore.Hbond>
2.3238

> <Gold.Chemscore.Metal>
0.0000

> <Gold.Chemscore.Lipo>
71.4404

> <Gold.Chemscore.Internal_Hbond>
0.0000

> <Gold.Chemscore.DEClash>
1.4928

> <Gold.Chemscore.DEInternal>
3.0876

> <Gold.Chemscore.Rot>
2.1933

> <Gold.Chemscore.Internal.Correction>
   9.000000E+99

> <Gold.Chemscore.Hbonds>
donor molecule, donor type, donor heavy atom, donor atom, acceptor molecule, acceptor atom, score
      L1  H     6    33       P1 10175  0.51
      L1  H     8    36       P1  7948  1.00
      P1  H  7989  7998       L1    15  0.14

> <Gold.Chemscore.Hbond.Weighted>
-7.7614

> <Gold.Chemscore.Metal.Weighted>
-0.0000

> <Gold.Chemscore.Lipo.Weighted>
-8.3585

> <Gold.Chemscore.Internal_Hbond.Weighted>
0.0000

> <Gold.Chemscore.DEClash.Weighted>
1.4928

> <Gold.Chemscore.DEInternal.Weighted>
3.0876

> <Gold.Chemscore.Rot.Weighted>
5.6149

> <Gold.Chemscore.Internal.Correction.Weighted>
   9.000000E+99

> <Gold.Protein.RotatedTorsions>
[ 6907 6896 6895 6894 ] final   86.84 input  -60.11 | X-H torsion
[ 7974 7965 7964 7962 ] final  -78.03 input  175.53 | X-H torsion
[ 8008 7997 7996 7995 ] final  -71.41 input   59.86 | X-H torsion
[ 10167 10162 10161 10158 ] final   28.99 input  -65.29 | X-H torsion
[ 10718 10713 10712 10709 ] final  -25.76 input   66.30 | X-H torsion
[ 10763 10752 10751 10750 ] final  -32.61 input  -60.55 | X-H torsion
[ 11005 11000 10999 10996 ] final  176.65 input  -57.11 | X-H torsion

> <Gold.Protein.ActiveResidues>
 VAL166  LYS551  ARG553  GLY616  TRP617  ASP618  TYR619  PRO620  LYS621  CYS622 
 ASP623  PHE694  ASN695  SER759  ASP760  ASP761  ALA762  ILE779  LEU786  VAL792 
 PHE793  MET794  SER795  GLU796  ALA797  LYS798  CYS799  TRP800  GLU811  SER814 

> <Gold.Protein.RotatedAtoms>
  152.5401  134.2368  159.8846 H   0  0  0  0  0  0  0  0  0  0  0  0  # atno 6907 bound_to 6896
  151.2338  133.4429  159.2612 H   0  0  0  0  0  0  0  0  0  0  0  0  # atno 6908 bound_to 6896
  151.0691  134.9800  159.8355 H   0  0  0  0  0  0  0  0  0  0  0  0  # atno 6909 bound_to 6896
  145.5918  140.9427  143.1288 H   0  0  0  0  0  0  0  0  0  0  0  0  # atno 7974 bound_to 7965
  154.5086  140.0816  156.7944 H   0  0  0  0  0  0  0  0  0  0  0  0  # atno 8008 bound_to 7997
  155.3837  140.3429  155.4230 H   0  0  0  0  0  0  0  0  0  0  0  0  # atno 8009 bound_to 7997
  156.1546  140.1569  156.8701 H   0  0  0  0  0  0  0  0  0  0  0  0  # atno 8010 bound_to 7997
  140.4804  144.0624  150.6264 H   0  0  0  0  0  0  0  0  0  0  0  0  # atno 10167 bound_to 10162
  156.4602  130.4502  149.6934 H   0  0  0  0  0  0  0  0  0  0  0  0  # atno 10718 bound_to 10713
  153.8165  135.6878  153.4833 H   0  0  0  0  0  0  0  0  0  0  0  0  # atno 10763 bound_to 10752
  153.1595  135.4585  154.9751 H   0  0  0  0  0  0  0  0  0  0  0  0  # atno 10764 bound_to 10752
  154.7945  135.3314  154.7641 H   0  0  0  0  0  0  0  0  0  0  0  0  # atno 10765 bound_to 10752
  140.3755  134.6992  157.4419 H   0  0  0  0  0  0  0  0  0  0  0  0  # atno 11005 bound_to 11000
  144.7348  139.7619  143.7333 LP  0  0  0  0  0  0  0  0  0  0  0  0  # atno 17320 bound_to 7965
  146.1641  139.4766  142.9969 LP  0  0  0  0  0  0  0  0  0  0  0  0  # atno 17321 bound_to 7965
  140.3864  143.2775  152.0110 LP  0  0  0  0  0  0  0  0  0  0  0  0  # atno 17342 bound_to 10162
  139.4832  144.6113  151.7429 LP  0  0  0  0  0  0  0  0  0  0  0  0  # atno 17343 bound_to 10162
  156.3725  130.7537  151.2522 LP  0  0  0  0  0  0  0  0  0  0  0  0  # atno 17370 bound_to 10713
  157.7498  131.0319  150.4202 LP  0  0  0  0  0  0  0  0  0  0  0  0  # atno 17371 bound_to 10713
  140.0519  134.6119  155.8852 LP  0  0  0  0  0  0  0  0  0  0  0  0  # atno 17394 bound_to 11000
  141.1941  133.6581  156.5578 LP  0  0  0  0  0  0  0  0  0  0  0  0  # atno 17395 bound_to 11000

$$$$
