AV-unprocessed.smi:1804|AV-procd|sdf|7295|dock5
  -GOLD-   22720 8553D 1   1.00000     0.00000
 Structure written by MMmdl.
 44 45  0  0  0  0  0  0  0  0  2 V2000
  147.2062  137.4401  155.2272 C   0  0  0  0  0  0  0  0  0  0  0  0
  147.0461  138.9098  155.0647 N   0  3  0  0  0  0  0  0  0  0  0  0
  145.6453  139.2978  155.3779 C   0  0  0  0  0  0  0  0  0  0  0  0
  147.6229  139.4890  153.7966 C   0  0  0  0  0  0  0  0  0  0  0  0
  146.7370  139.0677  152.5764 C   0  0  0  0  0  0  0  0  0  0  0  0
  146.8312  137.6477  152.2328 N   0  0  0  0  0  0  0  0  0  0  0  0
  145.7995  136.7968  152.1279 C   0  0  0  0  0  0  0  0  0  0  0  0
  144.6280  137.1248  152.3167 O   0  0  0  0  0  0  0  0  0  0  0  0
  146.2189  135.5620  151.8010 N   0  0  0  0  0  0  0  0  0  0  0  0
  145.4410  134.3877  151.6202 C   0  0  0  0  0  0  0  0  0  0  0  0
  145.9560  133.2016  151.2607 N   0  0  0  0  0  0  0  0  0  0  0  0
  144.9776  132.2218  151.1532 N   0  0  0  0  0  0  0  0  0  0  0  0
  143.7652  132.7067  151.4353 C   0  0  0  0  0  0  0  0  0  0  0  0
  143.6996  134.4086  151.8583 S   0  0  0  0  0  0  0  0  0  0  0  0
  147.6575  141.0530  153.8297 C   0  0  0  0  0  0  0  0  0  0  0  0
  148.3379  141.7411  155.0280 C   0  0  0  0  0  0  0  0  0  0  0  0
  149.8255  141.4144  155.2079 C   0  0  0  0  0  0  0  0  0  0  0  0
  150.0444  140.0128  155.7859 C   0  0  0  0  0  0  0  0  0  0  0  0
  150.0566  138.8772  154.7521 C   0  0  0  0  0  0  0  0  0  0  0  0
  149.0778  138.9714  153.5584 C   0  0  0  0  0  0  0  0  0  0  0  0
  146.5239  136.8891  154.5796 H   0  0  0  0  0  0  0  0  0  0  0  0
  146.9770  137.1549  156.2544 H   0  0  0  0  0  0  0  0  0  0  0  0
  148.2161  137.0912  155.0234 H   0  0  0  0  0  0  0  0  0  0  0  0
  144.9421  138.8856  154.6545 H   0  0  0  0  0  0  0  0  0  0  0  0
  145.4978  140.3748  155.4206 H   0  0  0  0  0  0  0  0  0  0  0  0
  145.3641  138.9127  156.3584 H   0  0  0  0  0  0  0  0  0  0  0  0
  145.6914  139.3297  152.7393 H   0  0  0  0  0  0  0  0  0  0  0  0
  147.0369  139.6134  151.6826 H   0  0  0  0  0  0  0  0  0  0  0  0
  147.7581  137.2866  152.0593 H   0  0  0  0  0  0  0  0  0  0  0  0
  147.2129  135.4445  151.6712 H   0  0  0  0  0  0  0  0  0  0  0  0
  142.9029  132.0579  151.3937 H   0  0  0  0  0  0  0  0  0  0  0  0
  148.1507  141.4242  152.9307 H   0  0  0  0  0  0  0  0  0  0  0  0
  146.6417  141.4421  153.7533 H   0  0  0  0  0  0  0  0  0  0  0  0
  148.2464  142.8182  154.8835 H   0  0  0  0  0  0  0  0  0  0  0  0
  147.8016  141.5326  155.9531 H   0  0  0  0  0  0  0  0  0  0  0  0
  150.3785  141.5509  154.2777 H   0  0  0  0  0  0  0  0  0  0  0  0
  150.2405  142.1368  155.9120 H   0  0  0  0  0  0  0  0  0  0  0  0
  150.9988  139.9946  156.3135 H   0  0  0  0  0  0  0  0  0  0  0  0
  149.2948  139.8104  156.5513 H   0  0  0  0  0  0  0  0  0  0  0  0
  151.0632  138.8001  154.3393 H   0  0  0  0  0  0  0  0  0  0  0  0
  149.9038  137.9383  155.2834 H   0  0  0  0  0  0  0  0  0  0  0  0
  149.0406  137.9796  153.1065 H   0  0  0  0  0  0  0  0  0  0  0  0
  149.5499  139.5904  152.7945 H   0  0  0  0  0  0  0  0  0  0  0  0
  147.6042  139.3188  155.8008 H   0  0  0  0  0  0  0  0  0  0  0  0
  1  2  1  0  0  0  0
  1 21  1  0  0  0  0
  1 22  1  0  0  0  0
  1 23  1  0  0  0  0
  2  3  1  0  0  0  0
  2  4  1  0  0  0  0
  2 44  1  0  0  0  0
  3 24  1  0  0  0  0
  3 25  1  0  0  0  0
  3 26  1  0  0  0  0
  4 20  1  0  0  0  0
  4  5  1  0  0  0  0
  4 15  1  0  0  0  0
  5  6  1  0  0  0  0
  5 27  1  0  0  0  0
  5 28  1  0  0  0  0
  6  7  1  0  0  0  0
  6 29  1  0  0  0  0
  7  8  2  0  0  0  0
  7  9  1  0  0  0  0
  9 10  1  0  0  0  0
  9 30  1  0  0  0  0
 10 14  1  0  0  0  0
 10 11  2  0  0  0  0
 11 12  1  0  0  0  0
 12 13  2  0  0  0  0
 13 14  1  0  0  0  0
 13 31  1  0  0  0  0
 15 16  1  0  0  0  0
 15 32  1  0  0  0  0
 15 33  1  0  0  0  0
 16 17  1  0  0  0  0
 16 34  1  0  0  0  0
 16 35  1  0  0  0  0
 17 18  1  0  0  0  0
 17 36  1  0  0  0  0
 17 37  1  0  0  0  0
 18 19  1  0  0  0  0
 18 38  1  0  0  0  0
 18 39  1  0  0  0  0
 19 20  1  0  0  0  0
 19 40  1  0  0  0  0
 19 41  1  0  0  0  0
 20 42  1  0  0  0  0
 20 43  1  0  0  0  0
M  CHG  1   2   1
M  END
> <s_m_source_file>
AV-unprocessed.smi

> <i_m_source_file_index>
1804

> <i_lp_mmshare_version>
43012

> <i_f3d_flags>
0

> <s_epik_input>
W0NIMl0xW0NIMl1bQ0gyXVtDSDJdW0NIMl1bQ0gyXUMxKE4oW0NIM10pW0NIM10pW0NIMl1bTkhdQyg9TylbTkhdYzJubltjSF1zMg==

> <s_epik_cmdline>
J2VwaWtfcHl0aG9uJywgJy1waCcsICc3LjAnLCAnLXRuJywgJzgnLCAnLW1hJywgJzIwMCcsICctbWV0YWxfYmluZGluZycsICctaW1hZScsICc8aW5maWxlLm1hZT4nLCAnLW9tYWUnLCAnPG91dGZpbGUubWFlPic=

> <r_lp_tautomer_probability>
1

> <r_epik_Ionization_Penalty>
0.00320238

> <r_epik_Ionization_Penalty_Charging>
0.00244219

> <r_epik_Ionization_Penalty_Neutral>
0.000760187

> <r_epik_State_Penalty>
-0

> <r_epik_Charging_Adjusted_Penalty>
0.00244219

> <i_epik_Tot_Q>
1

> <i_epik_Tot_abs_Q>
1

> <r_epik_Metal_State_Penalty>
0.262153

> <b_epik_Metal_Only>
0

> <s_lp_Force_Field>
OPLS_2005

> <r_lp_Energy>
34.4391

> <b_lp_Chiralities_Consistent>
1

> <s_lp_Variant>
AV-unprocessed.smi:1804-1

> <Gold.Version>
5.8.1

> <Gold.Id.Protein>
6NUR|6NUR_protein|mol2

> <Gold.PLP.Fitness>
31.8879

> <Gold.PLP.PLP>
-26.3324

> <Gold.PLP.part.hbond>
-2.0000

> <Gold.PLP.part.metal>
0.0000

> <Gold.PLP.part.buried>
-0.1093

> <Gold.PLP.part.nonpolar>
-26.0639

> <Gold.PLP.part.repulsive>
1.4733

> <Gold.PLP.ligand.clash>
0.0000

> <Gold.PLP.ligand.torsion>
0.2046

> <Gold.PLP.Chemscore.Hbond>
1.9600

> <Gold.PLP.Chemscore.CHOScore>
0.0000

> <Gold.PLP.Chemscore.Metal>
0.0000

> <Gold.Chemscore.Hbonds>
donor molecule, donor type, donor heavy atom, donor atom, acceptor molecule, acceptor atom, score
      L1  H     6    29       P1  7948  1.00
      L1  H     9    30       P1  7948  0.96

> <Gold.PLP.Chemscore.Internal.Correction>
0.0847

> <Gold.Rescore>
     Score         DG    S(hbond)    S(metal)    S(lipo)     H(rot)  DE(clash)    DE(int)     intcor
     12.80     -14.55       1.92        0.00      58.83       1.65       0.10       1.65       ----

> <Gold.Chemscore.Fitness>
12.7992

> <Gold.Chemscore.DG>
-14.5461

> <Gold.Chemscore.ZeroCoef>
-5.4800

> <Gold.Chemscore.Hbond>
1.9172

> <Gold.Chemscore.Metal>
0.0000

> <Gold.Chemscore.Lipo>
58.8314

> <Gold.Chemscore.Internal_Hbond>
0.0000

> <Gold.Chemscore.DEClash>
0.0998

> <Gold.Chemscore.DEInternal>
1.6471

> <Gold.Chemscore.Rot>
1.6487

> <Gold.Chemscore.Internal.Correction>
   9.000000E+99

> <Gold.Chemscore.Hbonds>
donor molecule, donor type, donor heavy atom, donor atom, acceptor molecule, acceptor atom, score
      L1  H     6    29       P1  7948  0.98
      L1  H     9    30       P1  7948  0.91

> <Gold.Chemscore.Hbond.Weighted>
-6.4036

> <Gold.Chemscore.Metal.Weighted>
-0.0000

> <Gold.Chemscore.Lipo.Weighted>
-6.8833

> <Gold.Chemscore.Internal_Hbond.Weighted>
0.0000

> <Gold.Chemscore.DEClash.Weighted>
0.0998

> <Gold.Chemscore.DEInternal.Weighted>
1.6471

> <Gold.Chemscore.Rot.Weighted>
4.2207

> <Gold.Chemscore.Internal.Correction.Weighted>
   9.000000E+99

> <Gold.Protein.RotatedTorsions>
[ 6907 6896 6895 6894 ] final  -51.56 input  -60.11 | X-H torsion
[ 7974 7965 7964 7962 ] final  170.93 input  175.53 | X-H torsion
[ 8008 7997 7996 7995 ] final   69.14 input   59.86 | X-H torsion
[ 10167 10162 10161 10158 ] final  -84.99 input  -65.29 | X-H torsion
[ 10718 10713 10712 10709 ] final -100.46 input   66.30 | X-H torsion
[ 10763 10752 10751 10750 ] final  -85.56 input  -60.55 | X-H torsion
[ 11005 11000 10999 10996 ] final  -98.63 input  -57.11 | X-H torsion

> <Gold.Protein.ActiveResidues>
 VAL166  LYS551  ARG553  GLY616  TRP617  ASP618  TYR619  PRO620  LYS621  CYS622 
 ASP623  PHE694  ASN695  SER759  ASP760  ASP761  ALA762  ILE779  LEU786  VAL792 
 PHE793  MET794  SER795  GLU796  ALA797  LYS798  CYS799  TRP800  GLU811  SER814 

> <Gold.Protein.RotatedAtoms>
  150.8599  134.7949  159.7074 H   0  0  0  0  0  0  0  0  0  0  0  0  # atno 6907 bound_to 6896
  152.4639  134.5116  159.9765 H   0  0  0  0  0  0  0  0  0  0  0  0  # atno 6908 bound_to 6896
  151.5222  133.3426  159.2939 H   0  0  0  0  0  0  0  0  0  0  0  0  # atno 6909 bound_to 6896
  144.7309  139.9275  143.6423 H   0  0  0  0  0  0  0  0  0  0  0  0  # atno 7974 bound_to 7965
  155.7190  140.3493  155.5007 H   0  0  0  0  0  0  0  0  0  0  0  0  # atno 8008 bound_to 7997
  155.9287  140.1080  157.1171 H   0  0  0  0  0  0  0  0  0  0  0  0  # atno 8009 bound_to 7997
  154.4081  140.1235  156.4760 H   0  0  0  0  0  0  0  0  0  0  0  0  # atno 8010 bound_to 7997
  140.4080  143.2634  151.9055 H   0  0  0  0  0  0  0  0  0  0  0  0  # atno 10167 bound_to 10162
  156.0164  130.5329  150.6821 H   0  0  0  0  0  0  0  0  0  0  0  0  # atno 10718 bound_to 10713
  154.6125  135.5480  153.7488 H   0  0  0  0  0  0  0  0  0  0  0  0  # atno 10763 bound_to 10752
  153.0201  135.6393  154.1558 H   0  0  0  0  0  0  0  0  0  0  0  0  # atno 10764 bound_to 10752
  154.1495  135.2903  155.3119 H   0  0  0  0  0  0  0  0  0  0  0  0  # atno 10765 bound_to 10752
  141.1338  133.8260  157.0865 H   0  0  0  0  0  0  0  0  0  0  0  0  # atno 11005 bound_to 11000
  146.0883  139.3872  143.0422 LP  0  0  0  0  0  0  0  0  0  0  0  0  # atno 17320 bound_to 7965
  145.7746  140.9882  143.1131 LP  0  0  0  0  0  0  0  0  0  0  0  0  # atno 17321 bound_to 7965
  139.4783  144.5566  151.8304 LP  0  0  0  0  0  0  0  0  0  0  0  0  # atno 17342 bound_to 10162
  140.4668  144.1643  150.5913 LP  0  0  0  0  0  0  0  0  0  0  0  0  # atno 17343 bound_to 10162
  157.4521  131.0873  151.0835 LP  0  0  0  0  0  0  0  0  0  0  0  0  # atno 17370 bound_to 10713
  157.1348  130.6117  149.5539 LP  0  0  0  0  0  0  0  0  0  0  0  0  # atno 17371 bound_to 10713
  140.0419  134.9850  157.0977 LP  0  0  0  0  0  0  0  0  0  0  0  0  # atno 17394 bound_to 11000
  140.4123  134.1968  155.7163 LP  0  0  0  0  0  0  0  0  0  0  0  0  # atno 17395 bound_to 11000

$$$$
