AV-unprocessed.smi:2710|AV-procd|sdf|10465|dock10
  -GOLD-   2272014503D 1   1.00000     0.00000
 Structure written by MMmdl.
 53 54  0  0  0  0  0  0  0  0  2 V2000
  145.3537  135.9339  151.5013 C   0  0  0  0  0  0  0  0  0  0  0  0
  144.6569  134.7206  150.8671 C   0  0  0  0  0  0  0  0  0  0  0  0
  145.5900  133.8549  150.0878 N   0  3  1  0  0  0  0  0  0  0  0  0
  146.8299  133.4808  150.8255 C   0  0  0  0  0  0  0  0  0  0  0  0
  146.5578  132.4309  151.9214 C   0  0  0  0  0  0  0  0  0  0  0  0
  145.8591  131.1852  151.3473 C   0  0  1  0  0  0  0  0  0  0  0  0
  145.4735  130.2842  152.4305 N   0  0  0  0  0  0  0  0  0  0  0  0
  146.0744  129.1254  152.7377 C   0  0  0  0  0  0  0  0  0  0  0  0
  147.0430  128.6754  152.1264 O   0  0  0  0  0  0  0  0  0  0  0  0
  145.4940  128.5459  153.8020 N   0  0  0  0  0  0  0  0  0  0  0  0
  145.8335  127.3129  154.4192 C   0  0  0  0  0  0  0  0  0  0  0  0
  144.8893  126.6749  155.2486 C   0  0  0  0  0  0  0  0  0  0  0  0
  145.1500  125.4974  155.8542 N   0  0  0  0  0  0  0  0  0  0  0  0
  146.3487  124.9409  155.6369 C   0  0  0  0  0  0  0  0  0  0  0  0
  146.6072  123.5850  156.3189 C   0  0  0  0  0  0  0  0  0  0  0  0
  145.3954  123.1142  157.1605 C   0  0  0  0  0  0  0  0  0  0  0  0
  147.8179  123.7015  157.2662 C   0  0  0  0  0  0  0  0  0  0  0  0
  146.8602  122.4999  155.2511 C   0  0  0  0  0  0  0  0  0  0  0  0
  147.3036  125.4454  154.8444 N   0  0  0  0  0  0  0  0  0  0  0  0
  147.0576  126.6263  154.2381 C   0  0  0  0  0  0  0  0  0  0  0  0
  144.6159  131.5877  150.5338 C   0  0  0  0  0  0  0  0  0  0  0  0
  144.9697  132.6449  149.4673 C   0  0  1  0  0  0  0  0  0  0  0  0
  143.7870  132.9649  148.5356 C   0  0  0  0  0  0  0  0  0  0  0  0
  144.6183  136.6064  151.9432 H   0  0  0  0  0  0  0  0  0  0  0  0
  145.9119  136.5024  150.7570 H   0  0  0  0  0  0  0  0  0  0  0  0
  146.0400  135.6480  152.2976 H   0  0  0  0  0  0  0  0  0  0  0  0
  144.1343  134.1452  151.6307 H   0  0  0  0  0  0  0  0  0  0  0  0
  143.8863  135.1206  150.2114 H   0  0  0  0  0  0  0  0  0  0  0  0
  147.5434  133.0717  150.1090 H   0  0  0  0  0  0  0  0  0  0  0  0
  147.3186  134.3561  151.2501 H   0  0  0  0  0  0  0  0  0  0  0  0
  147.4992  132.1414  152.3902 H   0  0  0  0  0  0  0  0  0  0  0  0
  145.9509  132.8699  152.7138 H   0  0  0  0  0  0  0  0  0  0  0  0
  146.5556  130.6899  150.6682 H   0  0  0  0  0  0  0  0  0  0  0  0
  144.6871  130.5684  152.9963 H   0  0  0  0  0  0  0  0  0  0  0  0
  144.7630  129.0729  154.2571 H   0  0  0  0  0  0  0  0  0  0  0  0
  143.9187  127.1118  155.4333 H   0  0  0  0  0  0  0  0  0  0  0  0
  145.5874  122.1463  157.6251 H   0  0  0  0  0  0  0  0  0  0  0  0
  144.4986  123.0052  156.5489 H   0  0  0  0  0  0  0  0  0  0  0  0
  145.1661  123.8134  157.9658 H   0  0  0  0  0  0  0  0  0  0  0  0
  147.6508  124.4615  158.0303 H   0  0  0  0  0  0  0  0  0  0  0  0
  148.7258  123.9722  156.7261 H   0  0  0  0  0  0  0  0  0  0  0  0
  148.0156  122.7582  157.7766 H   0  0  0  0  0  0  0  0  0  0  0  0
  147.0181  121.5221  155.7074 H   0  0  0  0  0  0  0  0  0  0  0  0
  147.7439  122.7194  154.6514 H   0  0  0  0  0  0  0  0  0  0  0  0
  146.0137  122.4119  154.5690 H   0  0  0  0  0  0  0  0  0  0  0  0
  147.8422  126.9946  153.5956 H   0  0  0  0  0  0  0  0  0  0  0  0
  144.1976  130.7032  150.0513 H   0  0  0  0  0  0  0  0  0  0  0  0
  143.8377  131.9698  151.1960 H   0  0  0  0  0  0  0  0  0  0  0  0
  145.7384  132.2124  148.8246 H   0  0  0  0  0  0  0  0  0  0  0  0
  143.5210  132.0893  147.9426 H   0  0  0  0  0  0  0  0  0  0  0  0
  144.0359  133.7664  147.8396 H   0  0  0  0  0  0  0  0  0  0  0  0
  142.8924  133.2547  149.0865 H   0  0  0  0  0  0  0  0  0  0  0  0
  145.8924  134.4277  149.3129 H   0  0  0  0  0  0  0  0  0  0  0  0
  1  2  1  0  0  0  0
  1 24  1  0  0  0  0
  1 25  1  0  0  0  0
  1 26  1  0  0  0  0
  2  3  1  0  0  0  0
  2 27  1  0  0  0  0
  2 28  1  0  0  0  0
  3 22  1  0  0  0  0
  3  4  1  0  0  0  0
  3 53  1  0  0  0  0
  4  5  1  0  0  0  0
  4 29  1  0  0  0  0
  4 30  1  0  0  0  0
  5  6  1  0  0  0  0
  5 31  1  0  0  0  0
  5 32  1  0  0  0  0
  6  7  1  0  0  0  0
  6 21  1  0  0  0  0
  6 33  1  0  0  0  0
  7  8  1  0  0  0  0
  7 34  1  0  0  0  0
  8  9  2  0  0  0  0
  8 10  1  0  0  0  0
 10 11  1  0  0  0  0
 10 35  1  0  0  0  0
 11 20  1  0  0  0  0
 11 12  2  0  0  0  0
 12 13  1  0  0  0  0
 12 36  1  0  0  0  0
 13 14  2  0  0  0  0
 14 15  1  0  0  0  0
 14 19  1  0  0  0  0
 15 16  1  0  0  0  0
 15 17  1  0  0  0  0
 15 18  1  0  0  0  0
 16 37  1  0  0  0  0
 16 38  1  0  0  0  0
 16 39  1  0  0  0  0
 17 40  1  0  0  0  0
 17 41  1  0  0  0  0
 17 42  1  0  0  0  0
 18 43  1  0  0  0  0
 18 44  1  0  0  0  0
 18 45  1  0  0  0  0
 19 20  2  0  0  0  0
 20 46  1  0  0  0  0
 21 22  1  0  0  0  0
 21 47  1  0  0  0  0
 21 48  1  0  0  0  0
 22 23  1  0  0  0  0
 22 49  1  0  0  0  0
 23 50  1  0  0  0  0
 23 51  1  0  0  0  0
 23 52  1  0  0  0  0
M  CHG  1   3   1
M  END
> <s_m_source_file>
AV-unprocessed.smi

> <i_m_source_file_index>
2710

> <i_lp_mmshare_version>
43012

> <i_f3d_flags>
0

> <s_epik_input>
W0NIM11bQ0gyXU4xW0NIMl1bQ0gyXVtDQEhdKFtDSDJdW0NASF0xW0NIM10pW05IXUMoPU8pW05IXWMyW2NIXW5jKEMoW0NIM10pKFtDSDNdKVtDSDNdKW5bY0hdMg==

> <s_epik_cmdline>
J2VwaWtfcHl0aG9uJywgJy1waCcsICc3LjAnLCAnLXRuJywgJzgnLCAnLW1hJywgJzIwMCcsICctbWV0YWxfYmluZGluZycsICctaW1hZScsICc8aW5maWxlLm1hZT4nLCAnLW9tYWUnLCAnPG91dGZpbGUubWFlPic=

> <r_lp_tautomer_probability>
1

> <r_epik_Ionization_Penalty>
0.00396003

> <r_epik_Ionization_Penalty_Charging>
0.0039379

> <r_epik_Ionization_Penalty_Neutral>
2.21316e-05

> <r_epik_State_Penalty>
0.00281651

> <r_epik_Charging_Adjusted_Penalty>
0.00675441

> <i_epik_Tot_Q>
1

> <i_epik_Tot_abs_Q>
1

> <r_epik_Metal_State_Penalty>
-0

> <b_epik_Metal_Only>
0

> <s_lp_Force_Field>
OPLS_2005

> <r_lp_Energy>
21.9784

> <b_lp_Chiralities_Consistent>
1

> <s_lp_Variant>
AV-unprocessed.smi:2710-2

> <Gold.Version>
5.8.1

> <Gold.Id.Protein>
6NUR|6NUR_protein|mol2

> <Gold.PLP.Fitness>
42.7477

> <Gold.PLP.PLP>
-35.2025

> <Gold.PLP.part.hbond>
-2.1415

> <Gold.PLP.part.metal>
0.0000

> <Gold.PLP.part.buried>
-4.3160

> <Gold.PLP.part.nonpolar>
-27.5503

> <Gold.PLP.part.repulsive>
0.3084

> <Gold.PLP.ligand.clash>
0.0000

> <Gold.PLP.ligand.torsion>
0.2532

> <Gold.PLP.Chemscore.Hbond>
2.0000

> <Gold.PLP.Chemscore.CHOScore>
0.6708

> <Gold.PLP.Chemscore.Metal>
0.0000

> <Gold.Chemscore.Hbonds>
donor molecule, donor type, donor heavy atom, donor atom, acceptor molecule, acceptor atom, score
      L1  H     3    53       P1  7921  1.00
      L1  H    10    35       P1 10956  1.00
      L1  C    12    36       P1 10956  0.84

> <Gold.PLP.Chemscore.Internal.Correction>
0.0390

> <Gold.Rescore>
     Score         DG    S(hbond)    S(metal)    S(lipo)     H(rot)  DE(clash)    DE(int)     intcor
     17.21     -18.94       1.94        0.00      88.29       1.31       0.27       1.47       ----

> <Gold.Chemscore.Fitness>
17.2076

> <Gold.Chemscore.DG>
-18.9426

> <Gold.Chemscore.ZeroCoef>
-5.4800

> <Gold.Chemscore.Hbond>
1.9406

> <Gold.Chemscore.Metal>
0.0000

> <Gold.Chemscore.Lipo>
88.2885

> <Gold.Chemscore.Internal_Hbond>
0.0000

> <Gold.Chemscore.DEClash>
0.2691

> <Gold.Chemscore.DEInternal>
1.4659

> <Gold.Chemscore.Rot>
1.3081

> <Gold.Chemscore.Internal.Correction>
   9.000000E+99

> <Gold.Chemscore.Hbonds>
donor molecule, donor type, donor heavy atom, donor atom, acceptor molecule, acceptor atom, score
      L1  H     3    53       P1  7921  0.59
      L1  H    10    35       P1 10956  0.99

> <Gold.Chemscore.Hbond.Weighted>
-6.4817

> <Gold.Chemscore.Metal.Weighted>
-0.0000

> <Gold.Chemscore.Lipo.Weighted>
-10.3297

> <Gold.Chemscore.Internal_Hbond.Weighted>
0.0000

> <Gold.Chemscore.DEClash.Weighted>
0.2691

> <Gold.Chemscore.DEInternal.Weighted>
1.4659

> <Gold.Chemscore.Rot.Weighted>
3.3488

> <Gold.Chemscore.Internal.Correction.Weighted>
   9.000000E+99

> <Gold.Protein.RotatedTorsions>
[ 6907 6896 6895 6894 ] final  167.52 input  -60.11 | X-H torsion
[ 7974 7965 7964 7962 ] final   48.90 input  175.53 | X-H torsion
[ 8008 7997 7996 7995 ] final  -26.39 input   59.86 | X-H torsion
[ 10167 10162 10161 10158 ] final  140.51 input  -65.29 | X-H torsion
[ 10718 10713 10712 10709 ] final   57.64 input   66.30 | X-H torsion
[ 10763 10752 10751 10750 ] final  154.69 input  -60.55 | X-H torsion
[ 11005 11000 10999 10996 ] final  -86.53 input  -57.11 | X-H torsion

> <Gold.Protein.ActiveResidues>
 VAL166  LYS551  ARG553  GLY616  TRP617  ASP618  TYR619  PRO620  LYS621  CYS622 
 ASP623  PHE694  ASN695  SER759  ASP760  ASP761  ALA762  ILE779  LEU786  VAL792 
 PHE793  MET794  SER795  GLU796  ALA797  LYS798  CYS799  TRP800  GLU811  SER814 

> <Gold.Protein.RotatedAtoms>
  151.8620  133.3459  159.3706 H   0  0  0  0  0  0  0  0  0  0  0  0  # atno 6907 bound_to 6896
  150.7176  134.5197  159.5657 H   0  0  0  0  0  0  0  0  0  0  0  0  # atno 6908 bound_to 6896
  152.2712  134.7931  160.0465 H   0  0  0  0  0  0  0  0  0  0  0  0  # atno 6909 bound_to 6896
  146.0160  139.4597  142.9926 H   0  0  0  0  0  0  0  0  0  0  0  0  # atno 7974 bound_to 7965
  154.4428  140.1901  156.0767 H   0  0  0  0  0  0  0  0  0  0  0  0  # atno 8008 bound_to 7997
  156.0470  140.3313  155.7281 H   0  0  0  0  0  0  0  0  0  0  0  0  # atno 8009 bound_to 7997
  155.5615  140.0604  157.2818 H   0  0  0  0  0  0  0  0  0  0  0  0  # atno 8010 bound_to 7997
  139.5047  144.6230  151.6006 H   0  0  0  0  0  0  0  0  0  0  0  0  # atno 10167 bound_to 10162
  157.5531  130.8780  149.8994 H   0  0  0  0  0  0  0  0  0  0  0  0  # atno 10718 bound_to 10713
  154.1564  135.2812  155.3121 H   0  0  0  0  0  0  0  0  0  0  0  0  # atno 10763 bound_to 10752
  154.6180  135.5477  153.7547 H   0  0  0  0  0  0  0  0  0  0  0  0  # atno 10764 bound_to 10752
  153.0205  135.6432  154.1706 H   0  0  0  0  0  0  0  0  0  0  0  0  # atno 10765 bound_to 10752
  141.1629  133.7460  156.9175 H   0  0  0  0  0  0  0  0  0  0  0  0  # atno 11005 bound_to 11000
  145.7267  141.0056  143.1373 LP  0  0  0  0  0  0  0  0  0  0  0  0  # atno 17320 bound_to 7965
  144.6971  139.8936  143.7454 LP  0  0  0  0  0  0  0  0  0  0  0  0  # atno 17321 bound_to 7965
  140.5938  143.9733  150.6341 LP  0  0  0  0  0  0  0  0  0  0  0  0  # atno 17342 bound_to 10162
  140.2922  143.3316  152.1051 LP  0  0  0  0  0  0  0  0  0  0  0  0  # atno 17343 bound_to 10162
  156.0595  130.3702  150.1015 LP  0  0  0  0  0  0  0  0  0  0  0  0  # atno 17370 bound_to 10713
  156.9186  130.9675  151.3552 LP  0  0  0  0  0  0  0  0  0  0  0  0  # atno 17371 bound_to 10713
  140.1474  134.9253  157.2548 LP  0  0  0  0  0  0  0  0  0  0  0  0  # atno 17394 bound_to 11000
  140.2763  134.3402  155.7357 LP  0  0  0  0  0  0  0  0  0  0  0  0  # atno 17395 bound_to 11000

$$$$
