#       Name:                AV-unprocessed.smi:1971
#       Creating user name   scv26
#       Creation time:       Fri Mar 27 10:13:53 2020


#       File generated by GOLD software.
#

@<TRIPOS>MOLECULE
AV-unprocessed.smi:1971
    48    49     1
SMALL
NO_CHARGES


@<TRIPOS>ATOM
      1 ****        -4.6255   1.3969   3.1715 C.3            1 S1                 0.0000
      2 ****        -3.9447   1.8506   1.8722 C.3            1 S1                 0.0000
      3 ****        -2.4845   1.7903   1.8901 N.3            1 S1                 0.0000
      4 ****        -1.9197   2.4260   0.7025 C.3            1 S1                 0.0000
      5 ****        -0.3805   2.3922   0.7163 C.3            1 S1                 0.0000
      6 ****         0.1449   1.0211   0.7782 N.3            1 S1                 0.0000
      7 ****         1.6236   0.9826   0.7872 C.3            1 S1                 0.0000
      8 ****         2.2655   1.6976  -0.4233 C.3            1 S1                 0.0000
      9 ****         2.2183  -0.4467   0.8862 C.3            1 S1                 0.0000
     10 ****         1.7325  -1.3287  -0.1736 N.am           1 S1                 0.0000
     11 ****         2.4212  -1.6939  -1.2642 C.2            1 S1                 0.0000
     12 ****         3.5708  -1.3221  -1.4998 O.2            1 S1                 0.0000
     13 ****         1.6924  -2.5038  -2.0491 N.am           1 S1                 0.0000
     14 ****         2.0812  -3.1085  -3.2703 C.2            1 S1                 0.0000
     15 ****         1.2140  -3.9018  -3.9023 N.2            1 S1                 0.0000
     16 ****         1.7452  -4.4228  -5.0858 C.2            1 S1                 0.0000
     17 ****         3.0298  -4.0123  -5.3423 C.2            1 S1                 0.0000
     18 ****         3.6307  -2.9461  -4.1010 S.3            1 S1                 0.0000
     19 ****        -0.4416   0.3790   1.9629 C.3            1 S1                 0.0000
     20 ****        -1.9807   0.4182   1.9470 C.3            1 S1                 0.0000
     21 ****        -5.7000   1.5739   3.1224 H              1 S1                 0.0000
     22 ****        -4.2393   1.9462   4.0304 H              1 S1                 0.0000
     23 ****        -4.4820   0.3329   3.3580 H              1 S1                 0.0000
     24 ****        -4.3312   1.2670   1.0353 H              1 S1                 0.0000
     25 ****        -4.2515   2.8807   1.6861 H              1 S1                 0.0000
     26 ****        -2.2886   1.9329  -0.1986 H              1 S1                 0.0000
     27 ****        -2.2518   3.4633   0.6471 H              1 S1                 0.0000
     28 ****        -0.0369   2.8912  -0.1884 H              1 S1                 0.0000
     29 ****        -0.0069   2.9752   1.5597 H              1 S1                 0.0000
     30 ****         1.9659   1.5167   1.6749 H              1 S1                 0.0000
     31 ****         3.3443   1.5413  -0.4483 H              1 S1                 0.0000
     32 ****         2.1162   2.7762  -0.3885 H              1 S1                 0.0000
     33 ****         1.8585   1.3320  -1.3666 H              1 S1                 0.0000
     34 ****         3.3085  -0.3980   0.8807 H              1 S1                 0.0000
     35 ****         1.9760  -0.9031   1.8450 H              1 S1                 0.0000
     36 ****         0.7899  -1.6756  -0.0713 H              1 S1                 0.0000
     37 ****         0.7582  -2.7202  -1.7343 H              1 S1                 0.0000
     38 ****         1.1371  -5.0819  -5.6879 H              1 S1                 0.0000
     39 ****         3.6565  -4.2713  -6.1827 H              1 S1                 0.0000
     40 ****        -0.1463  -0.6674   2.0152 H              1 S1                 0.0000
     41 ****        -0.0702   0.8572   2.8708 H              1 S1                 0.0000
     42 ****        -2.3471  -0.0804   2.8435 H              1 S1                 0.0000
     43 ****        -2.3534  -0.1545   1.0961 H              1 S1                 0.0000
     44 ****        -2.2025   2.2759   2.7175 LP             1 S1                 0.0000
     45 ****        -0.1152   0.5180  -0.0460 LP             1 S1                 0.0000
     46 ****         4.0408  -0.7142  -0.8598 LP             1 S1                 0.0000
     47 ****         4.0348  -1.6280  -2.3312 LP             1 S1                 0.0000
     48 ****         0.2925  -4.1003  -3.5686 LP             1 S1                 0.0000
@<TRIPOS>BOND
    1    1    2 1     
    2    1   21 1     
    3    1   22 1     
    4    1   23 1     
    5    2    3 1     
    6    2   24 1     
    7    2   25 1     
    8    3   20 1     
    9    3    4 1     
   10    4    5 1     
   11    4   26 1     
   12    4   27 1     
   13    5    6 1     
   14    5   28 1     
   15    5   29 1     
   16    6    7 1     
   17    6   19 1     
   18    7    8 1     
   19    7    9 1     
   20    7   30 1     
   21    8   31 1     
   22    8   32 1     
   23    8   33 1     
   24    9   10 1     
   25    9   34 1     
   26    9   35 1     
   27   10   11 am    
   28   10   36 1     
   29   11   12 2     
   30   11   13 am    
   31   13   14 1     
   32   13   37 1     
   33   14   18 1     
   34   14   15 2     
   35   15   16 1     
   36   16   17 2     
   37   16   38 1     
   38   17   18 1     
   39   17   39 1     
   40   19   20 1     
   41   19   40 1     
   42   19   41 1     
   43   20   42 1     
   44   20   43 1     
   45    3   44 1     
   46    6   45 1     
   47   12   46 1     
   48   12   47 1     
   49   15   48 1     
@<TRIPOS>SUBSTRUCTURE
      1 S1             1
@<TRIPOS>SET
LONE_PAIRS      STATIC     ATOMS    <user>   **** ""
5 44 45 46 47 48
DONOR_HYDROGENS      STATIC     ATOMS    <user>   **** ""
2 36 37
ATOM$BLUE        STATIC     ATOMS    COLORGROUP SYSTEM
5 44 45 46 47 48
ATOM$RED        STATIC     ATOMS    COLORGROUP SYSTEM
2 36 37
