AV-unprocessed.smi:2083|AV-procd|sdf|8493|dock5
  -GOLD-   2272011203D 1   1.00000     0.00000
 Structure written by MMmdl.
 45 46  0  0  0  0  0  0  0  0  2 V2000
  151.2903  141.3433  155.7779 C   0  0  0  0  0  0  0  0  0  0  0  0
  151.1987  139.9586  155.2349 C   0  0  0  0  0  0  0  0  0  0  0  0
  150.1440  139.1312  154.9684 C   0  0  0  0  0  0  0  0  0  0  0  0
  150.7743  137.9602  154.4701 C   0  0  0  0  0  0  0  0  0  0  0  0
  150.0095  136.8318  154.0773 N   0  0  0  0  0  0  0  0  0  0  0  0
  149.8496  135.6789  154.7494 C   0  0  0  0  0  0  0  0  0  0  0  0
  150.3928  135.3980  155.8181 O   0  0  0  0  0  0  0  0  0  0  0  0
  149.0114  134.8504  154.1099 N   0  0  0  0  0  0  0  0  0  0  0  0
  148.6274  133.5228  154.5813 C   0  0  0  0  0  0  0  0  0  0  0  0
  148.9812  132.4006  153.5756 C   0  0  1  0  0  0  0  0  0  0  0  0
  149.5467  131.1378  154.2616 C   0  0  0  0  0  0  0  0  0  0  0  0
  147.8232  132.1094  152.6796 N   0  3  2  0  0  0  0  0  0  0  0  0
  147.2888  133.2796  151.9301 C   0  0  0  0  0  0  0  0  0  0  0  0
  146.2790  132.8294  150.8634 C   0  0  0  0  0  0  0  0  0  0  0  0
  145.1397  132.0166  151.4954 C   0  0  0  0  0  0  0  0  0  0  0  0
  145.6851  130.8434  152.3316 C   0  0  1  0  0  0  0  0  0  0  0  0
  146.2128  129.6890  151.4616 C   0  0  0  0  0  0  0  0  0  0  0  0
  146.7376  131.3392  153.3458 C   0  0  0  0  0  0  0  0  0  0  0  0
  152.0941  138.0626  154.4362 N   0  0  0  0  0  0  0  0  0  0  0  0
  152.3728  139.3439  154.9265 O   0  0  0  0  0  0  0  0  0  0  0  0
  150.3004  141.7881  155.8806 H   0  0  0  0  0  0  0  0  0  0  0  0
  151.8796  141.9795  155.1175 H   0  0  0  0  0  0  0  0  0  0  0  0
  151.7644  141.3421  156.7595 H   0  0  0  0  0  0  0  0  0  0  0  0
  149.0928  139.3347  155.1094 H   0  0  0  0  0  0  0  0  0  0  0  0
  149.5205  136.9194  153.1990 H   0  0  0  0  0  0  0  0  0  0  0  0
  148.6127  135.1572  153.2342 H   0  0  0  0  0  0  0  0  0  0  0  0
  149.1365  133.3630  155.5310 H   0  0  0  0  0  0  0  0  0  0  0  0
  147.5584  133.5120  154.8007 H   0  0  0  0  0  0  0  0  0  0  0  0
  149.7729  132.7977  152.9391 H   0  0  0  0  0  0  0  0  0  0  0  0
  150.4771  131.3586  154.7850 H   0  0  0  0  0  0  0  0  0  0  0  0
  149.7710  130.3532  153.5392 H   0  0  0  0  0  0  0  0  0  0  0  0
  148.8530  130.7302  154.9971 H   0  0  0  0  0  0  0  0  0  0  0  0
  146.8043  133.9743  152.6175 H   0  0  0  0  0  0  0  0  0  0  0  0
  148.0963  133.8262  151.4446 H   0  0  0  0  0  0  0  0  0  0  0  0
  145.8698  133.6999  150.3495 H   0  0  0  0  0  0  0  0  0  0  0  0
  146.7854  132.2358  150.1016 H   0  0  0  0  0  0  0  0  0  0  0  0
  144.5502  132.6716  152.1385 H   0  0  0  0  0  0  0  0  0  0  0  0
  144.4589  131.6546  150.7242 H   0  0  0  0  0  0  0  0  0  0  0  0
  144.8493  130.4370  152.9027 H   0  0  0  0  0  0  0  0  0  0  0  0
  147.0735  129.9885  150.8637 H   0  0  0  0  0  0  0  0  0  0  0  0
  145.4424  129.3314  150.7777 H   0  0  0  0  0  0  0  0  0  0  0  0
  146.5192  128.8437  152.0784 H   0  0  0  0  0  0  0  0  0  0  0  0
  147.1535  130.4842  153.8806 H   0  0  0  0  0  0  0  0  0  0  0  0
  146.2556  131.9692  154.0946 H   0  0  0  0  0  0  0  0  0  0  0  0
  148.1918  131.4805  151.9804 H   0  0  0  0  0  0  0  0  0  0  0  0
  1  2  1  0  0  0  0
  1 21  1  0  0  0  0
  1 22  1  0  0  0  0
  1 23  1  0  0  0  0
  2 20  1  0  0  0  0
  2  3  2  0  0  0  0
  3  4  1  0  0  0  0
  3 24  1  0  0  0  0
  4  5  1  0  0  0  0
  4 19  2  0  0  0  0
  5  6  1  0  0  0  0
  5 25  1  0  0  0  0
  6  7  2  0  0  0  0
  6  8  1  0  0  0  0
  8  9  1  0  0  0  0
  8 26  1  0  0  0  0
  9 10  1  0  0  0  0
  9 27  1  0  0  0  0
  9 28  1  0  0  0  0
 10 11  1  0  0  0  0
 10 12  1  0  0  0  0
 10 29  1  0  0  0  0
 11 30  1  0  0  0  0
 11 31  1  0  0  0  0
 11 32  1  0  0  0  0
 12 18  1  0  0  0  0
 12 13  1  0  0  0  0
 12 45  1  0  0  0  0
 13 14  1  0  0  0  0
 13 33  1  0  0  0  0
 13 34  1  0  0  0  0
 14 15  1  0  0  0  0
 14 35  1  0  0  0  0
 14 36  1  0  0  0  0
 15 16  1  0  0  0  0
 15 37  1  0  0  0  0
 15 38  1  0  0  0  0
 16 17  1  0  0  0  0
 16 18  1  0  0  0  0
 16 39  1  0  0  0  0
 17 40  1  0  0  0  0
 17 41  1  0  0  0  0
 17 42  1  0  0  0  0
 18 43  1  0  0  0  0
 18 44  1  0  0  0  0
 19 20  1  0  0  0  0
M  CHG  1  12   1
M  END
> <s_m_source_file>
AV-unprocessed.smi

> <i_m_source_file_index>
2083

> <i_lp_mmshare_version>
43012

> <i_f3d_flags>
0

> <s_epik_input>
W0NIM11jMVtjSF1jKG5vMSlbTkhdQyg9TylbTkhdW0NIMl1bQ0BIXShbQ0gzXSlOMltDSDJdW0NIMl1bQ0gyXVtDQEBIXShbQ0gzXSlbQ0gyXTI=

> <s_epik_cmdline>
J2VwaWtfcHl0aG9uJywgJy1waCcsICc3LjAnLCAnLXRuJywgJzgnLCAnLW1hJywgJzIwMCcsICctbWV0YWxfYmluZGluZycsICctaW1hZScsICc8aW5maWxlLm1hZT4nLCAnLW9tYWUnLCAnPG91dGZpbGUubWFlPic=

> <r_epik_Ionization_Penalty>
0.00216453

> <r_epik_Ionization_Penalty_Charging>
0.00212879

> <r_epik_Ionization_Penalty_Neutral>
3.57418e-05

> <r_epik_State_Penalty>
0.00146033

> <r_epik_Charging_Adjusted_Penalty>
0.00358912

> <i_epik_Tot_Q>
1

> <i_epik_Tot_abs_Q>
1

> <r_epik_Metal_State_Penalty>
0.0215827

> <b_epik_Metal_Only>
0

> <s_lp_Force_Field>
OPLS_2005

> <r_lp_Energy>
19.7178

> <b_lp_Chiralities_Consistent>
1

> <s_lp_Variant>
AV-unprocessed.smi:2083-4

> <Gold.Version>
5.8.1

> <Gold.Id.Protein>
6NUR|6NUR_protein|mol2

> <Gold.PLP.Fitness>
47.8187

> <Gold.PLP.PLP>
-37.3147

> <Gold.PLP.part.hbond>
-5.8828

> <Gold.PLP.part.metal>
0.0000

> <Gold.PLP.part.buried>
-5.1410

> <Gold.PLP.part.nonpolar>
-26.6456

> <Gold.PLP.part.repulsive>
0.1807

> <Gold.PLP.ligand.clash>
0.0000

> <Gold.PLP.ligand.torsion>
1.2888

> <Gold.PLP.Chemscore.Hbond>
4.3254

> <Gold.PLP.Chemscore.CHOScore>
0.0000

> <Gold.PLP.Chemscore.Metal>
0.0000

> <Gold.Chemscore.Hbonds>
donor molecule, donor type, donor heavy atom, donor atom, acceptor molecule, acceptor atom, score
      L1  H     5    25       P1  7948  0.98
      L1  H     8    26       P1  7948  0.82
      L1  H    12    45       P1 10747  1.00

> <Gold.PLP.Chemscore.Internal.Correction>
0.1057

> <Gold.Rescore>
     Score         DG    S(hbond)    S(metal)    S(lipo)     H(rot)  DE(clash)    DE(int)     intcor
     17.35     -21.58       3.19        0.00      80.41       1.55       2.44       1.79       ----

> <Gold.Chemscore.Fitness>
17.3464

> <Gold.Chemscore.DG>
-21.5789

> <Gold.Chemscore.ZeroCoef>
-5.4800

> <Gold.Chemscore.Hbond>
3.1894

> <Gold.Chemscore.Metal>
0.0000

> <Gold.Chemscore.Lipo>
80.4077

> <Gold.Chemscore.Internal_Hbond>
0.0000

> <Gold.Chemscore.DEClash>
2.4378

> <Gold.Chemscore.DEInternal>
1.7948

> <Gold.Chemscore.Rot>
1.5474

> <Gold.Chemscore.Internal.Correction>
   9.000000E+99

> <Gold.Chemscore.Hbonds>
donor molecule, donor type, donor heavy atom, donor atom, acceptor molecule, acceptor atom, score
      L1  H     5    25       P1  7948  0.68
      L1  H     8    26       P1  7948  0.64
      L1  H    12    45       P1 10747  0.98
      P1  H  7997  8010       L1    20  0.05

> <Gold.Chemscore.Hbond.Weighted>
-10.6525

> <Gold.Chemscore.Metal.Weighted>
-0.0000

> <Gold.Chemscore.Lipo.Weighted>
-9.4077

> <Gold.Chemscore.Internal_Hbond.Weighted>
0.0000

> <Gold.Chemscore.DEClash.Weighted>
2.4378

> <Gold.Chemscore.DEInternal.Weighted>
1.7948

> <Gold.Chemscore.Rot.Weighted>
3.9612

> <Gold.Chemscore.Internal.Correction.Weighted>
   9.000000E+99

> <Gold.Protein.RotatedTorsions>
[ 6907 6896 6895 6894 ] final   60.56 input  -60.11 | X-H torsion
[ 7974 7965 7964 7962 ] final   18.04 input  175.53 | X-H torsion
[ 8008 7997 7996 7995 ] final   97.54 input   59.86 | X-H torsion
[ 10167 10162 10161 10158 ] final   83.97 input  -65.29 | X-H torsion
[ 10718 10713 10712 10709 ] final -118.98 input   66.30 | X-H torsion
[ 10763 10752 10751 10750 ] final  167.83 input  -60.55 | X-H torsion
[ 11005 11000 10999 10996 ] final -139.44 input  -57.11 | X-H torsion

> <Gold.Protein.ActiveResidues>
 VAL166  LYS551  ARG553  GLY616  TRP617  ASP618  TYR619  PRO620  LYS621  CYS622 
 ASP623  PHE694  ASN695  SER759  ASP760  ASP761  ALA762  ILE779  LEU786  VAL792 
 PHE793  MET794  SER795  GLU796  ALA797  LYS798  CYS799  TRP800  GLU811  SER814 

> <Gold.Protein.RotatedAtoms>
  152.4014  134.6280  160.0067 H   0  0  0  0  0  0  0  0  0  0  0  0  # atno 6907 bound_to 6896
  151.6484  133.3316  159.3154 H   0  0  0  0  0  0  0  0  0  0  0  0  # atno 6908 bound_to 6896
  150.7914  134.6982  159.6580 H   0  0  0  0  0  0  0  0  0  0  0  0  # atno 6909 bound_to 6896
  146.2198  139.8515  142.8621 H   0  0  0  0  0  0  0  0  0  0  0  0  # atno 7974 bound_to 7965
  156.0912  140.3257  155.7818 H   0  0  0  0  0  0  0  0  0  0  0  0  # atno 8008 bound_to 7997
  155.4994  140.0568  157.2959 H   0  0  0  0  0  0  0  0  0  0  0  0  # atno 8009 bound_to 7997
  154.4638  140.1979  156.0188 H   0  0  0  0  0  0  0  0  0  0  0  0  # atno 8010 bound_to 7997
  139.9129  144.6260  150.8519 H   0  0  0  0  0  0  0  0  0  0  0  0  # atno 10167 bound_to 10162
  156.1146  130.6276  150.9359 H   0  0  0  0  0  0  0  0  0  0  0  0  # atno 10718 bound_to 10713
  154.3597  135.2753  155.2327 H   0  0  0  0  0  0  0  0  0  0  0  0  # atno 10763 bound_to 10752
  154.4521  135.5928  153.6202 H   0  0  0  0  0  0  0  0  0  0  0  0  # atno 10764 bound_to 10752
  152.9844  135.6044  154.3816 H   0  0  0  0  0  0  0  0  0  0  0  0  # atno 10765 bound_to 10752
  140.8520  134.2275  157.4755 H   0  0  0  0  0  0  0  0  0  0  0  0  # atno 11005 bound_to 11000
  145.2796  141.0134  143.3725 LP  0  0  0  0  0  0  0  0  0  0  0  0  # atno 17320 bound_to 7965
  144.9160  139.4470  143.6564 LP  0  0  0  0  0  0  0  0  0  0  0  0  # atno 17321 bound_to 7965
  140.7681  143.3352  151.2324 LP  0  0  0  0  0  0  0  0  0  0  0  0  # atno 17342 bound_to 10162
  139.6927  143.9665  152.2867 LP  0  0  0  0  0  0  0  0  0  0  0  0  # atno 17343 bound_to 10162
  157.6329  131.0919  150.8405 LP  0  0  0  0  0  0  0  0  0  0  0  0  # atno 17370 bound_to 10713
  156.8511  130.5080  149.5312 LP  0  0  0  0  0  0  0  0  0  0  0  0  # atno 17371 bound_to 10713
  139.8704  134.9688  156.4642 LP  0  0  0  0  0  0  0  0  0  0  0  0  # atno 17394 bound_to 11000
  140.8780  133.7939  155.9435 LP  0  0  0  0  0  0  0  0  0  0  0  0  # atno 17395 bound_to 11000

$$$$
