AV-unprocessed.smi:2538|AV-procd|sdf|9981|dock1
  -GOLD-   2272014 23D 1   1.00000     0.00000
 Structure written by MMmdl.
 48 49  0  0  0  0  0  0  0  0  1 V2000
  151.3955  144.9215  158.1491 C   0  0  0  0  0  0  0  0  0  0  0  0
  151.4712  143.4140  157.9819 C   0  0  0  0  0  0  0  0  0  0  0  0
  151.0799  142.8391  156.7517 C   0  0  0  0  0  0  0  0  0  0  0  0
  151.1343  141.4419  156.5552 C   0  0  0  0  0  0  0  0  0  0  0  0
  150.8050  140.6754  155.4502 N   0  0  0  0  0  0  0  0  0  0  0  0
  151.0729  139.4479  155.8862 C   0  0  0  0  0  0  0  0  0  0  0  0
  151.5387  139.3290  157.1443 N   0  0  0  0  0  0  0  0  0  0  0  0
  151.9021  138.1054  157.8358 C   0  0  0  0  0  0  0  0  0  0  0  0
  153.0979  137.3933  157.1743 C   0  0  2  0  0  0  0  0  0  0  0  0
  152.6044  136.5863  156.1229 O   0  0  0  0  0  0  0  0  0  0  0  0
  153.8595  136.4962  158.1739 C   0  0  0  0  0  0  0  0  0  0  0  0
  154.5629  137.2595  159.2227 N   0  0  0  0  0  0  0  0  0  0  0  0
  155.2439  138.4839  158.7810 C   0  0  0  0  0  0  0  0  0  0  0  0
  155.1337  136.4616  160.6567 S   0  0  0  0  0  0  0  0  0  0  0  0
  154.7075  135.0566  160.5603 O   0  0  0  0  0  0  0  0  0  0  0  0
  156.5627  136.7804  160.8023 O   0  0  0  0  0  0  0  0  0  0  0  0
  154.1785  137.2775  162.0280 C   0  0  0  0  0  0  0  0  0  0  0  0
  154.4116  138.7950  162.0208 C   0  0  0  0  0  0  0  0  0  0  0  0
  154.5409  136.6596  163.3861 C   0  0  0  0  0  0  0  0  0  0  0  0
  151.5942  140.6294  157.6322 C   0  0  0  0  0  0  0  0  0  0  0  0
  151.9861  141.1890  158.8611 C   0  0  0  0  0  0  0  0  0  0  0  0
  151.9272  142.5870  159.0399 C   0  0  0  0  0  0  0  0  0  0  0  0
  152.3551  143.1823  160.3695 C   0  0  0  0  0  0  0  0  0  0  0  0
  150.9655  145.3987  157.2680 H   0  0  0  0  0  0  0  0  0  0  0  0
  152.3910  145.3382  158.3045 H   0  0  0  0  0  0  0  0  0  0  0  0
  150.7731  145.1819  159.0055 H   0  0  0  0  0  0  0  0  0  0  0  0
  150.7338  143.4686  155.9452 H   0  0  0  0  0  0  0  0  0  0  0  0
  150.9253  138.5850  155.2534 H   0  0  0  0  0  0  0  0  0  0  0  0
  152.1417  138.3638  158.8681 H   0  0  0  0  0  0  0  0  0  0  0  0
  151.0327  137.4471  157.8713 H   0  0  0  0  0  0  0  0  0  0  0  0
  153.7550  138.1535  156.7541 H   0  0  0  0  0  0  0  0  0  0  0  0
  152.2628  137.1498  155.4457 H   0  0  0  0  0  0  0  0  0  0  0  0
  153.1529  135.8345  158.6763 H   0  0  0  0  0  0  0  0  0  0  0  0
  154.5527  135.8273  157.6629 H   0  0  0  0  0  0  0  0  0  0  0  0
  156.2289  138.2505  158.3772 H   0  0  0  0  0  0  0  0  0  0  0  0
  155.3718  139.1683  159.6195 H   0  0  0  0  0  0  0  0  0  0  0  0
  154.6640  138.9972  158.0137 H   0  0  0  0  0  0  0  0  0  0  0  0
  153.1210  137.1001  161.8459 H   0  0  0  0  0  0  0  0  0  0  0  0
  153.8443  139.2815  162.8144 H   0  0  0  0  0  0  0  0  0  0  0  0
  154.0984  139.2406  161.0767 H   0  0  0  0  0  0  0  0  0  0  0  0
  155.4651  139.0329  162.1696 H   0  0  0  0  0  0  0  0  0  0  0  0
  153.9472  137.0995  164.1876 H   0  0  0  0  0  0  0  0  0  0  0  0
  155.5929  136.8171  163.6268 H   0  0  0  0  0  0  0  0  0  0  0  0
  154.3529  135.5855  163.3906 H   0  0  0  0  0  0  0  0  0  0  0  0
  152.3306  140.5470  159.6585 H   0  0  0  0  0  0  0  0  0  0  0  0
  152.7320  142.4149  161.0462 H   0  0  0  0  0  0  0  0  0  0  0  0
  151.5120  143.6738  160.8554 H   0  0  0  0  0  0  0  0  0  0  0  0
  153.1475  143.9166  160.2237 H   0  0  0  0  0  0  0  0  0  0  0  0
  1  2  1  0  0  0  0
  1 24  1  0  0  0  0
  1 25  1  0  0  0  0
  1 26  1  0  0  0  0
  2 22  1  0  0  0  0
  2  3  2  0  0  0  0
  3  4  1  0  0  0  0
  3 27  1  0  0  0  0
  4 20  2  0  0  0  0
  4  5  1  0  0  0  0
  5  6  2  0  0  0  0
  6  7  1  0  0  0  0
  6 28  1  0  0  0  0
  7  8  1  0  0  0  0
  7 20  1  0  0  0  0
  8  9  1  0  0  0  0
  8 29  1  0  0  0  0
  8 30  1  0  0  0  0
  9 10  1  0  0  0  0
  9 11  1  0  0  0  0
  9 31  1  0  0  0  0
 10 32  1  0  0  0  0
 11 12  1  0  0  0  0
 11 33  1  0  0  0  0
 11 34  1  0  0  0  0
 12 13  1  0  0  0  0
 12 14  1  0  0  0  0
 13 35  1  0  0  0  0
 13 36  1  0  0  0  0
 13 37  1  0  0  0  0
 14 15  2  0  0  0  0
 14 16  2  0  0  0  0
 14 17  1  0  0  0  0
 17 18  1  0  0  0  0
 17 19  1  0  0  0  0
 17 38  1  0  0  0  0
 18 39  1  0  0  0  0
 18 40  1  0  0  0  0
 18 41  1  0  0  0  0
 19 42  1  0  0  0  0
 19 43  1  0  0  0  0
 19 44  1  0  0  0  0
 20 21  1  0  0  0  0
 21 22  2  0  0  0  0
 21 45  1  0  0  0  0
 22 23  1  0  0  0  0
 23 46  1  0  0  0  0
 23 47  1  0  0  0  0
 23 48  1  0  0  0  0
M  END
> <s_m_source_file>
AV-unprocessed.smi

> <i_m_source_file_index>
2538

> <i_lp_mmshare_version>
43012

> <i_f3d_flags>
0

> <s_epik_input>
W0NIM11jKFtjSF0xKWMoW0NIM10pW2NIXWMoYzEyKW4oW2NIXW4yKVtDSDJdW0NASF0oW09IXSlbQ0gyXU4oW0NIM10pUyg9TykoPU8pW0NIXShbQ0gzXSlbQ0gzXQ==

> <s_epik_cmdline>
J2VwaWtfcHl0aG9uJywgJy1waCcsICc3LjAnLCAnLXRuJywgJzgnLCAnLW1hJywgJzIwMCcsICctbWV0YWxfYmluZGluZycsICctaW1hZScsICc8aW5maWxlLm1hZT4nLCAnLW9tYWUnLCAnPG91dGZpbGUubWFlPic=

> <r_epik_Ionization_Penalty>
0.105018

> <r_epik_Ionization_Penalty_Charging>
0

> <r_epik_Ionization_Penalty_Neutral>
0.105018

> <r_epik_State_Penalty>
0.094904

> <r_epik_Charging_Adjusted_Penalty>
0.094904

> <i_epik_Tot_Q>
0

> <i_epik_Tot_abs_Q>
0

> <r_epik_Metal_State_Penalty>
0.000102919

> <b_epik_Metal_Only>
0

> <s_lp_Force_Field>
OPLS_2005

> <r_lp_Energy>
2.81525

> <b_lp_Chiralities_Consistent>
1

> <s_lp_Variant>
AV-unprocessed.smi:2538-1

> <Gold.Version>
5.8.1

> <Gold.Id.Protein>
6NUR|6NUR_protein|mol2

> <Gold.PLP.Fitness>
46.5625

> <Gold.PLP.PLP>
-40.0032

> <Gold.PLP.part.hbond>
-3.0000

> <Gold.PLP.part.metal>
0.0000

> <Gold.PLP.part.buried>
-5.2410

> <Gold.PLP.part.nonpolar>
-31.5911

> <Gold.PLP.part.repulsive>
0.0423

> <Gold.PLP.ligand.clash>
0.0000

> <Gold.PLP.ligand.torsion>
1.6869

> <Gold.PLP.Chemscore.Hbond>
2.4526

> <Gold.PLP.Chemscore.CHOScore>
0.0000

> <Gold.PLP.Chemscore.Metal>
0.0000

> <Gold.Chemscore.Hbonds>
donor molecule, donor type, donor heavy atom, donor atom, acceptor molecule, acceptor atom, score
      P1  H  6896  6907       L1    15  0.29
      P1  H  7989  7998       L1     5  0.67
      P1  H 10752 10765       L1    10  0.75

> <Gold.PLP.Chemscore.Internal.Correction>
2.5752

> <Gold.Rescore>
     Score         DG    S(hbond)    S(metal)    S(lipo)     H(rot)  DE(clash)    DE(int)     intcor
     18.10     -19.80       2.03        0.00     114.72       2.29       0.07       1.62       ----

> <Gold.Chemscore.Fitness>
18.1044

> <Gold.Chemscore.DG>
-19.8004

> <Gold.Chemscore.ZeroCoef>
-5.4800

> <Gold.Chemscore.Hbond>
2.0255

> <Gold.Chemscore.Metal>
0.0000

> <Gold.Chemscore.Lipo>
114.7181

> <Gold.Chemscore.Internal_Hbond>
0.0000

> <Gold.Chemscore.DEClash>
0.0726

> <Gold.Chemscore.DEInternal>
1.6234

> <Gold.Chemscore.Rot>
2.2917

> <Gold.Chemscore.Internal.Correction>
   9.000000E+99

> <Gold.Chemscore.Hbonds>
donor molecule, donor type, donor heavy atom, donor atom, acceptor molecule, acceptor atom, score
      P1  H  6896  6907       L1    15  0.31
      P1  H  7989  7998       L1     5  0.43
      P1  H 10752 10765       L1    10  0.09

> <Gold.Chemscore.Hbond.Weighted>
-6.7653

> <Gold.Chemscore.Metal.Weighted>
-0.0000

> <Gold.Chemscore.Lipo.Weighted>
-13.4220

> <Gold.Chemscore.Internal_Hbond.Weighted>
0.0000

> <Gold.Chemscore.DEClash.Weighted>
0.0726

> <Gold.Chemscore.DEInternal.Weighted>
1.6234

> <Gold.Chemscore.Rot.Weighted>
5.8669

> <Gold.Chemscore.Internal.Correction.Weighted>
   9.000000E+99

> <Gold.Protein.RotatedTorsions>
[ 6907 6896 6895 6894 ] final   77.73 input  -60.11 | X-H torsion
[ 7974 7965 7964 7962 ] final  127.67 input  175.53 | X-H torsion
[ 8008 7997 7996 7995 ] final  -65.08 input   59.86 | X-H torsion
[ 10167 10162 10161 10158 ] final  -41.71 input  -65.29 | X-H torsion
[ 10718 10713 10712 10709 ] final  -57.90 input   66.30 | X-H torsion
[ 10763 10752 10751 10750 ] final -145.49 input  -60.55 | X-H torsion
[ 11005 11000 10999 10996 ] final   45.32 input  -57.11 | X-H torsion

> <Gold.Protein.ActiveResidues>
 VAL166  LYS551  ARG553  GLY616  TRP617  ASP618  TYR619  PRO620  LYS621  CYS622 
 ASP623  PHE694  ASN695  SER759  ASP760  ASP761  ALA762  ILE779  LEU786  VAL792 
 PHE793  MET794  SER795  GLU796  ALA797  LYS798  CYS799  TRP800  GLU811  SER814 

> <Gold.Protein.RotatedAtoms>
  152.5130  134.3772  159.9338 H   0  0  0  0  0  0  0  0  0  0  0  0  # atno 6907 bound_to 6896
  151.3728  133.3842  159.2709 H   0  0  0  0  0  0  0  0  0  0  0  0  # atno 6908 bound_to 6896
  150.9565  134.8978  159.7762 H   0  0  0  0  0  0  0  0  0  0  0  0  # atno 6909 bound_to 6896
  145.0479  139.3907  143.5068 H   0  0  0  0  0  0  0  0  0  0  0  0  # atno 7974 bound_to 7965
  154.4650  140.0940  156.6995 H   0  0  0  0  0  0  0  0  0  0  0  0  # atno 8008 bound_to 7997
  155.4885  140.3470  155.4333 H   0  0  0  0  0  0  0  0  0  0  0  0  # atno 8009 bound_to 7997
  156.0939  140.1404  156.9545 H   0  0  0  0  0  0  0  0  0  0  0  0  # atno 8010 bound_to 7997
  140.6993  143.3079  151.3106 H   0  0  0  0  0  0  0  0  0  0  0  0  # atno 10167 bound_to 10162
  156.1175  130.4169  150.0504 H   0  0  0  0  0  0  0  0  0  0  0  0  # atno 10718 bound_to 10713
  154.8381  135.3412  154.6513 H   0  0  0  0  0  0  0  0  0  0  0  0  # atno 10763 bound_to 10752
  153.7126  135.6963  153.5038 H   0  0  0  0  0  0  0  0  0  0  0  0  # atno 10764 bound_to 10752
  153.2440  135.4375  155.0682 H   0  0  0  0  0  0  0  0  0  0  0  0  # atno 10765 bound_to 10752
  140.1470  134.4509  155.8408 H   0  0  0  0  0  0  0  0  0  0  0  0  # atno 11005 bound_to 11000
  146.3515  140.0115  142.8666 LP  0  0  0  0  0  0  0  0  0  0  0  0  # atno 17320 bound_to 7965
  145.1564  140.9650  143.4403 LP  0  0  0  0  0  0  0  0  0  0  0  0  # atno 17321 bound_to 7965
  139.6491  144.0396  152.2613 LP  0  0  0  0  0  0  0  0  0  0  0  0  # atno 17342 bound_to 10162
  139.9926  144.6350  150.7800 LP  0  0  0  0  0  0  0  0  0  0  0  0  # atno 17343 bound_to 10162
  156.8451  130.9439  151.3629 LP  0  0  0  0  0  0  0  0  0  0  0  0  # atno 17370 bound_to 10713
  157.6358  130.8766  149.9357 LP  0  0  0  0  0  0  0  0  0  0  0  0  # atno 17371 bound_to 10713
  141.2194  133.6857  156.7353 LP  0  0  0  0  0  0  0  0  0  0  0  0  # atno 17394 bound_to 11000
  140.2651  134.8436  157.3795 LP  0  0  0  0  0  0  0  0  0  0  0  0  # atno 17395 bound_to 11000

$$$$
