#       Name:                AV-unprocessed.smi:2943
#       Creating user name   scv26
#       Creation time:       Fri Mar 27 16:16:04 2020


#       File generated by GOLD software.
#

@<TRIPOS>MOLECULE
AV-unprocessed.smi:2943
    40    42     1
SMALL
NO_CHARGES


@<TRIPOS>ATOM
      1 ****        -3.2291   1.9645  -0.7837 C.3            1 S1                 0.0000
      2 ****        -2.0579   1.0272  -0.7673 C.2            1 S1                 0.0000
      3 ****        -0.7285   1.3816  -0.7363 C.2            1 S1                 0.0000
      4 ****        -0.1377   2.7584  -0.7091 C.3            1 S1                 0.0000
      5 ****         0.0686   0.2349  -0.7415 N.pl3          1 S1                 0.0000
      6 ****         1.5248   0.2051  -0.7220 C.3            1 S1                 0.0000
      7 ****         2.0844   0.2044   0.7105 C.3            1 S1                 0.0000
      8 ****         3.6077   0.1015   0.7775 C.3            1 S1                 0.0000
      9 ****         3.8132  -0.5187   2.1404 C.3            1 S1                 0.0000
     10 ****         2.6520  -1.5054   2.2042 C.3            1 S1                 0.0000
     11 ****         1.5955  -0.9070   1.4593 O.3            1 S1                 0.0000
     12 ****        -0.7543  -0.8816  -0.7632 C.ar           1 S1                 0.0000
     13 ****        -0.3672  -2.1928  -0.7716 N.ar           1 S1                 0.0000
     14 ****        -1.4134  -3.0222  -0.7850 C.ar           1 S1                 0.0000
     15 ****        -2.7153  -2.7230  -0.7930 N.ar           1 S1                 0.0000
     16 ****        -3.0901  -1.4239  -0.7874 C.ar           1 S1                 0.0000
     17 ****        -4.4572  -1.1560  -0.7932 N.pl3          1 S1                 0.0000
     18 ****        -2.0963  -0.4098  -0.7735 C.ar           1 S1                 0.0000
     19 ****        -2.9872   2.9040  -1.2804 H              1 S1                 0.0000
     20 ****        -3.5576   2.1987   0.2291 H              1 S1                 0.0000
     21 ****        -4.0772   1.5362  -1.3171 H              1 S1                 0.0000
     22 ****        -0.8814   3.5076  -0.4391 H              1 S1                 0.0000
     23 ****         0.2654   3.0241  -1.6864 H              1 S1                 0.0000
     24 ****         0.6681   2.8310   0.0205 H              1 S1                 0.0000
     25 ****         1.8615  -0.6838  -1.2568 H              1 S1                 0.0000
     26 ****         1.9092   1.0578  -1.2819 H              1 S1                 0.0000
     27 ****         1.7700   1.1068   1.2362 H              1 S1                 0.0000
     28 ****         3.9840  -0.5705   0.0047 H              1 S1                 0.0000
     29 ****         4.1044   1.0655   0.6649 H              1 S1                 0.0000
     30 ****         4.7867  -0.9964   2.2547 H              1 S1                 0.0000
     31 ****         3.7085   0.2394   2.9178 H              1 S1                 0.0000
     32 ****         2.9242  -2.4453   1.7225 H              1 S1                 0.0000
     33 ****         2.3452  -1.7245   3.2270 H              1 S1                 0.0000
     34 ****        -1.1756  -4.0756  -0.7909 H              1 S1                 0.0000
     35 ****        -5.1399  -1.8998  -0.8012 H              1 S1                 0.0000
     36 ****        -4.8075  -0.2089  -0.7902 H              1 S1                 0.0000
     37 ****         1.2102  -1.5836   0.8318 LP             1 S1                 0.0000
     38 ****         0.8847  -0.5934   2.0889 LP             1 S1                 0.0000
     39 ****         0.5861  -2.4948  -0.7681 LP             1 S1                 0.0000
     40 ****        -3.4027  -3.4493  -0.8030 LP             1 S1                 0.0000
@<TRIPOS>BOND
    1    1    2 1     
    2    1   19 1     
    3    1   20 1     
    4    1   21 1     
    5    2   18 1     
    6    2    3 2     
    7    3    4 1     
    8    3    5 1     
    9    4   22 1     
   10    4   23 1     
   11    4   24 1     
   12    5    6 1     
   13    5   12 1     
   14    6    7 1     
   15    6   25 1     
   16    6   26 1     
   17    7   11 1     
   18    7    8 1     
   19    7   27 1     
   20    8    9 1     
   21    8   28 1     
   22    8   29 1     
   23    9   10 1     
   24    9   30 1     
   25    9   31 1     
   26   10   11 1     
   27   10   32 1     
   28   10   33 1     
   29   12   18 ar    
   30   12   13 ar    
   31   13   14 ar    
   32   14   15 ar    
   33   14   34 1     
   34   15   16 ar    
   35   16   17 1     
   36   16   18 ar    
   37   17   35 1     
   38   17   36 1     
   39   11   37 1     
   40   11   38 1     
   41   13   39 1     
   42   15   40 1     
@<TRIPOS>SUBSTRUCTURE
      1 S1             1
@<TRIPOS>SET
LONE_PAIRS      STATIC     ATOMS    <user>   **** ""
4 37 38 39 40
DONOR_HYDROGENS      STATIC     ATOMS    <user>   **** ""
2 35 36
ATOM$BLUE        STATIC     ATOMS    COLORGROUP SYSTEM
4 37 38 39 40
ATOM$RED        STATIC     ATOMS    COLORGROUP SYSTEM
2 35 36
