AV-unprocessed.smi:1023|AV-procd|sdf|4462|dock2
  -GOLD-   22720 2433D 1   1.00000     0.00000
 Structure written by MMmdl.
 32 33  0  0  0  0  0  0  0  0  1 V2000
  146.3520  141.3534  155.7563 C   0  0  0  0  0  0  0  0  0  0  0  0
  147.0162  141.8684  154.4672 C   0  0  0  0  0  0  0  0  0  0  0  0
  146.1219  142.9117  153.7811 C   0  0  0  0  0  0  0  0  0  0  0  0
  147.3772  140.7333  153.4866 C   0  0  0  0  0  0  0  0  0  0  0  0
  146.2119  139.9373  153.1123 N   0  0  0  0  0  0  0  0  0  0  0  0
  146.1891  138.6046  152.9420 C   0  0  0  0  0  0  0  0  0  0  0  0
  147.1796  137.8948  153.1072 O   0  0  0  0  0  0  0  0  0  0  0  0
  145.0056  138.0666  152.5767 N   0  0  0  0  0  0  0  0  0  0  0  0
  144.6163  136.7212  152.3122 C   0  0  0  0  0  0  0  0  0  0  0  0
  143.3781  136.2367  152.4864 N   0  0  0  0  0  0  0  0  0  0  0  0
  143.2876  134.8977  152.1359 N   0  0  0  0  0  0  0  0  0  0  0  0
  144.4536  134.4070  151.7003 C   0  0  0  0  0  0  0  0  0  0  0  0
  144.6075  132.9881  151.2637 C   0  0  0  0  0  0  0  0  0  0  0  0
  145.2776  132.6520  149.9513 C   0  0  0  0  0  0  0  0  0  0  0  0
  143.7979  132.4195  150.1185 C   0  0  0  0  0  0  0  0  0  0  0  0
  145.7782  135.5661  151.6810 S   0  0  0  0  0  0  0  0  0  0  0  0
  145.4427  140.7937  155.5355 H   0  0  0  0  0  0  0  0  0  0  0  0
  146.0829  142.1791  156.4154 H   0  0  0  0  0  0  0  0  0  0  0  0
  147.0184  140.6990  156.3183 H   0  0  0  0  0  0  0  0  0  0  0  0
  147.9412  142.3718  154.7521 H   0  0  0  0  0  0  0  0  0  0  0  0
  145.1717  142.4761  153.4699 H   0  0  0  0  0  0  0  0  0  0  0  0
  146.6058  143.3228  152.8948 H   0  0  0  0  0  0  0  0  0  0  0  0
  145.9032  143.7441  154.4506 H   0  0  0  0  0  0  0  0  0  0  0  0
  147.8803  141.1379  152.6068 H   0  0  0  0  0  0  0  0  0  0  0  0
  148.0916  140.0573  153.9573 H   0  0  0  0  0  0  0  0  0  0  0  0
  145.3515  140.4432  152.9560 H   0  0  0  0  0  0  0  0  0  0  0  0
  144.2512  138.7344  152.5109 H   0  0  0  0  0  0  0  0  0  0  0  0
  144.8051  132.3425  152.1172 H   0  0  0  0  0  0  0  0  0  0  0  0
  145.5864  133.4787  149.3144 H   0  0  0  0  0  0  0  0  0  0  0  0
  145.9262  131.7787  149.9294 H   0  0  0  0  0  0  0  0  0  0  0  0
  143.4583  131.3897  150.2073 H   0  0  0  0  0  0  0  0  0  0  0  0
  143.1269  133.0860  149.5802 H   0  0  0  0  0  0  0  0  0  0  0  0
  1  2  1  0  0  0  0
  1 17  1  0  0  0  0
  1 18  1  0  0  0  0
  1 19  1  0  0  0  0
  2  3  1  0  0  0  0
  2  4  1  0  0  0  0
  2 20  1  0  0  0  0
  3 21  1  0  0  0  0
  3 22  1  0  0  0  0
  3 23  1  0  0  0  0
  4  5  1  0  0  0  0
  4 24  1  0  0  0  0
  4 25  1  0  0  0  0
  5  6  1  0  0  0  0
  5 26  1  0  0  0  0
  6  7  2  0  0  0  0
  6  8  1  0  0  0  0
  8  9  1  0  0  0  0
  8 27  1  0  0  0  0
  9 16  1  0  0  0  0
  9 10  2  0  0  0  0
 10 11  1  0  0  0  0
 11 12  2  0  0  0  0
 12 13  1  0  0  0  0
 12 16  1  0  0  0  0
 13 15  1  0  0  0  0
 13 14  1  0  0  0  0
 13 28  1  0  0  0  0
 14 15  1  0  0  0  0
 14 29  1  0  0  0  0
 14 30  1  0  0  0  0
 15 31  1  0  0  0  0
 15 32  1  0  0  0  0
M  END
> <s_m_source_file>
AV-unprocessed.smi

> <i_m_source_file_index>
1023

> <i_lp_mmshare_version>
43012

> <i_f3d_flags>
0

> <s_epik_input>
W0NIM11bQ0hdKFtDSDNdKVtDSDJdW05IXUMoPU8pW05IXWMxbm5jKHMxKVtDSF0yW0NIMl1bQ0gyXTI=

> <s_epik_cmdline>
J2VwaWtfcHl0aG9uJywgJy1waCcsICc3LjAnLCAnLXRuJywgJzgnLCAnLW1hJywgJzIwMCcsICctbWV0YWxfYmluZGluZycsICctaW1hZScsICc8aW5maWxlLm1hZT4nLCAnLW9tYWUnLCAnPG91dGZpbGUubWFlPic=

> <r_lp_tautomer_probability>
1

> <r_epik_Ionization_Penalty>
0.000943136

> <r_epik_Ionization_Penalty_Charging>
0

> <r_epik_Ionization_Penalty_Neutral>
0.000943136

> <r_epik_State_Penalty>
-0

> <r_epik_Charging_Adjusted_Penalty>
0

> <i_epik_Tot_Q>
0

> <i_epik_Tot_abs_Q>
0

> <r_epik_Metal_State_Penalty>
0.281646

> <b_epik_Metal_Only>
0

> <s_lp_Force_Field>
OPLS_2005

> <r_lp_Energy>
5.4251

> <b_lp_Chiralities_Consistent>
1

> <s_lp_Variant>
AV-unprocessed.smi:1023-1

> <Gold.Version>
5.8.1

> <Gold.Id.Protein>
6NUR|6NUR_protein|mol2

> <Gold.PLP.Fitness>
32.3709

> <Gold.PLP.PLP>
-27.1483

> <Gold.PLP.part.hbond>
-3.0000

> <Gold.PLP.part.metal>
0.0000

> <Gold.PLP.part.buried>
-4.0481

> <Gold.PLP.part.nonpolar>
-23.2329

> <Gold.PLP.part.repulsive>
3.1363

> <Gold.PLP.ligand.clash>
0.0000

> <Gold.PLP.ligand.torsion>
0.4554

> <Gold.PLP.Chemscore.Hbond>
2.0000

> <Gold.PLP.Chemscore.CHOScore>
0.0000

> <Gold.PLP.Chemscore.Metal>
0.0000

> <Gold.Chemscore.Hbonds>
donor molecule, donor type, donor heavy atom, donor atom, acceptor molecule, acceptor atom, score
      L1  H     5    26       P1 10175  1.00
      L1  H     8    27       P1 10175  1.00

> <Gold.PLP.Chemscore.Internal.Correction>
0.1333

> <Gold.Rescore>
     Score         DG    S(hbond)    S(metal)    S(lipo)     H(rot)  DE(clash)    DE(int)     intcor
     13.55     -15.14       1.90        0.00      59.39       1.42       1.07       0.53       ----

> <Gold.Chemscore.Fitness>
13.5463

> <Gold.Chemscore.DG>
-15.1430

> <Gold.Chemscore.ZeroCoef>
-5.4800

> <Gold.Chemscore.Hbond>
1.9005

> <Gold.Chemscore.Metal>
0.0000

> <Gold.Chemscore.Lipo>
59.3904

> <Gold.Chemscore.Internal_Hbond>
0.0000

> <Gold.Chemscore.DEClash>
1.0717

> <Gold.Chemscore.DEInternal>
0.5250

> <Gold.Chemscore.Rot>
1.4193

> <Gold.Chemscore.Internal.Correction>
   9.000000E+99

> <Gold.Chemscore.Hbonds>
donor molecule, donor type, donor heavy atom, donor atom, acceptor molecule, acceptor atom, score
      L1  H     5    26       P1 10175  0.86
      L1  H     8    27       P1 10175  0.95

> <Gold.Chemscore.Hbond.Weighted>
-6.3477

> <Gold.Chemscore.Metal.Weighted>
-0.0000

> <Gold.Chemscore.Lipo.Weighted>
-6.9487

> <Gold.Chemscore.Internal_Hbond.Weighted>
0.0000

> <Gold.Chemscore.DEClash.Weighted>
1.0717

> <Gold.Chemscore.DEInternal.Weighted>
0.5250

> <Gold.Chemscore.Rot.Weighted>
3.6333

> <Gold.Chemscore.Internal.Correction.Weighted>
   9.000000E+99

> <Gold.Protein.RotatedTorsions>
[ 6907 6896 6895 6894 ] final  151.23 input  -60.11 | X-H torsion
[ 7974 7965 7964 7962 ] final  -53.36 input  175.53 | X-H torsion
[ 8008 7997 7996 7995 ] final  140.31 input   59.86 | X-H torsion
[ 10167 10162 10161 10158 ] final  -11.75 input  -65.29 | X-H torsion
[ 10718 10713 10712 10709 ] final  125.59 input   66.30 | X-H torsion
[ 10763 10752 10751 10750 ] final -161.75 input  -60.55 | X-H torsion
[ 11005 11000 10999 10996 ] final -119.17 input  -57.11 | X-H torsion

> <Gold.Protein.ActiveResidues>
 VAL166  LYS551  ARG553  GLY616  TRP617  ASP618  TYR619  PRO620  LYS621  CYS622 
 ASP623  PHE694  ASN695  SER759  ASP760  ASP761  ALA762  ILE779  LEU786  VAL792 
 PHE793  MET794  SER795  GLU796  ALA797  LYS798  CYS799  TRP800  GLU811  SER814 

> <Gold.Protein.RotatedAtoms>
  152.1035  133.4262  159.4597 H   0  0  0  0  0  0  0  0  0  0  0  0  # atno 6907 bound_to 6896
  150.6865  134.2732  159.4606 H   0  0  0  0  0  0  0  0  0  0  0  0  # atno 6908 bound_to 6896
  152.0594  134.9603  160.0625 H   0  0  0  0  0  0  0  0  0  0  0  0  # atno 6909 bound_to 6896
  145.8977  140.8019  142.9759 H   0  0  0  0  0  0  0  0  0  0  0  0  # atno 7974 bound_to 7965
  156.2980  140.2345  156.4379 H   0  0  0  0  0  0  0  0  0  0  0  0  # atno 8008 bound_to 7997
  154.8211  140.0438  157.1432 H   0  0  0  0  0  0  0  0  0  0  0  0  # atno 8009 bound_to 7997
  154.9313  140.3017  155.5170 H   0  0  0  0  0  0  0  0  0  0  0  0  # atno 8010 bound_to 7997
  140.7146  143.5606  150.9200 H   0  0  0  0  0  0  0  0  0  0  0  0  # atno 10167 bound_to 10162
  157.5490  131.1094  150.8733 H   0  0  0  0  0  0  0  0  0  0  0  0  # atno 10718 bound_to 10713
  154.7275  135.3039  154.8946 H   0  0  0  0  0  0  0  0  0  0  0  0  # atno 10763 bound_to 10752
  153.9799  135.6731  153.4754 H   0  0  0  0  0  0  0  0  0  0  0  0  # atno 10764 bound_to 10752
  153.0888  135.4970  154.8570 H   0  0  0  0  0  0  0  0  0  0  0  0  # atno 10765 bound_to 10752
  141.0234  134.0089  157.3249 H   0  0  0  0  0  0  0  0  0  0  0  0  # atno 11005 bound_to 11000
  144.6734  140.1628  143.7421 LP  0  0  0  0  0  0  0  0  0  0  0  0  # atno 17320 bound_to 7965
  145.8830  139.2333  143.1594 LP  0  0  0  0  0  0  0  0  0  0  0  0  # atno 17321 bound_to 7965
  139.9331  143.6470  152.3071 LP  0  0  0  0  0  0  0  0  0  0  0  0  # atno 17342 bound_to 10162
  139.6927  144.7645  151.1409 LP  0  0  0  0  0  0  0  0  0  0  0  0  # atno 17343 bound_to 10162
  156.9264  130.5333  149.5279 LP  0  0  0  0  0  0  0  0  0  0  0  0  # atno 17370 bound_to 10713
  156.0560  130.5622  150.9093 LP  0  0  0  0  0  0  0  0  0  0  0  0  # atno 17371 bound_to 10713
  139.9161  135.0197  156.7885 LP  0  0  0  0  0  0  0  0  0  0  0  0  # atno 17394 bound_to 11000
  140.6533  133.9712  155.7766 LP  0  0  0  0  0  0  0  0  0  0  0  0  # atno 17395 bound_to 11000

$$$$
