AV-unprocessed.smi:1372|AV-procd|sdf|5582|dock8
  -GOLD-   22720 5183D 1   1.00000     0.00000
 Structure written by MMmdl.
 41 43  0  0  0  0  0  0  0  0  1 V2000
  152.5906  137.5190  159.3281 C   0  0  0  0  0  0  0  0  0  0  0  0
  153.2712  137.7602  157.6367 S   0  0  0  0  0  0  0  0  0  0  0  0
  154.6421  138.2787  157.7625 O   0  0  0  0  0  0  0  0  0  0  0  0
  153.0245  136.5355  156.8606 O   0  0  0  0  0  0  0  0  0  0  0  0
  152.1855  139.1078  156.9861 C   0  0  0  0  0  0  0  0  0  0  0  0
  152.2089  140.3281  157.8652 C   0  0  0  0  0  0  0  0  0  0  0  0
  152.7473  140.3250  159.0866 N   0  0  0  0  0  0  0  0  0  0  0  0
  152.5538  141.6224  159.5155 C   0  0  0  0  0  0  0  0  0  0  0  0
  152.9141  142.2534  160.7275 C   0  0  0  0  0  0  0  0  0  0  0  0
  152.6039  143.6122  160.9442 C   0  0  0  0  0  0  0  0  0  0  0  0
  151.9298  144.3567  159.9546 C   0  0  0  0  0  0  0  0  0  0  0  0
  151.5616  143.7460  158.7404 C   0  0  0  0  0  0  0  0  0  0  0  0
  151.8755  142.3901  158.5289 C   0  0  0  0  0  0  0  0  0  0  0  0
  151.6626  141.5094  157.4729 N   0  0  0  0  0  0  0  0  0  0  0  0
  150.9836  141.8361  156.2249 C   0  0  0  0  0  0  0  0  0  0  0  0
  149.9537  140.7634  155.8150 C   0  0  2  0  0  0  0  0  0  0  0  0
  150.4648  140.0650  154.6979 O   0  0  0  0  0  0  0  0  0  0  0  0
  148.5722  141.3465  155.5503 C   0  0  0  0  0  0  0  0  0  0  0  0
  147.7795  141.7911  156.6302 C   0  0  0  0  0  0  0  0  0  0  0  0
  146.5075  142.3478  156.3963 C   0  0  0  0  0  0  0  0  0  0  0  0
  146.0223  142.4695  155.0802 C   0  0  0  0  0  0  0  0  0  0  0  0
  146.8083  142.0298  153.9981 C   0  0  0  0  0  0  0  0  0  0  0  0
  148.0784  141.4678  154.2319 C   0  0  0  0  0  0  0  0  0  0  0  0
  153.1579  136.7404  159.8377 H   0  0  0  0  0  0  0  0  0  0  0  0
  151.5453  137.2182  159.2605 H   0  0  0  0  0  0  0  0  0  0  0  0
  152.6676  138.4495  159.8900 H   0  0  0  0  0  0  0  0  0  0  0  0
  152.5409  139.3464  155.9870 H   0  0  0  0  0  0  0  0  0  0  0  0
  151.1667  138.7303  156.9048 H   0  0  0  0  0  0  0  0  0  0  0  0
  153.4304  141.6906  161.4910 H   0  0  0  0  0  0  0  0  0  0  0  0
  152.8840  144.0848  161.8742 H   0  0  0  0  0  0  0  0  0  0  0  0
  151.6953  145.3969  160.1282 H   0  0  0  0  0  0  0  0  0  0  0  0
  151.0456  144.3132  157.9803 H   0  0  0  0  0  0  0  0  0  0  0  0
  150.5260  142.8231  156.2899 H   0  0  0  0  0  0  0  0  0  0  0  0
  151.7502  141.9187  155.4531 H   0  0  0  0  0  0  0  0  0  0  0  0
  149.8680  140.0287  156.6167 H   0  0  0  0  0  0  0  0  0  0  0  0
  150.6174  139.1674  154.9514 H   0  0  0  0  0  0  0  0  0  0  0  0
  148.1488  141.7141  157.6426 H   0  0  0  0  0  0  0  0  0  0  0  0
  145.9077  142.6901  157.2267 H   0  0  0  0  0  0  0  0  0  0  0  0
  145.0492  142.9025  154.9014 H   0  0  0  0  0  0  0  0  0  0  0  0
  146.4379  142.1259  152.9882 H   0  0  0  0  0  0  0  0  0  0  0  0
  148.6761  141.1403  153.3938 H   0  0  0  0  0  0  0  0  0  0  0  0
  1  2  1  0  0  0  0
  1 24  1  0  0  0  0
  1 25  1  0  0  0  0
  1 26  1  0  0  0  0
  2  3  2  0  0  0  0
  2  4  2  0  0  0  0
  2  5  1  0  0  0  0
  5  6  1  0  0  0  0
  5 27  1  0  0  0  0
  5 28  1  0  0  0  0
  6 14  1  0  0  0  0
  6  7  2  0  0  0  0
  7  8  1  0  0  0  0
  8 13  2  0  0  0  0
  8  9  1  0  0  0  0
  9 10  2  0  0  0  0
  9 29  1  0  0  0  0
 10 11  1  0  0  0  0
 10 30  1  0  0  0  0
 11 12  2  0  0  0  0
 11 31  1  0  0  0  0
 12 13  1  0  0  0  0
 12 32  1  0  0  0  0
 13 14  1  0  0  0  0
 14 15  1  0  0  0  0
 15 16  1  0  0  0  0
 15 33  1  0  0  0  0
 15 34  1  0  0  0  0
 16 17  1  0  0  0  0
 16 18  1  0  0  0  0
 16 35  1  0  0  0  0
 17 36  1  0  0  0  0
 18 23  1  0  0  0  0
 18 19  2  0  0  0  0
 19 20  1  0  0  0  0
 19 37  1  0  0  0  0
 20 21  2  0  0  0  0
 20 38  1  0  0  0  0
 21 22  1  0  0  0  0
 21 39  1  0  0  0  0
 22 23  2  0  0  0  0
 22 40  1  0  0  0  0
 23 41  1  0  0  0  0
M  END
> <s_m_source_file>
AV-unprocessed.smi

> <i_m_source_file_index>
1372

> <i_lp_mmshare_version>
43012

> <i_f3d_flags>
0

> <s_epik_input>
W2NIXTFbY0hdW2NIXVtjSF1jKGMxMiluKGMobjIpW0NIMl1TKD1PKSg9TylbQ0gzXSlbQ0gyXVtDQEhdKFtPSF0pYzNbY0hdW2NIXVtjSF1bY0hdW2NIXTM=

> <s_epik_cmdline>
J2VwaWtfcHl0aG9uJywgJy1waCcsICc3LjAnLCAnLXRuJywgJzgnLCAnLW1hJywgJzIwMCcsICctbWV0YWxfYmluZGluZycsICctaW1hZScsICc8aW5maWxlLm1hZT4nLCAnLW9tYWUnLCAnPG91dGZpbGUubWFlPic=

> <r_epik_Ionization_Penalty>
0.0151431

> <r_epik_Ionization_Penalty_Charging>
0

> <r_epik_Ionization_Penalty_Neutral>
0.0151431

> <r_epik_State_Penalty>
0.0118835

> <r_epik_Charging_Adjusted_Penalty>
0.0118835

> <i_epik_Tot_Q>
0

> <i_epik_Tot_abs_Q>
0

> <r_epik_Metal_State_Penalty>
1.20034e-05

> <b_epik_Metal_Only>
0

> <s_lp_Force_Field>
OPLS_2005

> <r_lp_Energy>
10.1971

> <b_lp_Chiralities_Consistent>
1

> <s_lp_Variant>
AV-unprocessed.smi:1372-1

> <Gold.Version>
5.8.1

> <Gold.Id.Protein>
6NUR|6NUR_protein|mol2

> <Gold.PLP.Fitness>
52.9546

> <Gold.PLP.PLP>
-47.2840

> <Gold.PLP.part.hbond>
-3.0000

> <Gold.PLP.part.metal>
0.0000

> <Gold.PLP.part.buried>
-7.3435

> <Gold.PLP.part.nonpolar>
-36.3161

> <Gold.PLP.part.repulsive>
0.0000

> <Gold.PLP.ligand.clash>
0.0000

> <Gold.PLP.ligand.torsion>
1.3969

> <Gold.PLP.Chemscore.Hbond>
2.7840

> <Gold.PLP.Chemscore.CHOScore>
0.0000

> <Gold.PLP.Chemscore.Metal>
0.0000

> <Gold.Chemscore.Hbonds>
donor molecule, donor type, donor heavy atom, donor atom, acceptor molecule, acceptor atom, score
      P1  H  7989  7998       L1    17  1.00
      P1  H  7997  8009       L1     3  0.75
      P1  H 10752 10763       L1     4  1.00

> <Gold.PLP.Chemscore.Internal.Correction>
0.1123

> <Gold.Rescore>
     Score         DG    S(hbond)    S(metal)    S(lipo)     H(rot)  DE(clash)    DE(int)     intcor
     18.65     -22.26       2.63        0.00     119.19       2.33       0.01       3.59       ----

> <Gold.Chemscore.Fitness>
18.6549

> <Gold.Chemscore.DG>
-22.2588

> <Gold.Chemscore.ZeroCoef>
-5.4800

> <Gold.Chemscore.Hbond>
2.6349

> <Gold.Chemscore.Metal>
0.0000

> <Gold.Chemscore.Lipo>
119.1859

> <Gold.Chemscore.Internal_Hbond>
0.0000

> <Gold.Chemscore.DEClash>
0.0115

> <Gold.Chemscore.DEInternal>
3.5924

> <Gold.Chemscore.Rot>
2.3306

> <Gold.Chemscore.Internal.Correction>
   9.000000E+99

> <Gold.Chemscore.Hbonds>
donor molecule, donor type, donor heavy atom, donor atom, acceptor molecule, acceptor atom, score
      P1  H  7989  7998       L1    17  0.96
      P1  H  7997  8009       L1     3  0.67
      P1  H 10752 10763       L1     4  0.94

> <Gold.Chemscore.Hbond.Weighted>
-8.8005

> <Gold.Chemscore.Metal.Weighted>
-0.0000

> <Gold.Chemscore.Lipo.Weighted>
-13.9448

> <Gold.Chemscore.Internal_Hbond.Weighted>
0.0000

> <Gold.Chemscore.DEClash.Weighted>
0.0115

> <Gold.Chemscore.DEInternal.Weighted>
3.5924

> <Gold.Chemscore.Rot.Weighted>
5.9664

> <Gold.Chemscore.Internal.Correction.Weighted>
   9.000000E+99

> <Gold.Protein.RotatedTorsions>
[ 6907 6896 6895 6894 ] final  127.28 input  -60.11 | X-H torsion
[ 7974 7965 7964 7962 ] final   87.24 input  175.53 | X-H torsion
[ 8008 7997 7996 7995 ] final  138.24 input   59.86 | X-H torsion
[ 10167 10162 10161 10158 ] final -111.69 input  -65.29 | X-H torsion
[ 10718 10713 10712 10709 ] final -102.59 input   66.30 | X-H torsion
[ 10763 10752 10751 10750 ] final  124.31 input  -60.55 | X-H torsion
[ 11005 11000 10999 10996 ] final -149.16 input  -57.11 | X-H torsion

> <Gold.Protein.ActiveResidues>
 VAL166  LYS551  ARG553  GLY616  TRP617  ASP618  TYR619  PRO620  LYS621  CYS622 
 ASP623  PHE694  ASN695  SER759  ASP760  ASP761  ALA762  ILE779  LEU786  VAL792 
 PHE793  MET794  SER795  GLU796  ALA797  LYS798  CYS799  TRP800  GLU811  SER814 

> <Gold.Protein.RotatedAtoms>
  152.3827  133.6568  159.6173 H   0  0  0  0  0  0  0  0  0  0  0  0  # atno 6907 bound_to 6896
  150.7753  133.9087  159.3372 H   0  0  0  0  0  0  0  0  0  0  0  0  # atno 6908 bound_to 6896
  151.6890  135.0951  160.0281 H   0  0  0  0  0  0  0  0  0  0  0  0  # atno 6909 bound_to 6896
  145.5616  139.2304  143.2456 H   0  0  0  0  0  0  0  0  0  0  0  0  # atno 7974 bound_to 7965
  156.2998  140.2398  156.4042 H   0  0  0  0  0  0  0  0  0  0  0  0  # atno 8008 bound_to 7997
  154.8500  140.0424  157.1617 H   0  0  0  0  0  0  0  0  0  0  0  0  # atno 8009 bound_to 7997
  154.9009  140.2977  155.5322 H   0  0  0  0  0  0  0  0  0  0  0  0  # atno 8010 bound_to 7997
  140.1309  143.4362  152.1628 H   0  0  0  0  0  0  0  0  0  0  0  0  # atno 10167 bound_to 10162
  156.0234  130.5427  150.7131 H   0  0  0  0  0  0  0  0  0  0  0  0  # atno 10718 bound_to 10713
  153.6593  135.3349  155.3122 H   0  0  0  0  0  0  0  0  0  0  0  0  # atno 10763 bound_to 10752
  154.8518  135.4360  154.1821 H   0  0  0  0  0  0  0  0  0  0  0  0  # atno 10764 bound_to 10752
  153.2784  135.7006  153.7486 H   0  0  0  0  0  0  0  0  0  0  0  0  # atno 10765 bound_to 10752
  140.7537  134.3378  157.5119 H   0  0  0  0  0  0  0  0  0  0  0  0  # atno 11005 bound_to 11000
  146.1847  140.6441  142.9173 LP  0  0  0  0  0  0  0  0  0  0  0  0  # atno 17320 bound_to 7965
  144.7480  140.5119  143.6822 LP  0  0  0  0  0  0  0  0  0  0  0  0  # atno 17321 bound_to 7965
  139.5520  144.7345  151.4406 LP  0  0  0  0  0  0  0  0  0  0  0  0  # atno 17342 bound_to 10162
  140.6817  143.8065  150.7131 LP  0  0  0  0  0  0  0  0  0  0  0  0  # atno 17343 bound_to 10162
  157.4764  131.0898  151.0585 LP  0  0  0  0  0  0  0  0  0  0  0  0  # atno 17370 bound_to 10713
  157.1030  130.5990  149.5464 LP  0  0  0  0  0  0  0  0  0  0  0  0  # atno 17371 bound_to 10713
  139.8783  134.9158  156.3139 LP  0  0  0  0  0  0  0  0  0  0  0  0  # atno 17394 bound_to 11000
  140.9727  133.7317  156.0558 LP  0  0  0  0  0  0  0  0  0  0  0  0  # atno 17395 bound_to 11000

$$$$
