AV-unprocessed.smi:1586|AV-procd|sdf|6379|dock2
  -GOLD-   22720 7 13D 1   1.00000     0.00000
 Structure written by MMmdl.
 46 47  0  0  0  0  0  0  0  0  3 V2000
  147.4042  128.0113  152.0837 C   0  0  0  0  0  0  0  0  0  0  0  0
  147.3312  129.2937  152.9244 C   0  0  0  0  0  0  0  0  0  0  0  0
  147.1309  130.5093  152.0970 N   0  3  0  0  0  0  0  0  0  0  0  0
  147.0808  131.7445  152.9173 C   0  0  0  0  0  0  0  0  0  0  0  0
  146.8999  132.9868  152.0194 C   0  0  0  0  0  0  0  0  0  0  0  0
  145.6638  132.9118  151.2270 N   0  0  0  0  0  0  0  0  0  0  0  0
  144.4017  132.9796  152.0004 C   0  0  2  0  0  0  0  0  0  0  0  0
  143.2092  132.5085  151.1332 C   0  0  0  0  0  0  0  0  0  0  0  0
  144.1522  134.4113  152.5482 C   0  0  0  0  0  0  0  0  0  0  0  0
  142.8505  134.5400  153.1989 N   0  0  0  0  0  0  0  0  0  0  0  0
  142.1683  135.6754  153.4078 C   0  0  0  0  0  0  0  0  0  0  0  0
  142.6342  136.7543  153.0351 O   0  0  0  0  0  0  0  0  0  0  0  0
  140.9803  135.4840  154.0255 N   0  5  0  0  0  0  0  0  0  0  0  0
  140.0514  136.4525  154.0198 C   0  0  0  0  0  0  0  0  0  0  0  0
  139.9500  137.5049  153.0693 C   0  0  0  0  0  0  0  0  0  0  0  0
  138.8483  138.1967  153.4857 C   0  0  0  0  0  0  0  0  0  0  0  0
  138.1615  139.4130  152.9650 C   0  0  0  0  0  0  0  0  0  0  0  0
  138.3145  137.6126  154.5920 O   0  0  0  0  0  0  0  0  0  0  0  0
  139.0871  136.4930  154.9237 N   0  0  0  0  0  0  0  0  0  0  0  0
  145.8113  131.7262  150.3700 C   0  0  0  0  0  0  0  0  0  0  0  0
  145.9508  130.4306  151.1984 C   0  0  0  0  0  0  0  0  0  0  0  0
  147.6458  127.1548  152.7134 H   0  0  0  0  0  0  0  0  0  0  0  0
  148.1768  128.0851  151.3178 H   0  0  0  0  0  0  0  0  0  0  0  0
  146.4582  127.7908  151.5902 H   0  0  0  0  0  0  0  0  0  0  0  0
  146.5423  129.2174  153.6743 H   0  0  0  0  0  0  0  0  0  0  0  0
  148.2698  129.3886  153.4718 H   0  0  0  0  0  0  0  0  0  0  0  0
  146.2861  131.6747  153.6611 H   0  0  0  0  0  0  0  0  0  0  0  0
  148.0146  131.8417  153.4719 H   0  0  0  0  0  0  0  0  0  0  0  0
  146.9443  133.9004  152.6086 H   0  0  0  0  0  0  0  0  0  0  0  0
  147.7470  133.0606  151.3358 H   0  0  0  0  0  0  0  0  0  0  0  0
  144.4650  132.3110  152.8577 H   0  0  0  0  0  0  0  0  0  0  0  0
  142.2620  132.5990  151.6631 H   0  0  0  0  0  0  0  0  0  0  0  0
  143.2787  131.4563  150.8621 H   0  0  0  0  0  0  0  0  0  0  0  0
  143.1279  133.0943  150.2169 H   0  0  0  0  0  0  0  0  0  0  0  0
  144.8660  134.6660  153.3287 H   0  0  0  0  0  0  0  0  0  0  0  0
  144.2822  135.1527  151.7580 H   0  0  0  0  0  0  0  0  0  0  0  0
  142.4222  133.6861  153.5247 H   0  0  0  0  0  0  0  0  0  0  0  0
  140.5849  137.7175  152.2225 H   0  0  0  0  0  0  0  0  0  0  0  0
  137.7042  139.2114  151.9964 H   0  0  0  0  0  0  0  0  0  0  0  0
  138.8702  140.2317  152.8407 H   0  0  0  0  0  0  0  0  0  0  0  0
  137.3780  139.7453  153.6465 H   0  0  0  0  0  0  0  0  0  0  0  0
  144.9916  131.6427  149.6591 H   0  0  0  0  0  0  0  0  0  0  0  0
  146.7005  131.8526  149.7507 H   0  0  0  0  0  0  0  0  0  0  0  0
  146.0676  129.5932  150.5114 H   0  0  0  0  0  0  0  0  0  0  0  0
  145.0465  130.2319  151.7745 H   0  0  0  0  0  0  0  0  0  0  0  0
  147.9440  130.5997  151.5049 H   0  0  0  0  0  0  0  0  0  0  0  0
  1  2  1  0  0  0  0
  1 22  1  0  0  0  0
  1 23  1  0  0  0  0
  1 24  1  0  0  0  0
  2  3  1  0  0  0  0
  2 25  1  0  0  0  0
  2 26  1  0  0  0  0
  3 21  1  0  0  0  0
  3  4  1  0  0  0  0
  3 46  1  0  0  0  0
  4  5  1  0  0  0  0
  4 27  1  0  0  0  0
  4 28  1  0  0  0  0
  5  6  1  0  0  0  0
  5 29  1  0  0  0  0
  5 30  1  0  0  0  0
  6  7  1  0  0  0  0
  6 20  1  0  0  0  0
  7  8  1  0  0  0  0
  7  9  1  0  0  0  0
  7 31  1  0  0  0  0
  8 32  1  0  0  0  0
  8 33  1  0  0  0  0
  8 34  1  0  0  0  0
  9 10  1  0  0  0  0
  9 35  1  0  0  0  0
  9 36  1  0  0  0  0
 10 11  1  0  0  0  0
 10 37  1  0  0  0  0
 11 12  2  0  0  0  0
 11 13  1  0  0  0  0
 13 14  1  0  0  0  0
 14 19  2  0  0  0  0
 14 15  1  0  0  0  0
 15 16  2  0  0  0  0
 15 38  1  0  0  0  0
 16 17  1  0  0  0  0
 16 18  1  0  0  0  0
 17 39  1  0  0  0  0
 17 40  1  0  0  0  0
 17 41  1  0  0  0  0
 18 19  1  0  0  0  0
 20 21  1  0  0  0  0
 20 42  1  0  0  0  0
 20 43  1  0  0  0  0
 21 44  1  0  0  0  0
 21 45  1  0  0  0  0
M  CHG  1   3   1
M  CHG  1  13  -1
M  END
> <s_m_source_file>
AV-unprocessed.smi

> <i_m_source_file_index>
1586

> <i_lp_mmshare_version>
43012

> <i_f3d_flags>
0

> <s_epik_input>
W0NIM11bQ0gyXU4xW0NIMl1bQ0gyXU4oW0NIMl1bQ0gyXTEpW0NASF0oW0NIM10pW0NIMl1bTkhdQyg9TylbTkhdYzJbY0hdYyhbQ0gzXSlvbjI=

> <s_epik_cmdline>
J2VwaWtfcHl0aG9uJywgJy1waCcsICc3LjAnLCAnLXRuJywgJzgnLCAnLW1hJywgJzIwMCcsICctbWV0YWxfYmluZGluZycsICctaW1hZScsICc8aW5maWxlLm1hZT4nLCAnLW9tYWUnLCAnPG91dGZpbGUubWFlPic=

> <r_epik_Ionization_Penalty>
6.66134

> <r_epik_Ionization_Penalty_Charging>
6.66063

> <r_epik_Ionization_Penalty_Neutral>
0.000714131

> <r_epik_State_Penalty>
6.77843

> <r_epik_Charging_Adjusted_Penalty>
13.4391

> <i_epik_Tot_Q>
0

> <i_epik_Tot_abs_Q>
2

> <r_epik_Metal_State_Penalty>
2.70494

> <b_epik_Metal_Only>
1

> <s_lp_Force_Field>
OPLS_2005

> <r_lp_Energy>
11.4851

> <b_lp_Chiralities_Consistent>
1

> <s_lp_Variant>
AV-unprocessed.smi:1586-7

> <Gold.Version>
5.8.1

> <Gold.Id.Protein>
6NUR|6NUR_protein|mol2

> <Gold.PLP.Fitness>
43.6443

> <Gold.PLP.PLP>
-37.8290

> <Gold.PLP.part.hbond>
-3.6793

> <Gold.PLP.part.metal>
0.0000

> <Gold.PLP.part.buried>
-7.2365

> <Gold.PLP.part.nonpolar>
-28.7830

> <Gold.PLP.part.repulsive>
0.5511

> <Gold.PLP.ligand.clash>
0.0000

> <Gold.PLP.ligand.torsion>
0.5995

> <Gold.PLP.Chemscore.Hbond>
2.2878

> <Gold.PLP.Chemscore.CHOScore>
0.0000

> <Gold.PLP.Chemscore.Metal>
0.0000

> <Gold.Chemscore.Hbonds>
donor molecule, donor type, donor heavy atom, donor atom, acceptor molecule, acceptor atom, score
      L1  H     3    46       P1 10747  1.00
      L1  H    10    37       P1 10957  0.31
      P1  H 11000 11005       L1    13  0.63

> <Gold.PLP.Chemscore.Internal.Correction>
0.1509

> <Gold.Rescore>
     Score         DG    S(hbond)    S(metal)    S(lipo)     H(rot)  DE(clash)    DE(int)     intcor
     17.47     -19.80       2.35        0.00      93.01       1.73       0.33       2.00       ----

> <Gold.Chemscore.Fitness>
17.4714

> <Gold.Chemscore.DG>
-19.7980

> <Gold.Chemscore.ZeroCoef>
-5.4800

> <Gold.Chemscore.Hbond>
2.3510

> <Gold.Chemscore.Metal>
0.0000

> <Gold.Chemscore.Lipo>
93.0064

> <Gold.Chemscore.Internal_Hbond>
0.0000

> <Gold.Chemscore.DEClash>
0.3286

> <Gold.Chemscore.DEInternal>
1.9981

> <Gold.Chemscore.Rot>
1.7250

> <Gold.Chemscore.Internal.Correction>
   9.000000E+99

> <Gold.Chemscore.Hbonds>
donor molecule, donor type, donor heavy atom, donor atom, acceptor molecule, acceptor atom, score
      L1  H     3    46       P1 10747  0.99
      L1  H    10    37       P1 10957  0.30
      P1  H 11000 11005       L1    13  0.21

> <Gold.Chemscore.Hbond.Weighted>
-7.8524

> <Gold.Chemscore.Metal.Weighted>
-0.0000

> <Gold.Chemscore.Lipo.Weighted>
-10.8817

> <Gold.Chemscore.Internal_Hbond.Weighted>
0.0000

> <Gold.Chemscore.DEClash.Weighted>
0.3286

> <Gold.Chemscore.DEInternal.Weighted>
1.9981

> <Gold.Chemscore.Rot.Weighted>
4.4161

> <Gold.Chemscore.Internal.Correction.Weighted>
   9.000000E+99

> <Gold.Protein.RotatedTorsions>
[ 6907 6896 6895 6894 ] final  151.28 input  -60.11 | X-H torsion
[ 7974 7965 7964 7962 ] final -125.28 input  175.53 | X-H torsion
[ 8008 7997 7996 7995 ] final   -7.71 input   59.86 | X-H torsion
[ 10167 10162 10161 10158 ] final  -50.20 input  -65.29 | X-H torsion
[ 10718 10713 10712 10709 ] final   98.38 input   66.30 | X-H torsion
[ 10763 10752 10751 10750 ] final   82.78 input  -60.55 | X-H torsion
[ 11005 11000 10999 10996 ] final   26.78 input  -57.11 | X-H torsion

> <Gold.Protein.ActiveResidues>
 VAL166  LYS551  ARG553  GLY616  TRP617  ASP618  TYR619  PRO620  LYS621  CYS622 
 ASP623  PHE694  ASN695  SER759  ASP760  ASP761  ALA762  ILE779  LEU786  VAL792 
 PHE793  MET794  SER795  GLU796  ALA797  LYS798  CYS799  TRP800  GLU811  SER814 

> <Gold.Protein.RotatedAtoms>
  152.1028  133.4259  159.4594 H   0  0  0  0  0  0  0  0  0  0  0  0  # atno 6907 bound_to 6896
  150.6864  134.2740  159.4609 H   0  0  0  0  0  0  0  0  0  0  0  0  # atno 6908 bound_to 6896
  152.0602  134.9599  160.0625 H   0  0  0  0  0  0  0  0  0  0  0  0  # atno 6909 bound_to 6896
  144.9992  140.7804  143.4506 H   0  0  0  0  0  0  0  0  0  0  0  0  # atno 7974 bound_to 7965
  154.5812  140.2400  155.8051 H   0  0  0  0  0  0  0  0  0  0  0  0  # atno 8008 bound_to 7997
  156.2180  140.3006  155.9841 H   0  0  0  0  0  0  0  0  0  0  0  0  # atno 8009 bound_to 7997
  155.2538  140.0411  157.2980 H   0  0  0  0  0  0  0  0  0  0  0  0  # atno 8010 bound_to 7997
  140.6649  143.2667  151.4325 H   0  0  0  0  0  0  0  0  0  0  0  0  # atno 10167 bound_to 10162
  157.6896  131.0638  150.4787 H   0  0  0  0  0  0  0  0  0  0  0  0  # atno 10718 bound_to 10713
  153.1233  135.4715  154.9231 H   0  0  0  0  0  0  0  0  0  0  0  0  # atno 10763 bound_to 10752
  154.7596  135.3128  154.8406 H   0  0  0  0  0  0  0  0  0  0  0  0  # atno 10764 bound_to 10752
  153.8965  135.6879  153.4811 H   0  0  0  0  0  0  0  0  0  0  0  0  # atno 10765 bound_to 10752
  140.3333  134.2413  155.7699 H   0  0  0  0  0  0  0  0  0  0  0  0  # atno 11005 bound_to 11000
  145.2177  139.2174  143.5109 LP  0  0  0  0  0  0  0  0  0  0  0  0  # atno 17320 bound_to 7965
  146.3448  140.2028  142.8589 LP  0  0  0  0  0  0  0  0  0  0  0  0  # atno 17321 bound_to 7965
  139.5894  144.1532  152.2070 LP  0  0  0  0  0  0  0  0  0  0  0  0  # atno 17342 bound_to 10162
  140.0882  144.5643  150.7074 LP  0  0  0  0  0  0  0  0  0  0  0  0  # atno 17343 bound_to 10162
  156.5120  130.4141  149.6296 LP  0  0  0  0  0  0  0  0  0  0  0  0  # atno 17370 bound_to 10713
  156.3232  130.7291  151.2207 LP  0  0  0  0  0  0  0  0  0  0  0  0  # atno 17371 bound_to 10713
  141.2057  133.7851  157.0215 LP  0  0  0  0  0  0  0  0  0  0  0  0  # atno 17394 bound_to 11000
  140.0842  134.9630  157.1673 LP  0  0  0  0  0  0  0  0  0  0  0  0  # atno 17395 bound_to 11000

$$$$
