#       Name:                AV-unprocessed.smi:2084
#       Creating user name   scv26
#       Creation time:       Fri Mar 27 11:23:02 2020


#       File generated by GOLD software.
#

@<TRIPOS>MOLECULE
AV-unprocessed.smi:2084
    42    43     1
SMALL
NO_CHARGES


@<TRIPOS>ATOM
      1 ****        -3.5728  -1.3674   1.3697 C.3            1 S1                 0.0000
      2 ****        -2.9195  -0.7389   0.1878 N.4            1 S1                 1.0000
      3 ****        -3.4870  -1.2981  -1.0664 C.3            1 S1                 0.0000
      4 ****        -1.4133  -0.6535   0.2257 C.3            1 S1                 0.0000
      5 ****        -0.8975   0.1334  -1.0215 C.3            1 S1                 0.0000
      6 ****         0.5595   0.2648  -1.0765 N.am           1 S1                 0.0000
      7 ****         1.2414   1.4188  -1.1083 C.2            1 S1                 0.0000
      8 ****         0.7047   2.5261  -1.0912 O.2            1 S1                 0.0000
      9 ****         2.5649   1.1978  -1.1515 N.am           1 S1                 0.0000
     10 ****         3.6039   2.1601  -1.1977 C.2            1 S1                 0.0000
     11 ****         4.8704   1.7406  -1.2096 N.2            1 S1                 0.0000
     12 ****         5.7751   2.8053  -1.2574 C.2            1 S1                 0.0000
     13 ****         5.1743   4.0394  -1.2840 C.2            1 S1                 0.0000
     14 ****         3.4361   3.9168  -1.2479 S.3            1 S1                 0.0000
     15 ****        -0.9370   0.0641   1.5261 C.3            1 S1                 0.0000
     16 ****        -0.2535  -0.9974   2.3911 C.3            1 S1                 0.0000
     17 ****         0.3159  -1.9899   1.3846 C.3            1 S1                 0.0000
     18 ****        -0.7484  -2.0598   0.2880 C.3            1 S1                 0.0000
     19 ****        -3.4238  -2.4462   1.3966 H              1 S1                 0.0000
     20 ****        -4.6490  -1.1962   1.3278 H              1 S1                 0.0000
     21 ****        -3.2397  -0.9575   2.3206 H              1 S1                 0.0000
     22 ****        -3.0684  -2.2794  -1.2914 H              1 S1                 0.0000
     23 ****        -3.3170  -0.6406  -1.9177 H              1 S1                 0.0000
     24 ****        -4.5689  -1.4104  -0.9863 H              1 S1                 0.0000
     25 ****        -1.1592  -0.3835  -1.9437 H              1 S1                 0.0000
     26 ****        -1.3864   1.1080  -1.0703 H              1 S1                 0.0000
     27 ****         1.0898  -0.5944  -1.0919 H              1 S1                 0.0000
     28 ****         2.8656   0.2344  -1.1514 H              1 S1                 0.0000
     29 ****         6.8340   2.5933  -1.2698 H              1 S1                 0.0000
     30 ****         5.6474   5.0095  -1.3219 H              1 S1                 0.0000
     31 ****        -0.2027   0.8388   1.3107 H              1 S1                 0.0000
     32 ****        -1.7292   0.5879   2.0603 H              1 S1                 0.0000
     33 ****         0.5121  -0.5764   3.0435 H              1 S1                 0.0000
     34 ****        -0.9887  -1.4965   3.0232 H              1 S1                 0.0000
     35 ****         1.2505  -1.6043   0.9755 H              1 S1                 0.0000
     36 ****         0.5250  -2.9638   1.8281 H              1 S1                 0.0000
     37 ****        -1.4597  -2.8390   0.5548 H              1 S1                 0.0000
     38 ****        -0.3196  -2.3679  -0.6663 H              1 S1                 0.0000
     39 ****        -3.2290   0.2226   0.2095 H              1 S1                 0.0000
     40 ****        -0.2919   2.5981  -1.0517 LP             1 S1                 0.0000
     41 ****         1.2652   3.3538  -1.1169 LP             1 S1                 0.0000
     42 ****         5.1406   0.7781  -1.1870 LP             1 S1                 0.0000
@<TRIPOS>BOND
    1    1    2 1     
    2    1   19 1     
    3    1   20 1     
    4    1   21 1     
    5    2    3 1     
    6    2    4 1     
    7    2   39 1     
    8    3   22 1     
    9    3   23 1     
   10    3   24 1     
   11    4   18 1     
   12    4    5 1     
   13    4   15 1     
   14    5    6 1     
   15    5   25 1     
   16    5   26 1     
   17    6    7 am    
   18    6   27 1     
   19    7    8 2     
   20    7    9 am    
   21    9   10 1     
   22    9   28 1     
   23   10   14 1     
   24   10   11 2     
   25   11   12 1     
   26   12   13 2     
   27   12   29 1     
   28   13   14 1     
   29   13   30 1     
   30   15   16 1     
   31   15   31 1     
   32   15   32 1     
   33   16   17 1     
   34   16   33 1     
   35   16   34 1     
   36   17   18 1     
   37   17   35 1     
   38   17   36 1     
   39   18   37 1     
   40   18   38 1     
   41    8   40 1     
   42    8   41 1     
   43   11   42 1     
@<TRIPOS>SUBSTRUCTURE
      1 S1             1
@<TRIPOS>SET
LONE_PAIRS      STATIC     ATOMS    <user>   **** ""
3 40 41 42
DONOR_HYDROGENS      STATIC     ATOMS    <user>   **** ""
3 39 27 28
ATOM$BLUE        STATIC     ATOMS    COLORGROUP SYSTEM
3 40 41 42
ATOM$RED        STATIC     ATOMS    COLORGROUP SYSTEM
3 39 27 28
