#       Name:                AV-unprocessed.smi:2430
#       Creating user name   scv26
#       Creation time:       Fri Mar 27 13:21:52 2020


#       File generated by GOLD software.
#

@<TRIPOS>MOLECULE
AV-unprocessed.smi:2430
    54    55     1
SMALL
NO_CHARGES


@<TRIPOS>ATOM
      1 ****        -5.6571   0.5470  -3.1052 C.3            1 S1                 0.0000
      2 ****        -5.0130   0.6276  -1.7171 C.3            1 S1                 0.0000
      3 ****        -3.4794   0.7261  -1.8036 C.3            1 S1                 0.0000
      4 ****        -2.9072   0.9335  -0.4778 N.3            1 S1                 0.0000
      5 ****        -1.5141   0.7300  -0.3854 C.ar           1 S1                 0.0000
      6 ****        -0.9506  -0.5019  -0.7922 C.ar           1 S1                 0.0000
      7 ****         0.4418  -0.6878  -0.6969 C.ar           1 S1                 0.0000
      8 ****         1.2386   0.3633  -0.1879 C.ar           1 S1                 0.0000
      9 ****         2.6522   0.3032  -0.0651 N.am           1 S1                 0.0000
     10 ****         3.4263  -0.7854   0.0804 C.2            1 S1                 0.0000
     11 ****         3.0166  -1.9442   0.1514 O.2            1 S1                 0.0000
     12 ****         4.7214  -0.4513   0.1679 N.am           1 S1                 0.0000
     13 ****         5.8148  -1.3912   0.3851 C.3            1 S1                 0.0000
     14 ****         6.0053  -1.6880   1.8809 C.3            1 S1                 0.0000
     15 ****         7.1596  -2.6637   2.1433 C.3            1 S1                 0.0000
     16 ****         7.2909  -2.8845   3.5308 O.3            1 S1                 0.0000
     17 ****         0.5886   1.5569   0.1819 C.ar           1 S1                 0.0000
     18 ****        -0.7456   1.7377   0.0958 N.ar           1 S1                 0.0000
     19 ****        -3.4780   2.0834   0.2199 C.3            1 S1                 0.0000
     20 ****        -5.0167   2.0001   0.2593 C.3            1 S1                 0.0000
     21 ****        -5.5516   0.9719   1.2722 C.3            1 S1                 0.0000
     22 ****        -5.5323   1.7810  -1.0558 O.3            1 S1                 0.0000
     23 ****        -5.3013  -0.3260  -3.6528 H              1 S1                 0.0000
     24 ****        -5.4257   1.4315  -3.6992 H              1 S1                 0.0000
     25 ****        -6.7419   0.4714  -3.0279 H              1 S1                 0.0000
     26 ****        -5.2910  -0.2698  -1.1645 H              1 S1                 0.0000
     27 ****        -3.0887  -0.1759  -2.2731 H              1 S1                 0.0000
     28 ****        -3.1922   1.5634  -2.4412 H              1 S1                 0.0000
     29 ****        -1.5690  -1.3043  -1.1660 H              1 S1                 0.0000
     30 ****         0.8692  -1.6224  -1.0261 H              1 S1                 0.0000
     31 ****         3.1220   1.1952  -0.0117 H              1 S1                 0.0000
     32 ****         4.9673   0.5257   0.1023 H              1 S1                 0.0000
     33 ****         5.6377  -2.3144  -0.1697 H              1 S1                 0.0000
     34 ****         6.7244  -0.9527  -0.0258 H              1 S1                 0.0000
     35 ****         6.1902  -0.7544   2.4143 H              1 S1                 0.0000
     36 ****         5.0837  -2.1018   2.2927 H              1 S1                 0.0000
     37 ****         6.9781  -3.6171   1.6462 H              1 S1                 0.0000
     38 ****         8.0981  -2.2653   1.7565 H              1 S1                 0.0000
     39 ****         7.9992  -3.4937   3.6731 H              1 S1                 0.0000
     40 ****         1.1541   2.3935   0.5655 H              1 S1                 0.0000
     41 ****        -3.0860   2.1475   1.2360 H              1 S1                 0.0000
     42 ****        -3.1749   2.9933  -0.3002 H              1 S1                 0.0000
     43 ****        -5.3920   2.9744   0.5734 H              1 S1                 0.0000
     44 ****        -5.2510   1.2370   2.2859 H              1 S1                 0.0000
     45 ****        -5.1793  -0.0336   1.0781 H              1 S1                 0.0000
     46 ****        -6.6410   0.9366   1.2513 H              1 S1                 0.0000
     47 ****        -3.2204   0.1667   0.0825 LP             1 S1                 0.0000
     48 ****         2.0356  -2.1317   0.1007 LP             1 S1                 0.0000
     49 ****         3.6648  -2.6980   0.2598 LP             1 S1                 0.0000
     50 ****         6.4405  -3.2659   3.8933 LP             1 S1                 0.0000
     51 ****         7.4919  -2.0203   3.9920 LP             1 S1                 0.0000
     52 ****        -1.1609   2.6011   0.3823 LP             1 S1                 0.0000
     53 ****        -6.5249   1.6804  -0.9881 LP             1 S1                 0.0000
     54 ****        -5.3157   2.5829  -1.6126 LP             1 S1                 0.0000
@<TRIPOS>BOND
    1    1    2 1     
    2    1   23 1     
    3    1   24 1     
    4    1   25 1     
    5    2   22 1     
    6    2    3 1     
    7    2   26 1     
    8    3    4 1     
    9    3   27 1     
   10    3   28 1     
   11    4    5 1     
   12    4   19 1     
   13    5   18 ar    
   14    5    6 ar    
   15    6    7 ar    
   16    6   29 1     
   17    7    8 ar    
   18    7   30 1     
   19    8    9 1     
   20    8   17 ar    
   21    9   10 am    
   22    9   31 1     
   23   10   11 2     
   24   10   12 am    
   25   12   13 1     
   26   12   32 1     
   27   13   14 1     
   28   13   33 1     
   29   13   34 1     
   30   14   15 1     
   31   14   35 1     
   32   14   36 1     
   33   15   16 1     
   34   15   37 1     
   35   15   38 1     
   36   16   39 1     
   37   17   18 ar    
   38   17   40 1     
   39   19   20 1     
   40   19   41 1     
   41   19   42 1     
   42   20   21 1     
   43   20   22 1     
   44   20   43 1     
   45   21   44 1     
   46   21   45 1     
   47   21   46 1     
   48    4   47 1     
   49   11   48 1     
   50   11   49 1     
   51   16   50 1     
   52   16   51 1     
   53   18   52 1     
   54   22   53 1     
   55   22   54 1     
@<TRIPOS>SUBSTRUCTURE
      1 S1             1
@<TRIPOS>SET
LONE_PAIRS      STATIC     ATOMS    <user>   **** ""
8 47 48 49 50 51 52 53 54
DONOR_HYDROGENS      STATIC     ATOMS    <user>   **** ""
3 31 32 39
ATOM$BLUE        STATIC     ATOMS    COLORGROUP SYSTEM
8 47 48 49 50 51 52 53 54
ATOM$RED        STATIC     ATOMS    COLORGROUP SYSTEM
3 31 32 39
