AV-unprocessed.smi:3287|AV-procd|sdf|12590|dock5
  -GOLD-   2272018513D 1   1.00000     0.00000
 Structure written by MMmdl.
 43 44  0  0  0  0  0  0  0  0  2 V2000
  153.4700  142.1559  160.7726 C   0  0  0  0  0  0  0  0  0  0  0  0
  152.3427  142.1314  159.7249 C   0  0  2  0  0  0  0  0  0  0  0  0
  152.6933  141.1321  158.6040 C   0  0  0  0  0  0  0  0  0  0  0  0
  151.5968  141.0606  157.5328 C   0  0  0  0  0  0  0  0  0  0  0  0
  151.3262  142.4446  156.9237 C   0  0  1  0  0  0  0  0  0  0  0  0
  150.2594  142.3417  155.9037 N   0  3  0  0  0  0  0  0  0  0  0  0
  149.2185  141.3272  156.1775 C   0  0  0  0  0  0  0  0  0  0  0  0
  148.4045  141.0006  154.9131 C   0  0  2  0  0  0  0  0  0  0  0  0
  149.2162  141.2228  153.7761 O   0  0  0  0  0  0  0  0  0  0  0  0
  147.1239  141.8188  154.8600 C   0  0  0  0  0  0  0  0  0  0  0  0
  146.1893  141.7543  155.9146 C   0  0  0  0  0  0  0  0  0  0  0  0
  145.0196  142.5360  155.8274 C   0  0  0  0  0  0  0  0  0  0  0  0
  144.7469  143.3482  154.7840 N   0  0  0  0  0  0  0  0  0  0  0  0
  145.6451  143.4081  153.7780 C   0  0  0  0  0  0  0  0  0  0  0  0
  146.8445  142.6684  153.7675 C   0  0  0  0  0  0  0  0  0  0  0  0
  150.9528  143.4424  158.0381 C   0  0  0  0  0  0  0  0  0  0  0  0
  152.0383  143.5327  159.1318 C   0  0  1  0  0  0  0  0  0  0  0  0
  151.6174  144.5568  160.2014 C   0  0  0  0  0  0  0  0  0  0  0  0
  154.3859  142.5791  160.3593 H   0  0  0  0  0  0  0  0  0  0  0  0
  153.7000  141.1493  161.1231 H   0  0  0  0  0  0  0  0  0  0  0  0
  153.1957  142.7400  161.6506 H   0  0  0  0  0  0  0  0  0  0  0  0
  151.4409  141.7694  160.2213 H   0  0  0  0  0  0  0  0  0  0  0  0
  153.6373  141.4180  158.1374 H   0  0  0  0  0  0  0  0  0  0  0  0
  152.8492  140.1385  159.0261 H   0  0  0  0  0  0  0  0  0  0  0  0
  151.8958  140.3600  156.7521 H   0  0  0  0  0  0  0  0  0  0  0  0
  150.6827  140.6605  157.9744 H   0  0  0  0  0  0  0  0  0  0  0  0
  152.2397  142.7813  156.4304 H   0  0  0  0  0  0  0  0  0  0  0  0
  149.7907  143.2356  155.8605 H   0  0  0  0  0  0  0  0  0  0  0  0
  149.6941  140.4172  156.5437 H   0  0  0  0  0  0  0  0  0  0  0  0
  148.5580  141.6839  156.9695 H   0  0  0  0  0  0  0  0  0  0  0  0
  148.1378  139.9426  154.9200 H   0  0  0  0  0  0  0  0  0  0  0  0
  149.2601  140.4202  153.2779 H   0  0  0  0  0  0  0  0  0  0  0  0
  146.3588  141.1220  156.7738 H   0  0  0  0  0  0  0  0  0  0  0  0
  144.2843  142.5092  156.6179 H   0  0  0  0  0  0  0  0  0  0  0  0
  145.4021  144.0668  152.9573 H   0  0  0  0  0  0  0  0  0  0  0  0
  147.5310  142.7559  152.9378 H   0  0  0  0  0  0  0  0  0  0  0  0
  150.7946  144.4342  157.6142 H   0  0  0  0  0  0  0  0  0  0  0  0
  150.0045  143.1478  158.4902 H   0  0  0  0  0  0  0  0  0  0  0  0
  152.9495  143.9065  158.6621 H   0  0  0  0  0  0  0  0  0  0  0  0
  150.7528  144.2078  160.7670 H   0  0  0  0  0  0  0  0  0  0  0  0
  151.3517  145.5114  159.7467 H   0  0  0  0  0  0  0  0  0  0  0  0
  152.4220  144.7583  160.9081 H   0  0  0  0  0  0  0  0  0  0  0  0
  150.6796  142.1588  155.0038 H   0  0  0  0  0  0  0  0  0  0  0  0
  1  2  1  0  0  0  0
  1 19  1  0  0  0  0
  1 20  1  0  0  0  0
  1 21  1  0  0  0  0
  2 17  1  0  0  0  0
  2  3  1  0  0  0  0
  2 22  1  0  0  0  0
  3  4  1  0  0  0  0
  3 23  1  0  0  0  0
  3 24  1  0  0  0  0
  4  5  1  0  0  0  0
  4 25  1  0  0  0  0
  4 26  1  0  0  0  0
  5  6  1  0  0  0  0
  5 16  1  0  0  0  0
  5 27  1  0  0  0  0
  6  7  1  0  0  0  0
  6 28  1  0  0  0  0
  6 43  1  0  0  0  0
  7  8  1  0  0  0  0
  7 29  1  0  0  0  0
  7 30  1  0  0  0  0
  8  9  1  0  0  0  0
  8 10  1  0  0  0  0
  8 31  1  0  0  0  0
  9 32  1  0  0  0  0
 10 15  1  0  0  0  0
 10 11  2  0  0  0  0
 11 12  1  0  0  0  0
 11 33  1  0  0  0  0
 12 13  2  0  0  0  0
 12 34  1  0  0  0  0
 13 14  1  0  0  0  0
 14 15  2  0  0  0  0
 14 35  1  0  0  0  0
 15 36  1  0  0  0  0
 16 17  1  0  0  0  0
 16 37  1  0  0  0  0
 16 38  1  0  0  0  0
 17 18  1  0  0  0  0
 17 39  1  0  0  0  0
 18 40  1  0  0  0  0
 18 41  1  0  0  0  0
 18 42  1  0  0  0  0
M  CHG  1   6   1
M  END
> <s_m_source_file>
AV-unprocessed.smi

> <i_m_source_file_index>
3287

> <i_lp_mmshare_version>
43012

> <i_f3d_flags>
0

> <s_epik_input>
W0NIM11bQ0BASF0xW0NIMl1bQ0gyXVtDQEhdKFtDSDJdW0NASF0xW0NIM10pW05IXVtDSDJdW0NASF0oW09IXSljMltjSF1bY0hdbltjSF1bY0hdMg==

> <s_epik_cmdline>
J2VwaWtfcHl0aG9uJywgJy1waCcsICc3LjAnLCAnLXRuJywgJzgnLCAnLW1hJywgJzIwMCcsICctbWV0YWxfYmluZGluZycsICctaW1hZScsICc8aW5maWxlLm1hZT4nLCAnLW9tYWUnLCAnPG91dGZpbGUubWFlPic=

> <r_lp_tautomer_probability>
1

> <r_epik_Ionization_Penalty>
0.00537262

> <r_epik_Ionization_Penalty_Charging>
0.00321624

> <r_epik_Ionization_Penalty_Neutral>
0.00215638

> <r_epik_State_Penalty>
-0

> <r_epik_Charging_Adjusted_Penalty>
0.00321624

> <i_epik_Tot_Q>
1

> <i_epik_Tot_abs_Q>
1

> <r_epik_Metal_State_Penalty>
-0

> <b_epik_Metal_Only>
0

> <s_lp_Force_Field>
OPLS_2005

> <r_lp_Energy>
16.0387

> <b_lp_Chiralities_Consistent>
1

> <s_lp_Variant>
AV-unprocessed.smi:3287-1

> <Gold.Version>
5.8.1

> <Gold.Id.Protein>
6NUR|6NUR_protein|mol2

> <Gold.PLP.Fitness>
49.4530

> <Gold.PLP.PLP>
-41.8072

> <Gold.PLP.part.hbond>
-4.0000

> <Gold.PLP.part.metal>
0.0000

> <Gold.PLP.part.buried>
-7.3344

> <Gold.PLP.part.nonpolar>
-31.0129

> <Gold.PLP.part.repulsive>
0.3296

> <Gold.PLP.ligand.clash>
0.0000

> <Gold.PLP.ligand.torsion>
0.8571

> <Gold.PLP.Chemscore.Hbond>
3.1130

> <Gold.PLP.Chemscore.CHOScore>
0.0000

> <Gold.PLP.Chemscore.Metal>
0.0000

> <Gold.Chemscore.Hbonds>
donor molecule, donor type, donor heavy atom, donor atom, acceptor molecule, acceptor atom, score
      L1  H     6    28       P1  8028  2.00
      L1  H     9    32       P1  7957  0.40
      P1  H  8011  8017       L1     9  0.75

> <Gold.PLP.Chemscore.Internal.Correction>
0.0209

> <Gold.Rescore>
     Score         DG    S(hbond)    S(metal)    S(lipo)     H(rot)  DE(clash)    DE(int)     intcor
     18.98     -20.19       1.91        0.00     112.88       1.90       0.23       0.98       ----

> <Gold.Chemscore.Fitness>
18.9808

> <Gold.Chemscore.DG>
-20.1918

> <Gold.Chemscore.ZeroCoef>
-5.4800

> <Gold.Chemscore.Hbond>
1.9094

> <Gold.Chemscore.Metal>
0.0000

> <Gold.Chemscore.Lipo>
112.8825

> <Gold.Chemscore.Internal_Hbond>
0.0000

> <Gold.Chemscore.DEClash>
0.2284

> <Gold.Chemscore.DEInternal>
0.9826

> <Gold.Chemscore.Rot>
1.9035

> <Gold.Chemscore.Internal.Correction>
   9.000000E+99

> <Gold.Chemscore.Hbonds>
donor molecule, donor type, donor heavy atom, donor atom, acceptor molecule, acceptor atom, score
      L1  H     6    28       P1  8028  1.00
      L1  H     9    32       P1  7957  0.40
      P1  H  8011  8017       L1     9  0.12

> <Gold.Chemscore.Hbond.Weighted>
-6.3774

> <Gold.Chemscore.Metal.Weighted>
-0.0000

> <Gold.Chemscore.Lipo.Weighted>
-13.2073

> <Gold.Chemscore.Internal_Hbond.Weighted>
0.0000

> <Gold.Chemscore.DEClash.Weighted>
0.2284

> <Gold.Chemscore.DEInternal.Weighted>
0.9826

> <Gold.Chemscore.Rot.Weighted>
4.8729

> <Gold.Chemscore.Internal.Correction.Weighted>
   9.000000E+99

> <Gold.Protein.RotatedTorsions>
[ 6907 6896 6895 6894 ] final  -74.00 input  -60.11 | X-H torsion
[ 7974 7965 7964 7962 ] final  -51.58 input  175.53 | X-H torsion
[ 8008 7997 7996 7995 ] final   45.37 input   59.86 | X-H torsion
[ 10167 10162 10161 10158 ] final  -58.18 input  -65.29 | X-H torsion
[ 10718 10713 10712 10709 ] final  -95.39 input   66.30 | X-H torsion
[ 10763 10752 10751 10750 ] final -117.49 input  -60.55 | X-H torsion
[ 11005 11000 10999 10996 ] final  135.12 input  -57.11 | X-H torsion

> <Gold.Protein.ActiveResidues>
 VAL166  LYS551  ARG553  GLY616  TRP617  ASP618  TYR619  PRO620  LYS621  CYS622 
 ASP623  PHE694  ASN695  SER759  ASP760  ASP761  ALA762  ILE779  LEU786  VAL792 
 PHE793  MET794  SER795  GLU796  ALA797  LYS798  CYS799  TRP800  GLU811  SER814 

> <Gold.Protein.RotatedAtoms>
  150.7109  134.4933  159.5526 H   0  0  0  0  0  0  0  0  0  0  0  0  # atno 6907 bound_to 6896
  152.2546  134.8094  160.0449 H   0  0  0  0  0  0  0  0  0  0  0  0  # atno 6908 bound_to 6896
  151.8829  133.3464  159.3809 H   0  0  0  0  0  0  0  0  0  0  0  0  # atno 6909 bound_to 6896
  145.9174  140.7863  142.9664 H   0  0  0  0  0  0  0  0  0  0  0  0  # atno 7974 bound_to 7965
  155.3348  140.3404  155.4239 H   0  0  0  0  0  0  0  0  0  0  0  0  # atno 8008 bound_to 7997
  156.1843  140.1675  156.8251 H   0  0  0  0  0  0  0  0  0  0  0  0  # atno 8009 bound_to 7997
  154.5369  140.0733  156.8426 H   0  0  0  0  0  0  0  0  0  0  0  0  # atno 8010 bound_to 7997
  140.6213  143.2420  151.5474 H   0  0  0  0  0  0  0  0  0  0  0  0  # atno 10167 bound_to 10162
  156.0042  130.5107  150.6069 H   0  0  0  0  0  0  0  0  0  0  0  0  # atno 10718 bound_to 10713
  154.8556  135.4308  154.1987 H   0  0  0  0  0  0  0  0  0  0  0  0  # atno 10763 bound_to 10752
  153.3039  135.6971  153.7183 H   0  0  0  0  0  0  0  0  0  0  0  0  # atno 10764 bound_to 10752
  153.6303  135.3486  155.3013 H   0  0  0  0  0  0  0  0  0  0  0  0  # atno 10765 bound_to 10752
  139.9959  134.9497  156.9963 H   0  0  0  0  0  0  0  0  0  0  0  0  # atno 11005 bound_to 11000
  144.6749  140.1922  143.7395 LP  0  0  0  0  0  0  0  0  0  0  0  0  # atno 17320 bound_to 7965
  145.8593  139.2215  143.1726 LP  0  0  0  0  0  0  0  0  0  0  0  0  # atno 17321 bound_to 7965
  139.5441  144.2569  152.1408 LP  0  0  0  0  0  0  0  0  0  0  0  0  # atno 17342 bound_to 10162
  140.1789  144.4863  150.6539 LP  0  0  0  0  0  0  0  0  0  0  0  0  # atno 17343 bound_to 10162
  157.3908  131.0795  151.1395 LP  0  0  0  0  0  0  0  0  0  0  0  0  # atno 17370 bound_to 10713
  157.2088  130.6428  149.5766 LP  0  0  0  0  0  0  0  0  0  0  0  0  # atno 17371 bound_to 10713
  140.4819  134.1280  155.7218 LP  0  0  0  0  0  0  0  0  0  0  0  0  # atno 17394 bound_to 11000
  141.1604  133.8804  157.1864 LP  0  0  0  0  0  0  0  0  0  0  0  0  # atno 17395 bound_to 11000

$$$$
