AV-unprocessed.smi:212|AV-procd|sdf|1630|dock9
  -GOLD-   2262019583D 1   1.00000     0.00000
 Structure written by MMmdl.
 65 68  0  0  0  0  0  0  0  0  2 V2000
  144.7834  137.3933  154.9997 C   0  0  0  0  0  0  0  0  0  0  0  0
  146.2631  137.1565  154.6532 C   0  0  1  0  0  0  0  0  0  0  0  0
  146.4826  135.8148  153.9217 C   0  0  0  0  0  0  0  0  0  0  0  0
  145.9870  135.8650  152.5217 N   0  3  2  0  0  0  0  0  0  0  0  0
  146.0652  134.5552  151.8229 C   0  0  0  0  0  0  0  0  0  0  0  0
  144.8536  134.3082  150.8939 C   0  0  0  0  0  0  0  0  0  0  0  0
  143.6522  133.8058  151.7119 C   0  0  0  0  0  0  0  0  0  0  0  0
  144.4647  135.5653  150.0935 C   0  0  0  0  0  0  0  0  0  0  0  0
  145.1766  133.2802  149.9782 O   0  0  0  0  0  0  0  0  0  0  0  0
  146.5939  136.9802  151.7511 C   0  0  0  0  0  0  0  0  0  0  0  0
  146.3778  138.3254  152.4676 C   0  0  0  0  0  0  0  0  0  0  0  0
  146.8151  138.2601  153.8632 N   0  0  0  0  0  0  0  0  0  0  0  0
  148.0826  138.6414  154.1714 C   0  0  0  0  0  0  0  0  0  0  0  0
  149.1297  137.8310  153.8617 N   0  0  0  0  0  0  0  0  0  0  0  0
  150.3788  138.1922  154.1697 C   0  0  0  0  0  0  0  0  0  0  0  0
  150.8003  139.3033  154.7758 N   0  0  0  0  0  0  0  0  0  0  0  0
  149.7563  140.1257  155.0797 C   0  0  0  0  0  0  0  0  0  0  0  0
  148.3800  139.8748  154.8174 C   0  0  0  0  0  0  0  0  0  0  0  0
  147.6118  140.9445  155.2634 N   0  0  0  0  0  0  0  0  0  0  0  0
  148.4830  141.7752  155.7681 C   0  0  0  0  0  0  0  0  0  0  0  0
  149.7947  141.3647  155.6928 N   0  0  0  0  0  0  0  0  0  0  0  0
  150.9642  142.0824  156.1681 C   0  0  0  0  0  0  0  0  0  0  0  0
  151.0982  142.0512  157.7125 C   0  0  1  0  0  0  0  0  0  0  0  0
  151.4687  140.6376  158.2172 C   0  0  0  0  0  0  0  0  0  0  0  0
  152.4056  140.0172  157.3615 O   0  0  0  0  0  0  0  0  0  0  0  0
  152.0583  143.1379  158.2696 C   0  0  1  0  0  0  0  0  0  0  0  0
  151.6842  144.5876  157.9800 C   0  0  0  0  0  0  0  0  0  0  0  0
  152.3360  145.3247  159.1412 C   0  0  0  0  0  0  0  0  0  0  0  0
  152.0907  144.4578  160.2359 O   0  0  0  0  0  0  0  0  0  0  0  0
  152.2705  143.1162  159.7944 C   0  0  0  0  0  0  0  0  0  0  0  0
  144.4015  136.5973  155.6394 H   0  0  0  0  0  0  0  0  0  0  0  0
  144.1538  137.4296  154.1106 H   0  0  0  0  0  0  0  0  0  0  0  0
  144.6564  138.3338  155.5364 H   0  0  0  0  0  0  0  0  0  0  0  0
  146.7930  137.0829  155.6027 H   0  0  0  0  0  0  0  0  0  0  0  0
  147.5468  135.5723  153.9097 H   0  0  0  0  0  0  0  0  0  0  0  0
  145.9832  135.0117  154.4657 H   0  0  0  0  0  0  0  0  0  0  0  0
  146.9995  134.4822  151.2630 H   0  0  0  0  0  0  0  0  0  0  0  0
  146.1062  133.7476  152.5559 H   0  0  0  0  0  0  0  0  0  0  0  0
  143.3332  134.5510  152.4417 H   0  0  0  0  0  0  0  0  0  0  0  0
  143.8943  132.8933  152.2584 H   0  0  0  0  0  0  0  0  0  0  0  0
  142.7958  133.5882  151.0721 H   0  0  0  0  0  0  0  0  0  0  0  0
  144.2139  136.3922  150.7588 H   0  0  0  0  0  0  0  0  0  0  0  0
  143.5961  135.3794  149.4605 H   0  0  0  0  0  0  0  0  0  0  0  0
  145.2728  135.8999  149.4424 H   0  0  0  0  0  0  0  0  0  0  0  0
  145.4190  133.6749  149.1538 H   0  0  0  0  0  0  0  0  0  0  0  0
  147.6599  136.7896  151.6201 H   0  0  0  0  0  0  0  0  0  0  0  0
  146.1584  137.0265  150.7530 H   0  0  0  0  0  0  0  0  0  0  0  0
  146.8858  139.1300  151.9341 H   0  0  0  0  0  0  0  0  0  0  0  0
  145.3190  138.5836  152.4509 H   0  0  0  0  0  0  0  0  0  0  0  0
  151.1515  137.4911  153.8902 H   0  0  0  0  0  0  0  0  0  0  0  0
  148.1915  142.7197  156.2045 H   0  0  0  0  0  0  0  0  0  0  0  0
  151.8436  141.6452  155.6952 H   0  0  0  0  0  0  0  0  0  0  0  0
  150.8923  143.1036  155.7954 H   0  0  0  0  0  0  0  0  0  0  0  0
  150.1125  142.2818  158.1201 H   0  0  0  0  0  0  0  0  0  0  0  0
  151.9201  140.6818  159.2079 H   0  0  0  0  0  0  0  0  0  0  0  0
  150.5820  140.0087  158.3001 H   0  0  0  0  0  0  0  0  0  0  0  0
  151.9542  139.3733  156.8369 H   0  0  0  0  0  0  0  0  0  0  0  0
  153.0451  142.9743  157.8339 H   0  0  0  0  0  0  0  0  0  0  0  0
  152.0391  144.9324  157.0083 H   0  0  0  0  0  0  0  0  0  0  0  0
  150.6075  144.7462  158.0207 H   0  0  0  0  0  0  0  0  0  0  0  0
  153.4112  145.4290  158.9866 H   0  0  0  0  0  0  0  0  0  0  0  0
  151.9106  146.3146  159.3067 H   0  0  0  0  0  0  0  0  0  0  0  0
  151.5860  142.4541  160.3236 H   0  0  0  0  0  0  0  0  0  0  0  0
  153.2838  142.7897  160.0326 H   0  0  0  0  0  0  0  0  0  0  0  0
  145.0020  136.0769  152.5901 H   0  0  0  0  0  0  0  0  0  0  0  0
  1  2  1  0  0  0  0
  1 31  1  0  0  0  0
  1 32  1  0  0  0  0
  1 33  1  0  0  0  0
  2 12  1  0  0  0  0
  2  3  1  0  0  0  0
  2 34  1  0  0  0  0
  3  4  1  0  0  0  0
  3 35  1  0  0  0  0
  3 36  1  0  0  0  0
  4  5  1  0  0  0  0
  4 10  1  0  0  0  0
  4 65  1  0  0  0  0
  5  6  1  0  0  0  0
  5 37  1  0  0  0  0
  5 38  1  0  0  0  0
  6  7  1  0  0  0  0
  6  8  1  0  0  0  0
  6  9  1  0  0  0  0
  7 39  1  0  0  0  0
  7 40  1  0  0  0  0
  7 41  1  0  0  0  0
  8 42  1  0  0  0  0
  8 43  1  0  0  0  0
  8 44  1  0  0  0  0
  9 45  1  0  0  0  0
 10 11  1  0  0  0  0
 10 46  1  0  0  0  0
 10 47  1  0  0  0  0
 11 12  1  0  0  0  0
 11 48  1  0  0  0  0
 11 49  1  0  0  0  0
 12 13  1  0  0  0  0
 13 18  1  0  0  0  0
 13 14  2  0  0  0  0
 14 15  1  0  0  0  0
 15 16  2  0  0  0  0
 15 50  1  0  0  0  0
 16 17  1  0  0  0  0
 17 21  1  0  0  0  0
 17 18  2  0  0  0  0
 18 19  1  0  0  0  0
 19 20  2  0  0  0  0
 20 21  1  0  0  0  0
 20 51  1  0  0  0  0
 21 22  1  0  0  0  0
 22 23  1  0  0  0  0
 22 52  1  0  0  0  0
 22 53  1  0  0  0  0
 23 24  1  0  0  0  0
 23 26  1  0  0  0  0
 23 54  1  0  0  0  0
 24 25  1  0  0  0  0
 24 55  1  0  0  0  0
 24 56  1  0  0  0  0
 25 57  1  0  0  0  0
 26 30  1  0  0  0  0
 26 27  1  0  0  0  0
 26 58  1  0  0  0  0
 27 28  1  0  0  0  0
 27 59  1  0  0  0  0
 27 60  1  0  0  0  0
 28 29  1  0  0  0  0
 28 61  1  0  0  0  0
 28 62  1  0  0  0  0
 29 30  1  0  0  0  0
 30 63  1  0  0  0  0
 30 64  1  0  0  0  0
M  CHG  1   4   1
M  END
> <s_m_source_file>
AV-unprocessed.smi

> <i_m_source_file_index>
212

> <i_lp_mmshare_version>
43012

> <i_f3d_flags>
0

> <s_epik_input>
W0NIM11bQ0BASF0xW0NIMl1OKFtDSDJdQyhbQ0gzXSkoW0NIM10pW09IXSlbQ0gyXVtDSDJdTjFjKG5bY0hdbjIpYyhjMjMpbltjSF1uM1tDSDJdW0NASF0oW0NIMl1bT0hdKVtDQEBIXTRbQ0gyXVtDSDJdT1tDSDJdNA==

> <s_epik_cmdline>
J2VwaWtfcHl0aG9uJywgJy1waCcsICc3LjAnLCAnLXRuJywgJzgnLCAnLW1hJywgJzIwMCcsICctbWV0YWxfYmluZGluZycsICctaW1hZScsICc8aW5maWxlLm1hZT4nLCAnLW9tYWUnLCAnPG91dGZpbGUubWFlPic=

> <r_lp_tautomer_probability>
1

> <r_epik_Ionization_Penalty>
0.00182193

> <r_epik_Ionization_Penalty_Charging>
0.00173996

> <r_epik_Ionization_Penalty_Neutral>
8.19718e-05

> <r_epik_State_Penalty>
-0

> <r_epik_Charging_Adjusted_Penalty>
0.00173996

> <i_epik_Tot_Q>
1

> <i_epik_Tot_abs_Q>
1

> <r_epik_Metal_State_Penalty>
-0

> <b_epik_Metal_Only>
0

> <s_lp_Force_Field>
OPLS_2005

> <r_lp_Energy>
60.3061

> <b_lp_Chiralities_Consistent>
1

> <s_lp_Variant>
AV-unprocessed.smi:212-14

> <Gold.Version>
5.8.1

> <Gold.Id.Protein>
6NUR|6NUR_protein|mol2

> <Gold.PLP.Fitness>
50.7557

> <Gold.PLP.PLP>
-42.7494

> <Gold.PLP.part.hbond>
-4.0000

> <Gold.PLP.part.metal>
0.0000

> <Gold.PLP.part.buried>
0.3597

> <Gold.PLP.part.nonpolar>
-42.8871

> <Gold.PLP.part.repulsive>
4.2166

> <Gold.PLP.ligand.clash>
0.0000

> <Gold.PLP.ligand.torsion>
2.6436

> <Gold.PLP.Chemscore.Hbond>
2.9500

> <Gold.PLP.Chemscore.CHOScore>
1.1657

> <Gold.PLP.Chemscore.Metal>
0.0000

> <Gold.Chemscore.Hbonds>
donor molecule, donor type, donor heavy atom, donor atom, acceptor molecule, acceptor atom, score
      L1  H     9    45       P1  7921  1.00
      P1  H  7989  7998       L1    16  0.31
      P1  H  7997  8008       L1    25  0.84
      L1  C    15    50       P1  7949  0.22
      L1  C    20    51       P1  8028  0.97

> <Gold.PLP.Chemscore.Internal.Correction>
0.9464

> <Gold.Rescore>
     Score         DG    S(hbond)    S(metal)    S(lipo)     H(rot)  DE(clash)    DE(int)     intcor
      9.46     -17.05       2.12        0.00     112.61       3.40       4.23       3.36       ----

> <Gold.Chemscore.Fitness>
9.4569

> <Gold.Chemscore.DG>
-17.0486

> <Gold.Chemscore.ZeroCoef>
-5.4800

> <Gold.Chemscore.Hbond>
2.1237

> <Gold.Chemscore.Metal>
0.0000

> <Gold.Chemscore.Lipo>
112.6140

> <Gold.Chemscore.Internal_Hbond>
0.0000

> <Gold.Chemscore.DEClash>
4.2314

> <Gold.Chemscore.DEInternal>
3.3602

> <Gold.Chemscore.Rot>
3.3986

> <Gold.Chemscore.Internal.Correction>
   9.000000E+99

> <Gold.Chemscore.Hbonds>
donor molecule, donor type, donor heavy atom, donor atom, acceptor molecule, acceptor atom, score
      L1  H     9    45       P1  7921  0.52
      P1  H  7989  7998       L1    16  0.01
      P1  H  7997  8008       L1    25  0.49

> <Gold.Chemscore.Hbond.Weighted>
-7.0932

> <Gold.Chemscore.Metal.Weighted>
-0.0000

> <Gold.Chemscore.Lipo.Weighted>
-13.1758

> <Gold.Chemscore.Internal_Hbond.Weighted>
0.0000

> <Gold.Chemscore.DEClash.Weighted>
4.2314

> <Gold.Chemscore.DEInternal.Weighted>
3.3602

> <Gold.Chemscore.Rot.Weighted>
8.7005

> <Gold.Chemscore.Internal.Correction.Weighted>
   9.000000E+99

> <Gold.Protein.RotatedTorsions>
[ 6907 6896 6895 6894 ] final  -41.37 input  -60.11 | X-H torsion
[ 7974 7965 7964 7962 ] final   41.41 input  175.53 | X-H torsion
[ 8008 7997 7996 7995 ] final  -62.11 input   59.86 | X-H torsion
[ 10167 10162 10161 10158 ] final   59.10 input  -65.29 | X-H torsion
[ 10718 10713 10712 10709 ] final   84.88 input   66.30 | X-H torsion
[ 10763 10752 10751 10750 ] final   11.72 input  -60.55 | X-H torsion
[ 11005 11000 10999 10996 ] final  177.24 input  -57.11 | X-H torsion

> <Gold.Protein.ActiveResidues>
 VAL166  LYS551  ARG553  GLY616  TRP617  ASP618  TYR619  PRO620  LYS621  CYS622 
 ASP623  PHE694  ASN695  SER759  ASP760  ASP761  ALA762  ILE779  LEU786  VAL792 
 PHE793  MET794  SER795  GLU796  ALA797  LYS798  CYS799  TRP800  GLU811  SER814 

> <Gold.Protein.RotatedAtoms>
  150.9676  134.9054  159.7768 H   0  0  0  0  0  0  0  0  0  0  0  0  # atno 6907 bound_to 6896
  152.5179  134.3586  159.9286 H   0  0  0  0  0  0  0  0  0  0  0  0  # atno 6908 bound_to 6896
  151.3596  133.3854  159.2723 H   0  0  0  0  0  0  0  0  0  0  0  0  # atno 6909 bound_to 6896
  146.0826  139.5419  142.9527 H   0  0  0  0  0  0  0  0  0  0  0  0  # atno 7974 bound_to 7965
  154.4482  140.1003  156.6536 H   0  0  0  0  0  0  0  0  0  0  0  0  # atno 8008 bound_to 7997
  155.5371  140.3482  155.4420 H   0  0  0  0  0  0  0  0  0  0  0  0  # atno 8009 bound_to 7997
  156.0623  140.1329  156.9915 H   0  0  0  0  0  0  0  0  0  0  0  0  # atno 8010 bound_to 7997
  140.1800  144.4191  150.6620 H   0  0  0  0  0  0  0  0  0  0  0  0  # atno 10167 bound_to 10162
  157.6905  131.0151  150.2739 H   0  0  0  0  0  0  0  0  0  0  0  0  # atno 10718 bound_to 10713
  153.1897  135.6840  153.8368 H   0  0  0  0  0  0  0  0  0  0  0  0  # atno 10763 bound_to 10752
  153.7672  135.3201  155.3347 H   0  0  0  0  0  0  0  0  0  0  0  0  # atno 10764 bound_to 10752
  154.8110  135.4717  154.0614 H   0  0  0  0  0  0  0  0  0  0  0  0  # atno 10765 bound_to 10752
  140.3820  134.6938  157.4456 H   0  0  0  0  0  0  0  0  0  0  0  0  # atno 11005 bound_to 11000
  145.6190  141.0326  143.1925 LP  0  0  0  0  0  0  0  0  0  0  0  0  # atno 17320 bound_to 7965
  144.7303  139.7745  143.7349 LP  0  0  0  0  0  0  0  0  0  0  0  0  # atno 17321 bound_to 7965
  140.6526  143.2229  151.6043 LP  0  0  0  0  0  0  0  0  0  0  0  0  # atno 17342 bound_to 10162
  139.5300  144.2944  152.1126 LP  0  0  0  0  0  0  0  0  0  0  0  0  # atno 17343 bound_to 10162
  156.3297  130.3798  149.7502 LP  0  0  0  0  0  0  0  0  0  0  0  0  # atno 17370 bound_to 10713
  156.5046  130.8144  151.3145 LP  0  0  0  0  0  0  0  0  0  0  0  0  # atno 17371 bound_to 10713
  140.0471  134.6183  155.8907 LP  0  0  0  0  0  0  0  0  0  0  0  0  # atno 17394 bound_to 11000
  141.1920  133.6574  156.5483 LP  0  0  0  0  0  0  0  0  0  0  0  0  # atno 17395 bound_to 11000

$$$$
