AV-unprocessed.smi:2746|AV-procd|sdf|10574|dock1
  -GOLD-   2272015 23D 1   1.00000     0.00000
 Structure written by MMmdl.
 39 40  0  0  0  0  0  0  0  0  2 V2000
  144.3772  135.1820  150.4645 C   0  0  0  0  0  0  0  0  0  0  0  0
  144.7173  135.6562  151.6724 C   0  0  0  0  0  0  0  0  0  0  0  0
  144.0203  136.8097  152.3702 C   0  0  1  0  0  0  0  0  0  0  0  0
  143.3576  136.3442  153.6727 C   0  0  0  0  0  0  0  0  0  0  0  0
  144.9711  137.8768  152.6651 N   0  0  0  0  0  0  0  0  0  0  0  0
  146.0944  137.7375  153.3890 C   0  0  0  0  0  0  0  0  0  0  0  0
  146.4386  136.6797  153.9173 O   0  0  0  0  0  0  0  0  0  0  0  0
  146.9012  138.9879  153.5854 C   0  0  0  0  0  0  0  0  0  0  0  0
  148.2362  138.9672  154.0555 C   0  0  0  0  0  0  0  0  0  0  0  0
  148.9318  140.1814  154.2420 C   0  0  0  0  0  0  0  0  0  0  0  0
  150.2553  140.1470  154.7019 N   0  0  0  0  0  0  0  0  0  0  0  0
  150.3988  140.5855  156.0846 C   0  0  0  0  0  0  0  0  0  0  0  0
  151.8876  140.6342  156.4701 C   0  0  0  0  0  0  0  0  0  0  0  0
  152.4821  139.3604  156.2379 O   0  0  0  0  0  0  0  0  0  0  0  0
  152.4071  138.9765  154.8678 C   0  0  0  0  0  0  0  0  0  0  0  0
  150.9318  138.8823  154.4410 C   0  0  0  0  0  0  0  0  0  0  0  0
  148.2696  141.3989  153.9586 C   0  0  0  0  0  0  0  0  0  0  0  0
  146.9367  141.3663  153.5048 C   0  0  0  0  0  0  0  0  0  0  0  0
  146.3111  140.1809  153.3414 N   0  3  0  0  0  0  0  0  0  0  0  0
  143.5616  135.6117  149.9018 H   0  0  0  0  0  0  0  0  0  0  0  0
  144.9129  134.3553  150.0223 H   0  0  0  0  0  0  0  0  0  0  0  0
  145.5390  135.1987  152.2041 H   0  0  0  0  0  0  0  0  0  0  0  0
  143.2393  137.1994  151.7143 H   0  0  0  0  0  0  0  0  0  0  0  0
  142.6202  135.5644  153.4788 H   0  0  0  0  0  0  0  0  0  0  0  0
  142.8420  137.1675  154.1680 H   0  0  0  0  0  0  0  0  0  0  0  0
  144.0909  135.9411  154.3720 H   0  0  0  0  0  0  0  0  0  0  0  0
  144.7568  138.7900  152.2917 H   0  0  0  0  0  0  0  0  0  0  0  0
  148.7301  138.0322  154.2788 H   0  0  0  0  0  0  0  0  0  0  0  0
  149.9482  141.5711  156.2091 H   0  0  0  0  0  0  0  0  0  0  0  0
  149.8688  139.9010  156.7482 H   0  0  0  0  0  0  0  0  0  0  0  0
  152.4129  141.4017  155.8992 H   0  0  0  0  0  0  0  0  0  0  0  0
  151.9956  140.8905  157.5240 H   0  0  0  0  0  0  0  0  0  0  0  0
  152.9479  139.6935  154.2479 H   0  0  0  0  0  0  0  0  0  0  0  0
  152.8979  138.0115  154.7413 H   0  0  0  0  0  0  0  0  0  0  0  0
  150.4419  138.0773  154.9903 H   0  0  0  0  0  0  0  0  0  0  0  0
  150.8644  138.6379  153.3801 H   0  0  0  0  0  0  0  0  0  0  0  0
  148.7712  142.3469  154.0892 H   0  0  0  0  0  0  0  0  0  0  0  0
  146.3553  142.2461  153.2709 H   0  0  0  0  0  0  0  0  0  0  0  0
  145.3434  140.1802  153.0168 H   0  0  0  0  0  0  0  0  0  0  0  0
  1  2  2  0  0  0  0
  1 20  1  0  0  0  0
  1 21  1  0  0  0  0
  2  3  1  0  0  0  0
  2 22  1  0  0  0  0
  3  4  1  0  0  0  0
  3  5  1  0  0  0  0
  3 23  1  0  0  0  0
  4 24  1  0  0  0  0
  4 25  1  0  0  0  0
  4 26  1  0  0  0  0
  5  6  1  0  0  0  0
  5 27  1  0  0  0  0
  6  7  2  0  0  0  0
  6  8  1  0  0  0  0
  8 19  1  0  0  0  0
  8  9  2  0  0  0  0
  9 10  1  0  0  0  0
  9 28  1  0  0  0  0
 10 11  1  0  0  0  0
 10 17  2  0  0  0  0
 11 16  1  0  0  0  0
 11 12  1  0  0  0  0
 12 13  1  0  0  0  0
 12 29  1  0  0  0  0
 12 30  1  0  0  0  0
 13 14  1  0  0  0  0
 13 31  1  0  0  0  0
 13 32  1  0  0  0  0
 14 15  1  0  0  0  0
 15 16  1  0  0  0  0
 15 33  1  0  0  0  0
 15 34  1  0  0  0  0
 16 35  1  0  0  0  0
 16 36  1  0  0  0  0
 17 18  1  0  0  0  0
 17 37  1  0  0  0  0
 18 19  2  0  0  0  0
 18 38  1  0  0  0  0
 19 39  1  0  0  0  0
M  CHG  1  19   1
M  END
> <s_m_source_file>
AV-unprocessed.smi

> <i_m_source_file_index>
2746

> <i_lp_mmshare_version>
43012

> <i_f3d_flags>
0

> <s_epik_input>
W0NIMl09W0NIXVtDQEhdKFtDSDNdKVtOSF1DKD1PKWMxW2NIXWMoW2NIXVtjSF1uMSlOMltDSDJdW0NIMl1PW0NIMl1bQ0gyXTI=

> <s_epik_cmdline>
J2VwaWtfcHl0aG9uJywgJy1waCcsICc3LjAnLCAnLXRuJywgJzgnLCAnLW1hJywgJzIwMCcsICctbWV0YWxfYmluZGluZycsICctaW1hZScsICc8aW5maWxlLm1hZT4nLCAnLW9tYWUnLCAnPG91dGZpbGUubWFlPic=

> <r_lp_tautomer_probability>
1

> <r_epik_Ionization_Penalty>
0.451073

> <r_epik_Ionization_Penalty_Charging>
0.450607

> <r_epik_Ionization_Penalty_Neutral>
0.000466544

> <r_epik_State_Penalty>
0.453375

> <r_epik_Charging_Adjusted_Penalty>
0.903982

> <i_epik_Tot_Q>
1

> <i_epik_Tot_abs_Q>
1

> <r_epik_Metal_State_Penalty>
1.0249

> <b_epik_Metal_Only>
0

> <s_lp_Force_Field>
OPLS_2005

> <r_lp_Energy>
25.7361

> <b_lp_Chiralities_Consistent>
1

> <s_lp_Variant>
AV-unprocessed.smi:2746-4

> <Gold.Version>
5.8.1

> <Gold.Id.Protein>
6NUR|6NUR_protein|mol2

> <Gold.PLP.Fitness>
44.8354

> <Gold.PLP.PLP>
-35.5379

> <Gold.PLP.part.hbond>
-4.7510

> <Gold.PLP.part.metal>
0.0000

> <Gold.PLP.part.buried>
-3.1685

> <Gold.PLP.part.nonpolar>
-27.1959

> <Gold.PLP.part.repulsive>
0.1766

> <Gold.PLP.ligand.clash>
0.9333

> <Gold.PLP.ligand.torsion>
0.6193

> <Gold.PLP.Chemscore.Hbond>
3.7600

> <Gold.PLP.Chemscore.CHOScore>
0.0000

> <Gold.PLP.Chemscore.Metal>
0.0000

> <Gold.Chemscore.Hbonds>
donor molecule, donor type, donor heavy atom, donor atom, acceptor molecule, acceptor atom, score
      L1  H     5    27       P1 10175  0.94
      L1  H    19    39       P1 10175  2.00
      P1  H  7989  7998       L1    11  0.20
      P1  H  7997  8010       L1    14  0.60

> <Gold.PLP.Chemscore.Internal.Correction>
0.1894

> <Gold.Rescore>
     Score         DG    S(hbond)    S(metal)    S(lipo)     H(rot)  DE(clash)    DE(int)     intcor
     16.59     -18.41       2.07        0.00      79.90       1.30       0.34       1.48       ----

> <Gold.Chemscore.Fitness>
16.5926

> <Gold.Chemscore.DG>
-18.4076

> <Gold.Chemscore.ZeroCoef>
-5.4800

> <Gold.Chemscore.Hbond>
2.0691

> <Gold.Chemscore.Metal>
0.0000

> <Gold.Chemscore.Lipo>
79.8987

> <Gold.Chemscore.Internal_Hbond>
0.0000

> <Gold.Chemscore.DEClash>
0.3392

> <Gold.Chemscore.DEInternal>
1.4758

> <Gold.Chemscore.Rot>
1.3013

> <Gold.Chemscore.Internal.Correction>
   9.000000E+99

> <Gold.Chemscore.Hbonds>
donor molecule, donor type, donor heavy atom, donor atom, acceptor molecule, acceptor atom, score
      L1  H     5    27       P1 10175  0.89
      L1  H    19    39       P1 10175  0.99
      P1  H  7997  8010       L1    14  0.01

> <Gold.Chemscore.Hbond.Weighted>
-6.9107

> <Gold.Chemscore.Metal.Weighted>
-0.0000

> <Gold.Chemscore.Lipo.Weighted>
-9.3481

> <Gold.Chemscore.Internal_Hbond.Weighted>
0.0000

> <Gold.Chemscore.DEClash.Weighted>
0.3392

> <Gold.Chemscore.DEInternal.Weighted>
1.4758

> <Gold.Chemscore.Rot.Weighted>
3.3313

> <Gold.Chemscore.Internal.Correction.Weighted>
   9.000000E+99

> <Gold.Protein.RotatedTorsions>
[ 6907 6896 6895 6894 ] final  167.48 input  -60.11 | X-H torsion
[ 7974 7965 7964 7962 ] final  -48.48 input  175.53 | X-H torsion
[ 8008 7997 7996 7995 ] final   81.77 input   59.86 | X-H torsion
[ 10167 10162 10161 10158 ] final -102.66 input  -65.29 | X-H torsion
[ 10718 10713 10712 10709 ] final  158.63 input   66.30 | X-H torsion
[ 10763 10752 10751 10750 ] final -120.59 input  -60.55 | X-H torsion
[ 11005 11000 10999 10996 ] final  -23.79 input  -57.11 | X-H torsion

> <Gold.Protein.ActiveResidues>
 VAL166  LYS551  ARG553  GLY616  TRP617  ASP618  TYR619  PRO620  LYS621  CYS622 
 ASP623  PHE694  ASN695  SER759  ASP760  ASP761  ALA762  ILE779  LEU786  VAL792 
 PHE793  MET794  SER795  GLU796  ALA797  LYS798  CYS799  TRP800  GLU811  SER814 

> <Gold.Protein.RotatedAtoms>
  151.8627  133.3460  159.3708 H   0  0  0  0  0  0  0  0  0  0  0  0  # atno 6907 bound_to 6896
  150.7174  134.5191  159.5654 H   0  0  0  0  0  0  0  0  0  0  0  0  # atno 6908 bound_to 6896
  152.2707  134.7936  160.0465 H   0  0  0  0  0  0  0  0  0  0  0  0  # atno 6909 bound_to 6896
  145.9507  140.7575  142.9506 H   0  0  0  0  0  0  0  0  0  0  0  0  # atno 7974 bound_to 7965
  155.9016  140.3433  155.6030 H   0  0  0  0  0  0  0  0  0  0  0  0  # atno 8008 bound_to 7997
  155.7494  140.0818  157.2227 H   0  0  0  0  0  0  0  0  0  0  0  0  # atno 8009 bound_to 7997
  154.4044  140.1556  156.2693 H   0  0  0  0  0  0  0  0  0  0  0  0  # atno 8010 bound_to 7997
  140.2283  143.3625  152.0909 H   0  0  0  0  0  0  0  0  0  0  0  0  # atno 10167 bound_to 10162
  157.1752  131.0619  151.2161 H   0  0  0  0  0  0  0  0  0  0  0  0  # atno 10718 bound_to 10713
  154.8648  135.4197  154.2484 H   0  0  0  0  0  0  0  0  0  0  0  0  # atno 10763 bound_to 10752
  153.3436  135.6995  153.6852 H   0  0  0  0  0  0  0  0  0  0  0  0  # atno 10764 bound_to 10752
  153.5821  135.3571  155.2852 H   0  0  0  0  0  0  0  0  0  0  0  0  # atno 10765 bound_to 10752
  140.8785  133.7670  156.0273 H   0  0  0  0  0  0  0  0  0  0  0  0  # atno 11005 bound_to 11000
  144.6795  140.2430  143.7341 LP  0  0  0  0  0  0  0  0  0  0  0  0  # atno 17320 bound_to 7965
  145.8175  139.2029  143.1957 LP  0  0  0  0  0  0  0  0  0  0  0  0  # atno 17321 bound_to 7965
  139.5119  144.6908  151.5764 LP  0  0  0  0  0  0  0  0  0  0  0  0  # atno 17342 bound_to 10162
  140.6204  143.9269  150.6522 LP  0  0  0  0  0  0  0  0  0  0  0  0  # atno 17343 bound_to 10162
  157.4005  130.7331  149.6764 LP  0  0  0  0  0  0  0  0  0  0  0  0  # atno 17370 bound_to 10713
  155.9732  130.4122  150.4020 LP  0  0  0  0  0  0  0  0  0  0  0  0  # atno 17371 bound_to 10713
  140.8489  134.2977  157.5283 LP  0  0  0  0  0  0  0  0  0  0  0  0  # atno 17394 bound_to 11000
  139.8717  134.9457  156.3917 LP  0  0  0  0  0  0  0  0  0  0  0  0  # atno 17395 bound_to 11000

$$$$
