AV-unprocessed.smi:1701|AV-procd|sdf|6836|dock5
  -GOLD-   22720 8 13D 1   1.00000     0.00000
 Structure written by MMmdl.
 54 56  0  0  0  0  0  0  0  0  2 V2000
  151.5004  143.1674  158.0027 C   0  0  0  0  0  0  0  0  0  0  0  0
  150.4758  142.3390  157.2141 C   0  0  0  0  0  0  0  0  0  0  0  0
  150.9429  140.9861  156.9104 N   0  0  0  0  0  0  0  0  0  0  0  0
  152.1855  140.5082  157.5222 C   0  0  0  0  0  0  0  0  0  0  0  0
  151.9674  139.3406  158.4970 C   0  0  0  0  0  0  0  0  0  0  0  0
  150.1314  140.0921  156.1680 C   0  0  0  0  0  0  0  0  0  0  0  0
  148.9300  139.5561  156.6969 C   0  0  0  0  0  0  0  0  0  0  0  0
  148.1602  138.6733  155.9156 C   0  0  0  0  0  0  0  0  0  0  0  0
  148.6089  138.3350  154.6188 C   0  0  0  0  0  0  0  0  0  0  0  0
  147.9168  137.4738  153.7255 N   0  0  0  0  0  0  0  0  0  0  0  0
  146.8151  136.7310  153.9502 C   0  0  0  0  0  0  0  0  0  0  0  0
  146.2319  136.6482  155.0285 O   0  0  0  0  0  0  0  0  0  0  0  0
  146.3951  136.0325  152.8805 N   0  0  0  0  0  0  0  0  0  0  0  0
  145.2417  135.1363  152.7860 C   0  0  1  0  0  0  0  0  0  0  0  0
  143.9824  135.6578  153.4985 C   0  0  0  0  0  0  0  0  0  0  0  0
  142.8050  135.2935  152.5728 C   0  0  0  0  0  0  0  0  0  0  0  0
  143.3712  134.5035  151.4558 N   0  3  2  0  0  0  0  0  0  0  0  0
  143.2227  133.0382  151.6742 C   0  0  0  0  0  0  0  0  0  0  0  0
  144.0105  132.2180  150.6449 C   0  0  0  0  0  0  0  0  0  0  0  0
  145.4935  132.5946  150.6926 C   0  0  0  0  0  0  0  0  0  0  0  0
  145.6496  134.0945  150.4188 C   0  0  0  0  0  0  0  0  0  0  0  0
  144.7720  134.9753  151.3365 C   0  0  2  0  0  0  0  0  0  0  0  0
  149.8063  138.9250  154.1717 C   0  0  0  0  0  0  0  0  0  0  0  0
  150.5460  139.7707  154.9178 N   0  0  0  0  0  0  0  0  0  0  0  0
  151.0888  144.1450  158.2538 H   0  0  0  0  0  0  0  0  0  0  0  0
  152.4071  143.3360  157.4230 H   0  0  0  0  0  0  0  0  0  0  0  0
  151.7825  142.6781  158.9350 H   0  0  0  0  0  0  0  0  0  0  0  0
  149.5230  142.3033  157.7419 H   0  0  0  0  0  0  0  0  0  0  0  0
  150.2573  142.8494  156.2757 H   0  0  0  0  0  0  0  0  0  0  0  0
  152.8996  140.2246  156.7486 H   0  0  0  0  0  0  0  0  0  0  0  0
  152.6540  141.3324  158.0605 H   0  0  0  0  0  0  0  0  0  0  0  0
  152.9155  139.0257  158.9329 H   0  0  0  0  0  0  0  0  0  0  0  0
  151.5336  138.4752  157.9960 H   0  0  0  0  0  0  0  0  0  0  0  0
  151.3059  139.6171  159.3167 H   0  0  0  0  0  0  0  0  0  0  0  0
  148.5805  139.7965  157.6889 H   0  0  0  0  0  0  0  0  0  0  0  0
  147.2398  138.2876  156.3248 H   0  0  0  0  0  0  0  0  0  0  0  0
  148.3362  137.3755  152.8126 H   0  0  0  0  0  0  0  0  0  0  0  0
  146.9571  136.1160  152.0456 H   0  0  0  0  0  0  0  0  0  0  0  0
  145.5032  134.1551  153.1858 H   0  0  0  0  0  0  0  0  0  0  0  0
  143.8756  135.2013  154.4833 H   0  0  0  0  0  0  0  0  0  0  0  0
  144.0207  136.7388  153.6420 H   0  0  0  0  0  0  0  0  0  0  0  0
  142.0083  134.7655  153.0990 H   0  0  0  0  0  0  0  0  0  0  0  0
  142.3700  136.2047  152.1606 H   0  0  0  0  0  0  0  0  0  0  0  0
  143.5588  132.7755  152.6787 H   0  0  0  0  0  0  0  0  0  0  0  0
  142.1649  132.7777  151.6229 H   0  0  0  0  0  0  0  0  0  0  0  0
  143.8904  131.1534  150.8482 H   0  0  0  0  0  0  0  0  0  0  0  0
  143.6120  132.3913  149.6444 H   0  0  0  0  0  0  0  0  0  0  0  0
  145.9139  132.3414  151.6665 H   0  0  0  0  0  0  0  0  0  0  0  0
  146.0522  132.0193  149.9538 H   0  0  0  0  0  0  0  0  0  0  0  0
  146.6970  134.3856  150.5054 H   0  0  0  0  0  0  0  0  0  0  0  0
  145.3709  134.2862  149.3818 H   0  0  0  0  0  0  0  0  0  0  0  0
  144.7260  135.9702  150.8884 H   0  0  0  0  0  0  0  0  0  0  0  0
  150.1878  138.7111  153.1840 H   0  0  0  0  0  0  0  0  0  0  0  0
  142.8793  134.7296  150.6028 H   0  0  0  0  0  0  0  0  0  0  0  0
  1  2  1  0  0  0  0
  1 25  1  0  0  0  0
  1 26  1  0  0  0  0
  1 27  1  0  0  0  0
  2  3  1  0  0  0  0
  2 28  1  0  0  0  0
  2 29  1  0  0  0  0
  3  4  1  0  0  0  0
  3  6  1  0  0  0  0
  4  5  1  0  0  0  0
  4 30  1  0  0  0  0
  4 31  1  0  0  0  0
  5 32  1  0  0  0  0
  5 33  1  0  0  0  0
  5 34  1  0  0  0  0
  6 24  1  0  0  0  0
  6  7  2  0  0  0  0
  7  8  1  0  0  0  0
  7 35  1  0  0  0  0
  8  9  2  0  0  0  0
  8 36  1  0  0  0  0
  9 10  1  0  0  0  0
  9 23  1  0  0  0  0
 10 11  1  0  0  0  0
 10 37  1  0  0  0  0
 11 12  2  0  0  0  0
 11 13  1  0  0  0  0
 13 14  1  0  0  0  0
 13 38  1  0  0  0  0
 14 22  1  0  0  0  0
 14 15  1  0  0  0  0
 14 39  1  0  0  0  0
 15 16  1  0  0  0  0
 15 40  1  0  0  0  0
 15 41  1  0  0  0  0
 16 17  1  0  0  0  0
 16 42  1  0  0  0  0
 16 43  1  0  0  0  0
 17 22  1  0  0  0  0
 17 18  1  0  0  0  0
 17 54  1  0  0  0  0
 18 19  1  0  0  0  0
 18 44  1  0  0  0  0
 18 45  1  0  0  0  0
 19 20  1  0  0  0  0
 19 46  1  0  0  0  0
 19 47  1  0  0  0  0
 20 21  1  0  0  0  0
 20 48  1  0  0  0  0
 20 49  1  0  0  0  0
 21 22  1  0  0  0  0
 21 50  1  0  0  0  0
 21 51  1  0  0  0  0
 22 52  1  0  0  0  0
 23 24  2  0  0  0  0
 23 53  1  0  0  0  0
M  CHG  1  17   1
M  END
> <s_m_source_file>
AV-unprocessed.smi

> <i_m_source_file_index>
1701

> <i_lp_mmshare_version>
43012

> <i_f3d_flags>
0

> <s_epik_input>
W0NIM11bQ0gyXU4oW0NIMl1bQ0gzXSljMVtjSF1bY0hdYyhbY0hdbjEpW05IXUMoPU8pW05IXVtDQEhdKFtDSDJdW0NIMl0yKVtDQEBIXShOMjMpW0NIMl1bQ0gyXVtDSDJdW0NIMl0z

> <s_epik_cmdline>
J2VwaWtfcHl0aG9uJywgJy1waCcsICc3LjAnLCAnLXRuJywgJzgnLCAnLW1hJywgJzIwMCcsICctbWV0YWxfYmluZGluZycsICctaW1hZScsICc8aW5maWxlLm1hZT4nLCAnLW9tYWUnLCAnPG91dGZpbGUubWFlPic=

> <r_lp_tautomer_probability>
1

> <r_epik_Ionization_Penalty>
0.56662

> <r_epik_Ionization_Penalty_Charging>
0.000974069

> <r_epik_Ionization_Penalty_Neutral>
0.565646

> <r_epik_State_Penalty>
2.0247

> <r_epik_Charging_Adjusted_Penalty>
2.02568

> <i_epik_Tot_Q>
1

> <i_epik_Tot_abs_Q>
1

> <r_epik_Metal_State_Penalty>
1.51504

> <b_epik_Metal_Only>
0

> <s_lp_Force_Field>
OPLS_2005

> <r_lp_Energy>
57.4509

> <b_lp_Chiralities_Consistent>
1

> <s_lp_Variant>
AV-unprocessed.smi:1701-16

> <Gold.Version>
5.8.1

> <Gold.Id.Protein>
6NUR|6NUR_protein|mol2

> <Gold.PLP.Fitness>
42.5412

> <Gold.PLP.PLP>
-32.4338

> <Gold.PLP.part.hbond>
-3.7552

> <Gold.PLP.part.metal>
0.0000

> <Gold.PLP.part.buried>
-1.0742

> <Gold.PLP.part.nonpolar>
-27.8747

> <Gold.PLP.part.repulsive>
0.1252

> <Gold.PLP.ligand.clash>
0.0000

> <Gold.PLP.ligand.torsion>
1.7089

> <Gold.PLP.Chemscore.Hbond>
3.5875

> <Gold.PLP.Chemscore.CHOScore>
0.8793

> <Gold.PLP.Chemscore.Metal>
0.0000

> <Gold.Chemscore.Hbonds>
donor molecule, donor type, donor heavy atom, donor atom, acceptor molecule, acceptor atom, score
      L1  H    10    37       P1  7948  0.82
      L1  H    13    38       P1  7948  0.61
      L1  H    17    54       P1 10186  1.12
      P1  H  7989  7998       L1    24  0.83
      L1  C    23    53       P1  7957  0.90

> <Gold.PLP.Chemscore.Internal.Correction>
0.1248

> <Gold.Rescore>
     Score         DG    S(hbond)    S(metal)    S(lipo)     H(rot)  DE(clash)    DE(int)     intcor
     16.14     -20.21       2.28        0.00      89.04       1.28       0.23       3.85       ----

> <Gold.Chemscore.Fitness>
16.1429

> <Gold.Chemscore.DG>
-20.2141

> <Gold.Chemscore.ZeroCoef>
-5.4800

> <Gold.Chemscore.Hbond>
2.2762

> <Gold.Chemscore.Metal>
0.0000

> <Gold.Chemscore.Lipo>
89.0440

> <Gold.Chemscore.Internal_Hbond>
0.0000

> <Gold.Chemscore.DEClash>
0.2259

> <Gold.Chemscore.DEInternal>
3.8452

> <Gold.Chemscore.Rot>
1.2838

> <Gold.Chemscore.Internal.Correction>
   9.000000E+99

> <Gold.Chemscore.Hbonds>
donor molecule, donor type, donor heavy atom, donor atom, acceptor molecule, acceptor atom, score
      L1  H    10    37       P1  7948  0.80
      L1  H    13    38       P1  7948  0.60
      L1  H    17    54       P1 10186  0.13
      P1  H  7989  7998       L1    24  0.37

> <Gold.Chemscore.Hbond.Weighted>
-7.6025

> <Gold.Chemscore.Metal.Weighted>
-0.0000

> <Gold.Chemscore.Lipo.Weighted>
-10.4182

> <Gold.Chemscore.Internal_Hbond.Weighted>
0.0000

> <Gold.Chemscore.DEClash.Weighted>
0.2259

> <Gold.Chemscore.DEInternal.Weighted>
3.8452

> <Gold.Chemscore.Rot.Weighted>
3.2865

> <Gold.Chemscore.Internal.Correction.Weighted>
   9.000000E+99

> <Gold.Protein.RotatedTorsions>
[ 6907 6896 6895 6894 ] final  -57.20 input  -60.11 | X-H torsion
[ 7974 7965 7964 7962 ] final -164.47 input  175.53 | X-H torsion
[ 8008 7997 7996 7995 ] final  139.54 input   59.86 | X-H torsion
[ 10167 10162 10161 10158 ] final   32.21 input  -65.29 | X-H torsion
[ 10718 10713 10712 10709 ] final -178.83 input   66.30 | X-H torsion
[ 10763 10752 10751 10750 ] final  -54.73 input  -60.55 | X-H torsion
[ 11005 11000 10999 10996 ] final   36.95 input  -57.11 | X-H torsion

> <Gold.Protein.ActiveResidues>
 VAL166  LYS551  ARG553  GLY616  TRP617  ASP618  TYR619  PRO620  LYS621  CYS622 
 ASP623  PHE694  ASN695  SER759  ASP760  ASP761  ALA762  ILE779  LEU786  VAL792 
 PHE793  MET794  SER795  GLU796  ALA797  LYS798  CYS799  TRP800  GLU811  SER814 

> <Gold.Protein.RotatedAtoms>
  150.8105  134.7257  159.6683 H   0  0  0  0  0  0  0  0  0  0  0  0  # atno 6907 bound_to 6896
  152.4225  134.5926  159.9988 H   0  0  0  0  0  0  0  0  0  0  0  0  # atno 6908 bound_to 6896
  151.6137  133.3308  159.3109 H   0  0  0  0  0  0  0  0  0  0  0  0  # atno 6909 bound_to 6896
  144.7296  140.2955  143.6213 H   0  0  0  0  0  0  0  0  0  0  0  0  # atno 7974 bound_to 7965
  156.2988  140.2365  156.4253 H   0  0  0  0  0  0  0  0  0  0  0  0  # atno 8008 bound_to 7997
  154.8318  140.0432  157.1502 H   0  0  0  0  0  0  0  0  0  0  0  0  # atno 8009 bound_to 7997
  154.9199  140.3002  155.5225 H   0  0  0  0  0  0  0  0  0  0  0  0  # atno 8010 bound_to 7997
  140.4519  144.1036  150.6193 H   0  0  0  0  0  0  0  0  0  0  0  0  # atno 10167 bound_to 10162
  156.8501  130.9716  151.3093 H   0  0  0  0  0  0  0  0  0  0  0  0  # atno 10718 bound_to 10713
  154.1794  135.6446  153.5030 H   0  0  0  0  0  0  0  0  0  0  0  0  # atno 10763 bound_to 10752
  153.0063  135.5402  154.6529 H   0  0  0  0  0  0  0  0  0  0  0  0  # atno 10764 bound_to 10752
  154.5890  135.2932  155.0628 H   0  0  0  0  0  0  0  0  0  0  0  0  # atno 10765 bound_to 10752
  140.2275  134.3567  155.7978 H   0  0  0  0  0  0  0  0  0  0  0  0  # atno 11005 bound_to 11000
  145.7812  139.1892  143.2156 LP  0  0  0  0  0  0  0  0  0  0  0  0  # atno 17320 bound_to 7965
  146.0832  140.7740  142.9631 LP  0  0  0  0  0  0  0  0  0  0  0  0  # atno 17321 bound_to 7965
  140.4197  143.2617  151.9730 LP  0  0  0  0  0  0  0  0  0  0  0  0  # atno 17342 bound_to 10162
  139.4797  144.5842  151.7882 LP  0  0  0  0  0  0  0  0  0  0  0  0  # atno 17343 bound_to 10162
  157.6308  130.8727  149.9270 LP  0  0  0  0  0  0  0  0  0  0  0  0  # atno 17370 bound_to 10713
  156.0832  130.3671  150.0538 LP  0  0  0  0  0  0  0  0  0  0  0  0  # atno 17371 bound_to 10713
  141.2220  133.7227  156.8676 LP  0  0  0  0  0  0  0  0  0  0  0  0  # atno 17394 bound_to 11000
  140.1785  134.9050  157.2920 LP  0  0  0  0  0  0  0  0  0  0  0  0  # atno 17395 bound_to 11000

$$$$
