AV-unprocessed.smi:1634|AV-procd|sdf|6536|dock9
  -GOLD-   22720 7223D 1   1.00000     0.00000
 Structure written by MMmdl.
 38 38  0  0  0  0  0  0  0  0  1 V2000
  151.4685  145.3640  160.2478 C   0  0  0  0  0  0  0  0  0  0  0  0
  152.2342  144.4556  159.2745 C   0  0  0  0  0  0  0  0  0  0  0  0
  151.9930  144.8888  157.8198 C   0  0  0  0  0  0  0  0  0  0  0  0
  151.8648  142.9794  159.4911 C   0  0  0  0  0  0  0  0  0  0  0  0
  152.3371  142.2117  158.3885 O   0  0  0  0  0  0  0  0  0  0  0  0
  152.3146  140.7984  158.5692 C   0  0  2  0  0  0  0  0  0  0  0  0
  150.8455  140.3703  158.7015 C   0  0  0  0  0  0  0  0  0  0  0  0
  153.1251  140.4074  159.8156 C   0  0  0  0  0  0  0  0  0  0  0  0
  153.8241  141.2542  160.3714 O   0  0  0  0  0  0  0  0  0  0  0  0
  153.0229  139.1155  160.1862 N   0  0  0  0  0  0  0  0  0  0  0  0
  153.6327  138.4342  161.2532 C   0  0  0  0  0  0  0  0  0  0  0  0
  154.1849  139.0251  162.3454 C   0  0  0  0  0  0  0  0  0  0  0  0
  154.7937  138.2530  163.4157 C   0  0  0  0  0  0  0  0  0  0  0  0
  155.4812  138.9279  164.5924 C   0  0  0  0  0  0  0  0  0  0  0  0
  156.7763  138.6134  164.6412 F   0  0  0  0  0  0  0  0  0  0  0  0
  155.3752  140.2544  164.5125 F   0  0  0  0  0  0  0  0  0  0  0  0
  154.9156  138.5354  165.7330 F   0  0  0  0  0  0  0  0  0  0  0  0
  154.7917  136.9156  163.2671 C   0  0  0  0  0  0  0  0  0  0  0  0
  154.2069  136.2991  162.1588 N   0  0  0  0  0  0  0  0  0  0  0  0
  153.6246  136.9663  161.1375 C   0  0  0  0  0  0  0  0  0  0  0  0
  153.1331  136.3493  160.1931 O   0  0  0  0  0  0  0  0  0  0  0  0
  154.2308  135.2901  162.1290 H   0  0  0  0  0  0  0  0  0  0  0  0
  150.3916  145.2970  160.0896 H   0  0  0  0  0  0  0  0  0  0  0  0
  151.7590  146.4075  160.1223 H   0  0  0  0  0  0  0  0  0  0  0  0
  151.6705  145.0899  161.2837 H   0  0  0  0  0  0  0  0  0  0  0  0
  153.2978  144.5692  159.4878 H   0  0  0  0  0  0  0  0  0  0  0  0
  150.9425  144.7885  157.5451 H   0  0  0  0  0  0  0  0  0  0  0  0
  152.5771  144.2848  157.1249 H   0  0  0  0  0  0  0  0  0  0  0  0
  152.2792  145.9298  157.6672 H   0  0  0  0  0  0  0  0  0  0  0  0
  152.3269  142.6102  160.4080 H   0  0  0  0  0  0  0  0  0  0  0  0
  150.7851  142.8838  159.6115 H   0  0  0  0  0  0  0  0  0  0  0  0
  152.7329  140.3140  157.6848 H   0  0  0  0  0  0  0  0  0  0  0  0
  150.7595  139.2957  158.8663 H   0  0  0  0  0  0  0  0  0  0  0  0
  150.2906  140.6090  157.7939 H   0  0  0  0  0  0  0  0  0  0  0  0
  150.3514  140.8777  159.5309 H   0  0  0  0  0  0  0  0  0  0  0  0
  152.4522  138.5310  159.5919 H   0  0  0  0  0  0  0  0  0  0  0  0
  154.1756  140.0953  162.4656 H   0  0  0  0  0  0  0  0  0  0  0  0
  155.2347  136.2249  163.9693 H   0  0  0  0  0  0  0  0  0  0  0  0
  1  2  1  0  0  0  0
  1 23  1  0  0  0  0
  1 24  1  0  0  0  0
  1 25  1  0  0  0  0
  2  3  1  0  0  0  0
  2  4  1  0  0  0  0
  2 26  1  0  0  0  0
  3 27  1  0  0  0  0
  3 28  1  0  0  0  0
  3 29  1  0  0  0  0
  4  5  1  0  0  0  0
  4 30  1  0  0  0  0
  4 31  1  0  0  0  0
  5  6  1  0  0  0  0
  6  7  1  0  0  0  0
  6  8  1  0  0  0  0
  6 32  1  0  0  0  0
  7 33  1  0  0  0  0
  7 34  1  0  0  0  0
  7 35  1  0  0  0  0
  8  9  2  0  0  0  0
  8 10  1  0  0  0  0
 10 11  1  0  0  0  0
 10 36  1  0  0  0  0
 11 20  1  0  0  0  0
 11 12  2  0  0  0  0
 12 13  1  0  0  0  0
 12 37  1  0  0  0  0
 13 14  1  0  0  0  0
 13 18  2  0  0  0  0
 14 15  1  0  0  0  0
 14 16  1  0  0  0  0
 14 17  1  0  0  0  0
 18 19  1  0  0  0  0
 18 38  1  0  0  0  0
 19 22  1  0  0  0  0
 19 20  1  0  0  0  0
 20 21  2  0  0  0  0
M  END
> <s_m_source_file>
AV-unprocessed.smi

> <i_m_source_file_index>
1634

> <i_lp_mmshare_version>
43012

> <i_f3d_flags>
0

> <s_epik_input>
W0NIM11bQ0hdKFtDSDNdKVtDSDJdT1tDQEhdKFtDSDNdKUMoPU8pW05IXWMxW2NIXWMoQyhGKShGKUYpW2NIXVtuSF1jMT1P

> <s_epik_cmdline>
J2VwaWtfcHl0aG9uJywgJy1waCcsICc3LjAnLCAnLXRuJywgJzgnLCAnLW1hJywgJzIwMCcsICctbWV0YWxfYmluZGluZycsICctaW1hZScsICc8aW5maWxlLm1hZT4nLCAnLW9tYWUnLCAnPG91dGZpbGUubWFlPic=

> <r_lp_tautomer_probability>
0.999

> <r_epik_Ionization_Penalty>
0.00884964

> <r_epik_Ionization_Penalty_Charging>
0.00884955

> <r_epik_Ionization_Penalty_Neutral>
9.33956e-08

> <r_epik_State_Penalty>
0.00669049

> <r_epik_Charging_Adjusted_Penalty>
0.01554

> <i_epik_Tot_Q>
0

> <i_epik_Tot_abs_Q>
0

> <r_epik_Metal_State_Penalty>
0.320763

> <b_epik_Metal_Only>
0

> <s_lp_Force_Field>
OPLS_2005

> <r_lp_Energy>
19.4514

> <b_lp_Chiralities_Consistent>
1

> <s_lp_Variant>
AV-unprocessed.smi:1634-1

> <Gold.Version>
5.8.1

> <Gold.Id.Protein>
6NUR|6NUR_protein|mol2

> <Gold.PLP.Fitness>
39.3801

> <Gold.PLP.PLP>
-37.1299

> <Gold.PLP.part.hbond>
-1.0000

> <Gold.PLP.part.metal>
0.0000

> <Gold.PLP.part.buried>
-3.8512

> <Gold.PLP.part.nonpolar>
-30.9002

> <Gold.PLP.part.repulsive>
0.1083

> <Gold.PLP.ligand.clash>
0.0000

> <Gold.PLP.ligand.torsion>
0.4118

> <Gold.PLP.Chemscore.Hbond>
1.0000

> <Gold.PLP.Chemscore.CHOScore>
0.0000

> <Gold.PLP.Chemscore.Metal>
0.0000

> <Gold.Chemscore.Hbonds>
donor molecule, donor type, donor heavy atom, donor atom, acceptor molecule, acceptor atom, score
      P1  H  6896  6909       L1    21  1.00

> <Gold.PLP.Chemscore.Internal.Correction>
0.0738

> <Gold.Rescore>
     Score         DG    S(hbond)    S(metal)    S(lipo)     H(rot)  DE(clash)    DE(int)     intcor
     12.19     -15.16       1.00        0.00      93.26       1.79       0.04       2.92       ----

> <Gold.Chemscore.Fitness>
12.1926

> <Gold.Chemscore.DG>
-15.1557

> <Gold.Chemscore.ZeroCoef>
-5.4800

> <Gold.Chemscore.Hbond>
1.0000

> <Gold.Chemscore.Metal>
0.0000

> <Gold.Chemscore.Lipo>
93.2577

> <Gold.Chemscore.Internal_Hbond>
0.0000

> <Gold.Chemscore.DEClash>
0.0429

> <Gold.Chemscore.DEInternal>
2.9203

> <Gold.Chemscore.Rot>
1.7873

> <Gold.Chemscore.Internal.Correction>
   9.000000E+99

> <Gold.Chemscore.Hbonds>
donor molecule, donor type, donor heavy atom, donor atom, acceptor molecule, acceptor atom, score
      P1  H  6896  6909       L1    21  1.00

> <Gold.Chemscore.Hbond.Weighted>
-3.3400

> <Gold.Chemscore.Metal.Weighted>
-0.0000

> <Gold.Chemscore.Lipo.Weighted>
-10.9111

> <Gold.Chemscore.Internal_Hbond.Weighted>
0.0000

> <Gold.Chemscore.DEClash.Weighted>
0.0429

> <Gold.Chemscore.DEInternal.Weighted>
2.9203

> <Gold.Chemscore.Rot.Weighted>
4.5755

> <Gold.Chemscore.Internal.Correction.Weighted>
   9.000000E+99

> <Gold.Protein.RotatedTorsions>
[ 6907 6896 6895 6894 ] final  153.30 input  -60.11 | X-H torsion
[ 7974 7965 7964 7962 ] final  -65.52 input  175.53 | X-H torsion
[ 8008 7997 7996 7995 ] final  -26.58 input   59.86 | X-H torsion
[ 10167 10162 10161 10158 ] final  115.98 input  -65.29 | X-H torsion
[ 10718 10713 10712 10709 ] final   16.37 input   66.30 | X-H torsion
[ 10763 10752 10751 10750 ] final -109.48 input  -60.55 | X-H torsion
[ 11005 11000 10999 10996 ] final    0.51 input  -57.11 | X-H torsion

> <Gold.Protein.ActiveResidues>
 VAL166  LYS551  ARG553  GLY616  TRP617  ASP618  TYR619  PRO620  LYS621  CYS622 
 ASP623  PHE694  ASN695  SER759  ASP760  ASP761  ALA762  ILE779  LEU786  VAL792 
 PHE793  MET794  SER795  GLU796  ALA797  LYS798  CYS799  TRP800  GLU811  SER814 

> <Gold.Protein.RotatedAtoms>
  152.0747  133.4123  159.4474 H   0  0  0  0  0  0  0  0  0  0  0  0  # atno 6907 bound_to 6896
  150.6863  134.3052  159.4732 H   0  0  0  0  0  0  0  0  0  0  0  0  # atno 6908 bound_to 6896
  152.0887  134.9421  160.0623 H   0  0  0  0  0  0  0  0  0  0  0  0  # atno 6909 bound_to 6896
  145.7533  140.8898  143.0468 H   0  0  0  0  0  0  0  0  0  0  0  0  # atno 7974 bound_to 7965
  154.4418  140.1895  156.0797 H   0  0  0  0  0  0  0  0  0  0  0  0  # atno 8008 bound_to 7997
  156.0448  140.3315  155.7257 H   0  0  0  0  0  0  0  0  0  0  0  0  # atno 8009 bound_to 7997
  155.5646  140.0607  157.2811 H   0  0  0  0  0  0  0  0  0  0  0  0  # atno 8010 bound_to 7997
  139.6279  144.7111  151.2494 H   0  0  0  0  0  0  0  0  0  0  0  0  # atno 10167 bound_to 10162
  157.0669  130.6332  149.5797 H   0  0  0  0  0  0  0  0  0  0  0  0  # atno 10718 bound_to 10713
  154.8195  135.4599  154.0739 H   0  0  0  0  0  0  0  0  0  0  0  0  # atno 10763 bound_to 10752
  153.2104  135.6881  153.8127 H   0  0  0  0  0  0  0  0  0  0  0  0  # atno 10764 bound_to 10752
  153.7580  135.3288  155.3309 H   0  0  0  0  0  0  0  0  0  0  0  0  # atno 10765 bound_to 10752
  140.6257  133.9620  155.8248 H   0  0  0  0  0  0  0  0  0  0  0  0  # atno 11005 bound_to 11000
  144.6845  139.9621  143.7480 LP  0  0  0  0  0  0  0  0  0  0  0  0  # atno 17320 bound_to 7965
  146.0336  139.3357  143.0740 LP  0  0  0  0  0  0  0  0  0  0  0  0  # atno 17321 bound_to 7965
  140.7422  143.6534  150.8228 LP  0  0  0  0  0  0  0  0  0  0  0  0  # atno 17342 bound_to 10162
  140.0154  143.5598  152.2822 LP  0  0  0  0  0  0  0  0  0  0  0  0  # atno 17343 bound_to 10162
  155.9962  130.5030  150.7487 LP  0  0  0  0  0  0  0  0  0  0  0  0  # atno 17370 bound_to 10713
  157.4910  131.0911  151.0427 LP  0  0  0  0  0  0  0  0  0  0  0  0  # atno 17371 bound_to 10713
  141.0711  134.0204  157.3525 LP  0  0  0  0  0  0  0  0  0  0  0  0  # atno 17394 bound_to 11000
  139.9135  135.0194  156.7790 LP  0  0  0  0  0  0  0  0  0  0  0  0  # atno 17395 bound_to 11000

$$$$
