AV-unprocessed.smi:1093|AV-procd|sdf|4745|dock9
  -GOLD-   22720 3283D 1   1.00000     0.00000
 Structure written by MMmdl.
 47 48  0  0  0  0  0  0  0  0  2 V2000
  153.8957  133.8790  165.7071 C   0  0  0  0  0  0  0  0  0  0  0  0
  154.1961  134.1432  164.2244 C   0  0  0  0  0  0  0  0  0  0  0  0
  155.3095  135.1061  164.0297 N   0  3  2  0  0  0  0  0  0  0  0  0
  156.3491  134.9784  165.0842 C   0  0  0  0  0  0  0  0  0  0  0  0
  157.5556  135.8856  164.7910 C   0  0  0  0  0  0  0  0  0  0  0  0
  157.1197  137.3475  164.6313 C   0  0  0  0  0  0  0  0  0  0  0  0
  156.0293  137.4538  163.5543 C   0  0  2  0  0  0  0  0  0  0  0  0
  155.5767  138.8371  163.4402 N   0  0  0  0  0  0  0  0  0  0  0  0
  154.8977  139.3413  162.3999 C   0  0  0  0  0  0  0  0  0  0  0  0
  154.5576  138.6714  161.4250 O   0  0  0  0  0  0  0  0  0  0  0  0
  154.6245  140.6444  162.5807 N   0  0  0  0  0  0  0  0  0  0  0  0
  153.9794  141.5393  161.6856 C   0  0  0  0  0  0  0  0  0  0  0  0
  153.9177  141.3542  160.2856 C   0  0  0  0  0  0  0  0  0  0  0  0
  153.2737  142.3256  159.4955 C   0  0  0  0  0  0  0  0  0  0  0  0
  152.7083  143.4661  160.1189 C   0  0  0  0  0  0  0  0  0  0  0  0
  152.0522  144.4686  159.3685 N   0  0  0  0  0  0  0  0  0  0  0  0
  151.5593  145.6724  160.0261 C   0  0  0  0  0  0  0  0  0  0  0  0
  151.9272  144.3275  157.9214 C   0  0  0  0  0  0  0  0  0  0  0  0
  152.7810  143.6414  161.4611 N   0  0  0  0  0  0  0  0  0  0  0  0
  153.4022  142.7101  162.2141 C   0  0  0  0  0  0  0  0  0  0  0  0
  154.8505  136.5136  163.8840 C   0  0  0  0  0  0  0  0  0  0  0  0
  153.0115  133.2498  165.8110 H   0  0  0  0  0  0  0  0  0  0  0  0
  153.7024  134.8093  166.2418 H   0  0  0  0  0  0  0  0  0  0  0  0
  154.7155  133.3654  166.2083 H   0  0  0  0  0  0  0  0  0  0  0  0
  154.4110  133.2099  163.7020 H   0  0  0  0  0  0  0  0  0  0  0  0
  153.2901  134.5483  163.7719 H   0  0  0  0  0  0  0  0  0  0  0  0
  155.9171  135.2282  166.0547 H   0  0  0  0  0  0  0  0  0  0  0  0
  156.6887  133.9438  165.1455 H   0  0  0  0  0  0  0  0  0  0  0  0
  158.2891  135.8012  165.5934 H   0  0  0  0  0  0  0  0  0  0  0  0
  158.0540  135.5499  163.8803 H   0  0  0  0  0  0  0  0  0  0  0  0
  156.7445  137.7241  165.5842 H   0  0  0  0  0  0  0  0  0  0  0  0
  157.9782  137.9659  164.3656 H   0  0  0  0  0  0  0  0  0  0  0  0
  156.4663  137.1496  162.6009 H   0  0  0  0  0  0  0  0  0  0  0  0
  155.8094  139.4583  164.2014 H   0  0  0  0  0  0  0  0  0  0  0  0
  154.8734  141.0346  163.4781 H   0  0  0  0  0  0  0  0  0  0  0  0
  154.3637  140.4989  159.8019 H   0  0  0  0  0  0  0  0  0  0  0  0
  153.2317  142.1773  158.4272 H   0  0  0  0  0  0  0  0  0  0  0  0
  152.3804  146.2194  160.4904 H   0  0  0  0  0  0  0  0  0  0  0  0
  150.8292  145.4172  160.7946 H   0  0  0  0  0  0  0  0  0  0  0  0
  151.0728  146.3421  159.3167 H   0  0  0  0  0  0  0  0  0  0  0  0
  152.9123  144.2651  157.4581 H   0  0  0  0  0  0  0  0  0  0  0  0
  151.4055  145.1777  157.4823 H   0  0  0  0  0  0  0  0  0  0  0  0
  151.3671  143.4264  157.6691 H   0  0  0  0  0  0  0  0  0  0  0  0
  153.4342  142.9071  163.2759 H   0  0  0  0  0  0  0  0  0  0  0  0
  154.1076  136.5803  163.0899 H   0  0  0  0  0  0  0  0  0  0  0  0
  154.3568  136.8318  164.8041 H   0  0  0  0  0  0  0  0  0  0  0  0
  155.7579  134.8520  163.1607 H   0  0  0  0  0  0  0  0  0  0  0  0
  1  2  1  0  0  0  0
  1 22  1  0  0  0  0
  1 23  1  0  0  0  0
  1 24  1  0  0  0  0
  2  3  1  0  0  0  0
  2 25  1  0  0  0  0
  2 26  1  0  0  0  0
  3 21  1  0  0  0  0
  3  4  1  0  0  0  0
  3 47  1  0  0  0  0
  4  5  1  0  0  0  0
  4 27  1  0  0  0  0
  4 28  1  0  0  0  0
  5  6  1  0  0  0  0
  5 29  1  0  0  0  0
  5 30  1  0  0  0  0
  6  7  1  0  0  0  0
  6 31  1  0  0  0  0
  6 32  1  0  0  0  0
  7  8  1  0  0  0  0
  7 21  1  0  0  0  0
  7 33  1  0  0  0  0
  8  9  1  0  0  0  0
  8 34  1  0  0  0  0
  9 10  2  0  0  0  0
  9 11  1  0  0  0  0
 11 12  1  0  0  0  0
 11 35  1  0  0  0  0
 12 20  1  0  0  0  0
 12 13  2  0  0  0  0
 13 14  1  0  0  0  0
 13 36  1  0  0  0  0
 14 15  2  0  0  0  0
 14 37  1  0  0  0  0
 15 16  1  0  0  0  0
 15 19  1  0  0  0  0
 16 17  1  0  0  0  0
 16 18  1  0  0  0  0
 17 38  1  0  0  0  0
 17 39  1  0  0  0  0
 17 40  1  0  0  0  0
 18 41  1  0  0  0  0
 18 42  1  0  0  0  0
 18 43  1  0  0  0  0
 19 20  2  0  0  0  0
 20 44  1  0  0  0  0
 21 45  1  0  0  0  0
 21 46  1  0  0  0  0
M  CHG  1   3   1
M  END
> <s_m_source_file>
AV-unprocessed.smi

> <i_m_source_file_index>
1093

> <i_lp_mmshare_version>
43012

> <i_f3d_flags>
0

> <s_epik_input>
W0NIM11bQ0gyXU4xW0NIMl1bQ0gyXVtDSDJdW0NASF0oW0NIMl0xKVtOSF1DKD1PKVtOSF1jMltjSF1bY0hdYyhOKFtDSDNdKVtDSDNdKW5bY0hdMg==

> <s_epik_cmdline>
J2VwaWtfcHl0aG9uJywgJy1waCcsICc3LjAnLCAnLXRuJywgJzgnLCAnLW1hJywgJzIwMCcsICctbWV0YWxfYmluZGluZycsICctaW1hZScsICc8aW5maWxlLm1hZT4nLCAnLW9tYWUnLCAnPG91dGZpbGUubWFlPic=

> <r_lp_tautomer_probability>
1

> <r_epik_Ionization_Penalty>
0.489418

> <r_epik_Ionization_Penalty_Charging>
0.00268196

> <r_epik_Ionization_Penalty_Neutral>
0.486736

> <r_epik_State_Penalty>
0.491157

> <r_epik_Charging_Adjusted_Penalty>
0.493839

> <i_epik_Tot_Q>
1

> <i_epik_Tot_abs_Q>
1

> <r_epik_Metal_State_Penalty>
0.266953

> <b_epik_Metal_Only>
0

> <s_lp_Force_Field>
OPLS_2005

> <r_lp_Energy>
20.183

> <b_lp_Chiralities_Consistent>
1

> <s_lp_Variant>
AV-unprocessed.smi:1093-8

> <Gold.Version>
5.8.1

> <Gold.Id.Protein>
6NUR|6NUR_protein|mol2

> <Gold.PLP.Fitness>
43.8079

> <Gold.PLP.PLP>
-45.1491

> <Gold.PLP.part.hbond>
0.0000

> <Gold.PLP.part.metal>
0.0000

> <Gold.PLP.part.buried>
-5.0712

> <Gold.PLP.part.nonpolar>
-40.4767

> <Gold.PLP.part.repulsive>
0.1142

> <Gold.PLP.ligand.clash>
0.0000

> <Gold.PLP.ligand.torsion>
0.6824

> <Gold.PLP.Chemscore.Hbond>
0.0000

> <Gold.PLP.Chemscore.CHOScore>
0.0000

> <Gold.PLP.Chemscore.Metal>
0.0000

> <Gold.PLP.Chemscore.Internal.Correction>
0.0237

> <Gold.Rescore>
     Score         DG    S(hbond)    S(metal)    S(lipo)     H(rot)  DE(clash)    DE(int)     intcor
     12.84     -14.67       0.00        0.00     104.45       1.18       0.42       1.41       ----

> <Gold.Chemscore.Fitness>
12.8425

> <Gold.Chemscore.DG>
-14.6691

> <Gold.Chemscore.ZeroCoef>
-5.4800

> <Gold.Chemscore.Hbond>
0.0000

> <Gold.Chemscore.Metal>
0.0000

> <Gold.Chemscore.Lipo>
104.4511

> <Gold.Chemscore.Internal_Hbond>
0.0000

> <Gold.Chemscore.DEClash>
0.4204

> <Gold.Chemscore.DEInternal>
1.4062

> <Gold.Chemscore.Rot>
1.1842

> <Gold.Chemscore.Internal.Correction>
   9.000000E+99

> <Gold.Chemscore.Hbond.Weighted>
-0.0000

> <Gold.Chemscore.Metal.Weighted>
-0.0000

> <Gold.Chemscore.Lipo.Weighted>
-12.2208

> <Gold.Chemscore.Internal_Hbond.Weighted>
0.0000

> <Gold.Chemscore.DEClash.Weighted>
0.4204

> <Gold.Chemscore.DEInternal.Weighted>
1.4062

> <Gold.Chemscore.Rot.Weighted>
3.0317

> <Gold.Chemscore.Internal.Correction.Weighted>
   9.000000E+99

> <Gold.Protein.RotatedTorsions>
[ 6907 6896 6895 6894 ] final   68.43 input  -60.11 | X-H torsion
[ 7974 7965 7964 7962 ] final -167.09 input  175.53 | X-H torsion
[ 8008 7997 7996 7995 ] final  123.22 input   59.86 | X-H torsion
[ 10167 10162 10161 10158 ] final  -95.57 input  -65.29 | X-H torsion
[ 10718 10713 10712 10709 ] final  -83.30 input   66.30 | X-H torsion
[ 10763 10752 10751 10750 ] final  138.91 input  -60.55 | X-H torsion
[ 11005 11000 10999 10996 ] final  173.77 input  -57.11 | X-H torsion

> <Gold.Protein.ActiveResidues>
 VAL166  LYS551  ARG553  GLY616  TRP617  ASP618  TYR619  PRO620  LYS621  CYS622 
 ASP623  PHE694  ASN695  SER759  ASP760  ASP761  ALA762  ILE779  LEU786  VAL792 
 PHE793  MET794  SER795  GLU796  ALA797  LYS798  CYS799  TRP800  GLU811  SER814 

> <Gold.Protein.RotatedAtoms>
  152.4619  134.5163  159.9768 H   0  0  0  0  0  0  0  0  0  0  0  0  # atno 6907 bound_to 6896
  151.5210  133.3460  159.2909 H   0  0  0  0  0  0  0  0  0  0  0  0  # atno 6908 bound_to 6896
  150.8586  134.7962  159.7128 H   0  0  0  0  0  0  0  0  0  0  0  0  # atno 6909 bound_to 6896
  144.7230  140.2570  143.6270 H   0  0  0  0  0  0  0  0  0  0  0  0  # atno 7974 bound_to 7965
  156.2758  140.2768  156.1593 H   0  0  0  0  0  0  0  0  0  0  0  0  # atno 8008 bound_to 7997
  155.0771  140.0387  157.2645 H   0  0  0  0  0  0  0  0  0  0  0  0  # atno 8009 bound_to 7997
  154.6994  140.2646  155.6740 H   0  0  0  0  0  0  0  0  0  0  0  0  # atno 8010 bound_to 7997
  140.3027  143.3152  152.0231 H   0  0  0  0  0  0  0  0  0  0  0  0  # atno 10167 bound_to 10162
  156.0020  130.4661  150.4236 H   0  0  0  0  0  0  0  0  0  0  0  0  # atno 10718 bound_to 10713
  153.8974  135.3026  155.3448 H   0  0  0  0  0  0  0  0  0  0  0  0  # atno 10763 bound_to 10752
  154.7687  135.4897  153.9608 H   0  0  0  0  0  0  0  0  0  0  0  0  # atno 10764 bound_to 10752
  153.1264  135.6794  153.9350 H   0  0  0  0  0  0  0  0  0  0  0  0  # atno 10765 bound_to 10752
  140.3441  134.7251  157.4223 H   0  0  0  0  0  0  0  0  0  0  0  0  # atno 11005 bound_to 11000
  145.8173  139.2028  143.1958 LP  0  0  0  0  0  0  0  0  0  0  0  0  # atno 17320 bound_to 7965
  146.0545  140.8035  142.9765 LP  0  0  0  0  0  0  0  0  0  0  0  0  # atno 17321 bound_to 7965
  139.4911  144.6443  151.6810 LP  0  0  0  0  0  0  0  0  0  0  0  0  # atno 17342 bound_to 10162
  140.5637  144.0226  150.6182 LP  0  0  0  0  0  0  0  0  0  0  0  0  # atno 17343 bound_to 10162
  157.2291  131.0500  151.2503 LP  0  0  0  0  0  0  0  0  0  0  0  0  # atno 17370 bound_to 10713
  157.3728  130.7190  149.6577 LP  0  0  0  0  0  0  0  0  0  0  0  0  # atno 17371 bound_to 10713
  140.0757  134.5801  155.8594 LP  0  0  0  0  0  0  0  0  0  0  0  0  # atno 17394 bound_to 11000
  141.2030  133.6629  156.6040 LP  0  0  0  0  0  0  0  0  0  0  0  0  # atno 17395 bound_to 11000

$$$$
