AV-unprocessed.smi:2279|AV-procd|sdf|9183|dock9
  -GOLD-   2272012403D 1   1.00000     0.00000
 Structure written by MMmdl.
 58 60  0  0  0  0  0  0  0  0  3 V2000
  153.8911  140.8678  160.9928 C   0  0  0  0  0  0  0  0  0  0  0  0
  153.0949  141.4074  159.8232 C   0  0  0  0  0  0  0  0  0  0  0  0
  152.8850  142.7909  159.6669 C   0  0  0  0  0  0  0  0  0  0  0  0
  152.1354  143.2283  158.5573 C   0  0  0  0  0  0  0  0  0  0  0  0
  151.8710  144.7012  158.3273 C   0  0  0  0  0  0  0  0  0  0  0  0
  151.6125  142.3840  157.6426 N   0  0  0  0  0  0  0  0  0  0  0  0
  151.8084  141.0495  157.7830 C   0  0  0  0  0  0  0  0  0  0  0  0
  151.3015  140.0797  156.8777 N   0  0  0  0  0  0  0  0  0  0  0  0
  150.7735  138.8757  157.1603 C   0  0  0  0  0  0  0  0  0  0  0  0
  150.6402  138.4044  158.2900 O   0  0  0  0  0  0  0  0  0  0  0  0
  150.4017  138.2361  156.0413 N   0  0  0  0  0  0  0  0  0  0  0  0
  149.7932  136.9096  155.9804 C   0  0  2  0  0  0  0  0  0  0  0  0
  150.6691  135.9631  155.1544 C   0  0  0  0  0  0  0  0  0  0  0  0
  150.0105  134.5816  155.0053 C   0  0  0  0  0  0  0  0  0  0  0  0
  148.6469  134.6603  154.3987 N   0  3  1  0  0  0  0  0  0  0  0  0
  148.0162  133.3143  154.1682 C   0  0  2  0  0  0  0  0  0  0  0  0
  149.0607  132.2170  153.8308 C   0  0  0  0  0  0  0  0  0  0  0  0
  148.4162  130.8556  153.5180 C   0  0  0  0  0  0  0  0  0  0  0  0
  147.4403  130.9661  152.4107 N   0  3  1  0  0  0  0  0  0  0  0  0
  146.8947  129.6523  152.0052 C   0  0  0  0  0  0  0  0  0  0  0  0
  146.3776  131.9456  152.7297 C   0  0  0  0  0  0  0  0  0  0  0  0
  146.9697  133.3350  153.0222 C   0  0  0  0  0  0  0  0  0  0  0  0
  147.7807  135.5966  155.1780 C   0  0  0  0  0  0  0  0  0  0  0  0
  148.4094  136.9916  155.3295 C   0  0  0  0  0  0  0  0  0  0  0  0
  152.5485  140.5275  158.8675 C   0  0  0  0  0  0  0  0  0  0  0  0
  154.2440  141.6722  161.6388 H   0  0  0  0  0  0  0  0  0  0  0  0
  154.7586  140.3127  160.6346 H   0  0  0  0  0  0  0  0  0  0  0  0
  153.2752  140.1957  161.5904 H   0  0  0  0  0  0  0  0  0  0  0  0
  153.2873  143.4980  160.3778 H   0  0  0  0  0  0  0  0  0  0  0  0
  152.3258  145.3116  159.1080 H   0  0  0  0  0  0  0  0  0  0  0  0
  150.7984  144.8978  158.3234 H   0  0  0  0  0  0  0  0  0  0  0  0
  152.2818  145.0149  157.3674 H   0  0  0  0  0  0  0  0  0  0  0  0
  151.3469  140.3336  155.9022 H   0  0  0  0  0  0  0  0  0  0  0  0
  150.5523  138.7061  155.1605 H   0  0  0  0  0  0  0  0  0  0  0  0
  149.6803  136.4910  156.9823 H   0  0  0  0  0  0  0  0  0  0  0  0
  150.8502  136.3877  154.1656 H   0  0  0  0  0  0  0  0  0  0  0  0
  151.6463  135.8538  155.6269 H   0  0  0  0  0  0  0  0  0  0  0  0
  150.6826  133.9909  154.3873 H   0  0  0  0  0  0  0  0  0  0  0  0
  149.9494  134.0879  155.9765 H   0  0  0  0  0  0  0  0  0  0  0  0
  147.5064  133.0269  155.0894 H   0  0  0  0  0  0  0  0  0  0  0  0
  149.6703  132.5343  152.9834 H   0  0  0  0  0  0  0  0  0  0  0  0
  149.7418  132.0494  154.6634 H   0  0  0  0  0  0  0  0  0  0  0  0
  149.1937  130.1399  153.2475 H   0  0  0  0  0  0  0  0  0  0  0  0
  147.9192  130.4618  154.4065 H   0  0  0  0  0  0  0  0  0  0  0  0
  146.3335  129.1916  152.8194 H   0  0  0  0  0  0  0  0  0  0  0  0
  147.6981  128.9737  151.7168 H   0  0  0  0  0  0  0  0  0  0  0  0
  146.2285  129.7594  151.1485 H   0  0  0  0  0  0  0  0  0  0  0  0
  145.6843  132.0163  151.8905 H   0  0  0  0  0  0  0  0  0  0  0  0
  145.8011  131.5943  153.5874 H   0  0  0  0  0  0  0  0  0  0  0  0
  146.1284  133.9814  153.2662 H   0  0  0  0  0  0  0  0  0  0  0  0
  147.4229  133.7359  152.1143 H   0  0  0  0  0  0  0  0  0  0  0  0
  146.8226  135.7478  154.6865 H   0  0  0  0  0  0  0  0  0  0  0  0
  147.5740  135.1691  156.1606 H   0  0  0  0  0  0  0  0  0  0  0  0
  147.7540  137.6255  155.9285 H   0  0  0  0  0  0  0  0  0  0  0  0
  148.4842  137.4647  154.3490 H   0  0  0  0  0  0  0  0  0  0  0  0
  152.6981  139.4621  158.9691 H   0  0  0  0  0  0  0  0  0  0  0  0
  148.7675  135.0806  153.4882 H   0  0  0  0  0  0  0  0  0  0  0  0
  147.9419  131.3255  151.6106 H   0  0  0  0  0  0  0  0  0  0  0  0
  1  2  1  0  0  0  0
  1 26  1  0  0  0  0
  1 27  1  0  0  0  0
  1 28  1  0  0  0  0
  2 25  1  0  0  0  0
  2  3  2  0  0  0  0
  3  4  1  0  0  0  0
  3 29  1  0  0  0  0
  4  5  1  0  0  0  0
  4  6  2  0  0  0  0
  5 30  1  0  0  0  0
  5 31  1  0  0  0  0
  5 32  1  0  0  0  0
  6  7  1  0  0  0  0
  7  8  1  0  0  0  0
  7 25  2  0  0  0  0
  8  9  1  0  0  0  0
  8 33  1  0  0  0  0
  9 10  2  0  0  0  0
  9 11  1  0  0  0  0
 11 12  1  0  0  0  0
 11 34  1  0  0  0  0
 12 24  1  0  0  0  0
 12 13  1  0  0  0  0
 12 35  1  0  0  0  0
 13 14  1  0  0  0  0
 13 36  1  0  0  0  0
 13 37  1  0  0  0  0
 14 15  1  0  0  0  0
 14 38  1  0  0  0  0
 14 39  1  0  0  0  0
 15 16  1  0  0  0  0
 15 23  1  0  0  0  0
 15 57  1  0  0  0  0
 16 22  1  0  0  0  0
 16 17  1  0  0  0  0
 16 40  1  0  0  0  0
 17 18  1  0  0  0  0
 17 41  1  0  0  0  0
 17 42  1  0  0  0  0
 18 19  1  0  0  0  0
 18 43  1  0  0  0  0
 18 44  1  0  0  0  0
 19 20  1  0  0  0  0
 19 21  1  0  0  0  0
 19 58  1  0  0  0  0
 20 45  1  0  0  0  0
 20 46  1  0  0  0  0
 20 47  1  0  0  0  0
 21 22  1  0  0  0  0
 21 48  1  0  0  0  0
 21 49  1  0  0  0  0
 22 50  1  0  0  0  0
 22 51  1  0  0  0  0
 23 24  1  0  0  0  0
 23 52  1  0  0  0  0
 23 53  1  0  0  0  0
 24 54  1  0  0  0  0
 24 55  1  0  0  0  0
 25 56  1  0  0  0  0
M  CHG  1  15   1
M  CHG  1  19   1
M  END
> <s_m_source_file>
AV-unprocessed.smi

> <i_m_source_file_index>
2279

> <i_lp_mmshare_version>
43012

> <i_f3d_flags>
0

> <s_epik_input>
W0NIM11jMVtjSF1jKFtDSDNdKW5jKFtjSF0xKVtOSF1DKD1PKVtOSF1bQ0hdMltDSDJdW0NIMl1OKFtDSDJdW0NIMl0yKVtDSF0zW0NIMl1bQ0gyXU4oW0NIM10pW0NIMl1bQ0gyXTM=

> <s_epik_cmdline>
J2VwaWtfcHl0aG9uJywgJy1waCcsICc3LjAnLCAnLXRuJywgJzgnLCAnLW1hJywgJzIwMCcsICctbWV0YWxfYmluZGluZycsICctaW1hZScsICc8aW5maWxlLm1hZT4nLCAnLW9tYWUnLCAnPG91dGZpbGUubWFlPic=

> <r_epik_Ionization_Penalty>
0.180973

> <r_epik_Ionization_Penalty_Charging>
0.180787

> <r_epik_Ionization_Penalty_Neutral>
0.000186186

> <r_epik_State_Penalty>
0.153592

> <r_epik_Charging_Adjusted_Penalty>
0.334379

> <i_epik_Tot_Q>
2

> <i_epik_Tot_abs_Q>
2

> <r_epik_Metal_State_Penalty>
0.153604

> <b_epik_Metal_Only>
0

> <s_lp_Force_Field>
OPLS_2005

> <r_lp_Energy>
41.0771

> <b_lp_Chiralities_Consistent>
1

> <s_lp_Variant>
AV-unprocessed.smi:2279-1

> <Gold.Version>
5.8.1

> <Gold.Id.Protein>
6NUR|6NUR_protein|mol2

> <Gold.PLP.Fitness>
48.2749

> <Gold.PLP.PLP>
-41.2441

> <Gold.PLP.part.hbond>
-2.0000

> <Gold.PLP.part.metal>
0.0000

> <Gold.PLP.part.buried>
-3.0662

> <Gold.PLP.part.nonpolar>
-35.7886

> <Gold.PLP.part.repulsive>
0.1462

> <Gold.PLP.ligand.clash>
0.0000

> <Gold.PLP.ligand.torsion>
0.7958

> <Gold.PLP.Chemscore.Hbond>
2.8640

> <Gold.PLP.Chemscore.CHOScore>
0.0000

> <Gold.PLP.Chemscore.Metal>
0.0000

> <Gold.Chemscore.Hbonds>
donor molecule, donor type, donor heavy atom, donor atom, acceptor molecule, acceptor atom, score
      L1  H    15    57       P1  7948  2.00
      L1  H    19    58       P1 10747  0.86

> <Gold.PLP.Chemscore.Internal.Correction>
0.0304

> <Gold.Rescore>
     Score         DG    S(hbond)    S(metal)    S(lipo)     H(rot)  DE(clash)    DE(int)     intcor
     19.50     -21.69       1.81        0.00     113.33       1.21       0.03       2.15       ----

> <Gold.Chemscore.Fitness>
19.5033

> <Gold.Chemscore.DG>
-21.6906

> <Gold.Chemscore.ZeroCoef>
-5.4800

> <Gold.Chemscore.Hbond>
1.8104

> <Gold.Chemscore.Metal>
0.0000

> <Gold.Chemscore.Lipo>
113.3342

> <Gold.Chemscore.Internal_Hbond>
0.0000

> <Gold.Chemscore.DEClash>
0.0329

> <Gold.Chemscore.DEInternal>
2.1543

> <Gold.Chemscore.Rot>
1.2095

> <Gold.Chemscore.Internal.Correction>
   9.000000E+99

> <Gold.Chemscore.Hbonds>
donor molecule, donor type, donor heavy atom, donor atom, acceptor molecule, acceptor atom, score
      L1  H    15    57       P1  7948  0.64
      L1  H    19    58       P1 10747  0.85

> <Gold.Chemscore.Hbond.Weighted>
-6.0467

> <Gold.Chemscore.Metal.Weighted>
-0.0000

> <Gold.Chemscore.Lipo.Weighted>
-13.2601

> <Gold.Chemscore.Internal_Hbond.Weighted>
0.0000

> <Gold.Chemscore.DEClash.Weighted>
0.0329

> <Gold.Chemscore.DEInternal.Weighted>
2.1543

> <Gold.Chemscore.Rot.Weighted>
3.0963

> <Gold.Chemscore.Internal.Correction.Weighted>
   9.000000E+99

> <Gold.Protein.RotatedTorsions>
[ 6907 6896 6895 6894 ] final  -51.65 input  -60.11 | X-H torsion
[ 7974 7965 7964 7962 ] final  -50.72 input  175.53 | X-H torsion
[ 8008 7997 7996 7995 ] final  103.37 input   59.86 | X-H torsion
[ 10167 10162 10161 10158 ] final   -0.73 input  -65.29 | X-H torsion
[ 10718 10713 10712 10709 ] final  137.80 input   66.30 | X-H torsion
[ 10763 10752 10751 10750 ] final   -8.96 input  -60.55 | X-H torsion
[ 11005 11000 10999 10996 ] final  -63.74 input  -57.11 | X-H torsion

> <Gold.Protein.ActiveResidues>
 VAL166  LYS551  ARG553  GLY616  TRP617  ASP618  TYR619  PRO620  LYS621  CYS622 
 ASP623  PHE694  ASN695  SER759  ASP760  ASP761  ALA762  ILE779  LEU786  VAL792 
 PHE793  MET794  SER795  GLU796  ALA797  LYS798  CYS799  TRP800  GLU811  SER814 

> <Gold.Protein.RotatedAtoms>
  150.8592  134.7939  159.7068 H   0  0  0  0  0  0  0  0  0  0  0  0  # atno 6907 bound_to 6896
  152.4634  134.5129  159.9769 H   0  0  0  0  0  0  0  0  0  0  0  0  # atno 6908 bound_to 6896
  151.5235  133.3424  159.2941 H   0  0  0  0  0  0  0  0  0  0  0  0  # atno 6909 bound_to 6896
  145.9268  140.7785  142.9619 H   0  0  0  0  0  0  0  0  0  0  0  0  # atno 7974 bound_to 7965
  156.1477  140.3166  155.8598 H   0  0  0  0  0  0  0  0  0  0  0  0  # atno 8008 bound_to 7997
  155.4031  140.0501  157.3053 H   0  0  0  0  0  0  0  0  0  0  0  0  # atno 8009 bound_to 7997
  154.5031  140.2137  155.9318 H   0  0  0  0  0  0  0  0  0  0  0  0  # atno 8010 bound_to 7997
  140.6780  143.6859  150.8067 H   0  0  0  0  0  0  0  0  0  0  0  0  # atno 10167 bound_to 10162
  157.4322  131.1049  151.0238 H   0  0  0  0  0  0  0  0  0  0  0  0  # atno 10718 bound_to 10713
  153.4479  135.7014  153.6127 H   0  0  0  0  0  0  0  0  0  0  0  0  # atno 10763 bound_to 10752
  153.4474  135.3766  155.2264 H   0  0  0  0  0  0  0  0  0  0  0  0  # atno 10764 bound_to 10752
  154.8728  135.3988  154.3887 H   0  0  0  0  0  0  0  0  0  0  0  0  # atno 10765 bound_to 10752
  141.1403  133.6656  156.5726 H   0  0  0  0  0  0  0  0  0  0  0  0  # atno 11005 bound_to 11000
  144.6759  140.2063  143.7382 LP  0  0  0  0  0  0  0  0  0  0  0  0  # atno 17320 bound_to 7965
  145.8478  139.2161  143.1790 LP  0  0  0  0  0  0  0  0  0  0  0  0  # atno 17321 bound_to 7965
  140.0555  143.5207  152.2653 LP  0  0  0  0  0  0  0  0  0  0  0  0  # atno 17342 bound_to 10162
  139.6084  144.7602  151.3008 LP  0  0  0  0  0  0  0  0  0  0  0  0  # atno 17343 bound_to 10162
  157.1130  130.6030  149.5486 LP  0  0  0  0  0  0  0  0  0  0  0  0  # atno 17370 bound_to 10713
  155.9917  130.4973  150.7311 LP  0  0  0  0  0  0  0  0  0  0  0  0  # atno 17371 bound_to 10713
  140.3901  134.7448  157.4716 LP  0  0  0  0  0  0  0  0  0  0  0  0  # atno 17394 bound_to 11000
  140.0573  134.6046  155.8790 LP  0  0  0  0  0  0  0  0  0  0  0  0  # atno 17395 bound_to 11000

$$$$
