#       Name:                AV-unprocessed.smi:283
#       Creating user name   scv26
#       Creation time:       Thu Mar 26 21:46:58 2020


#       File generated by GOLD software.
#

@<TRIPOS>MOLECULE
AV-unprocessed.smi:283
    59    62     1
SMALL
NO_CHARGES


@<TRIPOS>ATOM
      1 ****        -5.3429  -0.3254  -0.9863 C.3            1 S1                 0.0000
      2 ****        -4.0129   0.3040  -0.5512 C.3            1 S1                 0.0000
      3 ****        -2.9111  -0.6139  -0.8356 N.pl3          1 S1                 0.0000
      4 ****        -1.6246  -0.2202  -0.7043 C.ar           1 S1                 0.0000
      5 ****        -1.3039   1.0871  -0.5179 N.ar           1 S1                 0.0000
      6 ****        -0.0246   1.4502  -0.3895 C.ar           1 S1                 0.0000
      7 ****         1.0669   0.6830  -0.4213 N.ar           1 S1                 0.0000
      8 ****         0.7500  -0.6311  -0.6128 C.ar           1 S1                 0.0000
      9 ****        -0.5621  -1.1582  -0.7654 C.ar           1 S1                 0.0000
     10 ****        -0.4985  -2.5340  -0.9462 N.2            1 S1                 0.0000
     11 ****         0.7799  -2.7996  -0.9045 C.2            1 S1                 0.0000
     12 ****         1.6024  -1.7130  -0.7071 N.pl3          1 S1                 0.0000
     13 ****         3.0956  -1.7000  -0.6053 C.3            1 S1                 0.0000
     14 ****         3.4565  -0.8203   0.4050 O.3            1 S1                 0.0000
     15 ****         4.7867  -0.3957   0.1643 C.3            1 S1                 0.0000
     16 ****         5.0544   0.9351   0.8891 C.3            1 S1                 0.0000
     17 ****         4.3814   2.0140   0.2727 O.3            1 S1                 0.0000
     18 ****         4.9774  -0.4022  -1.3653 C.3            1 S1                 0.0000
     19 ****         6.2019  -1.0335  -1.6857 O.3            1 S1                 0.0000
     20 ****         3.8025  -1.2293  -1.8933 C.3            1 S1                 0.0000
     21 ****         2.9833  -0.4542  -2.7493 O.3            1 S1                 0.0000
     22 ****        -4.0909   0.7657   0.9060 C.ar           1 S1                 0.0000
     23 ****        -3.8140  -0.1498   1.9481 C.ar           1 S1                 0.0000
     24 ****        -3.8828   0.2531   3.2950 C.ar           1 S1                 0.0000
     25 ****        -4.2361   1.5762   3.6152 C.ar           1 S1                 0.0000
     26 ****        -4.5237   2.4926   2.5870 C.ar           1 S1                 0.0000
     27 ****        -4.4561   2.0950   1.2366 C.ar           1 S1                 0.0000
     28 ****        -4.8322   3.2615   0.0167 Cl             1 S1                 0.0000
     29 ****         3.3740  -2.7158  -0.3205 H              1 S1                 0.0000
     30 ****         5.4197  -1.1639   0.6134 H              1 S1                 0.0000
     31 ****         4.9755   0.6025  -1.7895 H              1 S1                 0.0000
     32 ****         4.1268  -2.1099  -2.4496 H              1 S1                 0.0000
     33 ****        -6.1679   0.3763  -0.8594 H              1 S1                 0.0000
     34 ****        -5.5711  -1.2170  -0.4012 H              1 S1                 0.0000
     35 ****        -5.3164  -0.6133  -2.0376 H              1 S1                 0.0000
     36 ****        -3.8474   1.1728  -1.1874 H              1 S1                 0.0000
     37 ****        -3.1729  -1.5753  -0.9993 H              1 S1                 0.0000
     38 ****         0.1495   2.5057  -0.2408 H              1 S1                 0.0000
     39 ****         1.1612  -3.8040  -1.0171 H              1 S1                 0.0000
     40 ****         4.7523   0.8689   1.9346 H              1 S1                 0.0000
     41 ****         6.1226   1.1532   0.8779 H              1 S1                 0.0000
     42 ****         4.5555   2.7995   0.7685 H              1 S1                 0.0000
     43 ****         6.2961  -1.0428  -2.6262 H              1 S1                 0.0000
     44 ****         2.6190   0.2584  -2.2451 H              1 S1                 0.0000
     45 ****        -3.5454  -1.1706   1.7196 H              1 S1                 0.0000
     46 ****        -3.6652  -0.4541   4.0820 H              1 S1                 0.0000
     47 ****        -4.2897   1.8879   4.6479 H              1 S1                 0.0000
     48 ****        -4.7993   3.5066   2.8367 H              1 S1                 0.0000
     49 ****        -2.0259   1.7777  -0.4768 LP             1 S1                 0.0000
     50 ****         2.0000   1.0274  -0.3179 LP             1 S1                 0.0000
     51 ****        -1.2561  -3.1733  -1.0779 LP             1 S1                 0.0000
     52 ****         3.4028  -1.2811   1.2909 LP             1 S1                 0.0000
     53 ****         2.8429  -0.0308   0.4022 LP             1 S1                 0.0000
     54 ****         3.3977   1.8345   0.2597 LP             1 S1                 0.0000
     55 ****         4.7121   2.1265  -0.6644 LP             1 S1                 0.0000
     56 ****         6.1998  -1.9709  -1.3373 LP             1 S1                 0.0000
     57 ****         6.9603  -0.5271  -1.2754 LP             1 S1                 0.0000
     58 ****         2.2456  -1.0210  -3.1162 LP             1 S1                 0.0000
     59 ****         3.5304  -0.0904  -3.5031 LP             1 S1                 0.0000
@<TRIPOS>BOND
    1    1    2 1     
    2    1   33 1     
    3    1   34 1     
    4    1   35 1     
    5    2    3 1     
    6    2   22 1     
    7    2   36 1     
    8    3    4 1     
    9    3   37 1     
   10    4    9 ar    
   11    4    5 ar    
   12    5    6 ar    
   13    6    7 ar    
   14    6   38 1     
   15    7    8 ar    
   16    8   12 1     
   17    8    9 ar    
   18    9   10 1     
   19   10   11 2     
   20   11   12 1     
   21   11   39 1     
   22   12   13 1     
   23   13   29 1     
   24   13   20 1     
   25   13   14 1     
   26   14   15 1     
   27   15   30 1     
   28   15   16 1     
   29   15   18 1     
   30   16   17 1     
   31   16   40 1     
   32   16   41 1     
   33   17   42 1     
   34   18   31 1     
   35   18   19 1     
   36   18   20 1     
   37   19   43 1     
   38   20   32 1     
   39   20   21 1     
   40   21   44 1     
   41   22   27 ar    
   42   22   23 ar    
   43   23   24 ar    
   44   23   45 1     
   45   24   25 ar    
   46   24   46 1     
   47   25   26 ar    
   48   25   47 1     
   49   26   27 ar    
   50   26   48 1     
   51   27   28 1     
   52    5   49 1     
   53    7   50 1     
   54   10   51 1     
   55   14   52 1     
   56   14   53 1     
   57   17   54 1     
   58   17   55 1     
   59   19   56 1     
   60   19   57 1     
   61   21   58 1     
   62   21   59 1     
@<TRIPOS>SUBSTRUCTURE
      1 S1             1
@<TRIPOS>SET
LONE_PAIRS      STATIC     ATOMS    <user>   **** ""
11 49 50 51 52 53 54 55 56 57 58 59
DONOR_HYDROGENS      STATIC     ATOMS    <user>   **** ""
4 37 42 43 44
ATOM$BLUE        STATIC     ATOMS    COLORGROUP SYSTEM
11 49 50 51 52 53 54 55 56 57 58 59
ATOM$RED        STATIC     ATOMS    COLORGROUP SYSTEM
4 37 42 43 44
