#       Name:                AV-unprocessed.smi:2151
#       Creating user name   scv26
#       Creation time:       Fri Mar 27 11:53:43 2020


#       File generated by GOLD software.
#

@<TRIPOS>MOLECULE
AV-unprocessed.smi:2151
    45    46     1
SMALL
NO_CHARGES


@<TRIPOS>ATOM
      1 ****        -2.9013  -1.8112   1.5075 C.3            1 S1                 0.0000
      2 ****        -2.2348  -1.0966   0.3231 C.3            1 S1                 0.0000
      3 ****        -0.7831  -1.1892   0.4702 N.am           1 S1                 0.0000
      4 ****         0.0697  -0.1566   0.5587 C.2            1 S1                 0.0000
      5 ****        -0.2834   1.0223   0.5079 O.2            1 S1                 0.0000
      6 ****         1.5528  -0.5261   0.7031 C.3            1 S1                 0.0000
      7 ****         2.3681   0.5521   1.2872 N.am           1 S1                 0.0000
      8 ****         3.0697   1.3832   0.3918 C.2            1 S1                 0.0000
      9 ****         3.8582   2.3971   0.7970 C.2            1 S1                 0.0000
     10 ****         4.5542   3.3129  -0.1980 C.3            1 S1                 0.0000
     11 ****         4.7876   4.5136   0.3329 F              1 S1                 0.0000
     12 ****         5.7224   2.7840  -0.5595 F              1 S1                 0.0000
     13 ****         3.8159   3.4767  -1.2965 F              1 S1                 0.0000
     14 ****         3.9323   2.6246   2.2270 C.2            1 S1                 0.0000
     15 ****         3.2561   1.8480   3.0961 C.2            1 S1                 0.0000
     16 ****         2.4172   0.7373   2.6404 C.2            1 S1                 0.0000
     17 ****         1.7980   0.0185   3.4252 O.2            1 S1                 0.0000
     18 ****        -2.6719  -1.6913  -1.0305 C.3            1 S1                 0.0000
     19 ****        -2.0177  -1.0487  -2.2558 C.3            1 S1                 0.0000
     20 ****        -3.0192  -1.3708  -3.3403 C.3            1 S1                 0.0000
     21 ****        -4.3423  -1.2025  -2.6002 C.3            1 S1                 0.0000
     22 ****        -4.0712  -1.5041  -1.2333 O.3            1 S1                 0.0000
     23 ****        -3.9879  -1.7418   1.4495 H              1 S1                 0.0000
     24 ****        -2.5955  -1.3671   2.4554 H              1 S1                 0.0000
     25 ****        -2.6366  -2.8689   1.5339 H              1 S1                 0.0000
     26 ****        -2.5493  -0.0519   0.3493 H              1 S1                 0.0000
     27 ****        -0.3951  -2.1204   0.5129 H              1 S1                 0.0000
     28 ****         1.6444  -1.4329   1.3042 H              1 S1                 0.0000
     29 ****         1.9307  -0.7995  -0.2830 H              1 S1                 0.0000
     30 ****         2.9173   1.1493  -0.6520 H              1 S1                 0.0000
     31 ****         4.5417   3.4301   2.6096 H              1 S1                 0.0000
     32 ****         3.3348   2.0466   4.1550 H              1 S1                 0.0000
     33 ****        -2.4764  -2.7650  -1.0498 H              1 S1                 0.0000
     34 ****        -1.9393   0.0323  -2.1291 H              1 S1                 0.0000
     35 ****        -1.0223  -1.4425  -2.4639 H              1 S1                 0.0000
     36 ****        -2.9325  -0.7235  -4.2133 H              1 S1                 0.0000
     37 ****        -2.8978  -2.4049  -3.6658 H              1 S1                 0.0000
     38 ****        -4.6859  -0.1694  -2.6641 H              1 S1                 0.0000
     39 ****        -5.1261  -1.8451  -3.0018 H              1 S1                 0.0000
     40 ****        -1.2506   1.2502   0.3952 LP             1 S1                 0.0000
     41 ****         0.3970   1.7516   0.5793 LP             1 S1                 0.0000
     42 ****         1.2347  -0.7314   3.0783 LP             1 S1                 0.0000
     43 ****         1.8583   0.1847   4.4094 LP             1 S1                 0.0000
     44 ****        -4.3885  -0.7483  -0.6605 LP             1 S1                 0.0000
     45 ****        -4.5554  -2.3412  -0.9788 LP             1 S1                 0.0000
@<TRIPOS>BOND
    1    1    2 1     
    2    1   23 1     
    3    1   24 1     
    4    1   25 1     
    5    2    3 1     
    6    2   18 1     
    7    2   26 1     
    8    3    4 am    
    9    3   27 1     
   10    4    5 2     
   11    4    6 1     
   12    6    7 1     
   13    6   28 1     
   14    6   29 1     
   15    7   16 am    
   16    7    8 1     
   17    8    9 2     
   18    8   30 1     
   19    9   10 1     
   20    9   14 1     
   21   10   11 1     
   22   10   12 1     
   23   10   13 1     
   24   14   15 2     
   25   14   31 1     
   26   15   16 1     
   27   15   32 1     
   28   16   17 2     
   29   18   22 1     
   30   18   19 1     
   31   18   33 1     
   32   19   20 1     
   33   19   34 1     
   34   19   35 1     
   35   20   21 1     
   36   20   36 1     
   37   20   37 1     
   38   21   22 1     
   39   21   38 1     
   40   21   39 1     
   41    5   40 1     
   42    5   41 1     
   43   17   42 1     
   44   17   43 1     
   45   22   44 1     
   46   22   45 1     
@<TRIPOS>SUBSTRUCTURE
      1 S1             1
@<TRIPOS>SET
LONE_PAIRS      STATIC     ATOMS    <user>   **** ""
6 40 41 42 43 44 45
DONOR_HYDROGENS      STATIC     ATOMS    <user>   **** ""
1 27
ATOM$BLUE        STATIC     ATOMS    COLORGROUP SYSTEM
6 40 41 42 43 44 45
ATOM$RED        STATIC     ATOMS    COLORGROUP SYSTEM
1 27
