AV-unprocessed.smi:2136|AV-procd|sdf|8703|dock1
  -GOLD-   2272011463D 1   1.00000     0.00000
 Structure written by MMmdl.
 42 43  0  0  0  0  0  0  0  0  1 V2000
  155.0304  137.9579  160.0602 C   0  0  0  0  0  0  0  0  0  0  0  0
  153.5957  138.1899  158.9313 S   0  0  0  0  0  0  0  0  0  0  0  0
  154.1067  138.2705  157.5549 O   0  0  0  0  0  0  0  0  0  0  0  0
  152.5876  137.1697  159.2581 O   0  0  0  0  0  0  0  0  0  0  0  0
  152.9604  139.7507  159.4202 N   0  0  0  0  0  0  0  0  0  0  0  0
  153.7997  140.4636  160.4150 C   0  0  0  0  0  0  0  0  0  0  0  0
  153.1040  141.6810  161.0351 C   0  0  0  0  0  0  0  0  0  0  0  0
  152.6479  142.6470  159.9489 C   0  0  0  0  0  0  0  0  0  0  0  0
  151.6809  141.9052  159.0321 C   0  0  0  0  0  0  0  0  0  0  0  0
  152.3088  140.6376  158.4012 C   0  0  2  0  0  0  0  0  0  0  0  0
  151.2423  139.9901  157.5054 C   0  0  0  0  0  0  0  0  0  0  0  0
  150.0704  140.3581  157.5847 O   0  0  0  0  0  0  0  0  0  0  0  0
  151.6579  139.0305  156.6625 N   0  0  0  0  0  0  0  0  0  0  0  0
  150.8041  138.3121  155.7260 C   0  0  0  0  0  0  0  0  0  0  0  0
  150.6702  139.0632  154.3916 C   0  0  0  0  0  0  0  0  0  0  0  0
  149.2976  139.6831  154.2237 C   0  0  0  0  0  0  0  0  0  0  0  0
  149.0921  141.0615  154.4377 C   0  0  0  0  0  0  0  0  0  0  0  0
  147.7958  141.5868  154.2739 C   0  0  0  0  0  0  0  0  0  0  0  0
  146.7582  140.7082  153.9024 C   0  0  0  0  0  0  0  0  0  0  0  0
  146.9436  139.3867  153.6953 N   0  0  0  0  0  0  0  0  0  0  0  0
  148.1897  138.8911  153.8543 C   0  0  0  0  0  0  0  0  0  0  0  0
  155.4813  136.9840  159.8723 H   0  0  0  0  0  0  0  0  0  0  0  0
  154.6975  138.0057  161.0962 H   0  0  0  0  0  0  0  0  0  0  0  0
  155.7713  138.7356  159.8771 H   0  0  0  0  0  0  0  0  0  0  0  0
  154.0777  139.7830  161.2193 H   0  0  0  0  0  0  0  0  0  0  0  0
  154.7271  140.7759  159.9338 H   0  0  0  0  0  0  0  0  0  0  0  0
  152.2503  141.3567  161.6317 H   0  0  0  0  0  0  0  0  0  0  0  0
  153.7857  142.1871  161.7192 H   0  0  0  0  0  0  0  0  0  0  0  0
  152.1582  143.5140  160.3934 H   0  0  0  0  0  0  0  0  0  0  0  0
  153.5032  143.0173  159.3821 H   0  0  0  0  0  0  0  0  0  0  0  0
  150.7913  141.6386  159.6056 H   0  0  0  0  0  0  0  0  0  0  0  0
  151.3422  142.5845  158.2481 H   0  0  0  0  0  0  0  0  0  0  0  0
  153.1050  140.9768  157.7369 H   0  0  0  0  0  0  0  0  0  0  0  0
  152.6407  138.7985  156.6573 H   0  0  0  0  0  0  0  0  0  0  0  0
  151.1950  137.3058  155.5649 H   0  0  0  0  0  0  0  0  0  0  0  0
  149.8227  138.1937  156.1864 H   0  0  0  0  0  0  0  0  0  0  0  0
  151.4279  139.8452  154.3237 H   0  0  0  0  0  0  0  0  0  0  0  0
  150.8505  138.3870  153.5547 H   0  0  0  0  0  0  0  0  0  0  0  0
  149.9108  141.7055  154.7238 H   0  0  0  0  0  0  0  0  0  0  0  0
  147.6009  142.6375  154.4295 H   0  0  0  0  0  0  0  0  0  0  0  0
  145.7521  141.0769  153.7683 H   0  0  0  0  0  0  0  0  0  0  0  0
  148.3058  137.8308  153.6837 H   0  0  0  0  0  0  0  0  0  0  0  0
  1  2  1  0  0  0  0
  1 22  1  0  0  0  0
  1 23  1  0  0  0  0
  1 24  1  0  0  0  0
  2  3  2  0  0  0  0
  2  4  2  0  0  0  0
  2  5  1  0  0  0  0
  5 10  1  0  0  0  0
  5  6  1  0  0  0  0
  6  7  1  0  0  0  0
  6 25  1  0  0  0  0
  6 26  1  0  0  0  0
  7  8  1  0  0  0  0
  7 27  1  0  0  0  0
  7 28  1  0  0  0  0
  8  9  1  0  0  0  0
  8 29  1  0  0  0  0
  8 30  1  0  0  0  0
  9 10  1  0  0  0  0
  9 31  1  0  0  0  0
  9 32  1  0  0  0  0
 10 11  1  0  0  0  0
 10 33  1  0  0  0  0
 11 12  2  0  0  0  0
 11 13  1  0  0  0  0
 13 14  1  0  0  0  0
 13 34  1  0  0  0  0
 14 15  1  0  0  0  0
 14 35  1  0  0  0  0
 14 36  1  0  0  0  0
 15 16  1  0  0  0  0
 15 37  1  0  0  0  0
 15 38  1  0  0  0  0
 16 21  1  0  0  0  0
 16 17  2  0  0  0  0
 17 18  1  0  0  0  0
 17 39  1  0  0  0  0
 18 19  2  0  0  0  0
 18 40  1  0  0  0  0
 19 20  1  0  0  0  0
 19 41  1  0  0  0  0
 20 21  2  0  0  0  0
 21 42  1  0  0  0  0
M  END
> <s_m_source_file>
AV-unprocessed.smi

> <i_m_source_file_index>
2136

> <i_lp_mmshare_version>
43012

> <i_f3d_flags>
0

> <s_epik_input>
W0NIM11TKD1PKSg9TylOMVtDSDJdW0NIMl1bQ0gyXVtDSDJdW0NASF0xQyg9TylbTkhdW0NIMl1bQ0gyXWMyW2NIXVtjSF1bY0hdbltjSF0y

> <s_epik_cmdline>
J2VwaWtfcHl0aG9uJywgJy1waCcsICc3LjAnLCAnLXRuJywgJzgnLCAnLW1hJywgJzIwMCcsICctbWV0YWxfYmluZGluZycsICctaW1hZScsICc8aW5maWxlLm1hZT4nLCAnLW9tYWUnLCAnPG91dGZpbGUubWFlPic=

> <r_epik_Ionization_Penalty>
0.0126915

> <r_epik_Ionization_Penalty_Charging>
0

> <r_epik_Ionization_Penalty_Neutral>
0.0126915

> <r_epik_State_Penalty>
0.0098379

> <r_epik_Charging_Adjusted_Penalty>
0.0098379

> <i_epik_Tot_Q>
0

> <i_epik_Tot_abs_Q>
0

> <r_epik_Metal_State_Penalty>
0.00962913

> <b_epik_Metal_Only>
0

> <s_lp_Force_Field>
OPLS_2005

> <r_lp_Energy>
2.71494

> <b_lp_Chiralities_Consistent>
1

> <s_lp_Variant>
AV-unprocessed.smi:2136-2

> <Gold.Version>
5.8.1

> <Gold.Id.Protein>
6NUR|6NUR_protein|mol2

> <Gold.PLP.Fitness>
43.1157

> <Gold.PLP.PLP>
-35.2362

> <Gold.PLP.part.hbond>
-1.4992

> <Gold.PLP.part.metal>
0.0000

> <Gold.PLP.part.buried>
-4.1585

> <Gold.PLP.part.nonpolar>
-30.7375

> <Gold.PLP.part.repulsive>
0.2583

> <Gold.PLP.ligand.clash>
0.0000

> <Gold.PLP.ligand.torsion>
1.5508

> <Gold.PLP.Chemscore.Hbond>
1.3943

> <Gold.PLP.Chemscore.CHOScore>
1.9931

> <Gold.PLP.Chemscore.Metal>
0.0000

> <Gold.Chemscore.Hbonds>
donor molecule, donor type, donor heavy atom, donor atom, acceptor molecule, acceptor atom, score
      P1  H  6896  6908       L1     4  0.31
      P1  H  7997  8010       L1     3  0.83
      L1  C    19    41       P1 10175  1.00
      L1  C    21    42       P1  7948  1.00

> <Gold.PLP.Chemscore.Internal.Correction>
0.8191

> <Gold.Rescore>
     Score         DG    S(hbond)    S(metal)    S(lipo)     H(rot)  DE(clash)    DE(int)     intcor
     15.89     -17.46       1.62        0.00      96.36       1.84       0.07       1.50       ----

> <Gold.Chemscore.Fitness>
15.8895

> <Gold.Chemscore.DG>
-17.4577

> <Gold.Chemscore.ZeroCoef>
-5.4800

> <Gold.Chemscore.Hbond>
1.6224

> <Gold.Chemscore.Metal>
0.0000

> <Gold.Chemscore.Lipo>
96.3598

> <Gold.Chemscore.Internal_Hbond>
0.0000

> <Gold.Chemscore.DEClash>
0.0697

> <Gold.Chemscore.DEInternal>
1.4985

> <Gold.Chemscore.Rot>
1.8419

> <Gold.Chemscore.Internal.Correction>
   9.000000E+99

> <Gold.Chemscore.Hbonds>
donor molecule, donor type, donor heavy atom, donor atom, acceptor molecule, acceptor atom, score
      P1  H  6896  6908       L1     4  0.31
      P1  H  7997  8010       L1     3  0.69

> <Gold.Chemscore.Hbond.Weighted>
-5.4190

> <Gold.Chemscore.Metal.Weighted>
-0.0000

> <Gold.Chemscore.Lipo.Weighted>
-11.2741

> <Gold.Chemscore.Internal_Hbond.Weighted>
0.0000

> <Gold.Chemscore.DEClash.Weighted>
0.0697

> <Gold.Chemscore.DEInternal.Weighted>
1.4985

> <Gold.Chemscore.Rot.Weighted>
4.7153

> <Gold.Chemscore.Internal.Correction.Weighted>
   9.000000E+99

> <Gold.Protein.RotatedTorsions>
[ 6907 6896 6895 6894 ] final -105.68 input  -60.11 | X-H torsion
[ 7974 7965 7964 7962 ] final   55.81 input  175.53 | X-H torsion
[ 8008 7997 7996 7995 ] final   24.44 input   59.86 | X-H torsion
[ 10167 10162 10161 10158 ] final -105.28 input  -65.29 | X-H torsion
[ 10718 10713 10712 10709 ] final  -91.40 input   66.30 | X-H torsion
[ 10763 10752 10751 10750 ] final  136.06 input  -60.55 | X-H torsion
[ 11005 11000 10999 10996 ] final  171.52 input  -57.11 | X-H torsion

> <Gold.Protein.ActiveResidues>
 VAL166  LYS551  ARG553  GLY616  TRP617  ASP618  TYR619  PRO620  LYS621  CYS622 
 ASP623  PHE694  ASN695  SER759  ASP760  ASP761  ALA762  ILE779  LEU786  VAL792 
 PHE793  MET794  SER795  GLU796  ALA797  LYS798  CYS799  TRP800  GLU811  SER814 

> <Gold.Protein.RotatedAtoms>
  150.7349  134.0090  159.3663 H   0  0  0  0  0  0  0  0  0  0  0  0  # atno 6907 bound_to 6896
  151.8049  135.0696  160.0414 H   0  0  0  0  0  0  0  0  0  0  0  0  # atno 6908 bound_to 6896
  152.3114  133.5721  159.5720 H   0  0  0  0  0  0  0  0  0  0  0  0  # atno 6909 bound_to 6896
  145.9465  139.3934  143.0332 H   0  0  0  0  0  0  0  0  0  0  0  0  # atno 7974 bound_to 7965
  154.9963  140.3120  155.4885 H   0  0  0  0  0  0  0  0  0  0  0  0  # atno 8008 bound_to 7997
  156.2932  140.2240  156.5011 H   0  0  0  0  0  0  0  0  0  0  0  0  # atno 8009 bound_to 7997
  154.7658  140.0456  157.0999 H   0  0  0  0  0  0  0  0  0  0  0  0  # atno 8010 bound_to 7997
  140.2002  143.3824  152.1136 H   0  0  0  0  0  0  0  0  0  0  0  0  # atno 10167 bound_to 10162
  155.9993  130.4946  150.5469 H   0  0  0  0  0  0  0  0  0  0  0  0  # atno 10718 bound_to 10713
  153.8503  135.3080  155.3432 H   0  0  0  0  0  0  0  0  0  0  0  0  # atno 10763 bound_to 10752
  154.7894  135.4791  154.0021 H   0  0  0  0  0  0  0  0  0  0  0  0  # atno 10764 bound_to 10752
  153.1522  135.6845  153.8958 H   0  0  0  0  0  0  0  0  0  0  0  0  # atno 10765 bound_to 10752
  140.3199  134.7446  157.4056 H   0  0  0  0  0  0  0  0  0  0  0  0  # atno 11005 bound_to 11000
  145.8230  140.9669  143.0889 LP  0  0  0  0  0  0  0  0  0  0  0  0  # atno 17320 bound_to 7965
  144.6788  140.0065  143.7484 LP  0  0  0  0  0  0  0  0  0  0  0  0  # atno 17321 bound_to 7965
  139.5220  144.7053  151.5371 LP  0  0  0  0  0  0  0  0  0  0  0  0  # atno 17342 bound_to 10162
  140.6396  143.8916  150.6679 LP  0  0  0  0  0  0  0  0  0  0  0  0  # atno 17343 bound_to 10162
  157.3397  131.0714  151.1797 LP  0  0  0  0  0  0  0  0  0  0  0  0  # atno 17370 bound_to 10713
  157.2650  130.6677  149.5992 LP  0  0  0  0  0  0  0  0  0  0  0  0  # atno 17371 bound_to 10713
  140.0951  134.5548  155.8406 LP  0  0  0  0  0  0  0  0  0  0  0  0  # atno 17394 bound_to 11000
  141.2089  133.6678  156.6402 LP  0  0  0  0  0  0  0  0  0  0  0  0  # atno 17395 bound_to 11000

$$$$
