AV-unprocessed.smi:559|AV-procd|sdf|2924|dock6
  -GOLD-   2262023413D 1   1.00000     0.00000
 Structure written by MMmdl.
 41 42  0  0  0  0  0  0  0  0  1 V2000
  150.8961  145.6410  160.0293 C   0  0  0  0  0  0  0  0  0  0  0  0
  151.7131  144.4076  160.2877 C   0  0  0  0  0  0  0  0  0  0  0  0
  152.0707  144.1143  161.5267 N   0  0  0  0  0  0  0  0  0  0  0  0
  152.7905  142.9797  161.4182 N   0  0  0  0  0  0  0  0  0  0  0  0
  153.3561  142.3782  162.6099 C   0  0  0  0  0  0  0  0  0  0  0  0
  152.8849  142.5535  160.1081 C   0  0  0  0  0  0  0  0  0  0  0  0
  153.6412  141.3226  159.7248 C   0  0  0  0  0  0  0  0  0  0  0  0
  152.2028  143.4605  159.3409 C   0  0  0  0  0  0  0  0  0  0  0  0
  152.0233  143.4833  157.8421 C   0  0  0  0  0  0  0  0  0  0  0  0
  151.0020  142.4201  157.4369 C   0  0  0  0  0  0  0  0  0  0  0  0
  150.5898  141.6138  158.2702 O   0  0  0  0  0  0  0  0  0  0  0  0
  150.6340  142.4082  156.1457 N   0  0  0  0  0  0  0  0  0  0  0  0
  149.8299  141.3745  155.5035 C   0  0  0  0  0  0  0  0  0  0  0  0
  150.6895  140.1465  155.1454 C   0  0  2  0  0  0  0  0  0  0  0  0
  149.8965  139.0736  154.3747 C   0  0  0  0  0  0  0  0  0  0  0  0
  150.7486  137.8031  154.2892 C   0  0  0  0  0  0  0  0  0  0  0  0
  151.7031  137.7419  155.8511 S   0  0  0  0  0  0  0  0  0  0  0  0
  151.0502  136.8174  156.7903 O   0  0  0  0  0  0  0  0  0  0  0  0
  153.1336  137.6153  155.5347 O   0  0  0  0  0  0  0  0  0  0  0  0
  151.3392  139.4626  156.3620 C   0  0  0  0  0  0  0  0  0  0  0  0
  151.4839  146.3923  159.5020 H   0  0  0  0  0  0  0  0  0  0  0  0
  150.5360  146.0900  160.9557 H   0  0  0  0  0  0  0  0  0  0  0  0
  150.0249  145.4100  159.4162 H   0  0  0  0  0  0  0  0  0  0  0  0
  153.0126  141.3477  162.7003 H   0  0  0  0  0  0  0  0  0  0  0  0
  153.0537  142.9294  163.5012 H   0  0  0  0  0  0  0  0  0  0  0  0
  154.4439  142.3876  162.5416 H   0  0  0  0  0  0  0  0  0  0  0  0
  153.5697  141.1314  158.6543 H   0  0  0  0  0  0  0  0  0  0  0  0
  153.2512  140.4485  160.2462 H   0  0  0  0  0  0  0  0  0  0  0  0
  154.6972  141.4247  159.9757 H   0  0  0  0  0  0  0  0  0  0  0  0
  151.6814  144.4611  157.5006 H   0  0  0  0  0  0  0  0  0  0  0  0
  152.9594  143.2891  157.3184 H   0  0  0  0  0  0  0  0  0  0  0  0
  151.0223  143.1189  155.5424 H   0  0  0  0  0  0  0  0  0  0  0  0
  148.9870  141.0824  156.1319 H   0  0  0  0  0  0  0  0  0  0  0  0
  149.4002  141.7996  154.5962 H   0  0  0  0  0  0  0  0  0  0  0  0
  151.4984  140.4763  154.4915 H   0  0  0  0  0  0  0  0  0  0  0  0
  148.9787  138.8461  154.9186 H   0  0  0  0  0  0  0  0  0  0  0  0
  149.6022  139.4215  153.3843 H   0  0  0  0  0  0  0  0  0  0  0  0
  150.1553  136.8960  154.1717 H   0  0  0  0  0  0  0  0  0  0  0  0
  151.4573  137.8675  153.4635 H   0  0  0  0  0  0  0  0  0  0  0  0
  152.2550  139.9558  156.6878 H   0  0  0  0  0  0  0  0  0  0  0  0
  150.6489  139.4204  157.2049 H   0  0  0  0  0  0  0  0  0  0  0  0
  1  2  1  0  0  0  0
  1 21  1  0  0  0  0
  1 22  1  0  0  0  0
  1 23  1  0  0  0  0
  2  8  1  0  0  0  0
  2  3  2  0  0  0  0
  3  4  1  0  0  0  0
  4  5  1  0  0  0  0
  4  6  1  0  0  0  0
  5 24  1  0  0  0  0
  5 25  1  0  0  0  0
  5 26  1  0  0  0  0
  6  7  1  0  0  0  0
  6  8  2  0  0  0  0
  7 27  1  0  0  0  0
  7 28  1  0  0  0  0
  7 29  1  0  0  0  0
  8  9  1  0  0  0  0
  9 10  1  0  0  0  0
  9 30  1  0  0  0  0
  9 31  1  0  0  0  0
 10 11  2  0  0  0  0
 10 12  1  0  0  0  0
 12 13  1  0  0  0  0
 12 32  1  0  0  0  0
 13 14  1  0  0  0  0
 13 33  1  0  0  0  0
 13 34  1  0  0  0  0
 14 20  1  0  0  0  0
 14 15  1  0  0  0  0
 14 35  1  0  0  0  0
 15 16  1  0  0  0  0
 15 36  1  0  0  0  0
 15 37  1  0  0  0  0
 16 17  1  0  0  0  0
 16 38  1  0  0  0  0
 16 39  1  0  0  0  0
 17 18  2  0  0  0  0
 17 19  2  0  0  0  0
 17 20  1  0  0  0  0
 20 40  1  0  0  0  0
 20 41  1  0  0  0  0
M  END
> <s_m_source_file>
AV-unprocessed.smi

> <i_m_source_file_index>
559

> <i_lp_mmshare_version>
43012

> <i_f3d_flags>
0

> <s_epik_input>
W0NIM11jMW5uKFtDSDNdKWMoW0NIM10pYzFbQ0gyXUMoPU8pW05IXVtDSDJdW0NAQEhdKFtDSDJdMilbQ0gyXVtDSDJdUzIoPU8pPU8=

> <s_epik_cmdline>
J2VwaWtfcHl0aG9uJywgJy1waCcsICc3LjAnLCAnLXRuJywgJzgnLCAnLW1hJywgJzIwMCcsICctbWV0YWxfYmluZGluZycsICctaW1hZScsICc8aW5maWxlLm1hZT4nLCAnLW9tYWUnLCAnPG91dGZpbGUubWFlPic=

> <r_lp_tautomer_probability>
1

> <r_epik_Ionization_Penalty>
0.00301269

> <r_epik_Ionization_Penalty_Charging>
0

> <r_epik_Ionization_Penalty_Neutral>
0.00301269

> <r_epik_State_Penalty>
0.00211587

> <r_epik_Charging_Adjusted_Penalty>
0.00211587

> <i_epik_Tot_Q>
0

> <i_epik_Tot_abs_Q>
0

> <r_epik_Metal_State_Penalty>
-0

> <b_epik_Metal_Only>
0

> <s_lp_Force_Field>
OPLS_2005

> <r_lp_Energy>
-3.01738

> <b_lp_Chiralities_Consistent>
1

> <s_lp_Variant>
AV-unprocessed.smi:559-1

> <Gold.Version>
5.8.1

> <Gold.Id.Protein>
6NUR|6NUR_protein|mol2

> <Gold.PLP.Fitness>
47.0959

> <Gold.PLP.PLP>
-47.0738

> <Gold.PLP.part.hbond>
-2.0000

> <Gold.PLP.part.metal>
0.0000

> <Gold.PLP.part.buried>
-4.7258

> <Gold.PLP.part.nonpolar>
-41.7920

> <Gold.PLP.part.repulsive>
0.3045

> <Gold.PLP.ligand.clash>
0.0000

> <Gold.PLP.ligand.torsion>
0.3800

> <Gold.PLP.Chemscore.Hbond>
0.2554

> <Gold.PLP.Chemscore.CHOScore>
0.0000

> <Gold.PLP.Chemscore.Metal>
0.0000

> <Gold.Chemscore.Hbonds>
donor molecule, donor type, donor heavy atom, donor atom, acceptor molecule, acceptor atom, score
      P1  H 10752 10763       L1    19  0.18

> <Gold.PLP.Chemscore.Internal.Correction>
0.0158

> <Gold.Rescore>
     Score         DG    S(hbond)    S(metal)    S(lipo)     H(rot)  DE(clash)    DE(int)     intcor
     15.97     -16.68       0.68        0.00     112.21       1.64       0.08       0.63       ----

> <Gold.Chemscore.Fitness>
15.9715

> <Gold.Chemscore.DG>
-16.6778

> <Gold.Chemscore.ZeroCoef>
-5.4800

> <Gold.Chemscore.Hbond>
0.6785

> <Gold.Chemscore.Metal>
0.0000

> <Gold.Chemscore.Lipo>
112.2134

> <Gold.Chemscore.Internal_Hbond>
0.0000

> <Gold.Chemscore.DEClash>
0.0757

> <Gold.Chemscore.DEInternal>
0.6306

> <Gold.Chemscore.Rot>
1.6396

> <Gold.Chemscore.Internal.Correction>
   9.000000E+99

> <Gold.Chemscore.Hbonds>
donor molecule, donor type, donor heavy atom, donor atom, acceptor molecule, acceptor atom, score
      P1  H 10752 10763       L1    19  0.03

> <Gold.Chemscore.Hbond.Weighted>
-2.2663

> <Gold.Chemscore.Metal.Weighted>
-0.0000

> <Gold.Chemscore.Lipo.Weighted>
-13.1290

> <Gold.Chemscore.Internal_Hbond.Weighted>
0.0000

> <Gold.Chemscore.DEClash.Weighted>
0.0757

> <Gold.Chemscore.DEInternal.Weighted>
0.6306

> <Gold.Chemscore.Rot.Weighted>
4.1974

> <Gold.Chemscore.Internal.Correction.Weighted>
   9.000000E+99

> <Gold.Protein.RotatedTorsions>
[ 6907 6896 6895 6894 ] final -117.91 input  -60.11 | X-H torsion
[ 7974 7965 7964 7962 ] final  -83.86 input  175.53 | X-H torsion
[ 8008 7997 7996 7995 ] final  -63.34 input   59.86 | X-H torsion
[ 10167 10162 10161 10158 ] final  -73.55 input  -65.29 | X-H torsion
[ 10718 10713 10712 10709 ] final   54.14 input   66.30 | X-H torsion
[ 10763 10752 10751 10750 ] final   78.67 input  -60.55 | X-H torsion
[ 11005 11000 10999 10996 ] final   16.56 input  -57.11 | X-H torsion

> <Gold.Protein.ActiveResidues>
 VAL166  LYS551  ARG553  GLY616  TRP617  ASP618  TYR619  PRO620  LYS621  CYS622 
 ASP623  PHE694  ASN695  SER759  ASP760  ASP761  ALA762  ILE779  LEU786  VAL792 
 PHE793  MET794  SER795  GLU796  ALA797  LYS798  CYS799  TRP800  GLU811  SER814 

> <Gold.Protein.RotatedAtoms>
  150.8175  133.8311  159.3153 H   0  0  0  0  0  0  0  0  0  0  0  0  # atno 6907 bound_to 6896
  151.6078  135.1041  160.0084 H   0  0  0  0  0  0  0  0  0  0  0  0  # atno 6908 bound_to 6896
  152.4266  133.7165  159.6565 H   0  0  0  0  0  0  0  0  0  0  0  0  # atno 6909 bound_to 6896
  145.5143  140.9537  143.1690 H   0  0  0  0  0  0  0  0  0  0  0  0  # atno 7974 bound_to 7965
  154.4549  140.0977  156.6728 H   0  0  0  0  0  0  0  0  0  0  0  0  # atno 8008 bound_to 7997
  155.5169  140.3478  155.4381 H   0  0  0  0  0  0  0  0  0  0  0  0  # atno 8009 bound_to 7997
  156.0757  140.1360  156.9763 H   0  0  0  0  0  0  0  0  0  0  0  0  # atno 8010 bound_to 7997
  140.5101  143.2346  151.7607 H   0  0  0  0  0  0  0  0  0  0  0  0  # atno 10167 bound_to 10162
  157.5230  130.8578  149.8584 H   0  0  0  0  0  0  0  0  0  0  0  0  # atno 10718 bound_to 10713
  153.0893  135.4868  154.8658 H   0  0  0  0  0  0  0  0  0  0  0  0  # atno 10763 bound_to 10752
  154.7249  135.3047  154.8989 H   0  0  0  0  0  0  0  0  0  0  0  0  # atno 10764 bound_to 10752
  153.9643  135.6808  153.4799 H   0  0  0  0  0  0  0  0  0  0  0  0  # atno 10765 bound_to 10752
  140.4458  134.1275  155.7696 H   0  0  0  0  0  0  0  0  0  0  0  0  # atno 11005 bound_to 11000
  144.7710  139.6735  143.7195 LP  0  0  0  0  0  0  0  0  0  0  0  0  # atno 17320 bound_to 7965
  146.2146  139.5527  142.9658 LP  0  0  0  0  0  0  0  0  0  0  0  0  # atno 17321 bound_to 7965
  139.4894  144.4402  151.9773 LP  0  0  0  0  0  0  0  0  0  0  0  0  # atno 17342 bound_to 10162
  140.3494  144.3107  150.5952 LP  0  0  0  0  0  0  0  0  0  0  0  0  # atno 17343 bound_to 10162
  156.0367  130.3749  150.1542 LP  0  0  0  0  0  0  0  0  0  0  0  0  # atno 17370 bound_to 10713
  156.9730  130.9840  151.3454 LP  0  0  0  0  0  0  0  0  0  0  0  0  # atno 17371 bound_to 10713
  141.1686  133.8654  157.1640 LP  0  0  0  0  0  0  0  0  0  0  0  0  # atno 17394 bound_to 11000
  140.0040  135.0016  157.0251 LP  0  0  0  0  0  0  0  0  0  0  0  0  # atno 17395 bound_to 11000

$$$$
