AV-unprocessed.smi:123|AV-procd|sdf|1144|dock5
  -GOLD-   2262018273D 1   1.00000     0.00000
 Structure written by MMmdl.
 43 45  0  0  0  0  0  0  0  0  1 V2000
  142.0830  135.1057  153.0160 C   0  0  0  0  0  0  0  0  0  0  0  0
  143.5782  134.7750  152.9088 C   0  0  1  0  0  0  0  0  0  0  0  0
  144.0382  134.1774  154.1553 N   0  0  0  0  0  0  0  0  0  0  0  0
  144.8155  134.7521  155.0884 C   0  0  0  0  0  0  0  0  0  0  0  0
  145.1960  135.9199  155.0174 O   0  0  0  0  0  0  0  0  0  0  0  0
  145.2499  133.8887  156.2882 C   0  0  0  0  0  0  0  0  0  0  0  0
  144.9675  134.4944  157.6112 N   0  0  0  0  0  0  0  0  0  0  0  0
  143.6370  134.4821  158.0986 C   0  0  0  0  0  0  0  0  0  0  0  0
  142.7171  134.0046  157.4335 O   0  0  0  0  0  0  0  0  0  0  0  0
  143.4481  135.0527  159.4276 C   0  0  0  0  0  0  0  0  0  0  0  0
  142.2152  135.1044  159.9599 F   0  0  0  0  0  0  0  0  0  0  0  0
  144.4940  135.5240  160.1375 C   0  0  0  0  0  0  0  0  0  0  0  0
  145.7936  135.5007  159.6621 N   0  0  0  0  0  0  0  0  0  0  0  0
  146.9636  136.0051  160.4831 C   0  0  2  0  0  0  0  0  0  0  0  0
  147.2143  135.0832  161.6950 C   0  0  0  0  0  0  0  0  0  0  0  0
  147.1715  136.0416  162.8692 C   0  0  0  0  0  0  0  0  0  0  0  0
  146.2592  137.1423  162.3501 C   0  0  0  0  0  0  0  0  0  0  0  0
  146.6729  137.2737  160.9968 O   0  0  0  0  0  0  0  0  0  0  0  0
  146.0510  135.0051  158.3657 C   0  0  0  0  0  0  0  0  0  0  0  0
  147.1977  134.9988  157.9124 O   0  0  0  0  0  0  0  0  0  0  0  0
  143.8769  133.8544  151.7690 C   0  0  0  0  0  0  0  0  0  0  0  0
  144.2297  132.5352  151.6945 C   0  0  0  0  0  0  0  0  0  0  0  0
  144.3794  132.2362  150.3119 C   0  0  0  0  0  0  0  0  0  0  0  0
  144.1147  133.3976  149.6439 C   0  0  0  0  0  0  0  0  0  0  0  0
  143.8098  134.3954  150.5172 O   0  0  0  0  0  0  0  0  0  0  0  0
  141.7206  135.5754  152.1012 H   0  0  0  0  0  0  0  0  0  0  0  0
  141.8900  135.7955  153.8384 H   0  0  0  0  0  0  0  0  0  0  0  0
  141.4881  134.2078  153.1877 H   0  0  0  0  0  0  0  0  0  0  0  0
  144.1204  135.7064  152.7359 H   0  0  0  0  0  0  0  0  0  0  0  0
  143.7735  133.2149  154.3064 H   0  0  0  0  0  0  0  0  0  0  0  0
  144.7604  132.9173  156.2031 H   0  0  0  0  0  0  0  0  0  0  0  0
  146.3099  133.6579  156.1734 H   0  0  0  0  0  0  0  0  0  0  0  0
  144.2841  135.9316  161.1146 H   0  0  0  0  0  0  0  0  0  0  0  0
  147.8013  136.0694  159.7864 H   0  0  0  0  0  0  0  0  0  0  0  0
  146.4188  134.3420  161.7805 H   0  0  0  0  0  0  0  0  0  0  0  0
  148.1696  134.5660  161.6014 H   0  0  0  0  0  0  0  0  0  0  0  0
  146.8041  135.5785  163.7854 H   0  0  0  0  0  0  0  0  0  0  0  0
  148.1674  136.4426  163.0626 H   0  0  0  0  0  0  0  0  0  0  0  0
  145.2133  136.8360  162.3992 H   0  0  0  0  0  0  0  0  0  0  0  0
  146.3717  138.0783  162.8971 H   0  0  0  0  0  0  0  0  0  0  0  0
  144.3597  131.8666  152.5326 H   0  0  0  0  0  0  0  0  0  0  0  0
  144.6482  131.2914  149.8630 H   0  0  0  0  0  0  0  0  0  0  0  0
  144.0967  133.6759  148.6004 H   0  0  0  0  0  0  0  0  0  0  0  0
  1  2  1  0  0  0  0
  1 26  1  0  0  0  0
  1 27  1  0  0  0  0
  1 28  1  0  0  0  0
  2  3  1  0  0  0  0
  2 21  1  0  0  0  0
  2 29  1  0  0  0  0
  3  4  1  0  0  0  0
  3 30  1  0  0  0  0
  4  5  2  0  0  0  0
  4  6  1  0  0  0  0
  6  7  1  0  0  0  0
  6 31  1  0  0  0  0
  6 32  1  0  0  0  0
  7 19  1  0  0  0  0
  7  8  1  0  0  0  0
  8  9  2  0  0  0  0
  8 10  1  0  0  0  0
 10 11  1  0  0  0  0
 10 12  2  0  0  0  0
 12 13  1  0  0  0  0
 12 33  1  0  0  0  0
 13 14  1  0  0  0  0
 13 19  1  0  0  0  0
 14 18  1  0  0  0  0
 14 15  1  0  0  0  0
 14 34  1  0  0  0  0
 15 16  1  0  0  0  0
 15 35  1  0  0  0  0
 15 36  1  0  0  0  0
 16 17  1  0  0  0  0
 16 37  1  0  0  0  0
 16 38  1  0  0  0  0
 17 18  1  0  0  0  0
 17 39  1  0  0  0  0
 17 40  1  0  0  0  0
 19 20  2  0  0  0  0
 21 25  1  0  0  0  0
 21 22  2  0  0  0  0
 22 23  1  0  0  0  0
 22 41  1  0  0  0  0
 23 24  2  0  0  0  0
 23 42  1  0  0  0  0
 24 25  1  0  0  0  0
 24 43  1  0  0  0  0
M  END
> <s_m_source_file>
AV-unprocessed.smi

> <i_m_source_file_index>
123

> <i_lp_mmshare_version>
43012

> <i_f3d_flags>
0

> <s_epik_input>
bzFbY0hdW2NIXVtjSF1jMVtDQEhdKFtDSDNdKVtOSF1DKD1PKVtDSDJdbjJjKD1PKWMoRilbY0hdbihjMj1PKVtDQEBIXTNbQ0gyXVtDSDJdW0NIMl1PMw==

> <s_epik_cmdline>
J2VwaWtfcHl0aG9uJywgJy1waCcsICc3LjAnLCAnLXRuJywgJzgnLCAnLW1hJywgJzIwMCcsICctbWV0YWxfYmluZGluZycsICctaW1hZScsICc8aW5maWxlLm1hZT4nLCAnLW9tYWUnLCAnPG91dGZpbGUubWFlPic=

> <r_lp_tautomer_probability>
1

> <r_epik_Ionization_Penalty>
2.31906e-08

> <r_epik_Ionization_Penalty_Charging>
3.85846e-09

> <r_epik_Ionization_Penalty_Neutral>
1.93321e-08

> <r_epik_State_Penalty>
-0

> <r_epik_Charging_Adjusted_Penalty>
3.85846e-09

> <i_epik_Tot_Q>
0

> <i_epik_Tot_abs_Q>
0

> <r_epik_Metal_State_Penalty>
-0

> <b_epik_Metal_Only>
0

> <s_epik_Chemistry_Notes>
This compound contains an acetal/aminal-like group ( X-CH(R)-Y where X, Y are N, S, or O) that may be acid/base labile, releasing an aldehyde.

> <s_lp_Force_Field>
OPLS_2005

> <r_lp_Energy>
20.7844

> <b_lp_Chiralities_Consistent>
1

> <s_lp_Variant>
AV-unprocessed.smi:123-2

> <Gold.Version>
5.8.1

> <Gold.Id.Protein>
6NUR|6NUR_protein|mol2

> <Gold.PLP.Fitness>
42.6494

> <Gold.PLP.PLP>
-32.7030

> <Gold.PLP.part.hbond>
-3.0000

> <Gold.PLP.part.metal>
0.0000

> <Gold.PLP.part.buried>
-5.5812

> <Gold.PLP.part.nonpolar>
-24.0144

> <Gold.PLP.part.repulsive>
0.2974

> <Gold.PLP.ligand.clash>
0.0000

> <Gold.PLP.ligand.torsion>
0.8394

> <Gold.PLP.Chemscore.Hbond>
3.0000

> <Gold.PLP.Chemscore.CHOScore>
0.8636

> <Gold.PLP.Chemscore.Metal>
0.0000

> <Gold.Chemscore.Hbonds>
donor molecule, donor type, donor heavy atom, donor atom, acceptor molecule, acceptor atom, score
      L1  H     3    30       P1 10957  1.00
      P1  H  6934  6947       L1    18  1.00
      P1  H 11000 11005       L1     9  1.00
      L1  C    24    43       P1  7921  0.78

> <Gold.PLP.Chemscore.Internal.Correction>
0.0342

> <Gold.Rescore>
     Score         DG    S(hbond)    S(metal)    S(lipo)     H(rot)  DE(clash)    DE(int)     intcor
     16.67     -17.39       2.82        0.00      70.18       2.23       0.02       0.70       ----

> <Gold.Chemscore.Fitness>
16.6651

> <Gold.Chemscore.DG>
-17.3864

> <Gold.Chemscore.ZeroCoef>
-5.4800

> <Gold.Chemscore.Hbond>
2.8192

> <Gold.Chemscore.Metal>
0.0000

> <Gold.Chemscore.Lipo>
70.1807

> <Gold.Chemscore.Internal_Hbond>
0.0000

> <Gold.Chemscore.DEClash>
0.0234

> <Gold.Chemscore.DEInternal>
0.6979

> <Gold.Chemscore.Rot>
2.2347

> <Gold.Chemscore.Internal.Correction>
   9.000000E+99

> <Gold.Chemscore.Hbonds>
donor molecule, donor type, donor heavy atom, donor atom, acceptor molecule, acceptor atom, score
      L1  H     3    30       P1 10957  0.99
      P1  H  6934  6947       L1    18  0.35
      P1  H 11000 11005       L1     9  0.93

> <Gold.Chemscore.Hbond.Weighted>
-9.4160

> <Gold.Chemscore.Metal.Weighted>
-0.0000

> <Gold.Chemscore.Lipo.Weighted>
-8.2111

> <Gold.Chemscore.Internal_Hbond.Weighted>
0.0000

> <Gold.Chemscore.DEClash.Weighted>
0.0234

> <Gold.Chemscore.DEInternal.Weighted>
0.6979

> <Gold.Chemscore.Rot.Weighted>
5.7208

> <Gold.Chemscore.Internal.Correction.Weighted>
   9.000000E+99

> <Gold.Protein.RotatedTorsions>
[ 6907 6896 6895 6894 ] final -109.75 input  -60.11 | X-H torsion
[ 7974 7965 7964 7962 ] final  135.77 input  175.53 | X-H torsion
[ 8008 7997 7996 7995 ] final  -37.77 input   59.86 | X-H torsion
[ 10167 10162 10161 10158 ] final   84.87 input  -65.29 | X-H torsion
[ 10718 10713 10712 10709 ] final   16.28 input   66.30 | X-H torsion
[ 10763 10752 10751 10750 ] final  137.75 input  -60.55 | X-H torsion
[ 11005 11000 10999 10996 ] final -107.49 input  -57.11 | X-H torsion

> <Gold.Protein.ActiveResidues>
 VAL166  LYS551  ARG553  GLY616  TRP617  ASP618  TYR619  PRO620  LYS621  CYS622 
 ASP623  PHE694  ASN695  SER759  ASP760  ASP761  ALA762  ILE779  LEU786  VAL792 
 PHE793  MET794  SER795  GLU796  ALA797  LYS798  CYS799  TRP800  GLU811  SER814 

> <Gold.Protein.RotatedAtoms>
  150.7582  133.9483  159.3477 H   0  0  0  0  0  0  0  0  0  0  0  0  # atno 6907 bound_to 6896
  151.7397  135.0855  160.0323 H   0  0  0  0  0  0  0  0  0  0  0  0  # atno 6908 bound_to 6896
  152.3536  133.6172  159.5999 H   0  0  0  0  0  0  0  0  0  0  0  0  # atno 6909 bound_to 6896
  144.9630  139.4689  143.5470 H   0  0  0  0  0  0  0  0  0  0  0  0  # atno 7974 bound_to 7965
  154.4048  140.1595  156.2591 H   0  0  0  0  0  0  0  0  0  0  0  0  # atno 8008 bound_to 7997
  155.9052  140.3431  155.6034 H   0  0  0  0  0  0  0  0  0  0  0  0  # atno 8009 bound_to 7997
  155.7401  140.0791  157.2240 H   0  0  0  0  0  0  0  0  0  0  0  0  # atno 8010 bound_to 7997
  139.9036  144.6314  150.8611 H   0  0  0  0  0  0  0  0  0  0  0  0  # atno 10167 bound_to 10162
  157.0656  130.6327  149.5795 H   0  0  0  0  0  0  0  0  0  0  0  0  # atno 10718 bound_to 10713
  153.8781  135.3047  155.3444 H   0  0  0  0  0  0  0  0  0  0  0  0  # atno 10763 bound_to 10752
  154.7774  135.4854  153.9776 H   0  0  0  0  0  0  0  0  0  0  0  0  # atno 10764 bound_to 10752
  153.1367  135.6815  153.9188 H   0  0  0  0  0  0  0  0  0  0  0  0  # atno 10765 bound_to 10752
  141.0951  133.8985  157.1982 H   0  0  0  0  0  0  0  0  0  0  0  0  # atno 11005 bound_to 11000
  146.3359  139.8793  142.8827 LP  0  0  0  0  0  0  0  0  0  0  0  0  # atno 17320 bound_to 7965
  145.2671  141.0096  143.3793 LP  0  0  0  0  0  0  0  0  0  0  0  0  # atno 17321 bound_to 7965
  140.7701  143.3418  151.2192 LP  0  0  0  0  0  0  0  0  0  0  0  0  # atno 17342 bound_to 10162
  139.7004  143.9543  152.2902 LP  0  0  0  0  0  0  0  0  0  0  0  0  # atno 17343 bound_to 10162
  155.9965  130.5035  150.7500 LP  0  0  0  0  0  0  0  0  0  0  0  0  # atno 17370 bound_to 10713
  157.4919  131.0911  151.0416 LP  0  0  0  0  0  0  0  0  0  0  0  0  # atno 17371 bound_to 10713
  139.9786  135.0105  156.9694 LP  0  0  0  0  0  0  0  0  0  0  0  0  # atno 17394 bound_to 11000
  140.5159  134.0956  155.7280 LP  0  0  0  0  0  0  0  0  0  0  0  0  # atno 17395 bound_to 11000

$$$$
