#       Name:                AV-unprocessed.smi:1554
#       Creating user name   scv26
#       Creation time:       Fri Mar 27 06:42:50 2020


#       File generated by GOLD software.
#

@<TRIPOS>MOLECULE
AV-unprocessed.smi:1554
    53    55     1
SMALL
NO_CHARGES


@<TRIPOS>ATOM
      1 ****        -3.7952   4.6518   3.1475 C.3            1 S1                 0.0000
      2 ****        -3.3143   3.5575   2.2107 C.ar           1 S1                 0.0000
      3 ****        -3.2671   3.8139   0.8218 C.ar           1 S1                 0.0000
      4 ****        -2.8232   2.8245  -0.0828 C.ar           1 S1                 0.0000
      5 ****        -2.6953   2.8586  -1.4609 N.2            1 S1                 0.0000
      6 ****        -2.2316   1.6391  -1.7175 C.2            1 S1                 0.0000
      7 ****        -2.0423   0.8173  -0.6673 N.pl3          1 S1                 0.0000
      8 ****        -1.5421  -0.5457  -0.7042 C.3            1 S1                 0.0000
      9 ****        -0.0022  -0.6092  -0.6926 C.3            1 S1                 0.0000
     10 ****         0.4877   0.0089   0.4826 O.3            1 S1                 0.0000
     11 ****         0.5143  -2.0607  -0.7373 C.3            1 S1                 0.0000
     12 ****         1.9945  -2.1313  -0.8400 N.4            1 S1                 1.0000
     13 ****         2.5453  -3.4002  -0.3092 C.3            1 S1                 0.0000
     14 ****         4.0814  -3.3846  -0.3742 C.3            1 S1                 0.0000
     15 ****         4.4999  -3.1562  -1.7142 O.3            1 S1                 0.0000
     16 ****         4.0526  -1.9002  -2.2132 C.3            1 S1                 0.0000
     17 ****         4.6285  -1.7117  -3.6209 C.3            1 S1                 0.0000
     18 ****         2.5116  -1.8761  -2.2073 C.3            1 S1                 0.0000
     19 ****        -2.4250   1.5611   0.4444 C.ar           1 S1                 0.0000
     20 ****        -2.4692   1.2935   1.8243 C.ar           1 S1                 0.0000
     21 ****        -2.9148   2.2933   2.7139 C.ar           1 S1                 0.0000
     22 ****        -2.9591   1.9940   4.2020 C.3            1 S1                 0.0000
     23 ****        -4.0675   5.5546   2.5997 H              1 S1                 0.0000
     24 ****        -3.0122   4.9165   3.8586 H              1 S1                 0.0000
     25 ****        -4.6721   4.3205   3.7042 H              1 S1                 0.0000
     26 ****        -3.5715   4.7766   0.4381 H              1 S1                 0.0000
     27 ****        -2.0144   1.3245  -2.7278 H              1 S1                 0.0000
     28 ****        -1.9572  -1.0923   0.1436 H              1 S1                 0.0000
     29 ****        -1.9309  -1.0263  -1.6029 H              1 S1                 0.0000
     30 ****         0.3715  -0.0490  -1.5495 H              1 S1                 0.0000
     31 ****         0.0817  -0.3993   1.2324 H              1 S1                 0.0000
     32 ****         0.1829  -2.5741   0.1669 H              1 S1                 0.0000
     33 ****         0.0685  -2.6018  -1.5735 H              1 S1                 0.0000
     34 ****         2.2255  -3.5412   0.7241 H              1 S1                 0.0000
     35 ****         2.1535  -4.2401  -0.8853 H              1 S1                 0.0000
     36 ****         4.4922  -2.6171   0.2841 H              1 S1                 0.0000
     37 ****         4.4823  -4.3405  -0.0368 H              1 S1                 0.0000
     38 ****         4.4354  -1.1032  -1.5730 H              1 S1                 0.0000
     39 ****         4.3216  -0.7559  -4.0461 H              1 S1                 0.0000
     40 ****         4.2927  -2.5012  -4.2940 H              1 S1                 0.0000
     41 ****         5.7184  -1.7315  -3.6021 H              1 S1                 0.0000
     42 ****         2.1214  -2.6321  -2.8909 H              1 S1                 0.0000
     43 ****         2.1642  -0.9092  -2.5700 H              1 S1                 0.0000
     44 ****        -2.1610   0.3276   2.1952 H              1 S1                 0.0000
     45 ****        -2.5854   0.9926   4.4177 H              1 S1                 0.0000
     46 ****        -3.9825   2.0571   4.5725 H              1 S1                 0.0000
     47 ****        -2.3452   2.7052   4.7551 H              1 S1                 0.0000
     48 ****         2.3538  -1.3974  -0.2454 H              1 S1                 0.0000
     49 ****        -2.8982   3.6039  -2.0960 LP             1 S1                 0.0000
     50 ****         0.2643   0.9835   0.4682 LP             1 S1                 0.0000
     51 ****         1.4799  -0.1049   0.5339 LP             1 S1                 0.0000
     52 ****         4.1314  -3.8825  -2.2945 LP             1 S1                 0.0000
     53 ****         5.4991  -3.1780  -1.7472 LP             1 S1                 0.0000
@<TRIPOS>BOND
    1    1    2 1     
    2    1   23 1     
    3    1   24 1     
    4    1   25 1     
    5    2   21 ar    
    6    2    3 ar    
    7    3    4 ar    
    8    3   26 1     
    9    4   19 ar    
   10    4    5 1     
   11    5    6 2     
   12    6    7 1     
   13    6   27 1     
   14    7    8 1     
   15    7   19 1     
   16    8    9 1     
   17    8   28 1     
   18    8   29 1     
   19    9   10 1     
   20    9   11 1     
   21    9   30 1     
   22   10   31 1     
   23   11   12 1     
   24   11   32 1     
   25   11   33 1     
   26   12   18 1     
   27   12   13 1     
   28   12   48 1     
   29   13   14 1     
   30   13   34 1     
   31   13   35 1     
   32   14   15 1     
   33   14   36 1     
   34   14   37 1     
   35   15   16 1     
   36   16   17 1     
   37   16   18 1     
   38   16   38 1     
   39   17   39 1     
   40   17   40 1     
   41   17   41 1     
   42   18   42 1     
   43   18   43 1     
   44   19   20 ar    
   45   20   21 ar    
   46   20   44 1     
   47   21   22 1     
   48   22   45 1     
   49   22   46 1     
   50   22   47 1     
   51    5   49 1     
   52   10   50 1     
   53   10   51 1     
   54   15   52 1     
   55   15   53 1     
@<TRIPOS>SUBSTRUCTURE
      1 S1             1
@<TRIPOS>SET
LONE_PAIRS      STATIC     ATOMS    <user>   **** ""
5 49 50 51 52 53
DONOR_HYDROGENS      STATIC     ATOMS    <user>   **** ""
2 31 48
ATOM$BLUE        STATIC     ATOMS    COLORGROUP SYSTEM
5 49 50 51 52 53
ATOM$RED        STATIC     ATOMS    COLORGROUP SYSTEM
2 31 48
