#       Name:                AV-unprocessed.smi:67
#       Creating user name   scv26
#       Creation time:       Thu Mar 26 16:53:06 2020


#       File generated by GOLD software.
#

@<TRIPOS>MOLECULE
AV-unprocessed.smi:67
    53    55     1
SMALL
NO_CHARGES


@<TRIPOS>ATOM
      1 ****        -3.1136   1.1771  -1.1117 O.3            1 S1                 0.0000
      2 ****        -3.6997   0.4599  -0.0400 C.3            1 S1                 0.0000
      3 ****        -2.9165  -0.8670   0.1498 C.3            1 S1                 0.0000
      4 ****        -1.4314  -0.7261   0.1246 N.4            1 S1                 1.0000
      5 ****        -0.7717  -1.9827  -0.3262 C.3            1 S1                 0.0000
      6 ****         0.7416  -1.7972  -0.5218 C.3            1 S1                 0.0000
      7 ****         1.3850  -1.2500   0.7653 C.3            1 S1                 0.0000
      8 ****         2.8126  -1.1742   0.7436 O.3            1 S1                 0.0000
      9 ****         3.5224  -0.3475  -0.1061 C.ar           1 S1                 0.0000
     10 ****         2.9692   0.5720  -1.0318 C.ar           1 S1                 0.0000
     11 ****         3.8072   1.3637  -1.8404 C.ar           1 S1                 0.0000
     12 ****         5.2055   1.2482  -1.7423 C.ar           1 S1                 0.0000
     13 ****         5.7750   0.3336  -0.8324 C.ar           1 S1                 0.0000
     14 ****         7.2845   0.1898  -0.7039 C.3            1 S1                 0.0000
     15 ****         7.6854   0.7623   0.4305 F              1 S1                 0.0000
     16 ****         7.6186  -1.1005  -0.6755 F              1 S1                 0.0000
     17 ****         7.9244   0.7654  -1.7224 F              1 S1                 0.0000
     18 ****         4.9269  -0.4492  -0.0211 C.ar           1 S1                 0.0000
     19 ****         0.6692   0.0119   1.2815 C.3            1 S1                 0.0000
     20 ****        -0.8457  -0.2320   1.4018 C.3            1 S1                 0.0000
     21 ****        -3.8047   1.3327   1.2297 C.3            1 S1                 0.0000
     22 ****        -5.2902   1.6562   1.3723 C.3            1 S1                 0.0000
     23 ****        -5.9641   0.5311   0.7539 N.3            1 S1                 0.0000
     24 ****        -5.1749   0.1965  -0.4194 C.3            1 S1                 0.0000
     25 ****        -3.2553   0.6945  -1.9122 H              1 S1                 0.0000
     26 ****        -3.2334  -1.3852   1.0563 H              1 S1                 0.0000
     27 ****        -3.2003  -1.5237  -0.6739 H              1 S1                 0.0000
     28 ****        -0.9632  -2.7717   0.4029 H              1 S1                 0.0000
     29 ****        -1.2045  -2.3144  -1.2707 H              1 S1                 0.0000
     30 ****         1.1962  -2.7539  -0.7809 H              1 S1                 0.0000
     31 ****         0.9065  -1.1454  -1.3760 H              1 S1                 0.0000
     32 ****         1.2034  -2.0129   1.5238 H              1 S1                 0.0000
     33 ****         1.9085   0.7028  -1.1526 H              1 S1                 0.0000
     34 ****         3.3747   2.0640  -2.5396 H              1 S1                 0.0000
     35 ****         5.8328   1.8658  -2.3681 H              1 S1                 0.0000
     36 ****         5.3624  -1.1445   0.6816 H              1 S1                 0.0000
     37 ****         1.0718   0.2881   2.2565 H              1 S1                 0.0000
     38 ****         0.8332   0.8718   0.6374 H              1 S1                 0.0000
     39 ****        -1.3052   0.7083   1.6948 H              1 S1                 0.0000
     40 ****        -1.0503  -0.9500   2.1975 H              1 S1                 0.0000
     41 ****        -3.5037   0.7647   2.1105 H              1 S1                 0.0000
     42 ****        -3.1892   2.2325   1.1905 H              1 S1                 0.0000
     43 ****        -5.5934   1.7950   2.4103 H              1 S1                 0.0000
     44 ****        -5.5232   2.5725   0.8281 H              1 S1                 0.0000
     45 ****        -6.9134   0.7789   0.4918 H              1 S1                 0.0000
     46 ****        -5.4771   0.8463  -1.2426 H              1 S1                 0.0000
     47 ****        -5.3606  -0.8280  -0.7428 H              1 S1                 0.0000
     48 ****        -1.2297  -0.0315  -0.5806 H              1 S1                 0.0000
     49 ****        -2.1322   1.2809  -0.9504 LP             1 S1                 0.0000
     50 ****        -3.5369   2.0803  -1.1837 LP             1 S1                 0.0000
     51 ****         3.1320  -2.1020   0.5511 LP             1 S1                 0.0000
     52 ****         3.0858  -0.9130   1.6694 LP             1 S1                 0.0000
     53 ****        -6.0359  -0.2442   1.3814 LP             1 S1                 0.0000
@<TRIPOS>BOND
    1    1    2 1     
    2    1   25 1     
    3    2   24 1     
    4    2    3 1     
    5    2   21 1     
    6    3    4 1     
    7    3   26 1     
    8    3   27 1     
    9    4   20 1     
   10    4    5 1     
   11    4   48 1     
   12    5    6 1     
   13    5   28 1     
   14    5   29 1     
   15    6    7 1     
   16    6   30 1     
   17    6   31 1     
   18    7    8 1     
   19    7   19 1     
   20    7   32 1     
   21    8    9 1     
   22    9   18 ar    
   23    9   10 ar    
   24   10   11 ar    
   25   10   33 1     
   26   11   12 ar    
   27   11   34 1     
   28   12   13 ar    
   29   12   35 1     
   30   13   14 1     
   31   13   18 ar    
   32   14   15 1     
   33   14   16 1     
   34   14   17 1     
   35   18   36 1     
   36   19   20 1     
   37   19   37 1     
   38   19   38 1     
   39   20   39 1     
   40   20   40 1     
   41   21   22 1     
   42   21   41 1     
   43   21   42 1     
   44   22   23 1     
   45   22   43 1     
   46   22   44 1     
   47   23   24 1     
   48   23   45 1     
   49   24   46 1     
   50   24   47 1     
   51    1   49 1     
   52    1   50 1     
   53    8   51 1     
   54    8   52 1     
   55   23   53 1     
@<TRIPOS>SUBSTRUCTURE
      1 S1             1
@<TRIPOS>SET
LONE_PAIRS      STATIC     ATOMS    <user>   **** ""
5 49 50 51 52 53
DONOR_HYDROGENS      STATIC     ATOMS    <user>   **** ""
3 25 48 45
ATOM$BLUE        STATIC     ATOMS    COLORGROUP SYSTEM
5 49 50 51 52 53
ATOM$RED        STATIC     ATOMS    COLORGROUP SYSTEM
3 25 48 45
