AV-unprocessed.smi:39|AV-procd|sdf|366|dock10
  -GOLD-   2262016203D 1   1.00000     0.00000
 Structure written by MMmdl.
 31 32  0  0  0  0  0  0  0  0  4 V2000
  148.3891  132.8351  154.1581 C   0  0  0  0  0  0  0  0  0  0  0  0
  149.3155  133.6247  155.0665 C   0  0  0  0  0  0  0  0  0  0  0  0
  149.7237  134.8777  154.7663 C   0  0  0  0  0  0  0  0  0  0  0  0
  150.5662  135.5966  155.5987 N   0  0  0  0  0  0  0  0  0  0  0  0
  151.0265  136.9983  155.2493 C   0  0  2  0  0  0  0  0  0  0  0  0
  150.7280  137.9838  156.3888 C   0  0  0  0  0  0  0  0  0  0  0  0
  150.2742  139.2267  155.6412 C   0  0  1  0  0  0  0  0  0  0  0  0
  151.4128  140.0487  155.2140 N   0  0  0  0  0  0  0  0  0  0  0  0
  152.5363  139.5401  155.3246 N   0  3  0  0  0  0  0  0  0  0  0  0
  153.5785  139.0838  155.3017 N   0  5  0  0  0  0  0  0  0  0  0  0
  149.5572  138.6193  154.4294 C   0  0  2  0  0  0  0  0  0  0  0  0
  148.1004  138.2151  154.7332 C   0  0  0  0  0  0  0  0  0  0  0  0
  147.4413  137.8387  153.5432 O   0  0  0  0  0  0  0  0  0  0  0  0
  150.3353  137.4615  154.1224 O   0  0  0  0  0  0  0  0  0  0  0  0
  151.0558  134.9914  156.7864 C   0  0  0  0  0  0  0  0  0  0  0  0
  151.8377  135.6373  157.4846 O   0  0  0  0  0  0  0  0  0  0  0  0
  150.6440  133.7302  157.1008 N   0  5  0  0  0  0  0  0  0  0  0  0
  149.7931  133.0134  156.3123 C   0  0  0  0  0  0  0  0  0  0  0  0
  149.4204  131.8799  156.6135 O   0  0  0  0  0  0  0  0  0  0  0  0
  152.0875  136.9090  155.0098 H   0  0  0  0  0  0  0  0  0  0  0  0
  149.5857  139.8206  156.2456 H   0  0  0  0  0  0  0  0  0  0  0  0
  149.5700  139.3154  153.5890 H   0  0  0  0  0  0  0  0  0  0  0  0
  148.1176  133.4095  153.2722 H   0  0  0  0  0  0  0  0  0  0  0  0
  147.4710  132.5732  154.6850 H   0  0  0  0  0  0  0  0  0  0  0  0
  148.8728  131.9149  153.8291 H   0  0  0  0  0  0  0  0  0  0  0  0
  149.3745  135.3170  153.8447 H   0  0  0  0  0  0  0  0  0  0  0  0
  149.9137  137.5987  157.0045 H   0  0  0  0  0  0  0  0  0  0  0  0
  151.6023  138.1328  157.0236 H   0  0  0  0  0  0  0  0  0  0  0  0
  148.0399  137.4141  155.4695 H   0  0  0  0  0  0  0  0  0  0  0  0
  147.5550  139.0645  155.1445 H   0  0  0  0  0  0  0  0  0  0  0  0
  147.9172  137.1233  153.1501 H   0  0  0  0  0  0  0  0  0  0  0  0
  1  2  1  0  0  0  0
  1 23  1  0  0  0  0
  1 24  1  0  0  0  0
  1 25  1  0  0  0  0
  2 18  1  0  0  0  0
  2  3  2  0  0  0  0
  3  4  1  0  0  0  0
  3 26  1  0  0  0  0
  4  5  1  0  0  0  0
  4 15  1  0  0  0  0
  5 20  1  0  0  0  0
  5 14  1  0  0  0  0
  5  6  1  0  0  0  0
  6  7  1  0  0  0  0
  6 27  1  0  0  0  0
  6 28  1  0  0  0  0
  7 21  1  0  0  0  0
  7  8  1  0  0  0  0
  7 11  1  0  0  0  0
  8  9  2  0  0  0  0
  9 10  2  0  0  0  0
 11 22  1  0  0  0  0
 11 12  1  0  0  0  0
 11 14  1  0  0  0  0
 12 13  1  0  0  0  0
 12 29  1  0  0  0  0
 12 30  1  0  0  0  0
 13 31  1  0  0  0  0
 15 16  2  0  0  0  0
 15 17  1  0  0  0  0
 17 18  1  0  0  0  0
 18 19  2  0  0  0  0
M  CHG  1   9   1
M  CHG  1  10  -1
M  CHG  1  17  -1
M  END
> <s_m_source_file>
AV-unprocessed.smi

> <i_m_source_file_index>
39

> <i_lp_mmshare_version>
43012

> <i_f3d_flags>
0

> <s_epik_input>
Tz1jMVtuSF1jKD1PKW4oW2NIXWMxW0NIM10pW0NASF0yW0NIMl1bQ0BIXShOPVtOK109W04tXSlbQ0BIXShPMilbQ0gyXVtPSF0=

> <s_epik_cmdline>
J2VwaWtfcHl0aG9uJywgJy1waCcsICc3LjAnLCAnLXRuJywgJzgnLCAnLW1hJywgJzIwMCcsICctbWV0YWxfYmluZGluZycsICctaW1hZScsICc8aW5maWxlLm1hZT4nLCAnLW9tYWUnLCAnPG91dGZpbGUubWFlPic=

> <r_lp_tautomer_probability>
0.999537

> <r_epik_Ionization_Penalty>
3.6393

> <r_epik_Ionization_Penalty_Charging>
9.76484e-08

> <r_epik_Ionization_Penalty_Neutral>
3.6393

> <r_epik_State_Penalty>
3.63887

> <r_epik_Charging_Adjusted_Penalty>
3.63887

> <i_epik_Tot_Q>
-1

> <i_epik_Tot_abs_Q>
3

> <r_epik_Metal_State_Penalty>
0.225911

> <b_epik_Metal_Only>
1

> <s_epik_Chemistry_Notes>
This compound contains an acetal/aminal-like group ( X-CH(R)-Y where X, Y are N, S, or O) that may be acid/base labile, releasing an aldehyde.

> <s_lp_Force_Field>
OPLS_2005

> <r_lp_Energy>
37.4001

> <b_lp_Chiralities_Consistent>
1

> <s_lp_Variant>
AV-unprocessed.smi:39-16

> <Gold.Version>
5.8.1

> <Gold.Id.Protein>
6NUR|6NUR_protein|mol2

> <Gold.PLP.Fitness>
37.5012

> <Gold.PLP.PLP>
-22.2878

> <Gold.PLP.part.hbond>
-6.3648

> <Gold.PLP.part.metal>
0.0000

> <Gold.PLP.part.buried>
-6.2698

> <Gold.PLP.part.nonpolar>
-15.2033

> <Gold.PLP.part.repulsive>
2.2543

> <Gold.PLP.ligand.clash>
0.0000

> <Gold.PLP.ligand.torsion>
0.3092

> <Gold.PLP.Chemscore.Hbond>
4.2969

> <Gold.PLP.Chemscore.CHOScore>
0.9661

> <Gold.PLP.Chemscore.Metal>
0.0000

> <Gold.Chemscore.Hbonds>
donor molecule, donor type, donor heavy atom, donor atom, acceptor molecule, acceptor atom, score
      L1  H    13    31       P1  7948  1.00
      P1  H  6896  6909       L1    17  1.08
      P1  H  7989  7998       L1     8  0.90
      P1  H  7997  8010       L1    10  0.99
      L1  C     3    26       P1  7948  1.00

> <Gold.PLP.Chemscore.Internal.Correction>
0.0428

> <Gold.Rescore>
     Score         DG    S(hbond)    S(metal)    S(lipo)     H(rot)  DE(clash)    DE(int)     intcor
      6.45     -10.42       2.38        0.00      33.62       2.72       1.30       2.68       ----

> <Gold.Chemscore.Fitness>
6.4482

> <Gold.Chemscore.DG>
-10.4226

> <Gold.Chemscore.ZeroCoef>
-5.4800

> <Gold.Chemscore.Hbond>
2.3833

> <Gold.Chemscore.Metal>
0.0000

> <Gold.Chemscore.Lipo>
33.6205

> <Gold.Chemscore.Internal_Hbond>
0.0000

> <Gold.Chemscore.DEClash>
1.2976

> <Gold.Chemscore.DEInternal>
2.6768

> <Gold.Chemscore.Rot>
2.7153

> <Gold.Chemscore.Internal.Correction>
   9.000000E+99

> <Gold.Chemscore.Hbonds>
donor molecule, donor type, donor heavy atom, donor atom, acceptor molecule, acceptor atom, score
      L1  H    13    31       P1  7948  0.99
      P1  H  6896  6909       L1    17  0.24
      P1  H  7989  7998       L1     8  0.17
      P1  H  7997  8010       L1    10  0.48

> <Gold.Chemscore.Hbond.Weighted>
-7.9602

> <Gold.Chemscore.Metal.Weighted>
-0.0000

> <Gold.Chemscore.Lipo.Weighted>
-3.9336

> <Gold.Chemscore.Internal_Hbond.Weighted>
0.0000

> <Gold.Chemscore.DEClash.Weighted>
1.2976

> <Gold.Chemscore.DEInternal.Weighted>
2.6768

> <Gold.Chemscore.Rot.Weighted>
6.9512

> <Gold.Chemscore.Internal.Correction.Weighted>
   9.000000E+99

> <Gold.Protein.RotatedTorsions>
[ 6907 6896 6895 6894 ] final  -17.60 input  -60.11 | X-H torsion
[ 7974 7965 7964 7962 ] final  103.41 input  175.53 | X-H torsion
[ 8008 7997 7996 7995 ] final  111.86 input   59.86 | X-H torsion
[ 10167 10162 10161 10158 ] final   38.69 input  -65.29 | X-H torsion
[ 10718 10713 10712 10709 ] final  115.35 input   66.30 | X-H torsion
[ 10763 10752 10751 10750 ] final   69.05 input  -60.55 | X-H torsion
[ 11005 11000 10999 10996 ] final   77.40 input  -57.11 | X-H torsion

> <Gold.Protein.ActiveResidues>
 VAL166  LYS551  ARG553  GLY616  TRP617  ASP618  TYR619  PRO620  LYS621  CYS622 
 ASP623  PHE694  ASN695  SER759  ASP760  ASP761  ALA762  ILE779  LEU786  VAL792 
 PHE793  MET794  SER795  GLU796  ALA797  LYS798  CYS799  TRP800  GLU811  SER814 

> <Gold.Protein.RotatedAtoms>
  151.2909  135.0741  159.9203 H   0  0  0  0  0  0  0  0  0  0  0  0  # atno 6907 bound_to 6896
  152.5316  133.9933  159.7871 H   0  0  0  0  0  0  0  0  0  0  0  0  # atno 6908 bound_to 6896
  151.0203  133.5832  159.2702 H   0  0  0  0  0  0  0  0  0  0  0  0  # atno 6909 bound_to 6896
  145.3463  139.2450  143.3582 H   0  0  0  0  0  0  0  0  0  0  0  0  # atno 7974 bound_to 7965
  156.2153  140.3011  155.9826 H   0  0  0  0  0  0  0  0  0  0  0  0  # atno 8008 bound_to 7997
  155.2621  140.0430  157.3015 H   0  0  0  0  0  0  0  0  0  0  0  0  # atno 8009 bound_to 7997
  154.5759  140.2361  155.8132 H   0  0  0  0  0  0  0  0  0  0  0  0  # atno 8010 bound_to 7997
  140.3912  144.1850  150.6131 H   0  0  0  0  0  0  0  0  0  0  0  0  # atno 10167 bound_to 10162
  157.6227  131.1011  150.7317 H   0  0  0  0  0  0  0  0  0  0  0  0  # atno 10718 bound_to 10713
  153.0266  135.5225  154.7228 H   0  0  0  0  0  0  0  0  0  0  0  0  # atno 10763 bound_to 10752
  154.6278  135.2896  155.0254 H   0  0  0  0  0  0  0  0  0  0  0  0  # atno 10764 bound_to 10752
  154.1217  135.6606  153.4957 H   0  0  0  0  0  0  0  0  0  0  0  0  # atno 10765 bound_to 10752
  139.9256  134.7680  156.1518 H   0  0  0  0  0  0  0  0  0  0  0  0  # atno 11005 bound_to 11000
  146.2987  140.4070  142.8712 LP  0  0  0  0  0  0  0  0  0  0  0  0  # atno 17320 bound_to 7965
  144.8752  140.7326  143.6021 LP  0  0  0  0  0  0  0  0  0  0  0  0  # atno 17321 bound_to 7965
  140.4838  143.2370  151.8918 LP  0  0  0  0  0  0  0  0  0  0  0  0  # atno 17342 bound_to 10162
  139.4789  144.5241  151.8760 LP  0  0  0  0  0  0  0  0  0  0  0  0  # atno 17343 bound_to 10162
  156.7671  130.4817  149.5425 LP  0  0  0  0  0  0  0  0  0  0  0  0  # atno 17370 bound_to 10713
  156.1381  130.6225  151.0429 LP  0  0  0  0  0  0  0  0  0  0  0  0  # atno 17371 bound_to 10713
  141.0811  133.6754  156.2337 LP  0  0  0  0  0  0  0  0  0  0  0  0  # atno 17394 bound_to 11000
  140.6346  134.5228  157.5563 LP  0  0  0  0  0  0  0  0  0  0  0  0  # atno 17395 bound_to 11000

$$$$
