AV-unprocessed.smi:2533|AV-procd|sdf|9973|dock1
  -GOLD-   2272014 23D 1   1.00000     0.00000
 Structure written by MMmdl.
 35 36  0  0  0  0  0  0  0  0  1 V2000
  146.5694  138.8621  152.0129 C   0  0  0  0  0  0  0  0  0  0  0  0
  146.9770  139.9597  152.8163 O   0  0  0  0  0  0  0  0  0  0  0  0
  148.0215  139.7688  153.6957 C   0  0  0  0  0  0  0  0  0  0  0  0
  148.7246  138.5463  153.8406 C   0  0  0  0  0  0  0  0  0  0  0  0
  149.7861  138.4377  154.7593 C   0  0  0  0  0  0  0  0  0  0  0  0
  150.1626  139.5440  155.5491 C   0  0  0  0  0  0  0  0  0  0  0  0
  151.3416  139.4467  156.5093 C   0  0  1  0  0  0  0  0  0  0  0  0
  152.3621  140.3727  156.1980 O   0  0  0  0  0  0  0  0  0  0  0  0
  150.9285  139.6500  157.9863 C   0  0  0  0  0  0  0  0  0  0  0  0
  151.8921  140.4662  158.7381 N   0  0  0  0  0  0  0  0  0  0  0  0
  151.5864  141.8164  158.7772 N   0  0  0  0  0  0  0  0  0  0  0  0
  152.3045  142.6495  159.4583 C   0  0  0  0  0  0  0  0  0  0  0  0
  151.8708  144.0941  159.4647 C   0  0  0  0  0  0  0  0  0  0  0  0
  150.6352  144.2266  158.9816 F   0  0  0  0  0  0  0  0  0  0  0  0
  151.8933  144.5740  160.7085 F   0  0  0  0  0  0  0  0  0  0  0  0
  152.6992  144.8229  158.7153 F   0  0  0  0  0  0  0  0  0  0  0  0
  153.4699  142.1559  160.1728 C   0  0  0  0  0  0  0  0  0  0  0  0
  153.7750  140.8417  160.1200 C   0  0  0  0  0  0  0  0  0  0  0  0
  152.9584  139.8929  159.3672 C   0  0  0  0  0  0  0  0  0  0  0  0
  153.1986  138.6871  159.3148 O   0  0  0  0  0  0  0  0  0  0  0  0
  149.4626  140.7597  155.4112 C   0  0  0  0  0  0  0  0  0  0  0  0
  148.4027  140.8696  154.4913 C   0  0  0  0  0  0  0  0  0  0  0  0
  147.7484  142.0491  154.3681 F   0  0  0  0  0  0  0  0  0  0  0  0
  145.7434  139.1725  151.3730 H   0  0  0  0  0  0  0  0  0  0  0  0
  146.2186  138.0296  152.6239 H   0  0  0  0  0  0  0  0  0  0  0  0
  147.3779  138.5205  151.3651 H   0  0  0  0  0  0  0  0  0  0  0  0
  148.4725  137.6764  153.2538 H   0  0  0  0  0  0  0  0  0  0  0  0
  150.3199  137.5026  154.8468 H   0  0  0  0  0  0  0  0  0  0  0  0
  151.7839  138.4553  156.4030 H   0  0  0  0  0  0  0  0  0  0  0  0
  152.0418  140.9567  155.5274 H   0  0  0  0  0  0  0  0  0  0  0  0
  149.9328  140.0937  158.0423 H   0  0  0  0  0  0  0  0  0  0  0  0
  150.8350  138.6755  158.4704 H   0  0  0  0  0  0  0  0  0  0  0  0
  154.0862  142.8383  160.7392 H   0  0  0  0  0  0  0  0  0  0  0  0
  154.6427  140.4794  160.6516 H   0  0  0  0  0  0  0  0  0  0  0  0
  149.7463  141.6194  156.0004 H   0  0  0  0  0  0  0  0  0  0  0  0
  1  2  1  0  0  0  0
  1 24  1  0  0  0  0
  1 25  1  0  0  0  0
  1 26  1  0  0  0  0
  2  3  1  0  0  0  0
  3 22  1  0  0  0  0
  3  4  2  0  0  0  0
  4  5  1  0  0  0  0
  4 27  1  0  0  0  0
  5  6  2  0  0  0  0
  5 28  1  0  0  0  0
  6  7  1  0  0  0  0
  6 21  1  0  0  0  0
  7  8  1  0  0  0  0
  7  9  1  0  0  0  0
  7 29  1  0  0  0  0
  8 30  1  0  0  0  0
  9 10  1  0  0  0  0
  9 31  1  0  0  0  0
  9 32  1  0  0  0  0
 10 19  1  0  0  0  0
 10 11  1  0  0  0  0
 11 12  2  0  0  0  0
 12 13  1  0  0  0  0
 12 17  1  0  0  0  0
 13 14  1  0  0  0  0
 13 15  1  0  0  0  0
 13 16  1  0  0  0  0
 17 18  2  0  0  0  0
 17 33  1  0  0  0  0
 18 19  1  0  0  0  0
 18 34  1  0  0  0  0
 19 20  2  0  0  0  0
 21 22  2  0  0  0  0
 21 35  1  0  0  0  0
 22 23  1  0  0  0  0
M  END
> <s_m_source_file>
AV-unprocessed.smi

> <i_m_source_file_index>
2533

> <i_lp_mmshare_version>
43012

> <i_f3d_flags>
0

> <s_epik_input>
W0NIM11PYzFbY0hdW2NIXWMoW2NIXWMxRilbQ0BIXShbT0hdKVtDSDJdbjJuYyhDKEYpKEYpRilbY0hdW2NIXWMyPU8=

> <s_epik_cmdline>
J2VwaWtfcHl0aG9uJywgJy1waCcsICc3LjAnLCAnLXRuJywgJzgnLCAnLW1hJywgJzIwMCcsICctbWV0YWxfYmluZGluZycsICctaW1hZScsICc8aW5maWxlLm1hZT4nLCAnLW9tYWUnLCAnPG91dGZpbGUubWFlPic=

> <r_lp_tautomer_probability>
1

> <r_epik_Ionization_Penalty>
5.00966e-08

> <r_epik_Ionization_Penalty_Charging>
3.92872e-09

> <r_epik_Ionization_Penalty_Neutral>
4.61679e-08

> <r_epik_State_Penalty>
-0

> <r_epik_Charging_Adjusted_Penalty>
3.92872e-09

> <i_epik_Tot_Q>
0

> <i_epik_Tot_abs_Q>
0

> <r_epik_Metal_State_Penalty>
-0

> <b_epik_Metal_Only>
0

> <s_lp_Force_Field>
OPLS_2005

> <r_lp_Energy>
30.5098

> <b_lp_Chiralities_Consistent>
1

> <s_lp_Variant>
AV-unprocessed.smi:2533-2

> <Gold.Version>
5.8.1

> <Gold.Id.Protein>
6NUR|6NUR_protein|mol2

> <Gold.PLP.Fitness>
48.2267

> <Gold.PLP.PLP>
-48.0755

> <Gold.PLP.part.hbond>
-1.0000

> <Gold.PLP.part.metal>
0.0000

> <Gold.PLP.part.buried>
-1.3370

> <Gold.PLP.part.nonpolar>
-46.1894

> <Gold.PLP.part.repulsive>
1.1464

> <Gold.PLP.ligand.clash>
0.0000

> <Gold.PLP.ligand.torsion>
1.4515

> <Gold.PLP.Chemscore.Hbond>
1.0000

> <Gold.PLP.Chemscore.CHOScore>
0.0000

> <Gold.PLP.Chemscore.Metal>
0.0000

> <Gold.Chemscore.Hbonds>
donor molecule, donor type, donor heavy atom, donor atom, acceptor molecule, acceptor atom, score
      P1  H  7997  8009       L1     8  0.99

> <Gold.PLP.Chemscore.Internal.Correction>
0.0543

> <Gold.Rescore>
     Score         DG    S(hbond)    S(metal)    S(lipo)     H(rot)  DE(clash)    DE(int)     intcor
      9.87     -11.55       0.48        0.00      92.96       2.50       0.08       1.60       ----

> <Gold.Chemscore.Fitness>
9.8672

> <Gold.Chemscore.DG>
-11.5472

> <Gold.Chemscore.ZeroCoef>
-5.4800

> <Gold.Chemscore.Hbond>
0.4787

> <Gold.Chemscore.Metal>
0.0000

> <Gold.Chemscore.Lipo>
92.9588

> <Gold.Chemscore.Internal_Hbond>
0.0000

> <Gold.Chemscore.DEClash>
0.0811

> <Gold.Chemscore.DEInternal>
1.5989

> <Gold.Chemscore.Rot>
2.5031

> <Gold.Chemscore.Internal.Correction>
   9.000000E+99

> <Gold.Chemscore.Hbonds>
donor molecule, donor type, donor heavy atom, donor atom, acceptor molecule, acceptor atom, score
      P1  H  7997  8009       L1     8  0.88

> <Gold.Chemscore.Hbond.Weighted>
-1.5989

> <Gold.Chemscore.Metal.Weighted>
-0.0000

> <Gold.Chemscore.Lipo.Weighted>
-10.8762

> <Gold.Chemscore.Internal_Hbond.Weighted>
0.0000

> <Gold.Chemscore.DEClash.Weighted>
0.0811

> <Gold.Chemscore.DEInternal.Weighted>
1.5989

> <Gold.Chemscore.Rot.Weighted>
6.4079

> <Gold.Chemscore.Internal.Correction.Weighted>
   9.000000E+99

> <Gold.Protein.RotatedTorsions>
[ 6907 6896 6895 6894 ] final  -80.67 input  -60.11 | X-H torsion
[ 7974 7965 7964 7962 ] final   55.10 input  175.53 | X-H torsion
[ 8008 7997 7996 7995 ] final -167.27 input   59.86 | X-H torsion
[ 10167 10162 10161 10158 ] final  -94.91 input  -65.29 | X-H torsion
[ 10718 10713 10712 10709 ] final   29.62 input   66.30 | X-H torsion
[ 10763 10752 10751 10750 ] final -145.04 input  -60.55 | X-H torsion
[ 11005 11000 10999 10996 ] final  137.16 input  -57.11 | X-H torsion

> <Gold.Protein.ActiveResidues>
 VAL166  LYS551  ARG553  GLY616  TRP617  ASP618  TYR619  PRO620  LYS621  CYS622 
 ASP623  PHE694  ASN695  SER759  ASP760  ASP761  ALA762  ILE779  LEU786  VAL792 
 PHE793  MET794  SER795  GLU796  ALA797  LYS798  CYS799  TRP800  GLU811  SER814 

> <Gold.Protein.RotatedAtoms>
  150.6925  134.3935  159.5086 H   0  0  0  0  0  0  0  0  0  0  0  0  # atno 6907 bound_to 6896
  152.1719  134.8824  160.0543 H   0  0  0  0  0  0  0  0  0  0  0  0  # atno 6908 bound_to 6896
  151.9847  133.3735  159.4158 H   0  0  0  0  0  0  0  0  0  0  0  0  # atno 6909 bound_to 6896
  145.9540  139.3998  143.0289 H   0  0  0  0  0  0  0  0  0  0  0  0  # atno 7974 bound_to 7965
  155.8754  140.1000  157.1521 H   0  0  0  0  0  0  0  0  0  0  0  0  # atno 8008 bound_to 7997
  154.4000  140.1339  156.4194 H   0  0  0  0  0  0  0  0  0  0  0  0  # atno 8009 bound_to 7997
  155.7703  140.3461  155.5246 H   0  0  0  0  0  0  0  0  0  0  0  0  # atno 8010 bound_to 7997
  140.3096  143.3113  152.0163 H   0  0  0  0  0  0  0  0  0  0  0  0  # atno 10167 bound_to 10162
  157.2490  130.7106  149.6396 H   0  0  0  0  0  0  0  0  0  0  0  0  # atno 10718 bound_to 10713
  154.8401  135.3424  154.6442 H   0  0  0  0  0  0  0  0  0  0  0  0  # atno 10763 bound_to 10752
  153.7054  135.6967  153.5056 H   0  0  0  0  0  0  0  0  0  0  0  0  # atno 10764 bound_to 10752
  153.2492  135.4359  155.0733 H   0  0  0  0  0  0  0  0  0  0  0  0  # atno 10765 bound_to 10752
  140.0095  134.9445  157.0246 H   0  0  0  0  0  0  0  0  0  0  0  0  # atno 11005 bound_to 11000
  145.8132  140.9715  143.0938 LP  0  0  0  0  0  0  0  0  0  0  0  0  # atno 17320 bound_to 7965
  144.6801  139.9947  143.7484 LP  0  0  0  0  0  0  0  0  0  0  0  0  # atno 17321 bound_to 7965
  139.4897  144.6395  151.6907 LP  0  0  0  0  0  0  0  0  0  0  0  0  # atno 17342 bound_to 10162
  140.5580  144.0316  150.6156 LP  0  0  0  0  0  0  0  0  0  0  0  0  # atno 17343 bound_to 10162
  155.9667  130.4434  150.5419 LP  0  0  0  0  0  0  0  0  0  0  0  0  # atno 17370 bound_to 10713
  157.3298  131.0697  151.1869 LP  0  0  0  0  0  0  0  0  0  0  0  0  # atno 17371 bound_to 10713
  140.4581  134.1513  155.7188 LP  0  0  0  0  0  0  0  0  0  0  0  0  # atno 17394 bound_to 11000
  141.1701  133.8626  157.1598 LP  0  0  0  0  0  0  0  0  0  0  0  0  # atno 17395 bound_to 11000

$$$$
