AV-unprocessed.smi:1274|AV-procd|sdf|5340|dock7
  -GOLD-   22720 4473D 1   1.00000     0.00000
 Structure written by MMmdl.
 37 38  0  0  0  0  0  0  0  0  1 V2000
  153.3010  139.1757  154.8936 O   0  0  0  0  0  0  0  0  0  0  0  0
  152.4689  138.8394  156.0586 S   0  0  0  0  0  0  0  0  0  0  0  0
  152.6567  137.5719  156.7813 O   0  0  0  0  0  0  0  0  0  0  0  0
  152.5571  140.1224  157.2093 N   0  0  0  0  0  0  0  0  0  0  0  0
  151.3376  140.8191  157.6240 C   0  0  0  0  0  0  0  0  0  0  0  0
  151.3052  142.2685  157.1068 C   0  0  0  0  0  0  0  0  0  0  0  0
  151.5855  143.2897  158.1952 C   0  0  0  0  0  0  0  0  0  0  0  0
  152.0533  142.8866  159.4626 C   0  0  0  0  0  0  0  0  0  0  0  0
  152.2801  143.8690  160.4457 C   0  0  0  0  0  0  0  0  0  0  0  0
  152.0283  145.2163  160.1180 C   0  0  0  0  0  0  0  0  0  0  0  0
  151.5818  145.6145  158.9073 N   0  0  0  0  0  0  0  0  0  0  0  0
  151.3693  144.6663  157.9699 C   0  0  0  0  0  0  0  0  0  0  0  0
  150.8047  138.9884  155.6009 N   0  0  0  0  0  0  0  0  0  0  0  0
  150.4967  139.8829  154.4633 C   0  0  0  0  0  0  0  0  0  0  0  0
  148.9949  140.2013  154.3831 C   0  0  0  0  0  0  0  0  0  0  0  0
  148.1600  138.9193  154.3298 C   0  0  0  0  0  0  0  0  0  0  0  0
  148.4926  138.0516  155.5464 C   0  0  0  0  0  0  0  0  0  0  0  0
  149.9990  137.7511  155.6253 C   0  0  0  0  0  0  0  0  0  0  0  0
  153.3289  140.7594  157.0130 H   0  0  0  0  0  0  0  0  0  0  0  0
  150.4797  140.2708  157.2337 H   0  0  0  0  0  0  0  0  0  0  0  0
  151.2590  140.7952  158.7112 H   0  0  0  0  0  0  0  0  0  0  0  0
  152.0505  142.3877  156.3195 H   0  0  0  0  0  0  0  0  0  0  0  0
  150.3456  142.4885  156.6395 H   0  0  0  0  0  0  0  0  0  0  0  0
  152.2306  141.8435  159.6800 H   0  0  0  0  0  0  0  0  0  0  0  0
  152.6363  143.5970  161.4283 H   0  0  0  0  0  0  0  0  0  0  0  0
  152.1894  145.9954  160.8484 H   0  0  0  0  0  0  0  0  0  0  0  0
  151.0065  145.0178  157.0153 H   0  0  0  0  0  0  0  0  0  0  0  0
  151.0550  140.8137  154.5561 H   0  0  0  0  0  0  0  0  0  0  0  0
  150.8320  139.4085  153.5401 H   0  0  0  0  0  0  0  0  0  0  0  0
  148.7005  140.7965  155.2485 H   0  0  0  0  0  0  0  0  0  0  0  0
  148.7929  140.8138  153.5041 H   0  0  0  0  0  0  0  0  0  0  0  0
  147.0967  139.1603  154.3154 H   0  0  0  0  0  0  0  0  0  0  0  0
  148.3736  138.3723  153.4107 H   0  0  0  0  0  0  0  0  0  0  0  0
  148.1738  138.5604  156.4571 H   0  0  0  0  0  0  0  0  0  0  0  0
  147.9308  137.1181  155.5013 H   0  0  0  0  0  0  0  0  0  0  0  0
  150.3040  137.1145  154.7935 H   0  0  0  0  0  0  0  0  0  0  0  0
  150.2075  137.1960  156.5401 H   0  0  0  0  0  0  0  0  0  0  0  0
  1  2  2  0  0  0  0
  2  3  2  0  0  0  0
  2  4  1  0  0  0  0
  2 13  1  0  0  0  0
  4  5  1  0  0  0  0
  4 19  1  0  0  0  0
  5  6  1  0  0  0  0
  5 20  1  0  0  0  0
  5 21  1  0  0  0  0
  6  7  1  0  0  0  0
  6 22  1  0  0  0  0
  6 23  1  0  0  0  0
  7 12  1  0  0  0  0
  7  8  2  0  0  0  0
  8  9  1  0  0  0  0
  8 24  1  0  0  0  0
  9 10  2  0  0  0  0
  9 25  1  0  0  0  0
 10 11  1  0  0  0  0
 10 26  1  0  0  0  0
 11 12  2  0  0  0  0
 12 27  1  0  0  0  0
 13 18  1  0  0  0  0
 13 14  1  0  0  0  0
 14 15  1  0  0  0  0
 14 28  1  0  0  0  0
 14 29  1  0  0  0  0
 15 16  1  0  0  0  0
 15 30  1  0  0  0  0
 15 31  1  0  0  0  0
 16 17  1  0  0  0  0
 16 32  1  0  0  0  0
 16 33  1  0  0  0  0
 17 18  1  0  0  0  0
 17 34  1  0  0  0  0
 17 35  1  0  0  0  0
 18 36  1  0  0  0  0
 18 37  1  0  0  0  0
M  END
> <s_m_source_file>
AV-unprocessed.smi

> <i_m_source_file_index>
1274

> <i_lp_mmshare_version>
43012

> <i_f3d_flags>
0

> <s_epik_input>
W0NIMl0xW0NIMl1bQ0gyXVtDSDJdW0NIMl1OMVMoPU8pKD1PKVtOSF1bQ0gyXVtDSDJdYzJbY0hdW2NIXVtjSF1uW2NIXTI=

> <s_epik_cmdline>
J2VwaWtfcHl0aG9uJywgJy1waCcsICc3LjAnLCAnLXRuJywgJzgnLCAnLW1hJywgJzIwMCcsICctbWV0YWxfYmluZGluZycsICctaW1hZScsICc8aW5maWxlLm1hZT4nLCAnLW9tYWUnLCAnPG91dGZpbGUubWFlPic=

> <r_epik_Ionization_Penalty>
0.0259724

> <r_epik_Ionization_Penalty_Charging>
0

> <r_epik_Ionization_Penalty_Neutral>
0.0259724

> <r_epik_State_Penalty>
0.0167858

> <r_epik_Charging_Adjusted_Penalty>
0.0167858

> <i_epik_Tot_Q>
0

> <i_epik_Tot_abs_Q>
0

> <r_epik_Metal_State_Penalty>
0.268382

> <b_epik_Metal_Only>
0

> <s_lp_Force_Field>
OPLS_2005

> <r_lp_Energy>
7.33886

> <b_lp_Chiralities_Consistent>
1

> <s_lp_Variant>
AV-unprocessed.smi:1274-1

> <Gold.Version>
5.8.1

> <Gold.Id.Protein>
6NUR|6NUR_protein|mol2

> <Gold.PLP.Fitness>
37.2149

> <Gold.PLP.PLP>
-33.6372

> <Gold.PLP.part.hbond>
-3.0000

> <Gold.PLP.part.metal>
0.0000

> <Gold.PLP.part.buried>
-2.0794

> <Gold.PLP.part.nonpolar>
-28.0137

> <Gold.PLP.part.repulsive>
0.1538

> <Gold.PLP.ligand.clash>
0.0000

> <Gold.PLP.ligand.torsion>
1.5909

> <Gold.PLP.Chemscore.Hbond>
1.0000

> <Gold.PLP.Chemscore.CHOScore>
1.0000

> <Gold.PLP.Chemscore.Metal>
0.0000

> <Gold.Chemscore.Hbonds>
donor molecule, donor type, donor heavy atom, donor atom, acceptor molecule, acceptor atom, score
      P1  H  7997  8008       L1     1  0.90
      L1  C    12    27       P1  8028  1.00

> <Gold.PLP.Chemscore.Internal.Correction>
0.7595

> <Gold.Rescore>
     Score         DG    S(hbond)    S(metal)    S(lipo)     H(rot)  DE(clash)    DE(int)     intcor
     12.86     -14.87       0.86        0.00      92.77       1.69       0.27       1.74       ----

> <Gold.Chemscore.Fitness>
12.8575

> <Gold.Chemscore.DG>
-14.8684

> <Gold.Chemscore.ZeroCoef>
-5.4800

> <Gold.Chemscore.Hbond>
0.8557

> <Gold.Chemscore.Metal>
0.0000

> <Gold.Chemscore.Lipo>
92.7726

> <Gold.Chemscore.Internal_Hbond>
0.0000

> <Gold.Chemscore.DEClash>
0.2661

> <Gold.Chemscore.DEInternal>
1.7449

> <Gold.Chemscore.Rot>
1.6891

> <Gold.Chemscore.Internal.Correction>
   9.000000E+99

> <Gold.Chemscore.Hbonds>
donor molecule, donor type, donor heavy atom, donor atom, acceptor molecule, acceptor atom, score
      P1  H  7997  8008       L1     1  0.18

> <Gold.Chemscore.Hbond.Weighted>
-2.8582

> <Gold.Chemscore.Metal.Weighted>
-0.0000

> <Gold.Chemscore.Lipo.Weighted>
-10.8544

> <Gold.Chemscore.Internal_Hbond.Weighted>
0.0000

> <Gold.Chemscore.DEClash.Weighted>
0.2661

> <Gold.Chemscore.DEInternal.Weighted>
1.7449

> <Gold.Chemscore.Rot.Weighted>
4.3241

> <Gold.Chemscore.Internal.Correction.Weighted>
   9.000000E+99

> <Gold.Protein.RotatedTorsions>
[ 6907 6896 6895 6894 ] final   48.03 input  -60.11 | X-H torsion
[ 7974 7965 7964 7962 ] final   89.43 input  175.53 | X-H torsion
[ 8008 7997 7996 7995 ] final   -6.18 input   59.86 | X-H torsion
[ 10167 10162 10161 10158 ] final   97.62 input  -65.29 | X-H torsion
[ 10718 10713 10712 10709 ] final  105.88 input   66.30 | X-H torsion
[ 10763 10752 10751 10750 ] final   34.09 input  -60.55 | X-H torsion
[ 11005 11000 10999 10996 ] final -148.47 input  -57.11 | X-H torsion

> <Gold.Protein.ActiveResidues>
 VAL166  LYS551  ARG553  GLY616  TRP617  ASP618  TYR619  PRO620  LYS621  CYS622 
 ASP623  PHE694  ASN695  SER759  ASP760  ASP761  ALA762  ILE779  LEU786  VAL792 
 PHE793  MET794  SER795  GLU796  ALA797  LYS798  CYS799  TRP800  GLU811  SER814 

> <Gold.Protein.RotatedAtoms>
  152.2749  134.7893  160.0407 H   0  0  0  0  0  0  0  0  0  0  0  0  # atno 6907 bound_to 6896
  151.8492  133.3432  159.3676 H   0  0  0  0  0  0  0  0  0  0  0  0  # atno 6908 bound_to 6896
  150.7166  134.5243  159.5713 H   0  0  0  0  0  0  0  0  0  0  0  0  # atno 6909 bound_to 6896
  145.5324  139.2284  143.2611 H   0  0  0  0  0  0  0  0  0  0  0  0  # atno 7974 bound_to 7965
  154.5963  140.2439  155.7852 H   0  0  0  0  0  0  0  0  0  0  0  0  # atno 8008 bound_to 7997
  156.2281  140.2976  156.0072 H   0  0  0  0  0  0  0  0  0  0  0  0  # atno 8009 bound_to 7997
  155.2287  140.0403  157.2949 H   0  0  0  0  0  0  0  0  0  0  0  0  # atno 8010 bound_to 7997
  139.7784  144.6897  151.0057 H   0  0  0  0  0  0  0  0  0  0  0  0  # atno 10167 bound_to 10162
  157.6689  131.0838  150.5924 H   0  0  0  0  0  0  0  0  0  0  0  0  # atno 10718 bound_to 10713
  153.0180  135.6369  154.1614 H   0  0  0  0  0  0  0  0  0  0  0  0  # atno 10763 bound_to 10752
  154.1352  135.2838  155.3177 H   0  0  0  0  0  0  0  0  0  0  0  0  # atno 10764 bound_to 10752
  154.6165  135.5539  153.7591 H   0  0  0  0  0  0  0  0  0  0  0  0  # atno 10765 bound_to 10752
  140.7609  134.3299  157.5102 H   0  0  0  0  0  0  0  0  0  0  0  0  # atno 11005 bound_to 11000
  146.2035  140.6141  142.9091 LP  0  0  0  0  0  0  0  0  0  0  0  0  # atno 17320 bound_to 7965
  144.7619  140.5441  143.6730 LP  0  0  0  0  0  0  0  0  0  0  0  0  # atno 17321 bound_to 7965
  140.7817  143.4511  151.0412 LP  0  0  0  0  0  0  0  0  0  0  0  0  # atno 17342 bound_to 10162
  139.8192  143.7844  152.3176 LP  0  0  0  0  0  0  0  0  0  0  0  0  # atno 17343 bound_to 10162
  156.6224  130.4409  149.5817 LP  0  0  0  0  0  0  0  0  0  0  0  0  # atno 17370 bound_to 10713
  156.2345  130.6814  151.1496 LP  0  0  0  0  0  0  0  0  0  0  0  0  # atno 17371 bound_to 10713
  139.8771  134.9201  156.3244 LP  0  0  0  0  0  0  0  0  0  0  0  0  # atno 17394 bound_to 11000
  140.9663  133.7356  156.0472 LP  0  0  0  0  0  0  0  0  0  0  0  0  # atno 17395 bound_to 11000

$$$$
