#       Name:                AV-unprocessed.smi:2844
#       Creating user name   scv26
#       Creation time:       Fri Mar 27 15:38:59 2020


#       File generated by GOLD software.
#

@<TRIPOS>MOLECULE
AV-unprocessed.smi:2844
    42    44     1
SMALL
NO_CHARGES


@<TRIPOS>ATOM
      1 ****        -2.4804   3.7943   2.6391 C.3            1 S1                 0.0000
      2 ****        -2.1418   2.7261   1.6134 C.ar           1 S1                 0.0000
      3 ****        -2.3659   3.0087   0.2468 C.ar           1 S1                 0.0000
      4 ****        -2.0487   2.0112  -0.6675 C.ar           1 S1                 0.0000
      5 ****        -2.1506   1.9790  -2.0603 N.pl3          1 S1                 1.0000
      6 ****        -1.7149   0.7733  -2.5199 C.2            1 S1                 0.0000
      7 ****        -1.3364   0.0361  -1.4407 N.pl3          1 S1                 0.0000
      8 ****        -0.7881  -1.3246  -1.3731 C.3            1 S1                 0.0000
      9 ****         0.7495  -1.3425  -1.2791 C.3            1 S1                 0.0000
     10 ****         1.2972  -0.6766  -2.4020 O.3            1 S1                 0.0000
     11 ****         1.3039  -2.7772  -1.1959 C.3            1 S1                 0.0000
     12 ****         2.7469  -2.8055  -1.0337 N.pl3          1 S1                 0.0000
     13 ****         3.4756  -2.6578   0.1306 C.2            1 S1                 0.0000
     14 ****         4.7807  -2.7574  -0.2433 C.2            1 S1                 0.0000
     15 ****         6.1603  -2.6519   0.7862 Cl             1 S1                 0.0000
     16 ****         4.7811  -2.9651  -1.6461 C.2            1 S1                 0.0000
     17 ****         3.5431  -2.9914  -2.1179 N.2            1 S1                 0.0000
     18 ****        -1.5252   0.7677  -0.2639 C.ar           1 S1                 0.0000
     19 ****        -1.2953   0.4733   1.0777 C.ar           1 S1                 0.0000
     20 ****        -1.6124   1.4747   2.0234 C.ar           1 S1                 0.0000
     21 ****        -1.3752   1.1818   3.4953 C.3            1 S1                 0.0000
     22 ****        -2.9002   4.6825   2.1661 H              1 S1                 0.0000
     23 ****        -1.5865   4.0979   3.1845 H              1 S1                 0.0000
     24 ****        -3.2136   3.4211   3.3545 H              1 S1                 0.0000
     25 ****        -2.7672   3.9595  -0.0726 H              1 S1                 0.0000
     26 ****        -1.6718   0.4599  -3.5531 H              1 S1                 0.0000
     27 ****        -1.2400  -1.8393  -0.5242 H              1 S1                 0.0000
     28 ****        -1.1189  -1.8551  -2.2670 H              1 S1                 0.0000
     29 ****         1.0586  -0.7949  -0.3878 H              1 S1                 0.0000
     30 ****         2.2398  -0.7357  -2.3558 H              1 S1                 0.0000
     31 ****         0.8607  -3.3000  -0.3474 H              1 S1                 0.0000
     32 ****         1.0336  -3.3463  -2.0870 H              1 S1                 0.0000
     33 ****         3.0139  -2.4982   1.0938 H              1 S1                 0.0000
     34 ****         5.6148  -3.0944  -2.3205 H              1 S1                 0.0000
     35 ****        -0.8923  -0.4793   1.3882 H              1 S1                 0.0000
     36 ****        -0.9335   0.1953   3.6399 H              1 S1                 0.0000
     37 ****        -2.3153   1.2102   4.0469 H              1 S1                 0.0000
     38 ****        -0.6962   1.9159   3.9291 H              1 S1                 0.0000
     39 ****        -2.4900   2.7232  -2.6562 H              1 S1                 0.0000
     40 ****         1.0187   0.2838  -2.3936 LP             1 S1                 0.0000
     41 ****         0.9729  -1.1103  -3.2427 LP             1 S1                 0.0000
     42 ****         3.2570  -3.1203  -3.0674 LP             1 S1                 0.0000
@<TRIPOS>BOND
    1    1    2 1     
    2    1   22 1     
    3    1   23 1     
    4    1   24 1     
    5    2   20 ar    
    6    2    3 ar    
    7    3    4 ar    
    8    3   25 1     
    9    4   18 ar    
   10    4    5 1     
   11    5    6 2     
   12    5   39 1     
   13    6    7 1     
   14    6   26 1     
   15    7    8 1     
   16    7   18 1     
   17    8    9 1     
   18    8   27 1     
   19    8   28 1     
   20    9   10 1     
   21    9   11 1     
   22    9   29 1     
   23   10   30 1     
   24   11   12 1     
   25   11   31 1     
   26   11   32 1     
   27   12   17 1     
   28   12   13 1     
   29   13   14 2     
   30   13   33 1     
   31   14   15 1     
   32   14   16 1     
   33   16   17 2     
   34   16   34 1     
   35   18   19 ar    
   36   19   20 ar    
   37   19   35 1     
   38   20   21 1     
   39   21   36 1     
   40   21   37 1     
   41   21   38 1     
   42   10   40 1     
   43   10   41 1     
   44   17   42 1     
@<TRIPOS>SUBSTRUCTURE
      1 S1             1
@<TRIPOS>SET
LONE_PAIRS      STATIC     ATOMS    <user>   **** ""
3 40 41 42
DONOR_HYDROGENS      STATIC     ATOMS    <user>   **** ""
2 39 30
ATOM$BLUE        STATIC     ATOMS    COLORGROUP SYSTEM
3 40 41 42
ATOM$RED        STATIC     ATOMS    COLORGROUP SYSTEM
2 39 30
