AV-unprocessed.smi:2225|AV-procd|sdf|9000|dock4
  -GOLD-   2272012213D 1   1.00000     0.00000
 Structure written by MMmdl.
 33 34  0  0  0  0  0  0  0  0  1 V2000
  149.3716  140.4318  156.6611 O   0  0  0  0  0  0  0  0  0  0  0  0
  149.5221  141.5823  156.2521 C   0  0  0  0  0  0  0  0  0  0  0  0
  150.9432  142.1680  156.1800 C   0  0  0  0  0  0  0  0  0  0  0  0
  151.5768  142.4303  157.4857 N   0  0  0  0  0  0  0  0  0  0  0  0
  151.3356  143.6891  158.0644 C   0  0  0  0  0  0  0  0  0  0  0  0
  151.8596  144.0338  159.2480 C   0  0  0  0  0  0  0  0  0  0  0  0
  152.6940  143.0747  159.9297 C   0  0  0  0  0  0  0  0  0  0  0  0
  152.9408  141.8541  159.4004 C   0  0  0  0  0  0  0  0  0  0  0  0
  153.8186  140.8262  160.1107 C   0  0  0  0  0  0  0  0  0  0  0  0
  153.8253  141.0426  161.4268 F   0  0  0  0  0  0  0  0  0  0  0  0
  153.3620  139.5924  159.8933 F   0  0  0  0  0  0  0  0  0  0  0  0
  155.0817  140.8751  159.6845 F   0  0  0  0  0  0  0  0  0  0  0  0
  152.3493  141.4806  158.0992 C   0  0  0  0  0  0  0  0  0  0  0  0
  152.5306  140.3759  157.5850 O   0  0  0  0  0  0  0  0  0  0  0  0
  148.4935  142.3513  155.8571 N   0  0  0  0  0  0  0  0  0  0  0  0
  147.0932  141.9430  155.8504 C   0  0  1  0  0  0  0  0  0  0  0  0
  146.2594  142.7752  156.8223 C   0  0  0  0  0  0  0  0  0  0  0  0
  145.2616  143.5062  155.9267 C   0  0  0  0  0  0  0  0  0  0  0  0
  145.1243  142.6424  154.8119 O   0  0  0  0  0  0  0  0  0  0  0  0
  146.4292  142.1908  154.4886 C   0  0  0  0  0  0  0  0  0  0  0  0
  151.5629  141.4977  155.5819 H   0  0  0  0  0  0  0  0  0  0  0  0
  150.8948  143.0906  155.5994 H   0  0  0  0  0  0  0  0  0  0  0  0
  150.6963  144.3454  157.4917 H   0  0  0  0  0  0  0  0  0  0  0  0
  151.6609  145.0030  159.6812 H   0  0  0  0  0  0  0  0  0  0  0  0
  153.1230  143.3533  160.8806 H   0  0  0  0  0  0  0  0  0  0  0  0
  148.6970  143.2850  155.5313 H   0  0  0  0  0  0  0  0  0  0  0  0
  147.0081  140.8898  156.1246 H   0  0  0  0  0  0  0  0  0  0  0  0
  145.7266  142.1131  157.5058 H   0  0  0  0  0  0  0  0  0  0  0  0
  146.8470  143.4679  157.4265 H   0  0  0  0  0  0  0  0  0  0  0  0
  144.3056  143.6863  156.4187 H   0  0  0  0  0  0  0  0  0  0  0  0
  145.6655  144.4649  155.5972 H   0  0  0  0  0  0  0  0  0  0  0  0
  146.9427  142.9745  153.9284 H   0  0  0  0  0  0  0  0  0  0  0  0
  146.4001  141.2951  153.8678 H   0  0  0  0  0  0  0  0  0  0  0  0
  1  2  2  0  0  0  0
  2  3  1  0  0  0  0
  2 15  1  0  0  0  0
  3  4  1  0  0  0  0
  3 21  1  0  0  0  0
  3 22  1  0  0  0  0
  4 13  1  0  0  0  0
  4  5  1  0  0  0  0
  5  6  2  0  0  0  0
  5 23  1  0  0  0  0
  6  7  1  0  0  0  0
  6 24  1  0  0  0  0
  7  8  2  0  0  0  0
  7 25  1  0  0  0  0
  8  9  1  0  0  0  0
  8 13  1  0  0  0  0
  9 10  1  0  0  0  0
  9 11  1  0  0  0  0
  9 12  1  0  0  0  0
 13 14  2  0  0  0  0
 15 16  1  0  0  0  0
 15 26  1  0  0  0  0
 16 20  1  0  0  0  0
 16 17  1  0  0  0  0
 16 27  1  0  0  0  0
 17 18  1  0  0  0  0
 17 28  1  0  0  0  0
 17 29  1  0  0  0  0
 18 19  1  0  0  0  0
 18 30  1  0  0  0  0
 18 31  1  0  0  0  0
 19 20  1  0  0  0  0
 20 32  1  0  0  0  0
 20 33  1  0  0  0  0
M  END
> <s_m_source_file>
AV-unprocessed.smi

> <i_m_source_file_index>
2225

> <i_lp_mmshare_version>
43012

> <i_f3d_flags>
0

> <s_epik_input>
W0NIMl0xT1tDSDJdW0NIMl1bQ0BIXTFbTkhdQyg9TylbQ0gyXW4yW2NIXVtjSF1bY0hdYyhDKEYpKEYpRiljMj1P

> <s_epik_cmdline>
J2VwaWtfcHl0aG9uJywgJy1waCcsICc3LjAnLCAnLXRuJywgJzgnLCAnLW1hJywgJzIwMCcsICctbWV0YWxfYmluZGluZycsICctaW1hZScsICc8aW5maWxlLm1hZT4nLCAnLW9tYWUnLCAnPG91dGZpbGUubWFlPic=

> <r_lp_tautomer_probability>
1

> <r_epik_Ionization_Penalty>
3.32109e-08

> <r_epik_Ionization_Penalty_Charging>
1.91399e-09

> <r_epik_Ionization_Penalty_Neutral>
3.1297e-08

> <r_epik_State_Penalty>
-0

> <r_epik_Charging_Adjusted_Penalty>
1.91399e-09

> <i_epik_Tot_Q>
0

> <i_epik_Tot_abs_Q>
0

> <r_epik_Metal_State_Penalty>
-0

> <b_epik_Metal_Only>
0

> <s_lp_Force_Field>
OPLS_2005

> <r_lp_Energy>
24.9921

> <b_lp_Chiralities_Consistent>
1

> <s_lp_Variant>
AV-unprocessed.smi:2225-2

> <Gold.Version>
5.8.1

> <Gold.Id.Protein>
6NUR|6NUR_protein|mol2

> <Gold.PLP.Fitness>
45.4917

> <Gold.PLP.PLP>
-40.0391

> <Gold.PLP.part.hbond>
-2.0000

> <Gold.PLP.part.metal>
0.0000

> <Gold.PLP.part.buried>
-5.7096

> <Gold.PLP.part.nonpolar>
-31.4310

> <Gold.PLP.part.repulsive>
0.2998

> <Gold.PLP.ligand.clash>
0.0000

> <Gold.PLP.ligand.torsion>
1.5470

> <Gold.PLP.Chemscore.Hbond>
1.7280

> <Gold.PLP.Chemscore.CHOScore>
1.0000

> <Gold.PLP.Chemscore.Metal>
0.0000

> <Gold.Chemscore.Hbonds>
donor molecule, donor type, donor heavy atom, donor atom, acceptor molecule, acceptor atom, score
      L1  H    15    26       P1  8028  0.78
      P1  H  7997  8008       L1    14  0.80
      L1  C     5    23       P1  8028  0.90

> <Gold.PLP.Chemscore.Internal.Correction>
0.3625

> <Gold.Rescore>
     Score         DG    S(hbond)    S(metal)    S(lipo)     H(rot)  DE(clash)    DE(int)     intcor
     13.08     -16.29       1.78        0.00      77.36       1.64       0.14       3.06       ----

> <Gold.Chemscore.Fitness>
13.0838

> <Gold.Chemscore.DG>
-16.2902

> <Gold.Chemscore.ZeroCoef>
-5.4800

> <Gold.Chemscore.Hbond>
1.7828

> <Gold.Chemscore.Metal>
0.0000

> <Gold.Chemscore.Lipo>
77.3594

> <Gold.Chemscore.Internal_Hbond>
0.0000

> <Gold.Chemscore.DEClash>
0.1422

> <Gold.Chemscore.DEInternal>
3.0642

> <Gold.Chemscore.Rot>
1.6389

> <Gold.Chemscore.Internal.Correction>
   9.000000E+99

> <Gold.Chemscore.Hbonds>
donor molecule, donor type, donor heavy atom, donor atom, acceptor molecule, acceptor atom, score
      L1  H    15    26       P1  8028  0.76
      P1  H  7997  8008       L1    14  0.68

> <Gold.Chemscore.Hbond.Weighted>
-5.9547

> <Gold.Chemscore.Metal.Weighted>
-0.0000

> <Gold.Chemscore.Lipo.Weighted>
-9.0510

> <Gold.Chemscore.Internal_Hbond.Weighted>
0.0000

> <Gold.Chemscore.DEClash.Weighted>
0.1422

> <Gold.Chemscore.DEInternal.Weighted>
3.0642

> <Gold.Chemscore.Rot.Weighted>
4.1956

> <Gold.Chemscore.Internal.Correction.Weighted>
   9.000000E+99

> <Gold.Protein.RotatedTorsions>
[ 6907 6896 6895 6894 ] final  100.91 input  -60.11 | X-H torsion
[ 7974 7965 7964 7962 ] final -163.46 input  175.53 | X-H torsion
[ 8008 7997 7996 7995 ] final  -71.25 input   59.86 | X-H torsion
[ 10167 10162 10161 10158 ] final  -88.63 input  -65.29 | X-H torsion
[ 10718 10713 10712 10709 ] final  167.90 input   66.30 | X-H torsion
[ 10763 10752 10751 10750 ] final    8.31 input  -60.55 | X-H torsion
[ 11005 11000 10999 10996 ] final  164.78 input  -57.11 | X-H torsion

> <Gold.Protein.ActiveResidues>
 VAL166  LYS551  ARG553  GLY616  TRP617  ASP618  TYR619  PRO620  LYS621  CYS622 
 ASP623  PHE694  ASN695  SER759  ASP760  ASP761  ALA762  ILE779  LEU786  VAL792 
 PHE793  MET794  SER795  GLU796  ALA797  LYS798  CYS799  TRP800  GLU811  SER814 

> <Gold.Protein.RotatedAtoms>
  152.5361  134.0206  159.7979 H   0  0  0  0  0  0  0  0  0  0  0  0  # atno 6907 bound_to 6896
  151.0393  133.5713  159.2660 H   0  0  0  0  0  0  0  0  0  0  0  0  # atno 6908 bound_to 6896
  151.2688  135.0685  159.9180 H   0  0  0  0  0  0  0  0  0  0  0  0  # atno 6909 bound_to 6896
  144.7325  140.3103  143.6189 H   0  0  0  0  0  0  0  0  0  0  0  0  # atno 7974 bound_to 7965
  154.5073  140.0819  156.7920 H   0  0  0  0  0  0  0  0  0  0  0  0  # atno 8008 bound_to 7997
  155.3864  140.3430  155.4231 H   0  0  0  0  0  0  0  0  0  0  0  0  # atno 8009 bound_to 7997
  156.1531  140.1565  156.8724 H   0  0  0  0  0  0  0  0  0  0  0  0  # atno 8010 bound_to 7997
  140.3727  143.2786  151.9480 H   0  0  0  0  0  0  0  0  0  0  0  0  # atno 10167 bound_to 10162
  157.0448  131.0297  151.2701 H   0  0  0  0  0  0  0  0  0  0  0  0  # atno 10718 bound_to 10713
  153.2265  135.6887  153.7940 H   0  0  0  0  0  0  0  0  0  0  0  0  # atno 10763 bound_to 10752
  153.7120  135.3281  155.3249 H   0  0  0  0  0  0  0  0  0  0  0  0  # atno 10764 bound_to 10752
  154.8294  135.4592  154.1133 H   0  0  0  0  0  0  0  0  0  0  0  0  # atno 10765 bound_to 10752
  140.2494  134.7988  157.3488 H   0  0  0  0  0  0  0  0  0  0  0  0  # atno 11005 bound_to 11000
  145.7671  139.1844  143.2233 LP  0  0  0  0  0  0  0  0  0  0  0  0  # atno 17320 bound_to 7965
  146.0940  140.7622  142.9581 LP  0  0  0  0  0  0  0  0  0  0  0  0  # atno 17321 bound_to 7965
  139.4802  144.5891  151.7802 LP  0  0  0  0  0  0  0  0  0  0  0  0  # atno 17342 bound_to 10162
  140.5017  144.1159  150.5972 LP  0  0  0  0  0  0  0  0  0  0  0  0  # atno 17343 bound_to 10162
  157.5076  130.7918  149.7671 LP  0  0  0  0  0  0  0  0  0  0  0  0  # atno 17370 bound_to 10713
  156.0026  130.3872  150.2548 LP  0  0  0  0  0  0  0  0  0  0  0  0  # atno 17371 bound_to 10713
  140.1573  134.4774  155.7919 LP  0  0  0  0  0  0  0  0  0  0  0  0  # atno 17394 bound_to 11000
  141.2203  133.6886  156.7482 LP  0  0  0  0  0  0  0  0  0  0  0  0  # atno 17395 bound_to 11000

$$$$
