AV-unprocessed.smi:279|AV-procd|sdf|2096|dock2
  -GOLD-   2262021373D 1   1.00000     0.00000
 Structure written by MMmdl.
 50 54  0  0  0  0  0  0  0  0  1 V2000
  154.0125  132.7002  158.9629 O   0  0  0  0  0  0  0  0  0  0  0  0
  153.7993  132.5647  157.5140 S   0  0  0  0  0  0  0  0  0  0  0  0
  153.3862  133.7184  156.7002 O   0  0  0  0  0  0  0  0  0  0  0  0
  155.2694  131.7945  156.7512 C   0  0  0  0  0  0  0  0  0  0  0  0
  154.7017  130.9125  155.6353 C   0  0  0  0  0  0  0  0  0  0  0  0
  153.4040  130.2421  156.1425 C   0  0  2  0  0  0  0  0  0  0  0  0
  152.3585  129.9757  155.0479 C   0  0  0  0  0  0  0  0  0  0  0  0
  151.0850  130.4363  155.5833 N   0  0  0  0  0  0  0  0  0  0  0  0
  149.9961  130.5163  154.7698 C   0  0  0  0  0  0  0  0  0  0  0  0
  149.4519  129.3623  154.2974 N   0  0  0  0  0  0  0  0  0  0  0  0
  148.3812  129.3876  153.4996 C   0  0  0  0  0  0  0  0  0  0  0  0
  147.7062  130.4432  153.0450 N   0  0  0  0  0  0  0  0  0  0  0  0
  148.2515  131.6087  153.4950 C   0  0  0  0  0  0  0  0  0  0  0  0
  149.3821  131.7374  154.3546 C   0  0  0  0  0  0  0  0  0  0  0  0
  149.6277  133.0856  154.5944 N   0  0  0  0  0  0  0  0  0  0  0  0
  148.6957  133.7112  153.9302 C   0  0  0  0  0  0  0  0  0  0  0  0
  147.8411  132.9015  153.2195 N   0  0  0  0  0  0  0  0  0  0  0  0
  146.7094  133.3216  152.4460 C   0  0  0  0  0  0  0  0  0  0  0  0
  145.5155  132.3907  152.2102 C   0  0  0  0  0  0  0  0  0  0  0  0
  145.3024  133.0377  150.8224 C   0  0  0  0  0  0  0  0  0  0  0  0
  144.9007  132.0922  149.6733 C   0  0  0  0  0  0  0  0  0  0  0  0
  143.5154  131.8105  149.6589 O   0  0  0  0  0  0  0  0  0  0  0  0
  144.2974  134.2057  150.8218 C   0  0  0  0  0  0  0  0  0  0  0  0
  144.1706  134.7807  149.5371 O   0  0  0  0  0  0  0  0  0  0  0  0
  146.7917  133.4422  150.9212 C   0  0  0  0  0  0  0  0  0  0  0  0
  151.3532  131.5049  156.5357 C   0  0  0  0  0  0  0  0  0  0  0  0
  152.6945  131.1349  157.1735 C   0  0  2  0  0  0  0  0  0  0  0  0
  153.6625  129.3036  156.6352 H   0  0  0  0  0  0  0  0  0  0  0  0
  152.5409  130.5808  158.1002 H   0  0  0  0  0  0  0  0  0  0  0  0
  155.9583  132.5602  156.3946 H   0  0  0  0  0  0  0  0  0  0  0  0
  155.7702  131.1900  157.5077 H   0  0  0  0  0  0  0  0  0  0  0  0
  154.4744  131.5554  154.7841 H   0  0  0  0  0  0  0  0  0  0  0  0
  155.4284  130.1767  155.2903 H   0  0  0  0  0  0  0  0  0  0  0  0
  152.5844  130.5188  154.1291 H   0  0  0  0  0  0  0  0  0  0  0  0
  152.3259  128.9114  154.8161 H   0  0  0  0  0  0  0  0  0  0  0  0
  148.0140  128.4242  153.1780 H   0  0  0  0  0  0  0  0  0  0  0  0
  148.6106  134.7882  153.9378 H   0  0  0  0  0  0  0  0  0  0  0  0
  146.3807  134.2637  152.8876 H   0  0  0  0  0  0  0  0  0  0  0  0
  145.8137  131.3420  152.1693 H   0  0  0  0  0  0  0  0  0  0  0  0
  144.6930  132.5304  152.9124 H   0  0  0  0  0  0  0  0  0  0  0  0
  145.1635  132.5240  148.7072 H   0  0  0  0  0  0  0  0  0  0  0  0
  145.4269  131.1401  149.7457 H   0  0  0  0  0  0  0  0  0  0  0  0
  143.2065  131.7780  150.5515 H   0  0  0  0  0  0  0  0  0  0  0  0
  143.3132  133.8761  151.1564 H   0  0  0  0  0  0  0  0  0  0  0  0
  144.6032  134.9936  151.5102 H   0  0  0  0  0  0  0  0  0  0  0  0
  144.9098  134.5114  149.0135 H   0  0  0  0  0  0  0  0  0  0  0  0
  147.0239  134.4456  150.5632 H   0  0  0  0  0  0  0  0  0  0  0  0
  147.4713  132.7091  150.4836 H   0  0  0  0  0  0  0  0  0  0  0  0
  151.4064  132.4496  155.9947 H   0  0  0  0  0  0  0  0  0  0  0  0
  150.5683  131.5851  157.2886 H   0  0  0  0  0  0  0  0  0  0  0  0
  1  2  2  0  0  0  0
  2 27  1  0  0  0  0
  2  3  2  0  0  0  0
  2  4  1  0  0  0  0
  4  5  1  0  0  0  0
  4 30  1  0  0  0  0
  4 31  1  0  0  0  0
  5  6  1  0  0  0  0
  5 32  1  0  0  0  0
  5 33  1  0  0  0  0
  6 28  1  0  0  0  0
  6 27  1  0  0  0  0
  6  7  1  0  0  0  0
  7  8  1  0  0  0  0
  7 34  1  0  0  0  0
  7 35  1  0  0  0  0
  8  9  1  0  0  0  0
  8 26  1  0  0  0  0
  9 14  1  0  0  0  0
  9 10  2  0  0  0  0
 10 11  1  0  0  0  0
 11 12  2  0  0  0  0
 11 36  1  0  0  0  0
 12 13  1  0  0  0  0
 13 17  1  0  0  0  0
 13 14  2  0  0  0  0
 14 15  1  0  0  0  0
 15 16  2  0  0  0  0
 16 17  1  0  0  0  0
 16 37  1  0  0  0  0
 17 18  1  0  0  0  0
 18 25  1  0  0  0  0
 18 19  1  0  0  0  0
 18 38  1  0  0  0  0
 19 20  1  0  0  0  0
 19 39  1  0  0  0  0
 19 40  1  0  0  0  0
 20 21  1  0  0  0  0
 20 23  1  0  0  0  0
 20 25  1  0  0  0  0
 21 22  1  0  0  0  0
 21 41  1  0  0  0  0
 21 42  1  0  0  0  0
 22 43  1  0  0  0  0
 23 24  1  0  0  0  0
 23 44  1  0  0  0  0
 23 45  1  0  0  0  0
 24 46  1  0  0  0  0
 25 47  1  0  0  0  0
 25 48  1  0  0  0  0
 26 27  1  0  0  0  0
 26 49  1  0  0  0  0
 26 50  1  0  0  0  0
 27 29  1  0  0  0  0
M  END
> <s_m_source_file>
AV-unprocessed.smi

> <i_m_source_file_index>
279

> <i_lp_mmshare_version>
43012

> <i_f3d_flags>
0

> <s_epik_input>
W0NIMl0xW0NIMl1TKD1PKSg9TylbQ0BASF0oW0NAQEhdMTIpW0NIMl1OKFtDSDJdMiljKG5bY0hdbjMpYyhjMzQpbltjSF1uNFtDSF0oW0NIMl01KVtDSDJdQzUoW0NIMl1bT0hdKVtDSDJdW09IXQ==

> <s_epik_cmdline>
J2VwaWtfcHl0aG9uJywgJy1waCcsICc3LjAnLCAnLXRuJywgJzgnLCAnLW1hJywgJzIwMCcsICctbWV0YWxfYmluZGluZycsICctaW1hZScsICc8aW5maWxlLm1hZT4nLCAnLW9tYWUnLCAnPG91dGZpbGUubWFlPic=

> <r_lp_tautomer_probability>
1

> <r_epik_Ionization_Penalty>
0.000990948

> <r_epik_Ionization_Penalty_Charging>
0

> <r_epik_Ionization_Penalty_Neutral>
0.000990948

> <r_epik_State_Penalty>
0.000515994

> <r_epik_Charging_Adjusted_Penalty>
0.000515994

> <i_epik_Tot_Q>
0

> <i_epik_Tot_abs_Q>
0

> <r_epik_Metal_State_Penalty>
-0

> <b_epik_Metal_Only>
0

> <s_lp_Force_Field>
OPLS_2005

> <r_lp_Energy>
55.7342

> <b_lp_Chiralities_Consistent>
1

> <s_lp_Variant>
AV-unprocessed.smi:279-2

> <Gold.Version>
5.8.1

> <Gold.Id.Protein>
6NUR|6NUR_protein|mol2

> <Gold.PLP.Fitness>
52.4498

> <Gold.PLP.PLP>
-41.7766

> <Gold.PLP.part.hbond>
-5.3862

> <Gold.PLP.part.metal>
0.0000

> <Gold.PLP.part.buried>
-4.4313

> <Gold.PLP.part.nonpolar>
-31.7757

> <Gold.PLP.part.repulsive>
0.7700

> <Gold.PLP.ligand.clash>
0.0000

> <Gold.PLP.ligand.torsion>
1.3638

> <Gold.PLP.Chemscore.Hbond>
3.3721

> <Gold.PLP.Chemscore.CHOScore>
0.8383

> <Gold.PLP.Chemscore.Metal>
0.0000

> <Gold.Chemscore.Hbonds>
donor molecule, donor type, donor heavy atom, donor atom, acceptor molecule, acceptor atom, score
      L1  H    24    46       P1  7921  1.00
      P1  H  6896  6907       L1     1  1.00
      P1  H 10752 10765       L1     3  0.36
      P1  H 10785 10796       L1    22  1.00
      L1  C    16    37       P1  7948  0.84

> <Gold.PLP.Chemscore.Internal.Correction>
0.7699

> <Gold.Rescore>
     Score         DG    S(hbond)    S(metal)    S(lipo)     H(rot)  DE(clash)    DE(int)     intcor
     11.70     -16.15       3.10        0.00      74.82       3.29       1.34       3.11       ----

> <Gold.Chemscore.Fitness>
11.6965

> <Gold.Chemscore.DG>
-16.1509

> <Gold.Chemscore.ZeroCoef>
-5.4800

> <Gold.Chemscore.Hbond>
3.0989

> <Gold.Chemscore.Metal>
0.0000

> <Gold.Chemscore.Lipo>
74.8211

> <Gold.Chemscore.Internal_Hbond>
0.0000

> <Gold.Chemscore.DEClash>
1.3412

> <Gold.Chemscore.DEInternal>
3.1132

> <Gold.Chemscore.Rot>
3.2944

> <Gold.Chemscore.Internal.Correction>
   9.000000E+99

> <Gold.Chemscore.Hbonds>
donor molecule, donor type, donor heavy atom, donor atom, acceptor molecule, acceptor atom, score
      L1  H    24    46       P1  7921  0.95
      P1  H  6896  6907       L1     1  0.63
      P1  H 10752 10765       L1     3  0.35
      P1  H 10785 10796       L1    22  0.52

> <Gold.Chemscore.Hbond.Weighted>
-10.3505

> <Gold.Chemscore.Metal.Weighted>
-0.0000

> <Gold.Chemscore.Lipo.Weighted>
-8.7541

> <Gold.Chemscore.Internal_Hbond.Weighted>
0.0000

> <Gold.Chemscore.DEClash.Weighted>
1.3412

> <Gold.Chemscore.DEInternal.Weighted>
3.1132

> <Gold.Chemscore.Rot.Weighted>
8.4337

> <Gold.Chemscore.Internal.Correction.Weighted>
   9.000000E+99

> <Gold.Protein.RotatedTorsions>
[ 6907 6896 6895 6894 ] final  107.86 input  -60.11 | X-H torsion
[ 7974 7965 7964 7962 ] final   33.68 input  175.53 | X-H torsion
[ 8008 7997 7996 7995 ] final   89.59 input   59.86 | X-H torsion
[ 10167 10162 10161 10158 ] final -157.63 input  -65.29 | X-H torsion
[ 10718 10713 10712 10709 ] final   78.32 input   66.30 | X-H torsion
[ 10763 10752 10751 10750 ] final -114.34 input  -60.55 | X-H torsion
[ 11005 11000 10999 10996 ] final    8.56 input  -57.11 | X-H torsion

> <Gold.Protein.ActiveResidues>
 VAL166  LYS551  ARG553  GLY616  TRP617  ASP618  TYR619  PRO620  LYS621  CYS622 
 ASP623  PHE694  ASN695  SER759  ASP760  ASP761  ALA762  ILE779  LEU786  VAL792 
 PHE793  MET794  SER795  GLU796  ALA797  LYS798  CYS799  TRP800  GLU811  SER814 

> <Gold.Protein.RotatedAtoms>
  152.5137  133.9174  159.7517 H   0  0  0  0  0  0  0  0  0  0  0  0  # atno 6907 bound_to 6896
  150.9553  133.6496  159.2771 H   0  0  0  0  0  0  0  0  0  0  0  0  # atno 6908 bound_to 6896
  151.3760  135.0936  159.9533 H   0  0  0  0  0  0  0  0  0  0  0  0  # atno 6909 bound_to 6896
  146.1404  139.6365  142.9167 H   0  0  0  0  0  0  0  0  0  0  0  0  # atno 7974 bound_to 7965
  156.0018  140.3359  155.6853 H   0  0  0  0  0  0  0  0  0  0  0  0  # atno 8008 bound_to 7997
  155.6280  140.0682  157.2676 H   0  0  0  0  0  0  0  0  0  0  0  0  # atno 8009 bound_to 7997
  154.4252  140.1765  156.1429 H   0  0  0  0  0  0  0  0  0  0  0  0  # atno 8010 bound_to 7997
  139.6755  143.9671  152.2308 H   0  0  0  0  0  0  0  0  0  0  0  0  # atno 10167 bound_to 10162
  157.6741  130.9863  150.1769 H   0  0  0  0  0  0  0  0  0  0  0  0  # atno 10718 bound_to 10713
  154.8436  135.4421  154.1491 H   0  0  0  0  0  0  0  0  0  0  0  0  # atno 10763 bound_to 10752
  153.2656  135.6940  153.7539 H   0  0  0  0  0  0  0  0  0  0  0  0  # atno 10764 bound_to 10752
  153.6799  135.3404  155.3151 H   0  0  0  0  0  0  0  0  0  0  0  0  # atno 10765 bound_to 10752
  140.5356  134.0424  155.7887 H   0  0  0  0  0  0  0  0  0  0  0  0  # atno 11005 bound_to 11000
  145.5060  141.0436  143.2514 LP  0  0  0  0  0  0  0  0  0  0  0  0  # atno 17320 bound_to 7965
  144.7786  139.6575  143.7164 LP  0  0  0  0  0  0  0  0  0  0  0  0  # atno 17321 bound_to 7965
  139.9447  144.6659  150.8232 LP  0  0  0  0  0  0  0  0  0  0  0  0  # atno 17342 bound_to 10162
  140.7634  143.3221  151.2597 LP  0  0  0  0  0  0  0  0  0  0  0  0  # atno 17343 bound_to 10162
  156.2510  130.3700  149.8232 LP  0  0  0  0  0  0  0  0  0  0  0  0  # atno 17370 bound_to 10713
  156.6005  130.8544  151.3430 LP  0  0  0  0  0  0  0  0  0  0  0  0  # atno 17371 bound_to 10713
  141.1256  133.9388  157.2641 LP  0  0  0  0  0  0  0  0  0  0  0  0  # atno 17394 bound_to 11000
  139.9531  135.0171  156.9050 LP  0  0  0  0  0  0  0  0  0  0  0  0  # atno 17395 bound_to 11000

$$$$
