AV-unprocessed.smi:1982|AV-procd|sdf|8023|dock7
  -GOLD-   2272010213D 1   1.00000     0.00000
 Structure written by MMmdl.
 36 37  0  0  0  0  0  0  0  0  1 V2000
  154.0643  141.9877  159.8020 C   0  0  0  0  0  0  0  0  0  0  0  0
  152.5280  141.9946  159.9400 C   0  0  1  0  0  0  0  0  0  0  0  0
  151.9474  143.4117  159.7543 C   0  0  0  0  0  0  0  0  0  0  0  0
  151.9910  143.8707  158.2883 C   0  0  0  0  0  0  0  0  0  0  0  0
  151.2724  142.8706  157.3719 C   0  0  0  0  0  0  0  0  0  0  0  0
  151.8336  141.4428  157.5288 C   0  0  2  0  0  0  0  0  0  0  0  0
  151.0609  140.5195  156.7027 N   0  0  0  0  0  0  0  0  0  0  0  0
  151.5364  139.8035  155.6719 C   0  0  0  0  0  0  0  0  0  0  0  0
  152.6904  139.8934  155.2542 O   0  0  0  0  0  0  0  0  0  0  0  0
  150.5592  138.8270  155.0167 C   0  0  0  0  0  0  0  0  0  0  0  0
  150.9097  137.4541  155.3317 N   0  0  0  0  0  0  0  0  0  0  0  0
  150.3403  136.3002  154.9777 C   0  0  0  0  0  0  0  0  0  0  0  0
  150.9974  135.2604  155.4687 N   0  0  0  0  0  0  0  0  0  0  0  0
  152.0380  135.8475  156.1691 N   0  0  0  0  0  0  0  0  0  0  0  0
  151.9914  137.1490  156.0917 N   0  0  0  0  0  0  0  0  0  0  0  0
  151.8012  140.9862  159.0102 C   0  0  1  0  0  0  0  0  0  0  0  0
  152.2995  139.5396  159.2046 C   0  0  0  0  0  0  0  0  0  0  0  0
  154.3886  142.2201  158.7882 H   0  0  0  0  0  0  0  0  0  0  0  0
  154.4866  141.0197  160.0702 H   0  0  0  0  0  0  0  0  0  0  0  0
  154.5163  142.7243  160.4666 H   0  0  0  0  0  0  0  0  0  0  0  0
  152.3143  141.7005  160.9686 H   0  0  0  0  0  0  0  0  0  0  0  0
  150.9121  143.4226  160.0983 H   0  0  0  0  0  0  0  0  0  0  0  0
  152.4803  144.1249  160.3841 H   0  0  0  0  0  0  0  0  0  0  0  0
  151.5278  144.8534  158.1957 H   0  0  0  0  0  0  0  0  0  0  0  0
  153.0248  143.9900  157.9634 H   0  0  0  0  0  0  0  0  0  0  0  0
  150.2065  142.8743  157.6047 H   0  0  0  0  0  0  0  0  0  0  0  0
  151.3620  143.1978  156.3353 H   0  0  0  0  0  0  0  0  0  0  0  0
  152.8710  141.4348  157.1902 H   0  0  0  0  0  0  0  0  0  0  0  0
  150.0965  140.3781  156.9670 H   0  0  0  0  0  0  0  0  0  0  0  0
  149.5428  139.0323  155.3569 H   0  0  0  0  0  0  0  0  0  0  0  0
  150.5713  138.9517  153.9332 H   0  0  0  0  0  0  0  0  0  0  0  0
  149.4574  136.2231  154.3605 H   0  0  0  0  0  0  0  0  0  0  0  0
  150.7545  140.9871  159.3192 H   0  0  0  0  0  0  0  0  0  0  0  0
  153.3045  139.4039  158.8046 H   0  0  0  0  0  0  0  0  0  0  0  0
  151.6505  138.8211  158.7030 H   0  0  0  0  0  0  0  0  0  0  0  0
  152.3198  139.2699  160.2606 H   0  0  0  0  0  0  0  0  0  0  0  0
  1  2  1  0  0  0  0
  1 18  1  0  0  0  0
  1 19  1  0  0  0  0
  1 20  1  0  0  0  0
  2 16  1  0  0  0  0
  2  3  1  0  0  0  0
  2 21  1  0  0  0  0
  3  4  1  0  0  0  0
  3 22  1  0  0  0  0
  3 23  1  0  0  0  0
  4  5  1  0  0  0  0
  4 24  1  0  0  0  0
  4 25  1  0  0  0  0
  5  6  1  0  0  0  0
  5 26  1  0  0  0  0
  5 27  1  0  0  0  0
  6  7  1  0  0  0  0
  6 16  1  0  0  0  0
  6 28  1  0  0  0  0
  7  8  1  0  0  0  0
  7 29  1  0  0  0  0
  8  9  2  0  0  0  0
  8 10  1  0  0  0  0
 10 11  1  0  0  0  0
 10 30  1  0  0  0  0
 10 31  1  0  0  0  0
 11 15  1  0  0  0  0
 11 12  1  0  0  0  0
 12 13  2  0  0  0  0
 12 32  1  0  0  0  0
 13 14  1  0  0  0  0
 14 15  2  0  0  0  0
 16 17  1  0  0  0  0
 16 33  1  0  0  0  0
 17 34  1  0  0  0  0
 17 35  1  0  0  0  0
 17 36  1  0  0  0  0
M  END
> <s_m_source_file>
AV-unprocessed.smi

> <i_m_source_file_index>
1982

> <i_lp_mmshare_version>
43012

> <i_f3d_flags>
0

> <s_epik_input>
W0NIM11bQ0BASF0xW0NIMl1bQ0gyXVtDSDJdW0NASF0oW0NASF0xW0NIM10pW05IXUMoPU8pW0NIMl1uMltjSF1ubm4y

> <s_epik_cmdline>
J2VwaWtfcHl0aG9uJywgJy1waCcsICc3LjAnLCAnLXRuJywgJzgnLCAnLW1hJywgJzIwMCcsICctbWV0YWxfYmluZGluZycsICctaW1hZScsICc8aW5maWxlLm1hZT4nLCAnLW9tYWUnLCAnPG91dGZpbGUubWFlPic=

> <r_lp_tautomer_probability>
1

> <r_epik_Ionization_Penalty>
5.03816e-07

> <r_epik_Ionization_Penalty_Charging>
0

> <r_epik_Ionization_Penalty_Neutral>
5.03816e-07

> <r_epik_State_Penalty>
-0

> <r_epik_Charging_Adjusted_Penalty>
0

> <i_epik_Tot_Q>
0

> <i_epik_Tot_abs_Q>
0

> <r_epik_Metal_State_Penalty>
-0

> <b_epik_Metal_Only>
0

> <s_lp_Force_Field>
OPLS_2005

> <r_lp_Energy>
15.2513

> <b_lp_Chiralities_Consistent>
1

> <s_lp_Variant>
AV-unprocessed.smi:1982-4

> <Gold.Version>
5.8.1

> <Gold.Id.Protein>
6NUR|6NUR_protein|mol2

> <Gold.PLP.Fitness>
43.1632

> <Gold.PLP.PLP>
-34.2799

> <Gold.PLP.part.hbond>
-4.4740

> <Gold.PLP.part.metal>
0.0000

> <Gold.PLP.part.buried>
-4.1169

> <Gold.PLP.part.nonpolar>
-26.4608

> <Gold.PLP.part.repulsive>
0.2017

> <Gold.PLP.ligand.clash>
0.0000

> <Gold.PLP.ligand.torsion>
0.1208

> <Gold.PLP.Chemscore.Hbond>
2.0398

> <Gold.PLP.Chemscore.CHOScore>
1.0000

> <Gold.PLP.Chemscore.Metal>
0.0000

> <Gold.Chemscore.Hbonds>
donor molecule, donor type, donor heavy atom, donor atom, acceptor molecule, acceptor atom, score
      P1  H  7989  7998       L1     9  0.04
      P1  H  7997  8009       L1     9  1.00
      P1  H 10752 10765       L1    14  1.00
      L1  C    12    32       P1  7948  1.00

> <Gold.PLP.Chemscore.Internal.Correction>
0.0056

> <Gold.Rescore>
     Score         DG    S(hbond)    S(metal)    S(lipo)     H(rot)  DE(clash)    DE(int)     intcor
     13.56     -14.92       1.45        0.00      81.11       1.91       0.02       1.34       ----

> <Gold.Chemscore.Fitness>
13.5621

> <Gold.Chemscore.DG>
-14.9189

> <Gold.Chemscore.ZeroCoef>
-5.4800

> <Gold.Chemscore.Hbond>
1.4456

> <Gold.Chemscore.Metal>
0.0000

> <Gold.Chemscore.Lipo>
81.1054

> <Gold.Chemscore.Internal_Hbond>
0.0000

> <Gold.Chemscore.DEClash>
0.0197

> <Gold.Chemscore.DEInternal>
1.3371

> <Gold.Chemscore.Rot>
1.9058

> <Gold.Chemscore.Internal.Correction>
   9.000000E+99

> <Gold.Chemscore.Hbonds>
donor molecule, donor type, donor heavy atom, donor atom, acceptor molecule, acceptor atom, score
      P1  H  7997  8009       L1     9  1.00
      P1  H 10752 10765       L1    14  0.19

> <Gold.Chemscore.Hbond.Weighted>
-4.8284

> <Gold.Chemscore.Metal.Weighted>
-0.0000

> <Gold.Chemscore.Lipo.Weighted>
-9.4893

> <Gold.Chemscore.Internal_Hbond.Weighted>
0.0000

> <Gold.Chemscore.DEClash.Weighted>
0.0197

> <Gold.Chemscore.DEInternal.Weighted>
1.3371

> <Gold.Chemscore.Rot.Weighted>
4.8788

> <Gold.Chemscore.Internal.Correction.Weighted>
   9.000000E+99

> <Gold.Protein.RotatedTorsions>
[ 6907 6896 6895 6894 ] final -143.31 input  -60.11 | X-H torsion
[ 7974 7965 7964 7962 ] final   57.45 input  175.53 | X-H torsion
[ 8008 7997 7996 7995 ] final -147.68 input   59.86 | X-H torsion
[ 10167 10162 10161 10158 ] final -121.59 input  -65.29 | X-H torsion
[ 10718 10713 10712 10709 ] final  114.54 input   66.30 | X-H torsion
[ 10763 10752 10751 10750 ] final -128.94 input  -60.55 | X-H torsion
[ 11005 11000 10999 10996 ] final   47.08 input  -57.11 | X-H torsion

> <Gold.Protein.ActiveResidues>
 VAL166  LYS551  ARG553  GLY616  TRP617  ASP618  TYR619  PRO620  LYS621  CYS622 
 ASP623  PHE694  ASN695  SER759  ASP760  ASP761  ALA762  ILE779  LEU786  VAL792 
 PHE793  MET794  SER795  GLU796  ALA797  LYS798  CYS799  TRP800  GLU811  SER814 

> <Gold.Protein.RotatedAtoms>
  151.0988  133.5259  159.2610 H   0  0  0  0  0  0  0  0  0  0  0  0  # atno 6907 bound_to 6896
  151.2098  135.0476  159.8916 H   0  0  0  0  0  0  0  0  0  0  0  0  # atno 6908 bound_to 6896
  152.5441  134.0805  159.8287 H   0  0  0  0  0  0  0  0  0  0  0  0  # atno 6909 bound_to 6896
  145.9290  139.3791  143.0433 H   0  0  0  0  0  0  0  0  0  0  0  0  # atno 7974 bound_to 7965
  155.5794  140.0642  157.2787 H   0  0  0  0  0  0  0  0  0  0  0  0  # atno 8008 bound_to 7997
  154.4337  140.1855  156.1007 H   0  0  0  0  0  0  0  0  0  0  0  0  # atno 8009 bound_to 7997
  156.0316  140.3306  155.7150 H   0  0  0  0  0  0  0  0  0  0  0  0  # atno 8010 bound_to 7997
  140.0234  143.5321  152.2210 H   0  0  0  0  0  0  0  0  0  0  0  0  # atno 10167 bound_to 10162
  157.6275  131.1000  150.7201 H   0  0  0  0  0  0  0  0  0  0  0  0  # atno 10718 bound_to 10713
  154.8757  135.3912  154.3838 H   0  0  0  0  0  0  0  0  0  0  0  0  # atno 10763 bound_to 10752
  153.4582  135.7029  153.6072 H   0  0  0  0  0  0  0  0  0  0  0  0  # atno 10764 bound_to 10752
  153.4582  135.3818  155.2291 H   0  0  0  0  0  0  0  0  0  0  0  0  # atno 10765 bound_to 10752
  140.1311  134.4705  155.8521 H   0  0  0  0  0  0  0  0  0  0  0  0  # atno 11005 bound_to 11000
  145.8451  140.9559  143.0779 LP  0  0  0  0  0  0  0  0  0  0  0  0  # atno 17320 bound_to 7965
  144.6762  140.0335  143.7482 LP  0  0  0  0  0  0  0  0  0  0  0  0  # atno 17321 bound_to 7965
  139.6124  144.7612  151.2921 LP  0  0  0  0  0  0  0  0  0  0  0  0  # atno 17342 bound_to 10162
  140.7333  143.6799  150.8009 LP  0  0  0  0  0  0  0  0  0  0  0  0  # atno 17343 bound_to 10162
  156.7546  130.4779  149.5449 LP  0  0  0  0  0  0  0  0  0  0  0  0  # atno 17370 bound_to 10713
  156.1456  130.6275  151.0527 LP  0  0  0  0  0  0  0  0  0  0  0  0  # atno 17371 bound_to 10713
  141.2170  133.6796  156.7070 LP  0  0  0  0  0  0  0  0  0  0  0  0  # atno 17394 bound_to 11000
  140.2841  134.8293  157.3959 LP  0  0  0  0  0  0  0  0  0  0  0  0  # atno 17395 bound_to 11000

$$$$
