AV-unprocessed.smi:928|AV-procd|sdf|4192|dock2
  -GOLD-   22720 2 93D 1   1.00000     0.00000
 Structure written by MMmdl.
 43 44  0  0  0  0  0  0  0  0  1 V2000
  150.4352  141.0506  155.6353 C   0  0  0  0  0  0  0  0  0  0  0  0
  149.7818  140.0856  154.6386 C   0  0  0  0  0  0  0  0  0  0  0  0
  150.1948  138.6670  154.8497 C   0  0  0  0  0  0  0  0  0  0  0  0
  151.4365  138.1153  154.6509 C   0  0  0  0  0  0  0  0  0  0  0  0
  151.5175  136.7650  154.9986 N   0  0  0  0  0  0  0  0  0  0  0  0
  150.3577  136.2864  155.4543 C   0  0  0  0  0  0  0  0  0  0  0  0
  150.1978  134.9103  156.0177 C   0  0  0  0  0  0  0  0  0  0  0  0
  150.2907  133.7876  154.9616 C   0  0  0  0  0  0  0  0  0  0  0  0
  149.4025  134.0154  153.8225 N   0  0  0  0  0  0  0  0  0  0  0  0
  148.2593  133.3534  153.5893 C   0  0  0  0  0  0  0  0  0  0  0  0
  147.8680  132.3928  154.2524 O   0  0  0  0  0  0  0  0  0  0  0  0
  147.5632  133.9019  152.5848 N   0  0  0  0  0  0  0  0  0  0  0  0
  146.2078  133.5156  152.1996 C   0  0  1  0  0  0  0  0  0  0  0  0
  145.5096  134.6675  151.4527 C   0  0  0  0  0  0  0  0  0  0  0  0
  144.0709  134.2835  151.0724 C   0  0  0  0  0  0  0  0  0  0  0  0
  144.0404  132.9923  150.2387 C   0  0  0  0  0  0  0  0  0  0  0  0
  144.7523  131.8344  150.9629 C   0  0  0  0  0  0  0  0  0  0  0  0
  146.1897  132.2021  151.3816 C   0  0  1  0  0  0  0  0  0  0  0  0
  146.9949  132.3195  150.2232 O   0  0  0  0  0  0  0  0  0  0  0  0
  149.0618  137.4789  155.4376 S   0  0  0  0  0  0  0  0  0  0  0  0
  150.1218  142.0772  155.4456 H   0  0  0  0  0  0  0  0  0  0  0  0
  151.5226  141.0144  155.5620 H   0  0  0  0  0  0  0  0  0  0  0  0
  150.1623  140.8040  156.6618 H   0  0  0  0  0  0  0  0  0  0  0  0
  148.6970  140.1628  154.7174 H   0  0  0  0  0  0  0  0  0  0  0  0
  150.0343  140.3920  153.6230 H   0  0  0  0  0  0  0  0  0  0  0  0
  152.3233  138.6157  154.2913 H   0  0  0  0  0  0  0  0  0  0  0  0
  150.9657  134.7619  156.7776 H   0  0  0  0  0  0  0  0  0  0  0  0
  149.2397  134.8525  156.5352 H   0  0  0  0  0  0  0  0  0  0  0  0
  151.3132  133.7183  154.5904 H   0  0  0  0  0  0  0  0  0  0  0  0
  150.0721  132.8243  155.4256 H   0  0  0  0  0  0  0  0  0  0  0  0
  149.6345  134.7874  153.2148 H   0  0  0  0  0  0  0  0  0  0  0  0
  147.9662  134.6895  152.0988 H   0  0  0  0  0  0  0  0  0  0  0  0
  145.6388  133.3446  153.1161 H   0  0  0  0  0  0  0  0  0  0  0  0
  145.4955  135.5623  152.0763 H   0  0  0  0  0  0  0  0  0  0  0  0
  146.0695  134.9273  150.5531 H   0  0  0  0  0  0  0  0  0  0  0  0
  143.4781  134.1482  151.9783 H   0  0  0  0  0  0  0  0  0  0  0  0
  143.6039  135.0965  150.5160 H   0  0  0  0  0  0  0  0  0  0  0  0
  143.0083  132.7145  150.0233 H   0  0  0  0  0  0  0  0  0  0  0  0
  144.5168  133.1705  149.2739 H   0  0  0  0  0  0  0  0  0  0  0  0
  144.1804  131.5702  151.8534 H   0  0  0  0  0  0  0  0  0  0  0  0
  144.7583  130.9447  150.3320 H   0  0  0  0  0  0  0  0  0  0  0  0
  146.6001  131.3892  151.9819 H   0  0  0  0  0  0  0  0  0  0  0  0
  147.5401  131.5500  150.1621 H   0  0  0  0  0  0  0  0  0  0  0  0
  1  2  1  0  0  0  0
  1 21  1  0  0  0  0
  1 22  1  0  0  0  0
  1 23  1  0  0  0  0
  2  3  1  0  0  0  0
  2 24  1  0  0  0  0
  2 25  1  0  0  0  0
  3 20  1  0  0  0  0
  3  4  2  0  0  0  0
  4  5  1  0  0  0  0
  4 26  1  0  0  0  0
  5  6  2  0  0  0  0
  6  7  1  0  0  0  0
  6 20  1  0  0  0  0
  7  8  1  0  0  0  0
  7 27  1  0  0  0  0
  7 28  1  0  0  0  0
  8  9  1  0  0  0  0
  8 29  1  0  0  0  0
  8 30  1  0  0  0  0
  9 10  1  0  0  0  0
  9 31  1  0  0  0  0
 10 11  2  0  0  0  0
 10 12  1  0  0  0  0
 12 13  1  0  0  0  0
 12 32  1  0  0  0  0
 13 18  1  0  0  0  0
 13 14  1  0  0  0  0
 13 33  1  0  0  0  0
 14 15  1  0  0  0  0
 14 34  1  0  0  0  0
 14 35  1  0  0  0  0
 15 16  1  0  0  0  0
 15 36  1  0  0  0  0
 15 37  1  0  0  0  0
 16 17  1  0  0  0  0
 16 38  1  0  0  0  0
 16 39  1  0  0  0  0
 17 18  1  0  0  0  0
 17 40  1  0  0  0  0
 17 41  1  0  0  0  0
 18 19  1  0  0  0  0
 18 42  1  0  0  0  0
 19 43  1  0  0  0  0
M  END
> <s_m_source_file>
AV-unprocessed.smi

> <i_m_source_file_index>
928

> <i_lp_mmshare_version>
43012

> <i_f3d_flags>
0

> <s_epik_input>
W0NIM11bQ0gyXWMxW2NIXW5jKHMxKVtDSDJdW0NIMl1bTkhdQyg9TylbTkhdW0NAQEhdMltDSDJdW0NIMl1bQ0gyXVtDSDJdW0NASF0yW09IXQ==

> <s_epik_cmdline>
J2VwaWtfcHl0aG9uJywgJy1waCcsICc3LjAnLCAnLXRuJywgJzgnLCAnLW1hJywgJzIwMCcsICctbWV0YWxfYmluZGluZycsICctaW1hZScsICc8aW5maWxlLm1hZT4nLCAnLW9tYWUnLCAnPG91dGZpbGUubWFlPic=

> <r_epik_Ionization_Penalty>
0.000957396

> <r_epik_Ionization_Penalty_Charging>
0

> <r_epik_Ionization_Penalty_Neutral>
0.000957396

> <r_epik_State_Penalty>
0.000586538

> <r_epik_Charging_Adjusted_Penalty>
0.000586538

> <i_epik_Tot_Q>
0

> <i_epik_Tot_abs_Q>
0

> <r_epik_Metal_State_Penalty>
-0

> <b_epik_Metal_Only>
0

> <s_lp_Force_Field>
OPLS_2005

> <r_lp_Energy>
0.733769

> <b_lp_Chiralities_Consistent>
1

> <s_lp_Variant>
AV-unprocessed.smi:928-2

> <Gold.Version>
5.8.1

> <Gold.Id.Protein>
6NUR|6NUR_protein|mol2

> <Gold.PLP.Fitness>
46.6573

> <Gold.PLP.PLP>
-38.2059

> <Gold.PLP.part.hbond>
-3.7067

> <Gold.PLP.part.metal>
0.0000

> <Gold.PLP.part.buried>
-5.7944

> <Gold.PLP.part.nonpolar>
-28.3680

> <Gold.PLP.part.repulsive>
0.1980

> <Gold.PLP.ligand.clash>
0.0000

> <Gold.PLP.ligand.torsion>
0.5325

> <Gold.PLP.Chemscore.Hbond>
3.1451

> <Gold.PLP.Chemscore.CHOScore>
0.0000

> <Gold.PLP.Chemscore.Metal>
0.0000

> <Gold.Chemscore.Hbonds>
donor molecule, donor type, donor heavy atom, donor atom, acceptor molecule, acceptor atom, score
      L1  H     9    31       P1  7948  0.10
      L1  H    12    32       P1  7948  1.00
      L1  H    19    43       P1 10747  1.00
      P1  H 10752 10763       L1     5  1.00

> <Gold.PLP.Chemscore.Internal.Correction>
0.0810

> <Gold.Rescore>
     Score         DG    S(hbond)    S(metal)    S(lipo)     H(rot)  DE(clash)    DE(int)     intcor
     18.02     -18.49       2.80        0.00      79.52       2.21       0.02       0.45       ----

> <Gold.Chemscore.Fitness>
18.0202

> <Gold.Chemscore.DG>
-18.4942

> <Gold.Chemscore.ZeroCoef>
-5.4800

> <Gold.Chemscore.Hbond>
2.8035

> <Gold.Chemscore.Metal>
0.0000

> <Gold.Chemscore.Lipo>
79.5225

> <Gold.Chemscore.Internal_Hbond>
0.0000

> <Gold.Chemscore.DEClash>
0.0249

> <Gold.Chemscore.DEInternal>
0.4491

> <Gold.Chemscore.Rot>
2.2084

> <Gold.Chemscore.Internal.Correction>
   9.000000E+99

> <Gold.Chemscore.Hbonds>
donor molecule, donor type, donor heavy atom, donor atom, acceptor molecule, acceptor atom, score
      L1  H    12    32       P1  7948  0.34
      L1  H    19    43       P1 10747  0.92
      P1  H 10752 10763       L1     5  0.98

> <Gold.Chemscore.Hbond.Weighted>
-9.3636

> <Gold.Chemscore.Metal.Weighted>
-0.0000

> <Gold.Chemscore.Lipo.Weighted>
-9.3041

> <Gold.Chemscore.Internal_Hbond.Weighted>
0.0000

> <Gold.Chemscore.DEClash.Weighted>
0.0249

> <Gold.Chemscore.DEInternal.Weighted>
0.4491

> <Gold.Chemscore.Rot.Weighted>
5.6535

> <Gold.Chemscore.Internal.Correction.Weighted>
   9.000000E+99

> <Gold.Protein.RotatedTorsions>
[ 6907 6896 6895 6894 ] final  -27.19 input  -60.11 | X-H torsion
[ 7974 7965 7964 7962 ] final -112.64 input  175.53 | X-H torsion
[ 8008 7997 7996 7995 ] final  103.20 input   59.86 | X-H torsion
[ 10167 10162 10161 10158 ] final   94.49 input  -65.29 | X-H torsion
[ 10718 10713 10712 10709 ] final   44.45 input   66.30 | X-H torsion
[ 10763 10752 10751 10750 ] final   61.56 input  -60.55 | X-H torsion
[ 11005 11000 10999 10996 ] final  -26.71 input  -57.11 | X-H torsion

> <Gold.Protein.ActiveResidues>
 VAL166  LYS551  ARG553  GLY616  TRP617  ASP618  TYR619  PRO620  LYS621  CYS622 
 ASP623  PHE694  ASN695  SER759  ASP760  ASP761  ALA762  ILE779  LEU786  VAL792 
 PHE793  MET794  SER795  GLU796  ALA797  LYS798  CYS799  TRP800  GLU811  SER814 

> <Gold.Protein.RotatedAtoms>
  151.1503  135.0224  159.8665 H   0  0  0  0  0  0  0  0  0  0  0  0  # atno 6907 bound_to 6896
  152.5453  134.1396  159.8483 H   0  0  0  0  0  0  0  0  0  0  0  0  # atno 6908 bound_to 6896
  151.1480  133.4880  159.2628 H   0  0  0  0  0  0  0  0  0  0  0  0  # atno 6909 bound_to 6896
  145.1416  140.8781  143.3698 H   0  0  0  0  0  0  0  0  0  0  0  0  # atno 7974 bound_to 7965
  156.1462  140.3168  155.8575 H   0  0  0  0  0  0  0  0  0  0  0  0  # atno 8008 bound_to 7997
  155.4059  140.0502  157.3051 H   0  0  0  0  0  0  0  0  0  0  0  0  # atno 8009 bound_to 7997
  154.5019  140.2132  155.9342 H   0  0  0  0  0  0  0  0  0  0  0  0  # atno 8010 bound_to 7997
  139.8078  144.6786  150.9679 H   0  0  0  0  0  0  0  0  0  0  0  0  # atno 10167 bound_to 10162
  157.4270  130.8002  149.7567 H   0  0  0  0  0  0  0  0  0  0  0  0  # atno 10718 bound_to 10713
  152.9954  135.5496  154.6053 H   0  0  0  0  0  0  0  0  0  0  0  0  # atno 10763 bound_to 10752
  154.5385  135.2818  155.1119 H   0  0  0  0  0  0  0  0  0  0  0  0  # atno 10764 bound_to 10752
  154.2405  135.6417  153.5258 H   0  0  0  0  0  0  0  0  0  0  0  0  # atno 10765 bound_to 10752
  140.9054  133.7496  156.0599 H   0  0  0  0  0  0  0  0  0  0  0  0  # atno 11005 bound_to 11000
  145.0526  139.3169  143.5921 LP  0  0  0  0  0  0  0  0  0  0  0  0  # atno 17320 bound_to 7965
  146.3504  139.9939  142.8683 LP  0  0  0  0  0  0  0  0  0  0  0  0  # atno 17321 bound_to 7965
  140.7819  143.4215  151.0834 LP  0  0  0  0  0  0  0  0  0  0  0  0  # atno 17342 bound_to 10162
  139.7884  143.8254  152.3148 LP  0  0  0  0  0  0  0  0  0  0  0  0  # atno 17343 bound_to 10162
  155.9900  130.3948  150.3049 LP  0  0  0  0  0  0  0  0  0  0  0  0  # atno 17370 bound_to 10713
  157.1202  131.0245  151.3012 LP  0  0  0  0  0  0  0  0  0  0  0  0  # atno 17371 bound_to 10713
  140.8178  134.3325  157.5391 LP  0  0  0  0  0  0  0  0  0  0  0  0  # atno 17394 bound_to 11000
  139.8748  134.9291  156.3469 LP  0  0  0  0  0  0  0  0  0  0  0  0  # atno 17395 bound_to 11000

$$$$
