#       Name:                AV-unprocessed.smi:2217
#       Creating user name   scv26
#       Creation time:       Fri Mar 27 12:18:47 2020


#       File generated by GOLD software.
#

@<TRIPOS>MOLECULE
AV-unprocessed.smi:2217
    50    53     1
SMALL
NO_CHARGES


@<TRIPOS>ATOM
      1 ****         1.1256  -8.1751   1.8955 C.3            1 S1                 0.0000
      2 ****         0.9156  -6.7524   1.4207 C.ar           1 S1                 0.0000
      3 ****        -0.3742  -6.1973   1.3240 C.ar           1 S1                 0.0000
      4 ****        -0.5092  -4.8691   0.8755 C.ar           1 S1                 0.0000
      5 ****         0.6432  -4.1241   0.5376 C.ar           1 S1                 0.0000
      6 ****         0.3780  -2.7955   0.0916 N.am           1 S1                 0.0000
      7 ****         1.2066  -1.7809  -0.2356 C.2            1 S1                 0.0000
      8 ****         2.4278  -1.9141  -0.1765 O.2            1 S1                 0.0000
      9 ****         0.6206  -0.6376  -0.6240 N.am           1 S1                 0.0000
     10 ****         1.3323   0.5836  -0.9808 C.3            1 S1                 0.0000
     11 ****         0.4056   1.6415  -1.6015 C.3            1 S1                 0.0000
     12 ****         0.5923   2.0503  -3.0371 C.3            1 S1                 0.0000
     13 ****         1.4752   3.2967  -2.9250 C.3            1 S1                 0.0000
     14 ****         2.1024   3.1823  -1.6497 O.3            1 S1                 0.0000
     15 ****         1.1347   2.6626  -0.7409 C.3            1 S1                 0.0000
     16 ****         1.6009   1.5371   0.2070 C.3            1 S1                 0.0000
     17 ****         3.0190   1.6304   0.7639 C.3            1 S1                 0.0000
     18 ****         2.9357   2.3511   2.1147 C.3            1 S1                 0.0000
     19 ****         1.4646   2.2828   2.5366 C.3            1 S1                 0.0000
     20 ****         0.7878   1.3902   1.4964 C.3            1 S1                 0.0000
     21 ****         1.8815  -4.6730   0.6300 N.ar           1 S1                 0.0000
     22 ****         2.0111  -5.9461   1.0587 C.ar           1 S1                 0.0000
     23 ****         0.1989  -8.6061   2.2753 H              1 S1                 0.0000
     24 ****         1.8663  -8.2024   2.6951 H              1 S1                 0.0000
     25 ****         1.4818  -8.7978   1.0746 H              1 S1                 0.0000
     26 ****        -1.2477  -6.7754   1.5874 H              1 S1                 0.0000
     27 ****        -1.4928  -4.4293   0.7951 H              1 S1                 0.0000
     28 ****        -0.6017  -2.5900  -0.0389 H              1 S1                 0.0000
     29 ****        -0.3890  -0.6070  -0.6479 H              1 S1                 0.0000
     30 ****         2.2262   0.4194  -1.5873 H              1 S1                 0.0000
     31 ****        -0.6343   1.5249  -1.2904 H              1 S1                 0.0000
     32 ****         1.0961   1.2660  -3.6030 H              1 S1                 0.0000
     33 ****        -0.3518   2.2708  -3.5361 H              1 S1                 0.0000
     34 ****         2.2090   3.3660  -3.7282 H              1 S1                 0.0000
     35 ****         0.8651   4.2011  -2.9400 H              1 S1                 0.0000
     36 ****         0.4872   3.4255  -0.3061 H              1 S1                 0.0000
     37 ****         3.4202   0.6274   0.9151 H              1 S1                 0.0000
     38 ****         3.7046   2.1384   0.0857 H              1 S1                 0.0000
     39 ****         3.5885   1.8785   2.8495 H              1 S1                 0.0000
     40 ****         3.2498   3.3909   2.0172 H              1 S1                 0.0000
     41 ****         1.3388   1.8983   3.5491 H              1 S1                 0.0000
     42 ****         1.0283   3.2819   2.5057 H              1 S1                 0.0000
     43 ****        -0.2623   1.6533   1.3645 H              1 S1                 0.0000
     44 ****         0.8139   0.3598   1.8526 H              1 S1                 0.0000
     45 ****         3.0190  -6.3306   1.1133 H              1 S1                 0.0000
     46 ****         2.8221  -2.7847   0.1177 LP             1 S1                 0.0000
     47 ****         3.0264  -1.1518  -0.4226 LP             1 S1                 0.0000
     48 ****         2.4132   4.0810  -1.3403 LP             1 S1                 0.0000
     49 ****         2.8839   2.5612  -1.7081 LP             1 S1                 0.0000
     50 ****         2.6900  -4.1390   0.3827 LP             1 S1                 0.0000
@<TRIPOS>BOND
    1    1    2 1     
    2    1   23 1     
    3    1   24 1     
    4    1   25 1     
    5    2   22 ar    
    6    2    3 ar    
    7    3    4 ar    
    8    3   26 1     
    9    4    5 ar    
   10    4   27 1     
   11    5    6 1     
   12    5   21 ar    
   13    6    7 am    
   14    6   28 1     
   15    7    8 2     
   16    7    9 am    
   17    9   10 1     
   18    9   29 1     
   19   10   16 1     
   20   10   11 1     
   21   10   30 1     
   22   11   15 1     
   23   11   12 1     
   24   11   31 1     
   25   12   13 1     
   26   12   32 1     
   27   12   33 1     
   28   13   14 1     
   29   13   34 1     
   30   13   35 1     
   31   14   15 1     
   32   15   16 1     
   33   15   36 1     
   34   16   20 1     
   35   16   17 1     
   36   17   18 1     
   37   17   37 1     
   38   17   38 1     
   39   18   19 1     
   40   18   39 1     
   41   18   40 1     
   42   19   20 1     
   43   19   41 1     
   44   19   42 1     
   45   20   43 1     
   46   20   44 1     
   47   21   22 ar    
   48   22   45 1     
   49    8   46 1     
   50    8   47 1     
   51   14   48 1     
   52   14   49 1     
   53   21   50 1     
@<TRIPOS>SUBSTRUCTURE
      1 S1             1
@<TRIPOS>SET
LONE_PAIRS      STATIC     ATOMS    <user>   **** ""
5 46 47 48 49 50
DONOR_HYDROGENS      STATIC     ATOMS    <user>   **** ""
2 28 29
ATOM$BLUE        STATIC     ATOMS    COLORGROUP SYSTEM
5 46 47 48 49 50
ATOM$RED        STATIC     ATOMS    COLORGROUP SYSTEM
2 28 29
