AV-unprocessed.smi:2847|AV-procd|sdf|10953|dock9
  -GOLD-   2272015403D 1   1.00000     0.00000
 Structure written by MMmdl.
 45 46  0  0  0  0  0  0  0  0  1 V2000
  146.2010  132.7178  149.8913 C   0  0  0  0  0  0  0  0  0  0  0  0
  146.0022  132.9170  151.4124 C   0  0  0  0  0  0  0  0  0  0  0  0
  145.3312  131.6221  151.9287 C   0  0  0  0  0  0  0  0  0  0  0  0
  147.3721  133.0943  152.0922 C   0  0  0  0  0  0  0  0  0  0  0  0
  145.1243  134.1478  151.6988 C   0  0  0  0  0  0  0  0  0  0  0  0
  145.6195  135.3434  151.3528 N   0  0  0  0  0  0  0  0  0  0  0  0
  144.9200  136.4394  151.7137 C   0  0  0  0  0  0  0  0  0  0  0  0
  143.7319  136.3526  152.4657 C   0  0  0  0  0  0  0  0  0  0  0  0
  143.0389  137.5472  152.7973 N   0  0  0  0  0  0  0  0  0  0  0  0
  141.9544  137.6950  153.5762 C   0  0  0  0  0  0  0  0  0  0  0  0
  141.3863  136.7838  154.1767 O   0  0  0  0  0  0  0  0  0  0  0  0
  141.5764  138.9830  153.6282 N   0  0  0  0  0  0  0  0  0  0  0  0
  140.4525  139.5801  154.3629 C   0  0  1  0  0  0  0  0  0  0  0  0
  140.5709  139.0612  155.8173 C   0  0  0  0  0  0  0  0  0  0  0  0
  140.5836  141.1278  154.3693 C   0  0  0  0  0  0  0  0  0  0  0  0
  140.3758  141.6987  153.0916 O   0  0  0  0  0  0  0  0  0  0  0  0
  139.0962  139.2208  153.7312 C   0  0  0  0  0  0  0  0  0  0  0  0
  138.5504  137.8134  153.6451 C   0  0  0  0  0  0  0  0  0  0  0  0
  138.9325  138.5612  152.3816 C   0  0  0  0  0  0  0  0  0  0  0  0
  143.3139  135.0439  152.8060 C   0  0  0  0  0  0  0  0  0  0  0  0
  144.0227  133.9559  152.4364 N   0  0  0  0  0  0  0  0  0  0  0  0
  146.7839  131.8205  149.6809 H   0  0  0  0  0  0  0  0  0  0  0  0
  146.7355  133.5526  149.4363 H   0  0  0  0  0  0  0  0  0  0  0  0
  145.2454  132.6162  149.3755 H   0  0  0  0  0  0  0  0  0  0  0  0
  144.3439  131.4829  151.4864 H   0  0  0  0  0  0  0  0  0  0  0  0
  145.2102  131.6278  153.0125 H   0  0  0  0  0  0  0  0  0  0  0  0
  145.9263  130.7415  151.6842 H   0  0  0  0  0  0  0  0  0  0  0  0
  148.0209  132.2371  151.9103 H   0  0  0  0  0  0  0  0  0  0  0  0
  147.2671  133.2047  153.1720 H   0  0  0  0  0  0  0  0  0  0  0  0
  147.8865  133.9812  151.7202 H   0  0  0  0  0  0  0  0  0  0  0  0
  145.3204  137.3946  151.4066 H   0  0  0  0  0  0  0  0  0  0  0  0
  143.4405  138.3971  152.4288 H   0  0  0  0  0  0  0  0  0  0  0  0
  142.1260  139.6335  153.0863 H   0  0  0  0  0  0  0  0  0  0  0  0
  139.8337  139.5165  156.4779 H   0  0  0  0  0  0  0  0  0  0  0  0
  141.5494  139.2883  156.2420 H   0  0  0  0  0  0  0  0  0  0  0  0
  140.4571  137.9796  155.8807 H   0  0  0  0  0  0  0  0  0  0  0  0
  139.8830  141.5843  155.0684 H   0  0  0  0  0  0  0  0  0  0  0  0
  141.5792  141.4161  154.7078 H   0  0  0  0  0  0  0  0  0  0  0  0
  140.4575  141.0172  152.4421 H   0  0  0  0  0  0  0  0  0  0  0  0
  138.3316  139.9613  153.9572 H   0  0  0  0  0  0  0  0  0  0  0  0
  139.1808  136.9775  153.9368 H   0  0  0  0  0  0  0  0  0  0  0  0
  137.4893  137.6782  153.8445 H   0  0  0  0  0  0  0  0  0  0  0  0
  138.1235  138.9201  151.7485 H   0  0  0  0  0  0  0  0  0  0  0  0
  139.8153  138.2211  151.8465 H   0  0  0  0  0  0  0  0  0  0  0  0
  142.4109  134.8431  153.3607 H   0  0  0  0  0  0  0  0  0  0  0  0
  1  2  1  0  0  0  0
  1 22  1  0  0  0  0
  1 23  1  0  0  0  0
  1 24  1  0  0  0  0
  2  3  1  0  0  0  0
  2  4  1  0  0  0  0
  2  5  1  0  0  0  0
  3 25  1  0  0  0  0
  3 26  1  0  0  0  0
  3 27  1  0  0  0  0
  4 28  1  0  0  0  0
  4 29  1  0  0  0  0
  4 30  1  0  0  0  0
  5 21  1  0  0  0  0
  5  6  2  0  0  0  0
  6  7  1  0  0  0  0
  7  8  2  0  0  0  0
  7 31  1  0  0  0  0
  8  9  1  0  0  0  0
  8 20  1  0  0  0  0
  9 10  1  0  0  0  0
  9 32  1  0  0  0  0
 10 11  2  0  0  0  0
 10 12  1  0  0  0  0
 12 13  1  0  0  0  0
 12 33  1  0  0  0  0
 13 14  1  0  0  0  0
 13 15  1  0  0  0  0
 13 17  1  0  0  0  0
 14 34  1  0  0  0  0
 14 35  1  0  0  0  0
 14 36  1  0  0  0  0
 15 16  1  0  0  0  0
 15 37  1  0  0  0  0
 15 38  1  0  0  0  0
 16 39  1  0  0  0  0
 17 19  1  0  0  0  0
 17 18  1  0  0  0  0
 17 40  1  0  0  0  0
 18 19  1  0  0  0  0
 18 41  1  0  0  0  0
 18 42  1  0  0  0  0
 19 43  1  0  0  0  0
 19 44  1  0  0  0  0
 20 21  2  0  0  0  0
 20 45  1  0  0  0  0
M  END
> <s_m_source_file>
AV-unprocessed.smi

> <i_m_source_file_index>
2847

> <i_lp_mmshare_version>
43012

> <i_f3d_flags>
0

> <s_epik_input>
W0NIM11DKFtDSDNdKShbQ0gzXSljMW5bY0hdYyhbY0hdbjEpW05IXUMoPU8pW05IXVtDQEBdKFtDSDNdKShbQ0gyXVtPSF0pW0NIXTJbQ0gyXVtDSDJdMg==

> <s_epik_cmdline>
J2VwaWtfcHl0aG9uJywgJy1waCcsICc3LjAnLCAnLXRuJywgJzgnLCAnLW1hJywgJzIwMCcsICctbWV0YWxfYmluZGluZycsICctaW1hZScsICc8aW5maWxlLm1hZT4nLCAnLW9tYWUnLCAnPG91dGZpbGUubWFlPic=

> <r_lp_tautomer_probability>
1

> <r_epik_Ionization_Penalty>
2.57177e-05

> <r_epik_Ionization_Penalty_Charging>
0

> <r_epik_Ionization_Penalty_Neutral>
2.57177e-05

> <r_epik_State_Penalty>
-0

> <r_epik_Charging_Adjusted_Penalty>
0

> <i_epik_Tot_Q>
0

> <i_epik_Tot_abs_Q>
0

> <r_epik_Metal_State_Penalty>
-0

> <b_epik_Metal_Only>
0

> <s_lp_Force_Field>
OPLS_2005

> <r_lp_Energy>
20.4005

> <b_lp_Chiralities_Consistent>
1

> <s_lp_Variant>
AV-unprocessed.smi:2847-1

> <Gold.Version>
5.8.1

> <Gold.Id.Protein>
6NUR|6NUR_protein|mol2

> <Gold.PLP.Fitness>
44.9523

> <Gold.PLP.PLP>
-32.0624

> <Gold.PLP.part.hbond>
-5.0154

> <Gold.PLP.part.metal>
0.0000

> <Gold.PLP.part.buried>
-1.3143

> <Gold.PLP.part.nonpolar>
-24.5162

> <Gold.PLP.part.repulsive>
0.3743

> <Gold.PLP.ligand.clash>
0.0000

> <Gold.PLP.ligand.torsion>
1.3479

> <Gold.PLP.Chemscore.Hbond>
3.9200

> <Gold.PLP.Chemscore.CHOScore>
0.7492

> <Gold.PLP.Chemscore.Metal>
0.0000

> <Gold.Chemscore.Hbonds>
donor molecule, donor type, donor heavy atom, donor atom, acceptor molecule, acceptor atom, score
      L1  H     9    32       P1 10175  0.98
      L1  H    12    33       P1 10175  1.00
      L1  H    16    39       P1 10160  0.99
      P1  H 10162 10167       L1    16  0.93
      L1  C     7    31       P1 10171  0.67

> <Gold.PLP.Chemscore.Internal.Correction>
1.5780

> <Gold.Rescore>
     Score         DG    S(hbond)    S(metal)    S(lipo)     H(rot)  DE(clash)    DE(int)     intcor
     15.42     -19.39       3.32        0.00      71.48       2.17       0.10       3.87       ----

> <Gold.Chemscore.Fitness>
15.4222

> <Gold.Chemscore.DG>
-19.3918

> <Gold.Chemscore.ZeroCoef>
-5.4800

> <Gold.Chemscore.Hbond>
3.3228

> <Gold.Chemscore.Metal>
0.0000

> <Gold.Chemscore.Lipo>
71.4820

> <Gold.Chemscore.Internal_Hbond>
0.0000

> <Gold.Chemscore.DEClash>
0.0987

> <Gold.Chemscore.DEInternal>
3.8709

> <Gold.Chemscore.Rot>
2.1679

> <Gold.Chemscore.Internal.Correction>
   9.000000E+99

> <Gold.Chemscore.Hbonds>
donor molecule, donor type, donor heavy atom, donor atom, acceptor molecule, acceptor atom, score
      L1  H     9    32       P1 10175  0.87
      L1  H    12    33       P1 10175  0.82
      L1  H    16    39       P1 10160  0.93
      P1  H 10162 10167       L1    16  0.49

> <Gold.Chemscore.Hbond.Weighted>
-11.0982

> <Gold.Chemscore.Metal.Weighted>
-0.0000

> <Gold.Chemscore.Lipo.Weighted>
-8.3634

> <Gold.Chemscore.Internal_Hbond.Weighted>
0.0000

> <Gold.Chemscore.DEClash.Weighted>
0.0987

> <Gold.Chemscore.DEInternal.Weighted>
3.8709

> <Gold.Chemscore.Rot.Weighted>
5.5499

> <Gold.Chemscore.Internal.Correction.Weighted>
   9.000000E+99

> <Gold.Protein.RotatedTorsions>
[ 6907 6896 6895 6894 ] final  159.93 input  -60.11 | X-H torsion
[ 7974 7965 7964 7962 ] final   87.81 input  175.53 | X-H torsion
[ 8008 7997 7996 7995 ] final  139.96 input   59.86 | X-H torsion
[ 10167 10162 10161 10158 ] final -104.63 input  -65.29 | X-H torsion
[ 10718 10713 10712 10709 ] final  -37.44 input   66.30 | X-H torsion
[ 10763 10752 10751 10750 ] final  -93.12 input  -60.55 | X-H torsion
[ 11005 11000 10999 10996 ] final  118.09 input  -57.11 | X-H torsion

> <Gold.Protein.ActiveResidues>
 VAL166  LYS551  ARG553  GLY616  TRP617  ASP618  TYR619  PRO620  LYS621  CYS622 
 ASP623  PHE694  ASN695  SER759  ASP760  ASP761  ALA762  ILE779  LEU786  VAL792 
 PHE793  MET794  SER795  GLU796  ALA797  LYS798  CYS799  TRP800  GLU811  SER814 

> <Gold.Protein.RotatedAtoms>
  151.9783  133.3749  159.4097 H   0  0  0  0  0  0  0  0  0  0  0  0  # atno 6907 bound_to 6896
  150.6938  134.4066  159.5152 H   0  0  0  0  0  0  0  0  0  0  0  0  # atno 6908 bound_to 6896
  152.1781  134.8777  160.0579 H   0  0  0  0  0  0  0  0  0  0  0  0  # atno 6909 bound_to 6896
  145.5541  139.2298  143.2496 H   0  0  0  0  0  0  0  0  0  0  0  0  # atno 7974 bound_to 7965
  156.2984  140.2354  156.4323 H   0  0  0  0  0  0  0  0  0  0  0  0  # atno 8008 bound_to 7997
  154.8259  140.0435  157.1463 H   0  0  0  0  0  0  0  0  0  0  0  0  # atno 8009 bound_to 7997
  154.9262  140.3010  155.5194 H   0  0  0  0  0  0  0  0  0  0  0  0  # atno 8010 bound_to 7997
  140.2072  143.3774  152.1080 H   0  0  0  0  0  0  0  0  0  0  0  0  # atno 10167 bound_to 10162
  156.3152  130.4258  149.8012 H   0  0  0  0  0  0  0  0  0  0  0  0  # atno 10718 bound_to 10713
  154.6928  135.5206  153.8416 H   0  0  0  0  0  0  0  0  0  0  0  0  # atno 10763 bound_to 10752
  153.0644  135.6580  154.0397 H   0  0  0  0  0  0  0  0  0  0  0  0  # atno 10764 bound_to 10752
  154.0268  135.2989  155.3353 H   0  0  0  0  0  0  0  0  0  0  0  0  # atno 10765 bound_to 10752
  139.9097  134.9617  156.7450 H   0  0  0  0  0  0  0  0  0  0  0  0  # atno 11005 bound_to 11000
  146.1897  140.6364  142.9151 LP  0  0  0  0  0  0  0  0  0  0  0  0  # atno 17320 bound_to 7965
  144.7515  140.5202  143.6798 LP  0  0  0  0  0  0  0  0  0  0  0  0  # atno 17321 bound_to 7965
  139.5194  144.7019  151.5469 LP  0  0  0  0  0  0  0  0  0  0  0  0  # atno 17342 bound_to 10162
  140.6349  143.9004  150.6638 LP  0  0  0  0  0  0  0  0  0  0  0  0  # atno 17343 bound_to 10162
  156.5341  130.8270  151.3247 LP  0  0  0  0  0  0  0  0  0  0  0  0  # atno 17370 bound_to 10713
  157.7400  130.9842  150.2349 LP  0  0  0  0  0  0  0  0  0  0  0  0  # atno 17371 bound_to 10713
  140.6819  133.9467  155.7915 LP  0  0  0  0  0  0  0  0  0  0  0  0  # atno 17394 bound_to 11000
  141.0504  134.0493  157.3791 LP  0  0  0  0  0  0  0  0  0  0  0  0  # atno 17395 bound_to 11000

$$$$
