AV-unprocessed.smi:1464|AV-procd|sdf|5935|dock2
  -GOLD-   22720 6 13D 1   1.00000     0.00000
 Structure written by MMmdl.
 40 41  0  0  0  0  0  0  0  0  2 V2000
  152.1343  145.4756  159.0871 C   0  0  0  0  0  0  0  0  0  0  0  0
  152.3400  143.9520  159.0142 C   0  0  2  0  0  0  0  0  0  0  0  0
  151.5940  143.3829  157.7897 C   0  0  0  0  0  0  0  0  0  0  0  0
  151.7722  141.8645  157.6539 C   0  0  0  0  0  0  0  0  0  0  0  0
  151.3393  141.1400  158.9377 C   0  0  0  0  0  0  0  0  0  0  0  0
  152.0781  141.6776  160.1771 C   0  0  1  0  0  0  0  0  0  0  0  0
  153.4889  141.2916  160.1106 N   0  0  0  0  0  0  0  0  0  0  0  0
  153.9729  140.0400  160.0901 C   0  0  0  0  0  0  0  0  0  0  0  0
  153.2609  139.0353  160.0947 O   0  0  0  0  0  0  0  0  0  0  0  0
  155.5013  139.9110  160.0477 C   0  0  0  0  0  0  0  0  0  0  0  0
  155.9478  138.5941  159.5725 N   0  0  0  0  0  0  0  0  0  0  0  0
  155.3257  138.1722  158.3208 N   0  5  0  0  0  0  0  0  0  0  0  0
  155.6476  136.9594  157.7973 C   0  0  0  0  0  0  0  0  0  0  0  0
  155.1488  136.5272  156.7608 O   0  0  0  0  0  0  0  0  0  0  0  0
  156.6288  136.1492  158.5000 C   0  0  0  0  0  0  0  0  0  0  0  0
  157.2067  136.5755  159.6401 C   0  0  0  0  0  0  0  0  0  0  0  0
  156.8853  137.8636  160.2421 C   0  0  0  0  0  0  0  0  0  0  0  0
  157.4185  138.2640  161.2775 O   0  0  0  0  0  0  0  0  0  0  0  0
  151.8992  143.2156  160.3103 C   0  0  1  0  0  0  0  0  0  0  0  0
  152.5771  143.7676  161.5806 C   0  0  0  0  0  0  0  0  0  0  0  0
  151.0975  145.7258  159.3134 H   0  0  0  0  0  0  0  0  0  0  0  0
  152.3907  145.9509  158.1400 H   0  0  0  0  0  0  0  0  0  0  0  0
  152.7658  145.9323  159.8488 H   0  0  0  0  0  0  0  0  0  0  0  0
  153.4068  143.7775  158.8666 H   0  0  0  0  0  0  0  0  0  0  0  0
  150.5309  143.6144  157.8689 H   0  0  0  0  0  0  0  0  0  0  0  0
  151.9464  143.8692  156.8794 H   0  0  0  0  0  0  0  0  0  0  0  0
  151.1892  141.4979  156.8086 H   0  0  0  0  0  0  0  0  0  0  0  0
  152.8144  141.6351  157.4293 H   0  0  0  0  0  0  0  0  0  0  0  0
  150.2652  141.2695  159.0765 H   0  0  0  0  0  0  0  0  0  0  0  0
  151.5039  140.0666  158.8347 H   0  0  0  0  0  0  0  0  0  0  0  0
  151.6235  141.2036  161.0489 H   0  0  0  0  0  0  0  0  0  0  0  0
  154.1591  142.0465  160.1026 H   0  0  0  0  0  0  0  0  0  0  0  0
  155.8872  140.7045  159.4053 H   0  0  0  0  0  0  0  0  0  0  0  0
  155.9241  140.1022  161.0360 H   0  0  0  0  0  0  0  0  0  0  0  0
  156.9030  135.1853  158.0969 H   0  0  0  0  0  0  0  0  0  0  0  0
  157.9325  135.9417  160.1278 H   0  0  0  0  0  0  0  0  0  0  0  0
  150.8297  143.3936  160.4342 H   0  0  0  0  0  0  0  0  0  0  0  0
  153.6634  143.7668  161.4912 H   0  0  0  0  0  0  0  0  0  0  0  0
  152.3148  143.1702  162.4541 H   0  0  0  0  0  0  0  0  0  0  0  0
  152.2629  144.7892  161.7923 H   0  0  0  0  0  0  0  0  0  0  0  0
  1  2  1  0  0  0  0
  1 21  1  0  0  0  0
  1 22  1  0  0  0  0
  1 23  1  0  0  0  0
  2 19  1  0  0  0  0
  2  3  1  0  0  0  0
  2 24  1  0  0  0  0
  3  4  1  0  0  0  0
  3 25  1  0  0  0  0
  3 26  1  0  0  0  0
  4  5  1  0  0  0  0
  4 27  1  0  0  0  0
  4 28  1  0  0  0  0
  5  6  1  0  0  0  0
  5 29  1  0  0  0  0
  5 30  1  0  0  0  0
  6  7  1  0  0  0  0
  6 19  1  0  0  0  0
  6 31  1  0  0  0  0
  7  8  1  0  0  0  0
  7 32  1  0  0  0  0
  8  9  2  0  0  0  0
  8 10  1  0  0  0  0
 10 33  1  0  0  0  0
 10 34  1  0  0  0  0
 10 11  1  0  0  0  0
 11 12  1  0  0  0  0
 11 17  1  0  0  0  0
 12 13  1  0  0  0  0
 13 14  2  0  0  0  0
 13 15  1  0  0  0  0
 15 35  1  0  0  0  0
 15 16  2  0  0  0  0
 16 36  1  0  0  0  0
 16 17  1  0  0  0  0
 17 18  2  0  0  0  0
 19 20  1  0  0  0  0
 19 37  1  0  0  0  0
 20 38  1  0  0  0  0
 20 39  1  0  0  0  0
 20 40  1  0  0  0  0
M  CHG  1  12  -1
M  END
> <s_m_source_file>
AV-unprocessed.smi

> <i_m_source_file_index>
1464

> <i_lp_mmshare_version>
43012

> <i_f3d_flags>
0

> <s_epik_input>
W0NIM11bQ0BASF0xW0NIMl1bQ0gyXVtDSDJdW0NASF0oW0NASF0xW0NIM10pW05IXUMoPU8pW0NIMl1uMltuSF1jKD1PKVtjSF1bY0hdYzI9Tw==

> <s_epik_cmdline>
J2VwaWtfcHl0aG9uJywgJy1waCcsICc3LjAnLCAnLXRuJywgJzgnLCAnLW1hJywgJzIwMCcsICctbWV0YWxfYmluZGluZycsICctaW1hZScsICc8aW5maWxlLm1hZT4nLCAnLW9tYWUnLCAnPG91dGZpbGUubWFlPic=

> <r_lp_tautomer_probability>
1

> <r_epik_Ionization_Penalty>
0.101366

> <r_epik_Ionization_Penalty_Charging>
0.101366

> <r_epik_Ionization_Penalty_Neutral>
1.90469e-08

> <r_epik_State_Penalty>
0.035861

> <r_epik_Charging_Adjusted_Penalty>
0.137227

> <i_epik_Tot_Q>
-1

> <i_epik_Tot_abs_Q>
1

> <r_epik_Metal_State_Penalty>
0.035861

> <b_epik_Metal_Only>
0

> <s_lp_Force_Field>
OPLS_2005

> <r_lp_Energy>
26.1624

> <b_lp_Chiralities_Consistent>
1

> <s_lp_Variant>
AV-unprocessed.smi:1464-1

> <Gold.Version>
5.8.1

> <Gold.Id.Protein>
6NUR|6NUR_protein|mol2

> <Gold.PLP.Fitness>
37.5251

> <Gold.PLP.PLP>
-30.0879

> <Gold.PLP.part.hbond>
-2.0000

> <Gold.PLP.part.metal>
0.0000

> <Gold.PLP.part.buried>
-5.1664

> <Gold.PLP.part.nonpolar>
-23.6141

> <Gold.PLP.part.repulsive>
0.0825

> <Gold.PLP.ligand.clash>
0.0000

> <Gold.PLP.ligand.torsion>
0.3786

> <Gold.PLP.Chemscore.Hbond>
2.7280

> <Gold.PLP.Chemscore.CHOScore>
0.0000

> <Gold.PLP.Chemscore.Metal>
0.0000

> <Gold.Chemscore.Hbonds>
donor molecule, donor type, donor heavy atom, donor atom, acceptor molecule, acceptor atom, score
      P1  H  7997  8009       L1    12  1.63
      P1  H 10752 10765       L1    14  0.94

> <Gold.PLP.Chemscore.Internal.Correction>
0.0103

> <Gold.Rescore>
     Score         DG    S(hbond)    S(metal)    S(lipo)     H(rot)  DE(clash)    DE(int)     intcor
     14.69     -16.35       1.19        0.00      94.86       1.64       0.13       1.53       ----

> <Gold.Chemscore.Fitness>
14.6851

> <Gold.Chemscore.DG>
-16.3494

> <Gold.Chemscore.ZeroCoef>
-5.4800

> <Gold.Chemscore.Hbond>
1.1913

> <Gold.Chemscore.Metal>
0.0000

> <Gold.Chemscore.Lipo>
94.8598

> <Gold.Chemscore.Internal_Hbond>
0.0000

> <Gold.Chemscore.DEClash>
0.1295

> <Gold.Chemscore.DEInternal>
1.5347

> <Gold.Chemscore.Rot>
1.6438

> <Gold.Chemscore.Internal.Correction>
   9.000000E+99

> <Gold.Chemscore.Hbonds>
donor molecule, donor type, donor heavy atom, donor atom, acceptor molecule, acceptor atom, score
      P1  H  7997  8009       L1    12  0.17
      P1  H 10752 10765       L1    14  0.86

> <Gold.Chemscore.Hbond.Weighted>
-3.9788

> <Gold.Chemscore.Metal.Weighted>
-0.0000

> <Gold.Chemscore.Lipo.Weighted>
-11.0986

> <Gold.Chemscore.Internal_Hbond.Weighted>
0.0000

> <Gold.Chemscore.DEClash.Weighted>
0.1295

> <Gold.Chemscore.DEInternal.Weighted>
1.5347

> <Gold.Chemscore.Rot.Weighted>
4.2080

> <Gold.Chemscore.Internal.Correction.Weighted>
   9.000000E+99

> <Gold.Protein.RotatedTorsions>
[ 6907 6896 6895 6894 ] final  -68.44 input  -60.11 | X-H torsion
[ 7974 7965 7964 7962 ] final -144.97 input  175.53 | X-H torsion
[ 8008 7997 7996 7995 ] final  107.95 input   59.86 | X-H torsion
[ 10167 10162 10161 10158 ] final  -23.50 input  -65.29 | X-H torsion
[ 10718 10713 10712 10709 ] final  122.76 input   66.30 | X-H torsion
[ 10763 10752 10751 10750 ] final  -74.39 input  -60.55 | X-H torsion
[ 11005 11000 10999 10996 ] final  143.59 input  -57.11 | X-H torsion

> <Gold.Protein.ActiveResidues>
 VAL166  LYS551  ARG553  GLY616  TRP617  ASP618  TYR619  PRO620  LYS621  CYS622 
 ASP623  PHE694  ASN695  SER759  ASP760  ASP761  ALA762  ILE779  LEU786  VAL792 
 PHE793  MET794  SER795  GLU796  ALA797  LYS798  CYS799  TRP800  GLU811  SER814 

> <Gold.Protein.RotatedAtoms>
  150.7356  134.5739  159.5903 H   0  0  0  0  0  0  0  0  0  0  0  0  # atno 6907 bound_to 6896
  152.3170  134.7424  160.0332 H   0  0  0  0  0  0  0  0  0  0  0  0  # atno 6908 bound_to 6896
  151.7953  133.3328  159.3547 H   0  0  0  0  0  0  0  0  0  0  0  0  # atno 6909 bound_to 6896
  144.8260  140.5643  143.5547 H   0  0  0  0  0  0  0  0  0  0  0  0  # atno 7974 bound_to 7965
  156.1865  140.3085  155.9248 H   0  0  0  0  0  0  0  0  0  0  0  0  # atno 8008 bound_to 7997
  155.3270  140.0459  157.3058 H   0  0  0  0  0  0  0  0  0  0  0  0  # atno 8009 bound_to 7997
  154.5401  140.2259  155.8665 H   0  0  0  0  0  0  0  0  0  0  0  0  # atno 8010 bound_to 7997
  140.7288  143.4438  151.0617 H   0  0  0  0  0  0  0  0  0  0  0  0  # atno 10167 bound_to 10162
  157.5717  131.1082  150.8354 H   0  0  0  0  0  0  0  0  0  0  0  0  # atno 10718 bound_to 10713
  154.4725  135.5866  153.6331 H   0  0  0  0  0  0  0  0  0  0  0  0  # atno 10763 bound_to 10752
  152.9836  135.6070  154.3349 H   0  0  0  0  0  0  0  0  0  0  0  0  # atno 10764 bound_to 10752
  154.3232  135.2843  155.2488 H   0  0  0  0  0  0  0  0  0  0  0  0  # atno 10765 bound_to 10752
  140.0566  134.9227  157.1110 H   0  0  0  0  0  0  0  0  0  0  0  0  # atno 11005 bound_to 11000
  145.4999  139.1484  143.3663 LP  0  0  0  0  0  0  0  0  0  0  0  0  # atno 17320 bound_to 7965
  146.2565  140.5139  142.8871 LP  0  0  0  0  0  0  0  0  0  0  0  0  # atno 17321 bound_to 7965
  139.8107  143.7954  152.3171 LP  0  0  0  0  0  0  0  0  0  0  0  0  # atno 17342 bound_to 10162
  139.8003  144.7376  150.9834 LP  0  0  0  0  0  0  0  0  0  0  0  0  # atno 17343 bound_to 10162
  156.8824  130.5184  149.5290 LP  0  0  0  0  0  0  0  0  0  0  0  0  # atno 17370 bound_to 10713
  156.0762  130.5784  150.9478 LP  0  0  0  0  0  0  0  0  0  0  0  0  # atno 17371 bound_to 10713
  140.3835  134.2261  155.7169 LP  0  0  0  0  0  0  0  0  0  0  0  0  # atno 17394 bound_to 11000
  141.1954  133.8105  157.0714 LP  0  0  0  0  0  0  0  0  0  0  0  0  # atno 17395 bound_to 11000

$$$$
