AV-unprocessed.smi:1685|AV-procd|sdf|6757|dock5
  -GOLD-   22720 7513D 1   1.00000     0.00000
 Structure written by MMmdl.
 40 41  0  0  0  0  0  0  0  0  1 V2000
  147.0922  140.8292  153.1133 C   0  0  0  0  0  0  0  0  0  0  0  0
  147.0784  141.9910  154.1126 C   0  0  0  0  0  0  0  0  0  0  0  0
  147.0834  141.5259  155.5345 C   0  0  0  0  0  0  0  0  0  0  0  0
  146.2479  141.9429  156.4772 N   0  0  0  0  0  0  0  0  0  0  0  0
  146.6552  141.2580  157.6063 N   0  0  0  0  0  0  0  0  0  0  0  0
  147.6749  140.4901  157.3520 N   0  0  0  0  0  0  0  0  0  0  0  0
  147.9652  140.6491  156.0364 N   0  0  0  0  0  0  0  0  0  0  0  0
  149.0662  139.9234  155.4230 C   0  0  0  0  0  0  0  0  0  0  0  0
  150.4193  140.4972  155.8479 C   0  0  0  0  0  0  0  0  0  0  0  0
  151.4280  140.2411  155.1913 O   0  0  0  0  0  0  0  0  0  0  0  0
  150.4255  141.2730  156.9433 N   0  0  0  0  0  0  0  0  0  0  0  0
  151.6048  141.8994  157.5308 C   0  0  0  0  0  0  0  0  0  0  0  0
  151.7608  141.4299  158.9932 C   0  0  0  0  0  0  0  0  0  0  0  0
  152.8711  142.2125  159.7162 C   0  0  0  0  0  0  0  0  0  0  0  0
  152.5688  143.6463  159.6291 N   0  0  0  0  0  0  0  0  0  0  0  0
  152.1497  144.4232  160.6569 C   0  0  0  0  0  0  0  0  0  0  0  0
  151.8017  145.8900  160.3926 C   0  0  0  0  0  0  0  0  0  0  0  0
  152.0389  144.0009  161.8080 O   0  0  0  0  0  0  0  0  0  0  0  0
  152.6232  144.1249  158.2430 C   0  0  0  0  0  0  0  0  0  0  0  0
  151.5051  143.4394  157.4368 C   0  0  0  0  0  0  0  0  0  0  0  0
  147.0938  141.1988  152.0879 H   0  0  0  0  0  0  0  0  0  0  0  0
  146.2148  140.1939  153.2372 H   0  0  0  0  0  0  0  0  0  0  0  0
  147.9781  140.2071  153.2449 H   0  0  0  0  0  0  0  0  0  0  0  0
  147.9519  142.6236  153.9519 H   0  0  0  0  0  0  0  0  0  0  0  0
  146.2078  142.6235  153.9383 H   0  0  0  0  0  0  0  0  0  0  0  0
  148.9966  138.8719  155.7036 H   0  0  0  0  0  0  0  0  0  0  0  0
  148.9723  139.9705  154.3371 H   0  0  0  0  0  0  0  0  0  0  0  0
  149.5463  141.4291  157.4153 H   0  0  0  0  0  0  0  0  0  0  0  0
  152.4939  141.5775  156.9852 H   0  0  0  0  0  0  0  0  0  0  0  0
  150.8208  141.5680  159.5301 H   0  0  0  0  0  0  0  0  0  0  0  0
  151.9786  140.3616  159.0220 H   0  0  0  0  0  0  0  0  0  0  0  0
  152.9776  141.8494  160.7373 H   0  0  0  0  0  0  0  0  0  0  0  0
  153.8327  142.0193  159.2388 H   0  0  0  0  0  0  0  0  0  0  0  0
  152.6571  146.4222  159.9750 H   0  0  0  0  0  0  0  0  0  0  0  0
  151.5193  146.3910  161.3192 H   0  0  0  0  0  0  0  0  0  0  0  0
  150.9621  145.9692  159.7018 H   0  0  0  0  0  0  0  0  0  0  0  0
  152.5256  145.2085  158.1658 H   0  0  0  0  0  0  0  0  0  0  0  0
  153.5968  143.8842  157.8138 H   0  0  0  0  0  0  0  0  0  0  0  0
  151.5520  143.7573  156.3947 H   0  0  0  0  0  0  0  0  0  0  0  0
  150.5378  143.7713  157.8173 H   0  0  0  0  0  0  0  0  0  0  0  0
  1  2  1  0  0  0  0
  1 21  1  0  0  0  0
  1 22  1  0  0  0  0
  1 23  1  0  0  0  0
  2  3  1  0  0  0  0
  2 24  1  0  0  0  0
  2 25  1  0  0  0  0
  3  7  1  0  0  0  0
  3  4  2  0  0  0  0
  4  5  1  0  0  0  0
  5  6  2  0  0  0  0
  6  7  1  0  0  0  0
  7  8  1  0  0  0  0
  8  9  1  0  0  0  0
  8 26  1  0  0  0  0
  8 27  1  0  0  0  0
  9 10  2  0  0  0  0
  9 11  1  0  0  0  0
 11 12  1  0  0  0  0
 11 28  1  0  0  0  0
 12 20  1  0  0  0  0
 12 13  1  0  0  0  0
 12 29  1  0  0  0  0
 13 14  1  0  0  0  0
 13 30  1  0  0  0  0
 13 31  1  0  0  0  0
 14 15  1  0  0  0  0
 14 32  1  0  0  0  0
 14 33  1  0  0  0  0
 15 16  1  0  0  0  0
 15 19  1  0  0  0  0
 16 17  1  0  0  0  0
 16 18  2  0  0  0  0
 17 34  1  0  0  0  0
 17 35  1  0  0  0  0
 17 36  1  0  0  0  0
 19 20  1  0  0  0  0
 19 37  1  0  0  0  0
 19 38  1  0  0  0  0
 20 39  1  0  0  0  0
 20 40  1  0  0  0  0
M  END
> <s_m_source_file>
AV-unprocessed.smi

> <i_m_source_file_index>
1685

> <i_lp_mmshare_version>
43012

> <i_f3d_flags>
0

> <s_epik_input>
W0NIM11bQ0gyXWMxbm5ubjFbQ0gyXUMoPU8pW05IXVtDSF0yW0NIMl1bQ0gyXU4oQyg9TylbQ0gzXSlbQ0gyXVtDSDJdMg==

> <s_epik_cmdline>
J2VwaWtfcHl0aG9uJywgJy1waCcsICc3LjAnLCAnLXRuJywgJzgnLCAnLW1hJywgJzIwMCcsICctbWV0YWxfYmluZGluZycsICctaW1hZScsICc8aW5maWxlLm1hZT4nLCAnLW9tYWUnLCAnPG91dGZpbGUubWFlPic=

> <r_lp_tautomer_probability>
1

> <r_epik_Ionization_Penalty>
1.8486e-06

> <r_epik_Ionization_Penalty_Charging>
0

> <r_epik_Ionization_Penalty_Neutral>
1.8486e-06

> <r_epik_State_Penalty>
-0

> <r_epik_Charging_Adjusted_Penalty>
0

> <i_epik_Tot_Q>
0

> <i_epik_Tot_abs_Q>
0

> <r_epik_Metal_State_Penalty>
-0

> <b_epik_Metal_Only>
0

> <s_lp_Force_Field>
OPLS_2005

> <r_lp_Energy>
22.135

> <b_lp_Chiralities_Consistent>
1

> <s_lp_Variant>
AV-unprocessed.smi:1685-1

> <Gold.Version>
5.8.1

> <Gold.Id.Protein>
6NUR|6NUR_protein|mol2

> <Gold.PLP.Fitness>
40.7429

> <Gold.PLP.PLP>
-38.7302

> <Gold.PLP.part.hbond>
-1.0000

> <Gold.PLP.part.metal>
0.0000

> <Gold.PLP.part.buried>
-6.7141

> <Gold.PLP.part.nonpolar>
-31.9479

> <Gold.PLP.part.repulsive>
0.3822

> <Gold.PLP.ligand.clash>
0.0000

> <Gold.PLP.ligand.torsion>
0.5055

> <Gold.PLP.Chemscore.Hbond>
1.0000

> <Gold.PLP.Chemscore.CHOScore>
0.0000

> <Gold.PLP.Chemscore.Metal>
0.0000

> <Gold.Chemscore.Hbonds>
donor molecule, donor type, donor heavy atom, donor atom, acceptor molecule, acceptor atom, score
      P1  H  7989  7998       L1    10  1.00

> <Gold.PLP.Chemscore.Internal.Correction>
0.0237

> <Gold.Rescore>
     Score         DG    S(hbond)    S(metal)    S(lipo)     H(rot)  DE(clash)    DE(int)     intcor
     13.22     -13.53       0.96        0.00      81.90       1.85       0.00       0.30       ----

> <Gold.Chemscore.Fitness>
13.2248

> <Gold.Chemscore.DG>
-13.5309

> <Gold.Chemscore.ZeroCoef>
-5.4800

> <Gold.Chemscore.Hbond>
0.9577

> <Gold.Chemscore.Metal>
0.0000

> <Gold.Chemscore.Lipo>
81.8984

> <Gold.Chemscore.Internal_Hbond>
0.0000

> <Gold.Chemscore.DEClash>
0.0033

> <Gold.Chemscore.DEInternal>
0.3029

> <Gold.Chemscore.Rot>
1.8476

> <Gold.Chemscore.Internal.Correction>
   9.000000E+99

> <Gold.Chemscore.Hbonds>
donor molecule, donor type, donor heavy atom, donor atom, acceptor molecule, acceptor atom, score
      P1  H  7989  7998       L1    10  0.93

> <Gold.Chemscore.Hbond.Weighted>
-3.1986

> <Gold.Chemscore.Metal.Weighted>
-0.0000

> <Gold.Chemscore.Lipo.Weighted>
-9.5821

> <Gold.Chemscore.Internal_Hbond.Weighted>
0.0000

> <Gold.Chemscore.DEClash.Weighted>
0.0033

> <Gold.Chemscore.DEInternal.Weighted>
0.3029

> <Gold.Chemscore.Rot.Weighted>
4.7298

> <Gold.Chemscore.Internal.Correction.Weighted>
   9.000000E+99

> <Gold.Protein.RotatedTorsions>
[ 6907 6896 6895 6894 ] final -109.02 input  -60.11 | X-H torsion
[ 7974 7965 7964 7962 ] final  -92.45 input  175.53 | X-H torsion
[ 8008 7997 7996 7995 ] final  154.43 input   59.86 | X-H torsion
[ 10167 10162 10161 10158 ] final  156.29 input  -65.29 | X-H torsion
[ 10718 10713 10712 10709 ] final   14.93 input   66.30 | X-H torsion
[ 10763 10752 10751 10750 ] final   66.22 input  -60.55 | X-H torsion
[ 11005 11000 10999 10996 ] final -150.10 input  -57.11 | X-H torsion

> <Gold.Protein.ActiveResidues>
 VAL166  LYS551  ARG553  GLY616  TRP617  ASP618  TYR619  PRO620  LYS621  CYS622 
 ASP623  PHE694  ASN695  SER759  ASP760  ASP761  ALA762  ILE779  LEU786  VAL792 
 PHE793  MET794  SER795  GLU796  ALA797  LYS798  CYS799  TRP800  GLU811  SER814 

> <Gold.Protein.RotatedAtoms>
  150.7536  133.9592  159.3509 H   0  0  0  0  0  0  0  0  0  0  0  0  # atno 6907 bound_to 6896
  151.7516  135.0829  160.0341 H   0  0  0  0  0  0  0  0  0  0  0  0  # atno 6908 bound_to 6896
  152.3463  133.6088  159.5948 H   0  0  0  0  0  0  0  0  0  0  0  0  # atno 6909 bound_to 6896
  145.3997  140.9536  143.2294 H   0  0  0  0  0  0  0  0  0  0  0  0  # atno 7974 bound_to 7965
  156.2531  140.1966  156.6645 H   0  0  0  0  0  0  0  0  0  0  0  0  # atno 8008 bound_to 7997
  154.6439  140.0580  156.9903 H   0  0  0  0  0  0  0  0  0  0  0  0  # atno 8009 bound_to 7997
  155.1521  140.3252  155.4432 H   0  0  0  0  0  0  0  0  0  0  0  0  # atno 8010 bound_to 7997
  139.4821  144.5022  151.8152 H   0  0  0  0  0  0  0  0  0  0  0  0  # atno 10167 bound_to 10162
  157.0462  130.6251  149.5759 H   0  0  0  0  0  0  0  0  0  0  0  0  # atno 10718 bound_to 10713
  153.0130  135.5328  154.6790 H   0  0  0  0  0  0  0  0  0  0  0  0  # atno 10763 bound_to 10752
  154.5955  135.2863  155.0593 H   0  0  0  0  0  0  0  0  0  0  0  0  # atno 10764 bound_to 10752
  154.1670  135.6538  153.5052 H   0  0  0  0  0  0  0  0  0  0  0  0  # atno 10765 bound_to 10752
  140.7437  134.3485  157.5142 H   0  0  0  0  0  0  0  0  0  0  0  0  # atno 11005 bound_to 11000
  144.8383  139.5514  143.6912 LP  0  0  0  0  0  0  0  0  0  0  0  0  # atno 17320 bound_to 7965
  146.2758  139.6749  142.9264 LP  0  0  0  0  0  0  0  0  0  0  0  0  # atno 17321 bound_to 7965
  140.4516  144.1847  150.5898 LP  0  0  0  0  0  0  0  0  0  0  0  0  # atno 17342 bound_to 10162
  140.4579  143.2460  151.9260 LP  0  0  0  0  0  0  0  0  0  0  0  0  # atno 17343 bound_to 10162
  156.0022  130.5103  150.7704 LP  0  0  0  0  0  0  0  0  0  0  0  0  # atno 17370 bound_to 10713
  157.5066  131.0922  151.0250 LP  0  0  0  0  0  0  0  0  0  0  0  0  # atno 17371 bound_to 10713
  139.8801  134.9097  156.2998 LP  0  0  0  0  0  0  0  0  0  0  0  0  # atno 17394 bound_to 11000
  140.9813  133.7265  156.0676 LP  0  0  0  0  0  0  0  0  0  0  0  0  # atno 17395 bound_to 11000

$$$$
