AV-unprocessed.smi:910|AV-procd|sdf|4130|dock6
  -GOLD-   22720 2 33D 1   1.00000     0.00000
 Structure written by MMmdl.
 47 48  0  0  0  0  0  0  0  0  2 V2000
  144.7985  135.1247  150.7854 C   0  0  0  0  0  0  0  0  0  0  0  0
  145.2144  136.3309  151.5675 C   0  0  0  0  0  0  0  0  0  0  0  0
  146.4626  136.8984  151.6716 N   0  3  0  0  0  0  0  0  0  0  0  0
  146.4032  137.9599  152.4717 C   0  0  0  0  0  0  0  0  0  0  0  0
  147.5074  138.7872  152.7776 N   0  0  0  0  0  0  0  0  0  0  0  0
  147.5468  139.6890  153.7694 C   0  0  0  0  0  0  0  0  0  0  0  0
  146.6872  139.8000  154.6443 O   0  0  0  0  0  0  0  0  0  0  0  0
  148.6320  140.4734  153.6858 N   0  0  0  0  0  0  0  0  0  0  0  0
  148.8790  141.6435  154.5234 C   0  0  0  0  0  0  0  0  0  0  0  0
  149.2581  141.2296  155.9540 C   0  0  0  0  0  0  0  0  0  0  0  0
  150.0485  140.0523  155.8965 O   0  0  0  0  0  0  0  0  0  0  0  0
  151.4481  140.2540  156.0419 C   0  0  2  0  0  0  0  0  0  0  0  0
  152.1549  139.0951  155.3151 C   0  0  0  0  0  0  0  0  0  0  0  0
  151.8803  137.7411  155.9920 C   0  0  0  0  0  0  0  0  0  0  0  0
  152.2636  137.7728  157.4788 C   0  0  0  0  0  0  0  0  0  0  0  0
  151.5541  138.9205  158.2142 C   0  0  0  0  0  0  0  0  0  0  0  0
  151.8310  140.2809  157.5424 C   0  0  2  0  0  0  0  0  0  0  0  0
  151.1686  141.4348  158.3104 C   0  0  0  0  0  0  0  0  0  0  0  0
  145.1344  138.1473  152.9242 O   0  0  0  0  0  0  0  0  0  0  0  0
  144.4054  137.1259  152.3512 C   0  0  0  0  0  0  0  0  0  0  0  0
  142.9500  137.0747  152.6714 C   0  0  0  0  0  0  0  0  0  0  0  0
  144.2996  134.3946  151.4231 H   0  0  0  0  0  0  0  0  0  0  0  0
  145.6571  134.6312  150.3295 H   0  0  0  0  0  0  0  0  0  0  0  0
  144.1081  135.3934  149.9857 H   0  0  0  0  0  0  0  0  0  0  0  0
  147.2770  136.5326  151.1948 H   0  0  0  0  0  0  0  0  0  0  0  0
  149.2952  140.3002  152.9445 H   0  0  0  0  0  0  0  0  0  0  0  0
  149.6509  142.2808  154.0884 H   0  0  0  0  0  0  0  0  0  0  0  0
  147.9648  142.2367  154.5465 H   0  0  0  0  0  0  0  0  0  0  0  0
  149.8299  142.0222  156.4383 H   0  0  0  0  0  0  0  0  0  0  0  0
  148.3567  141.0705  156.5471 H   0  0  0  0  0  0  0  0  0  0  0  0
  151.7557  141.1886  155.5683 H   0  0  0  0  0  0  0  0  0  0  0  0
  151.8368  139.0603  154.2728 H   0  0  0  0  0  0  0  0  0  0  0  0
  153.2300  139.2787  155.3011 H   0  0  0  0  0  0  0  0  0  0  0  0
  150.8239  137.4877  155.8930 H   0  0  0  0  0  0  0  0  0  0  0  0
  152.4342  136.9524  155.4821 H   0  0  0  0  0  0  0  0  0  0  0  0
  152.0134  136.8206  157.9472 H   0  0  0  0  0  0  0  0  0  0  0  0
  153.3436  137.8902  157.5748 H   0  0  0  0  0  0  0  0  0  0  0  0
  150.4812  138.7286  158.2392 H   0  0  0  0  0  0  0  0  0  0  0  0
  151.8843  138.9436  159.2530 H   0  0  0  0  0  0  0  0  0  0  0  0
  152.9073  140.4524  157.5929 H   0  0  0  0  0  0  0  0  0  0  0  0
  150.0862  141.3170  158.3555 H   0  0  0  0  0  0  0  0  0  0  0  0
  151.3834  142.3947  157.8401 H   0  0  0  0  0  0  0  0  0  0  0  0
  151.5361  141.4819  159.3359 H   0  0  0  0  0  0  0  0  0  0  0  0
  142.4304  136.3641  152.0285 H   0  0  0  0  0  0  0  0  0  0  0  0
  142.4889  138.0527  152.5326 H   0  0  0  0  0  0  0  0  0  0  0  0
  142.7941  136.7703  153.7064 H   0  0  0  0  0  0  0  0  0  0  0  0
  148.2935  138.7458  152.1461 H   0  0  0  0  0  0  0  0  0  0  0  0
  1 22  1  0  0  0  0
  1 23  1  0  0  0  0
  1 24  1  0  0  0  0
  1  2  1  0  0  0  0
  2  3  1  0  0  0  0
  2 20  2  0  0  0  0
  3 25  1  0  0  0  0
  3  4  2  0  0  0  0
  4 19  1  0  0  0  0
  4  5  1  0  0  0  0
  5  6  1  0  0  0  0
  5 47  1  0  0  0  0
  6  8  1  0  0  0  0
  6  7  2  0  0  0  0
  8  9  1  0  0  0  0
  8 26  1  0  0  0  0
  9 10  1  0  0  0  0
  9 27  1  0  0  0  0
  9 28  1  0  0  0  0
 10 11  1  0  0  0  0
 10 29  1  0  0  0  0
 10 30  1  0  0  0  0
 11 12  1  0  0  0  0
 12 17  1  0  0  0  0
 12 13  1  0  0  0  0
 12 31  1  0  0  0  0
 13 14  1  0  0  0  0
 13 32  1  0  0  0  0
 13 33  1  0  0  0  0
 14 15  1  0  0  0  0
 14 34  1  0  0  0  0
 14 35  1  0  0  0  0
 15 16  1  0  0  0  0
 15 36  1  0  0  0  0
 15 37  1  0  0  0  0
 16 17  1  0  0  0  0
 16 38  1  0  0  0  0
 16 39  1  0  0  0  0
 17 18  1  0  0  0  0
 17 40  1  0  0  0  0
 18 41  1  0  0  0  0
 18 42  1  0  0  0  0
 18 43  1  0  0  0  0
 19 20  1  0  0  0  0
 20 21  1  0  0  0  0
 21 44  1  0  0  0  0
 21 45  1  0  0  0  0
 21 46  1  0  0  0  0
M  CHG  1   3   1
M  END
> <s_m_source_file>
AV-unprocessed.smi

> <i_m_source_file_index>
910

> <i_lp_mmshare_version>
43012

> <i_f3d_flags>
0

> <s_epik_input>
W0NIM11jMW5jKG9jMVtDSDNdKVtOSF1DKD1PKVtOSF1bQ0gyXVtDSDJdT1tDQEBIXTJbQ0gyXVtDSDJdW0NIMl1bQ0gyXVtDQEhdMltDSDNd

> <s_epik_cmdline>
J2VwaWtfcHl0aG9uJywgJy1waCcsICc3LjAnLCAnLXRuJywgJzgnLCAnLW1hJywgJzIwMCcsICctbWV0YWxfYmluZGluZycsICctaW1hZScsICc8aW5maWxlLm1hZT4nLCAnLW9tYWUnLCAnPG91dGZpbGUubWFlPic=

> <r_epik_Ionization_Penalty>
7.32931

> <r_epik_Ionization_Penalty_Charging>
7.12214

> <r_epik_Ionization_Penalty_Neutral>
0.207166

> <r_epik_State_Penalty>
2.61278

> <r_epik_Charging_Adjusted_Penalty>
9.73492

> <i_epik_Tot_Q>
1

> <i_epik_Tot_abs_Q>
1

> <r_epik_Metal_State_Penalty>
2.64585

> <b_epik_Metal_Only>
0

> <s_lp_Force_Field>
OPLS_2005

> <r_lp_Energy>
15.8254

> <b_lp_Chiralities_Consistent>
1

> <s_lp_Variant>
AV-unprocessed.smi:910-15

> <Gold.Version>
5.8.1

> <Gold.Id.Protein>
6NUR|6NUR_protein|mol2

> <Gold.PLP.Fitness>
41.1566

> <Gold.PLP.PLP>
-33.5973

> <Gold.PLP.part.hbond>
-3.6895

> <Gold.PLP.part.metal>
0.0000

> <Gold.PLP.part.buried>
-2.9974

> <Gold.PLP.part.nonpolar>
-28.7717

> <Gold.PLP.part.repulsive>
1.8183

> <Gold.PLP.ligand.clash>
0.0000

> <Gold.PLP.ligand.torsion>
0.8379

> <Gold.PLP.Chemscore.Hbond>
3.0640

> <Gold.PLP.Chemscore.CHOScore>
0.0000

> <Gold.PLP.Chemscore.Metal>
0.0000

> <Gold.Chemscore.Hbonds>
donor molecule, donor type, donor heavy atom, donor atom, acceptor molecule, acceptor atom, score
      L1  H     3    25       P1  7948  1.22
      L1  H     5    47       P1  7957  0.73
      L1  H     8    26       P1  7957  0.98

> <Gold.PLP.Chemscore.Internal.Correction>
0.0432

> <Gold.Rescore>
     Score         DG    S(hbond)    S(metal)    S(lipo)     H(rot)  DE(clash)    DE(int)     intcor
     15.43     -18.21       2.53        0.00      73.62       1.69       0.52       2.26       ----

> <Gold.Chemscore.Fitness>
15.4270

> <Gold.Chemscore.DG>
-18.2061

> <Gold.Chemscore.ZeroCoef>
-5.4800

> <Gold.Chemscore.Hbond>
2.5305

> <Gold.Chemscore.Metal>
0.0000

> <Gold.Chemscore.Lipo>
73.6182

> <Gold.Chemscore.Internal_Hbond>
0.0000

> <Gold.Chemscore.DEClash>
0.5174

> <Gold.Chemscore.DEInternal>
2.2617

> <Gold.Chemscore.Rot>
1.6949

> <Gold.Chemscore.Internal.Correction>
   9.000000E+99

> <Gold.Chemscore.Hbonds>
donor molecule, donor type, donor heavy atom, donor atom, acceptor molecule, acceptor atom, score
      L1  H     3    25       P1  7948  0.62
      L1  H     5    47       P1  7957  0.66
      L1  H     8    26       P1  7957  0.93

> <Gold.Chemscore.Hbond.Weighted>
-8.4518

> <Gold.Chemscore.Metal.Weighted>
-0.0000

> <Gold.Chemscore.Lipo.Weighted>
-8.6133

> <Gold.Chemscore.Internal_Hbond.Weighted>
0.0000

> <Gold.Chemscore.DEClash.Weighted>
0.5174

> <Gold.Chemscore.DEInternal.Weighted>
2.2617

> <Gold.Chemscore.Rot.Weighted>
4.3390

> <Gold.Chemscore.Internal.Correction.Weighted>
   9.000000E+99

> <Gold.Protein.RotatedTorsions>
[ 6907 6896 6895 6894 ] final  172.93 input  -60.11 | X-H torsion
[ 7974 7965 7964 7962 ] final  139.77 input  175.53 | X-H torsion
[ 8008 7997 7996 7995 ] final -120.18 input   59.86 | X-H torsion
[ 10167 10162 10161 10158 ] final  -38.60 input  -65.29 | X-H torsion
[ 10718 10713 10712 10709 ] final   59.79 input   66.30 | X-H torsion
[ 10763 10752 10751 10750 ] final  150.58 input  -60.55 | X-H torsion
[ 11005 11000 10999 10996 ] final  -76.99 input  -57.11 | X-H torsion

> <Gold.Protein.ActiveResidues>
 VAL166  LYS551  ARG553  GLY616  TRP617  ASP618  TYR619  PRO620  LYS621  CYS622 
 ASP623  PHE694  ASN695  SER759  ASP760  ASP761  ALA762  ILE779  LEU786  VAL792 
 PHE793  MET794  SER795  GLU796  ALA797  LYS798  CYS799  TRP800  GLU811  SER814 

> <Gold.Protein.RotatedAtoms>
  151.7765  133.3346  159.3458 H   0  0  0  0  0  0  0  0  0  0  0  0  # atno 6907 bound_to 6896
  150.7442  134.5971  159.6026 H   0  0  0  0  0  0  0  0  0  0  0  0  # atno 6908 bound_to 6896
  152.3306  134.7266  160.0342 H   0  0  0  0  0  0  0  0  0  0  0  0  # atno 6909 bound_to 6896
  144.9248  139.5122  143.5646 H   0  0  0  0  0  0  0  0  0  0  0  0  # atno 7974 bound_to 7965
  155.1277  140.0399  157.2766 H   0  0  0  0  0  0  0  0  0  0  0  0  # atno 8008 bound_to 7997
  154.6566  140.2581  155.7128 H   0  0  0  0  0  0  0  0  0  0  0  0  # atno 8009 bound_to 7997
  156.2601  140.2825  156.1022 H   0  0  0  0  0  0  0  0  0  0  0  0  # atno 8010 bound_to 7997
  140.7087  143.3266  151.2665 H   0  0  0  0  0  0  0  0  0  0  0  0  # atno 10167 bound_to 10162
  157.5703  130.8902  149.9255 H   0  0  0  0  0  0  0  0  0  0  0  0  # atno 10718 bound_to 10713
  154.0899  135.2853  155.3273 H   0  0  0  0  0  0  0  0  0  0  0  0  # atno 10763 bound_to 10752
  154.6627  135.5328  153.8042 H   0  0  0  0  0  0  0  0  0  0  0  0  # atno 10764 bound_to 10752
  153.0417  135.6538  154.1068 H   0  0  0  0  0  0  0  0  0  0  0  0  # atno 10765 bound_to 10752
  141.1657  133.7005  156.7753 H   0  0  0  0  0  0  0  0  0  0  0  0  # atno 11005 bound_to 11000
  146.3221  139.8154  142.8937 LP  0  0  0  0  0  0  0  0  0  0  0  0  # atno 17320 bound_to 7965
  145.3237  141.0250  143.3486 LP  0  0  0  0  0  0  0  0  0  0  0  0  # atno 17321 bound_to 7965
  139.6737  143.9976  152.2768 LP  0  0  0  0  0  0  0  0  0  0  0  0  # atno 17342 bound_to 10162
  139.9583  144.6575  150.8104 LP  0  0  0  0  0  0  0  0  0  0  0  0  # atno 17343 bound_to 10162
  156.0749  130.3680  150.0699 LP  0  0  0  0  0  0  0  0  0  0  0  0  # atno 17370 bound_to 10713
  156.8853  130.9570  151.3595 LP  0  0  0  0  0  0  0  0  0  0  0  0  # atno 17371 bound_to 10713
  140.2434  134.8596  157.3596 LP  0  0  0  0  0  0  0  0  0  0  0  0  # atno 17394 bound_to 11000
  140.1773  134.4533  155.7794 LP  0  0  0  0  0  0  0  0  0  0  0  0  # atno 17395 bound_to 11000

$$$$
