AV-unprocessed.smi:1847|AV-procd|sdf|7515|dock10
  -GOLD-   22720 9223D 1   1.00000     0.00000
 Structure written by MMmdl.
 25 26  0  0  0  0  0  0  0  0  1 V2000
  152.8753  140.1807  159.0239 O   0  0  0  0  0  0  0  0  0  0  0  0
  152.2744  140.6069  158.0366 C   0  0  0  0  0  0  0  0  0  0  0  0
  151.7665  141.8513  157.9442 N   0  0  0  0  0  0  0  0  0  0  0  0
  151.8120  142.9071  158.8944 C   0  0  0  0  0  0  0  0  0  0  0  0
  151.2744  144.1550  158.5168 C   0  0  0  0  0  0  0  0  0  0  0  0
  151.3215  145.2214  159.4367 C   0  0  0  0  0  0  0  0  0  0  0  0
  151.8684  145.1166  160.6660 N   0  0  0  0  0  0  0  0  0  0  0  0
  152.3980  143.9263  161.0194 C   0  0  0  0  0  0  0  0  0  0  0  0
  152.4012  142.7967  160.1768 C   0  0  0  0  0  0  0  0  0  0  0  0
  152.0010  139.8300  156.8330 C   0  0  0  0  0  0  0  0  0  0  0  0
  150.8078  139.9660  156.2092 C   0  0  0  0  0  0  0  0  0  0  0  0
  150.4441  139.2523  155.0949 O   0  0  0  0  0  0  0  0  0  0  0  0
  151.3056  138.1651  154.7793 C   0  0  0  0  0  0  0  0  0  0  0  0
  152.7730  138.5686  154.9848 C   0  0  0  0  0  0  0  0  0  0  0  0
  152.9809  139.0054  156.3239 O   0  0  0  0  0  0  0  0  0  0  0  0
  151.2259  142.0400  157.1122 H   0  0  0  0  0  0  0  0  0  0  0  0
  150.8267  144.2956  157.5438 H   0  0  0  0  0  0  0  0  0  0  0  0
  150.9107  146.1856  159.1762 H   0  0  0  0  0  0  0  0  0  0  0  0
  152.8404  143.8739  162.0031 H   0  0  0  0  0  0  0  0  0  0  0  0
  152.8619  141.8844  160.5228 H   0  0  0  0  0  0  0  0  0  0  0  0
  150.0090  140.6137  156.5416 H   0  0  0  0  0  0  0  0  0  0  0  0
  151.0534  137.3124  155.4109 H   0  0  0  0  0  0  0  0  0  0  0  0
  151.1342  137.8615  153.7463 H   0  0  0  0  0  0  0  0  0  0  0  0
  153.4327  137.7257  154.7783 H   0  0  0  0  0  0  0  0  0  0  0  0
  153.0492  139.3698  154.2978 H   0  0  0  0  0  0  0  0  0  0  0  0
  1  2  2  0  0  0  0
  2  3  1  0  0  0  0
  2 10  1  0  0  0  0
  3  4  1  0  0  0  0
  3 16  1  0  0  0  0
  4  9  1  0  0  0  0
  4  5  2  0  0  0  0
  5  6  1  0  0  0  0
  5 17  1  0  0  0  0
  6  7  2  0  0  0  0
  6 18  1  0  0  0  0
  7  8  1  0  0  0  0
  8  9  2  0  0  0  0
  8 19  1  0  0  0  0
  9 20  1  0  0  0  0
 10 15  1  0  0  0  0
 10 11  2  0  0  0  0
 11 12  1  0  0  0  0
 11 21  1  0  0  0  0
 12 13  1  0  0  0  0
 13 14  1  0  0  0  0
 13 22  1  0  0  0  0
 13 23  1  0  0  0  0
 14 15  1  0  0  0  0
 14 24  1  0  0  0  0
 14 25  1  0  0  0  0
M  END
> <s_m_source_file>
AV-unprocessed.smi

> <i_m_source_file_index>
1847

> <i_lp_mmshare_version>
43012

> <i_f3d_flags>
0

> <s_epik_input>
TzFbQ0gyXVtDSDJdT1tDSF09QzFDKD1PKVtOSF1jMltjSF1bY0hdbltjSF1bY0hdMg==

> <s_epik_cmdline>
J2VwaWtfcHl0aG9uJywgJy1waCcsICc3LjAnLCAnLXRuJywgJzgnLCAnLW1hJywgJzIwMCcsICctbWV0YWxfYmluZGluZycsICctaW1hZScsICc8aW5maWxlLm1hZT4nLCAnLW9tYWUnLCAnPG91dGZpbGUubWFlPic=

> <r_epik_Ionization_Penalty>
0.039624

> <r_epik_Ionization_Penalty_Charging>
0

> <r_epik_Ionization_Penalty_Neutral>
0.039624

> <r_epik_State_Penalty>
0.0332371

> <r_epik_Charging_Adjusted_Penalty>
0.0332371

> <i_epik_Tot_Q>
0

> <i_epik_Tot_abs_Q>
0

> <r_epik_Metal_State_Penalty>
0.0856011

> <b_epik_Metal_Only>
0

> <s_lp_Force_Field>
OPLS_2005

> <r_lp_Energy>
7.75987

> <b_lp_Chiralities_Consistent>
1

> <s_lp_Variant>
AV-unprocessed.smi:1847-1

> <Gold.Version>
5.8.1

> <Gold.Id.Protein>
6NUR|6NUR_protein|mol2

> <Gold.PLP.Fitness>
37.9103

> <Gold.PLP.PLP>
-34.2718

> <Gold.PLP.part.hbond>
-2.0000

> <Gold.PLP.part.metal>
0.0000

> <Gold.PLP.part.buried>
-4.1655

> <Gold.PLP.part.nonpolar>
-28.4779

> <Gold.PLP.part.repulsive>
0.3477

> <Gold.PLP.ligand.clash>
0.5221

> <Gold.PLP.ligand.torsion>
0.6207

> <Gold.PLP.Chemscore.Hbond>
1.8000

> <Gold.PLP.Chemscore.CHOScore>
0.0000

> <Gold.PLP.Chemscore.Metal>
0.0000

> <Gold.Chemscore.Hbonds>
donor molecule, donor type, donor heavy atom, donor atom, acceptor molecule, acceptor atom, score
      P1  H  7997  8009       L1    15  0.90

> <Gold.PLP.Chemscore.Internal.Correction>
0.0020

> <Gold.Rescore>
     Score         DG    S(hbond)    S(metal)    S(lipo)     H(rot)  DE(clash)    DE(int)     intcor
     16.90     -18.66       0.89        0.00      87.39       0.00       0.29       1.47       ----

> <Gold.Chemscore.Fitness>
16.8963

> <Gold.Chemscore.DG>
-18.6603

> <Gold.Chemscore.ZeroCoef>
-5.4800

> <Gold.Chemscore.Hbond>
0.8851

> <Gold.Chemscore.Metal>
0.0000

> <Gold.Chemscore.Lipo>
87.3863

> <Gold.Chemscore.Internal_Hbond>
0.0000

> <Gold.Chemscore.DEClash>
0.2925

> <Gold.Chemscore.DEInternal>
1.4715

> <Gold.Chemscore.Rot>
0.0000

> <Gold.Chemscore.Internal.Correction>
   9.000000E+99

> <Gold.Chemscore.Hbonds>
donor molecule, donor type, donor heavy atom, donor atom, acceptor molecule, acceptor atom, score
      P1  H  7997  8009       L1    15  0.17

> <Gold.Chemscore.Hbond.Weighted>
-2.9561

> <Gold.Chemscore.Metal.Weighted>
-0.0000

> <Gold.Chemscore.Lipo.Weighted>
-10.2242

> <Gold.Chemscore.Internal_Hbond.Weighted>
0.0000

> <Gold.Chemscore.DEClash.Weighted>
0.2925

> <Gold.Chemscore.DEInternal.Weighted>
1.4715

> <Gold.Chemscore.Rot.Weighted>
0.0000

> <Gold.Chemscore.Internal.Correction.Weighted>
   9.000000E+99

> <Gold.Protein.RotatedTorsions>
[ 6907 6896 6895 6894 ] final   36.65 input  -60.11 | X-H torsion
[ 7974 7965 7964 7962 ] final  -91.97 input  175.53 | X-H torsion
[ 8008 7997 7996 7995 ] final  179.40 input   59.86 | X-H torsion
[ 10167 10162 10161 10158 ] final  141.44 input  -65.29 | X-H torsion
[ 10718 10713 10712 10709 ] final   22.25 input   66.30 | X-H torsion
[ 10763 10752 10751 10750 ] final   60.24 input  -60.55 | X-H torsion
[ 11005 11000 10999 10996 ] final   75.51 input  -57.11 | X-H torsion

> <Gold.Protein.ActiveResidues>
 VAL166  LYS551  ARG553  GLY616  TRP617  ASP618  TYR619  PRO620  LYS621  CYS622 
 ASP623  PHE694  ASN695  SER759  ASP760  ASP761  ALA762  ILE779  LEU786  VAL792 
 PHE793  MET794  SER795  GLU796  ALA797  LYS798  CYS799  TRP800  GLU811  SER814 

> <Gold.Protein.RotatedAtoms>
  152.1326  134.9124  160.0557 H   0  0  0  0  0  0  0  0  0  0  0  0  # atno 6907 bound_to 6896
  152.0222  133.3898  159.4271 H   0  0  0  0  0  0  0  0  0  0  0  0  # atno 6908 bound_to 6896
  150.6857  134.3534  159.4963 H   0  0  0  0  0  0  0  0  0  0  0  0  # atno 6909 bound_to 6896
  145.4061  140.9541  143.2260 H   0  0  0  0  0  0  0  0  0  0  0  0  # atno 7974 bound_to 7965
  156.0438  140.1309  157.0127 H   0  0  0  0  0  0  0  0  0  0  0  0  # atno 8008 bound_to 7997
  154.4403  140.1025  156.6346 H   0  0  0  0  0  0  0  0  0  0  0  0  # atno 8009 bound_to 7997
  155.5627  140.3465  155.4497 H   0  0  0  0  0  0  0  0  0  0  0  0  # atno 8010 bound_to 7997
  139.5020  144.6171  151.6138 H   0  0  0  0  0  0  0  0  0  0  0  0  # atno 10167 bound_to 10162
  157.1498  130.6669  149.6008 H   0  0  0  0  0  0  0  0  0  0  0  0  # atno 10718 bound_to 10713
  152.9916  135.5543  154.5842 H   0  0  0  0  0  0  0  0  0  0  0  0  # atno 10763 bound_to 10752
  154.5217  135.2808  155.1259 H   0  0  0  0  0  0  0  0  0  0  0  0  # atno 10764 bound_to 10752
  154.2610  135.6381  153.5327 H   0  0  0  0  0  0  0  0  0  0  0  0  # atno 10765 bound_to 10752
  139.9340  134.7523  156.1280 H   0  0  0  0  0  0  0  0  0  0  0  0  # atno 11005 bound_to 11000
  144.8341  139.5580  143.6930 LP  0  0  0  0  0  0  0  0  0  0  0  0  # atno 17320 bound_to 7965
  146.2728  139.6677  142.9284 LP  0  0  0  0  0  0  0  0  0  0  0  0  # atno 17321 bound_to 7965
  140.5863  143.9859  150.6297 LP  0  0  0  0  0  0  0  0  0  0  0  0  # atno 17342 bound_to 10162
  140.3024  143.3251  152.0958 LP  0  0  0  0  0  0  0  0  0  0  0  0  # atno 17343 bound_to 10162
  155.9773  130.4748  150.6582 LP  0  0  0  0  0  0  0  0  0  0  0  0  # atno 17370 bound_to 10713
  157.4231  131.0839  151.1112 LP  0  0  0  0  0  0  0  0  0  0  0  0  # atno 17371 bound_to 10713
  141.0945  133.6701  156.2614 LP  0  0  0  0  0  0  0  0  0  0  0  0  # atno 17394 bound_to 11000
  140.6124  134.5445  157.5535 LP  0  0  0  0  0  0  0  0  0  0  0  0  # atno 17395 bound_to 11000

$$$$
