AV-unprocessed.smi:1776|AV-procd|sdf|7173|dock8
  -GOLD-   22720 8413D 1   1.00000     0.00000
 Structure written by MMmdl.
 31 32  0  0  0  0  0  0  0  0  1 V2000
  149.9903  142.3173  158.9348 O   0  0  0  0  0  0  0  0  0  0  0  0
  151.1774  142.0686  158.7252 C   0  0  0  0  0  0  0  0  0  0  0  0
  151.6546  141.4192  157.6438 N   0  0  0  0  0  0  0  0  0  0  0  0
  150.9782  140.8769  156.5368 C   0  0  0  0  0  0  0  0  0  0  0  0
  149.6976  141.1610  156.1799 C   0  0  0  0  0  0  0  0  0  0  0  0
  149.0652  140.5512  155.0219 C   0  0  0  0  0  0  0  0  0  0  0  0
  147.6570  140.9340  154.5933 C   0  0  0  0  0  0  0  0  0  0  0  0
  147.2320  140.1732  153.5836 F   0  0  0  0  0  0  0  0  0  0  0  0
  146.8155  140.7779  155.6143 F   0  0  0  0  0  0  0  0  0  0  0  0
  147.6067  142.2089  154.2066 F   0  0  0  0  0  0  0  0  0  0  0  0
  149.8184  139.6949  154.3075 C   0  0  0  0  0  0  0  0  0  0  0  0
  151.1291  139.3850  154.6756 N   0  0  0  0  0  0  0  0  0  0  0  0
  151.7643  139.9166  155.7439 C   0  0  0  0  0  0  0  0  0  0  0  0
  152.9232  139.5916  156.0006 O   0  0  0  0  0  0  0  0  0  0  0  0
  152.2414  142.4990  159.7462 C   0  0  2  0  0  0  0  0  0  0  0  0
  153.1199  141.3274  160.2444 C   0  0  0  0  0  0  0  0  0  0  0  0
  154.0445  141.8105  161.2107 O   0  0  0  0  0  0  0  0  0  0  0  0
  153.3760  142.3850  162.3251 C   0  0  0  0  0  0  0  0  0  0  0  0
  152.5113  143.5580  161.8356 C   0  0  0  0  0  0  0  0  0  0  0  0
  151.5844  143.0791  160.8705 O   0  0  0  0  0  0  0  0  0  0  0  0
  151.6241  138.7227  154.0957 H   0  0  0  0  0  0  0  0  0  0  0  0
  152.6592  141.3191  157.6046 H   0  0  0  0  0  0  0  0  0  0  0  0
  149.0928  141.8434  156.7523 H   0  0  0  0  0  0  0  0  0  0  0  0
  149.4856  139.1918  153.4116 H   0  0  0  0  0  0  0  0  0  0  0  0
  152.8708  143.2522  159.2687 H   0  0  0  0  0  0  0  0  0  0  0  0
  152.5115  140.5312  160.6775 H   0  0  0  0  0  0  0  0  0  0  0  0
  153.6835  140.8900  159.4195 H   0  0  0  0  0  0  0  0  0  0  0  0
  152.7654  141.6338  162.8287 H   0  0  0  0  0  0  0  0  0  0  0  0
  154.1164  142.7336  163.0451 H   0  0  0  0  0  0  0  0  0  0  0  0
  151.9621  143.9972  162.6685 H   0  0  0  0  0  0  0  0  0  0  0  0
  153.1307  144.3468  161.4058 H   0  0  0  0  0  0  0  0  0  0  0  0
  1  2  2  0  0  0  0
  2  3  1  0  0  0  0
  2 15  1  0  0  0  0
  3  4  1  0  0  0  0
  3 22  1  0  0  0  0
  4 13  1  0  0  0  0
  4  5  2  0  0  0  0
  5  6  1  0  0  0  0
  5 23  1  0  0  0  0
  6  7  1  0  0  0  0
  6 11  2  0  0  0  0
  7  8  1  0  0  0  0
  7  9  1  0  0  0  0
  7 10  1  0  0  0  0
 11 12  1  0  0  0  0
 11 24  1  0  0  0  0
 12 21  1  0  0  0  0
 12 13  1  0  0  0  0
 13 14  2  0  0  0  0
 15 20  1  0  0  0  0
 15 16  1  0  0  0  0
 15 25  1  0  0  0  0
 16 17  1  0  0  0  0
 16 26  1  0  0  0  0
 16 27  1  0  0  0  0
 17 18  1  0  0  0  0
 18 19  1  0  0  0  0
 18 28  1  0  0  0  0
 18 29  1  0  0  0  0
 19 20  1  0  0  0  0
 19 30  1  0  0  0  0
 19 31  1  0  0  0  0
M  END
> <s_m_source_file>
AV-unprocessed.smi

> <i_m_source_file_index>
1776

> <i_lp_mmshare_version>
43012

> <i_f3d_flags>
0

> <s_epik_input>
TzFbQ0gyXVtDSDJdT1tDSDJdW0NASF0xQyg9TylbTkhdYzJbY0hdYyhDKEYpKEYpRilbY0hdW25IXWMyPU8=

> <s_epik_cmdline>
J2VwaWtfcHl0aG9uJywgJy1waCcsICc3LjAnLCAnLXRuJywgJzgnLCAnLW1hJywgJzIwMCcsICctbWV0YWxfYmluZGluZycsICctaW1hZScsICc8aW5maWxlLm1hZT4nLCAnLW9tYWUnLCAnPG91dGZpbGUubWFlPic=

> <r_lp_tautomer_probability>
0.999

> <r_epik_Ionization_Penalty>
0.0100875

> <r_epik_Ionization_Penalty_Charging>
0.0100873

> <r_epik_Ionization_Penalty_Neutral>
1.79075e-07

> <r_epik_State_Penalty>
0.00769562

> <r_epik_Charging_Adjusted_Penalty>
0.017783

> <i_epik_Tot_Q>
0

> <i_epik_Tot_abs_Q>
0

> <r_epik_Metal_State_Penalty>
0.325451

> <b_epik_Metal_Only>
0

> <s_lp_Force_Field>
OPLS_2005

> <r_lp_Energy>
23.697

> <b_lp_Chiralities_Consistent>
1

> <s_lp_Variant>
AV-unprocessed.smi:1776-1

> <Gold.Version>
5.8.1

> <Gold.Id.Protein>
6NUR|6NUR_protein|mol2

> <Gold.PLP.Fitness>
45.7708

> <Gold.PLP.PLP>
-41.2411

> <Gold.PLP.part.hbond>
-3.1913

> <Gold.PLP.part.metal>
0.0000

> <Gold.PLP.part.buried>
-4.0937

> <Gold.PLP.part.nonpolar>
-33.5812

> <Gold.PLP.part.repulsive>
1.2175

> <Gold.PLP.ligand.clash>
0.7945

> <Gold.PLP.ligand.torsion>
0.2523

> <Gold.PLP.Chemscore.Hbond>
1.0000

> <Gold.PLP.Chemscore.CHOScore>
0.9337

> <Gold.PLP.Chemscore.Metal>
0.0000

> <Gold.Chemscore.Hbonds>
donor molecule, donor type, donor heavy atom, donor atom, acceptor molecule, acceptor atom, score
      P1  H  7997  8009       L1    14  1.00
      L1  C    11    24       P1  7957  0.94

> <Gold.PLP.Chemscore.Internal.Correction>
0.0277

> <Gold.Rescore>
     Score         DG    S(hbond)    S(metal)    S(lipo)     H(rot)  DE(clash)    DE(int)     intcor
     13.79     -14.95       1.00        0.00      74.33       1.00       0.02       1.14       ----

> <Gold.Chemscore.Fitness>
13.7908

> <Gold.Chemscore.DG>
-14.9508

> <Gold.Chemscore.ZeroCoef>
-5.4800

> <Gold.Chemscore.Hbond>
0.9983

> <Gold.Chemscore.Metal>
0.0000

> <Gold.Chemscore.Lipo>
74.3300

> <Gold.Chemscore.Internal_Hbond>
0.0000

> <Gold.Chemscore.DEClash>
0.0234

> <Gold.Chemscore.DEInternal>
1.1366

> <Gold.Chemscore.Rot>
1.0000

> <Gold.Chemscore.Internal.Correction>
   9.000000E+99

> <Gold.Chemscore.Hbonds>
donor molecule, donor type, donor heavy atom, donor atom, acceptor molecule, acceptor atom, score
      P1  H  6933  6945       L1    20  0.01
      P1  H  7997  8009       L1    14  0.93

> <Gold.Chemscore.Hbond.Weighted>
-3.3342

> <Gold.Chemscore.Metal.Weighted>
-0.0000

> <Gold.Chemscore.Lipo.Weighted>
-8.6966

> <Gold.Chemscore.Internal_Hbond.Weighted>
0.0000

> <Gold.Chemscore.DEClash.Weighted>
0.0234

> <Gold.Chemscore.DEInternal.Weighted>
1.1366

> <Gold.Chemscore.Rot.Weighted>
2.5600

> <Gold.Chemscore.Internal.Correction.Weighted>
   9.000000E+99

> <Gold.Protein.RotatedTorsions>
[ 6907 6896 6895 6894 ] final -151.41 input  -60.11 | X-H torsion
[ 7974 7965 7964 7962 ] final  -16.60 input  175.53 | X-H torsion
[ 8008 7997 7996 7995 ] final -154.94 input   59.86 | X-H torsion
[ 10167 10162 10161 10158 ] final -166.24 input  -65.29 | X-H torsion
[ 10718 10713 10712 10709 ] final -145.72 input   66.30 | X-H torsion
[ 10763 10752 10751 10750 ] final  -51.76 input  -60.55 | X-H torsion
[ 11005 11000 10999 10996 ] final -133.74 input  -57.11 | X-H torsion

> <Gold.Protein.ActiveResidues>
 VAL166  LYS551  ARG553  GLY616  TRP617  ASP618  TYR619  PRO620  LYS621  CYS622 
 ASP623  PHE694  ASN695  SER759  ASP760  ASP761  ALA762  ILE779  LEU786  VAL792 
 PHE793  MET794  SER795  GLU796  ALA797  LYS798  CYS799  TRP800  GLU811  SER814 

> <Gold.Protein.RotatedAtoms>
  151.2126  133.4547  159.2598 H   0  0  0  0  0  0  0  0  0  0  0  0  # atno 6907 bound_to 6896
  151.0961  134.9945  159.8436 H   0  0  0  0  0  0  0  0  0  0  0  0  # atno 6908 bound_to 6896
  152.5439  134.2056  159.8782 H   0  0  0  0  0  0  0  0  0  0  0  0  # atno 6909 bound_to 6896
  146.1980  140.3660  142.8433 H   0  0  0  0  0  0  0  0  0  0  0  0  # atno 7974 bound_to 7965
  155.6942  140.0759  157.2436 H   0  0  0  0  0  0  0  0  0  0  0  0  # atno 8008 bound_to 7997
  154.4083  140.1659  156.2172 H   0  0  0  0  0  0  0  0  0  0  0  0  # atno 8009 bound_to 7997
  155.9425  140.3383  155.6342 H   0  0  0  0  0  0  0  0  0  0  0  0  # atno 8010 bound_to 7997
  139.6128  144.0780  152.1858 H   0  0  0  0  0  0  0  0  0  0  0  0  # atno 10167 bound_to 10162
  156.3860  130.7861  151.2058 H   0  0  0  0  0  0  0  0  0  0  0  0  # atno 10718 bound_to 10713
  154.1318  135.6519  153.4923 H   0  0  0  0  0  0  0  0  0  0  0  0  # atno 10763 bound_to 10752
  153.0193  135.5294  154.6993 H   0  0  0  0  0  0  0  0  0  0  0  0  # atno 10764 bound_to 10752
  154.6230  135.2967  155.0275 H   0  0  0  0  0  0  0  0  0  0  0  0  # atno 10765 bound_to 10752
  140.9053  134.1638  157.4430 H   0  0  0  0  0  0  0  0  0  0  0  0  # atno 11005 bound_to 11000
  144.8621  140.7154  143.6101 LP  0  0  0  0  0  0  0  0  0  0  0  0  # atno 17320 bound_to 7965
  145.3580  139.1689  143.4399 LP  0  0  0  0  0  0  0  0  0  0  0  0  # atno 17321 bound_to 7965
  140.0403  144.6012  150.7416 LP  0  0  0  0  0  0  0  0  0  0  0  0  # atno 17342 bound_to 10162
  140.7330  143.2713  151.3881 LP  0  0  0  0  0  0  0  0  0  0  0  0  # atno 17343 bound_to 10162
  157.7496  131.0330  150.4251 LP  0  0  0  0  0  0  0  0  0  0  0  0  # atno 17370 bound_to 10713
  156.4504  130.4010  149.6640 LP  0  0  0  0  0  0  0  0  0  0  0  0  # atno 17371 bound_to 10713
  139.8748  134.9914  156.5549 LP  0  0  0  0  0  0  0  0  0  0  0  0  # atno 17394 bound_to 11000
  140.8178  133.8377  155.8868 LP  0  0  0  0  0  0  0  0  0  0  0  0  # atno 17395 bound_to 11000

$$$$
