AV-unprocessed.smi:517|AV-procd|sdf|2790|dock1
  -GOLD-   2262023263D 1   1.00000     0.00000
 Structure written by MMmdl.
 36 37  0  0  0  0  0  0  0  0  2 V2000
  153.1689  136.9153  158.2183 C   0  0  0  0  0  0  0  0  0  0  0  0
  153.1850  138.4057  158.5650 C   0  0  0  0  0  0  0  0  0  0  0  0
  153.4414  139.1427  157.3829 O   0  0  0  0  0  0  0  0  0  0  0  0
  152.4799  138.9122  156.3657 C   0  0  0  0  0  0  0  0  0  0  0  0
  151.1009  139.3730  156.8585 C   0  0  0  0  0  0  0  0  0  0  0  0
  150.9615  140.8358  156.8175 N   0  0  0  0  0  0  0  0  0  0  0  0
  150.2823  141.6371  155.9456 C   0  0  0  0  0  0  0  0  0  0  0  0
  149.4909  141.2049  154.7498 C   0  0  2  0  0  0  0  0  0  0  0  0
  148.1353  140.6248  155.1728 C   0  0  0  0  0  0  0  0  0  0  0  0
  150.1782  140.2422  153.9783 O   0  0  0  0  0  0  0  0  0  0  0  0
  150.4715  142.9246  156.3547 N   0  3  0  0  0  0  0  0  0  0  0  0
  151.2647  142.9464  157.5020 C   0  0  0  0  0  0  0  0  0  0  0  0
  151.7185  144.0094  158.2771 C   0  0  0  0  0  0  0  0  0  0  0  0
  152.5148  143.6830  159.3945 C   0  0  0  0  0  0  0  0  0  0  0  0
  152.8289  142.3442  159.7064 C   0  0  0  0  0  0  0  0  0  0  0  0
  152.3626  141.2750  158.9132 C   0  0  0  0  0  0  0  0  0  0  0  0
  151.5797  141.6069  157.8077 C   0  0  0  0  0  0  0  0  0  0  0  0
  152.9740  136.3108  159.1044 H   0  0  0  0  0  0  0  0  0  0  0  0
  154.1262  136.6004  157.8022 H   0  0  0  0  0  0  0  0  0  0  0  0
  152.3943  136.6932  157.4840 H   0  0  0  0  0  0  0  0  0  0  0  0
  152.2249  138.6991  158.9920 H   0  0  0  0  0  0  0  0  0  0  0  0
  153.9556  138.6081  159.3102 H   0  0  0  0  0  0  0  0  0  0  0  0
  152.7557  139.4579  155.4621 H   0  0  0  0  0  0  0  0  0  0  0  0
  152.4480  137.8520  156.1107 H   0  0  0  0  0  0  0  0  0  0  0  0
  150.3014  138.9204  156.2713 H   0  0  0  0  0  0  0  0  0  0  0  0
  150.9426  139.0509  157.8880 H   0  0  0  0  0  0  0  0  0  0  0  0
  149.3214  142.0668  154.1049 H   0  0  0  0  0  0  0  0  0  0  0  0
  147.5544  141.3582  155.7331 H   0  0  0  0  0  0  0  0  0  0  0  0
  148.2569  139.7439  155.8043 H   0  0  0  0  0  0  0  0  0  0  0  0
  147.5446  140.3326  154.3038 H   0  0  0  0  0  0  0  0  0  0  0  0
  149.7031  140.1104  153.1718 H   0  0  0  0  0  0  0  0  0  0  0  0
  151.4770  145.0356  158.0413 H   0  0  0  0  0  0  0  0  0  0  0  0
  152.8912  144.4749  160.0258 H   0  0  0  0  0  0  0  0  0  0  0  0
  153.4400  142.1325  160.5719 H   0  0  0  0  0  0  0  0  0  0  0  0
  152.6073  140.2532  159.1624 H   0  0  0  0  0  0  0  0  0  0  0  0
  150.0779  143.7269  155.8798 H   0  0  0  0  0  0  0  0  0  0  0  0
  1  2  1  0  0  0  0
  1 18  1  0  0  0  0
  1 19  1  0  0  0  0
  1 20  1  0  0  0  0
  2  3  1  0  0  0  0
  2 21  1  0  0  0  0
  2 22  1  0  0  0  0
  3  4  1  0  0  0  0
  4  5  1  0  0  0  0
  4 23  1  0  0  0  0
  4 24  1  0  0  0  0
  5  6  1  0  0  0  0
  5 25  1  0  0  0  0
  5 26  1  0  0  0  0
  6 17  1  0  0  0  0
  6  7  1  0  0  0  0
  7  8  1  0  0  0  0
  7 11  2  0  0  0  0
  8  9  1  0  0  0  0
  8 10  1  0  0  0  0
  8 27  1  0  0  0  0
  9 28  1  0  0  0  0
  9 29  1  0  0  0  0
  9 30  1  0  0  0  0
 10 31  1  0  0  0  0
 11 12  1  0  0  0  0
 11 36  1  0  0  0  0
 12 17  2  0  0  0  0
 12 13  1  0  0  0  0
 13 14  2  0  0  0  0
 13 32  1  0  0  0  0
 14 15  1  0  0  0  0
 14 33  1  0  0  0  0
 15 16  2  0  0  0  0
 15 34  1  0  0  0  0
 16 17  1  0  0  0  0
 16 35  1  0  0  0  0
M  CHG  1  11   1
M  END
> <s_m_source_file>
AV-unprocessed.smi

> <i_m_source_file_index>
517

> <i_lp_mmshare_version>
43012

> <i_f3d_flags>
0

> <s_epik_input>
W0NIM11bQ0gyXU9bQ0gyXVtDSDJdbihjKG4xKVtDQEhdKFtDSDNdKVtPSF0pYyhjMTIpW2NIXVtjSF1bY0hdW2NIXTI=

> <s_epik_cmdline>
J2VwaWtfcHl0aG9uJywgJy1waCcsICc3LjAnLCAnLXRuJywgJzgnLCAnLW1hJywgJzIwMCcsICctbWV0YWxfYmluZGluZycsICctaW1hZScsICc8aW5maWxlLm1hZT4nLCAnLW9tYWUnLCAnPG91dGZpbGUubWFlPic=

> <r_epik_Ionization_Penalty>
1.46962

> <r_epik_Ionization_Penalty_Charging>
1.46959

> <r_epik_Ionization_Penalty_Neutral>
2.92192e-05

> <r_epik_State_Penalty>
1.55729

> <r_epik_Charging_Adjusted_Penalty>
3.02688

> <i_epik_Tot_Q>
1

> <i_epik_Tot_abs_Q>
1

> <r_epik_Metal_State_Penalty>
5.60569

> <b_epik_Metal_Only>
0

> <s_lp_Force_Field>
OPLS_2005

> <r_lp_Energy>
10.0589

> <b_lp_Chiralities_Consistent>
1

> <s_lp_Variant>
AV-unprocessed.smi:517-3

> <Gold.Version>
5.8.1

> <Gold.Id.Protein>
6NUR|6NUR_protein|mol2

> <Gold.PLP.Fitness>
49.9176

> <Gold.PLP.PLP>
-36.5646

> <Gold.PLP.part.hbond>
-3.8668

> <Gold.PLP.part.metal>
0.0000

> <Gold.PLP.part.buried>
-4.7999

> <Gold.PLP.part.nonpolar>
-28.9458

> <Gold.PLP.part.repulsive>
0.0973

> <Gold.PLP.ligand.clash>
0.0000

> <Gold.PLP.ligand.torsion>
0.6568

> <Gold.PLP.Chemscore.Hbond>
4.8640

> <Gold.PLP.Chemscore.CHOScore>
0.0000

> <Gold.PLP.Chemscore.Metal>
0.0000

> <Gold.Chemscore.Hbonds>
donor molecule, donor type, donor heavy atom, donor atom, acceptor molecule, acceptor atom, score
      L1  H    10    31       P1  7957  1.00
      L1  H    11    36       P1  8028  2.00
      P1  H  7989  7998       L1    10  0.88
      P1  H  7997  8009       L1     3  0.86

> <Gold.PLP.Chemscore.Internal.Correction>
0.0745

> <Gold.Rescore>
     Score         DG    S(hbond)    S(metal)    S(lipo)     H(rot)  DE(clash)    DE(int)     intcor
     20.03     -21.69       3.37        0.00      90.00       2.18       0.03       1.63       ----

> <Gold.Chemscore.Fitness>
20.0293

> <Gold.Chemscore.DG>
-21.6859

> <Gold.Chemscore.ZeroCoef>
-5.4800

> <Gold.Chemscore.Hbond>
3.3702

> <Gold.Chemscore.Metal>
0.0000

> <Gold.Chemscore.Lipo>
89.9958

> <Gold.Chemscore.Internal_Hbond>
0.0000

> <Gold.Chemscore.DEClash>
0.0255

> <Gold.Chemscore.DEInternal>
1.6311

> <Gold.Chemscore.Rot>
2.1797

> <Gold.Chemscore.Internal.Correction>
   9.000000E+99

> <Gold.Chemscore.Hbonds>
donor molecule, donor type, donor heavy atom, donor atom, acceptor molecule, acceptor atom, score
      L1  H    10    31       P1  7957  0.91
      L1  H    11    36       P1  8028  0.92
      P1  H  7989  7998       L1    10  0.24
      P1  H  7997  8009       L1     3  0.72

> <Gold.Chemscore.Hbond.Weighted>
-11.2565

> <Gold.Chemscore.Metal.Weighted>
-0.0000

> <Gold.Chemscore.Lipo.Weighted>
-10.5295

> <Gold.Chemscore.Internal_Hbond.Weighted>
0.0000

> <Gold.Chemscore.DEClash.Weighted>
0.0255

> <Gold.Chemscore.DEInternal.Weighted>
1.6311

> <Gold.Chemscore.Rot.Weighted>
5.5801

> <Gold.Chemscore.Internal.Correction.Weighted>
   9.000000E+99

> <Gold.Protein.RotatedTorsions>
[ 6907 6896 6895 6894 ] final  -83.42 input  -60.11 | X-H torsion
[ 7974 7965 7964 7962 ] final -129.73 input  175.53 | X-H torsion
[ 8008 7997 7996 7995 ] final  158.71 input   59.86 | X-H torsion
[ 10167 10162 10161 10158 ] final -161.96 input  -65.29 | X-H torsion
[ 10718 10713 10712 10709 ] final  -27.46 input   66.30 | X-H torsion
[ 10763 10752 10751 10750 ] final  152.34 input  -60.55 | X-H torsion
[ 11005 11000 10999 10996 ] final   11.59 input  -57.11 | X-H torsion

> <Gold.Protein.ActiveResidues>
 VAL166  LYS551  ARG553  GLY616  TRP617  ASP618  TYR619  PRO620  LYS621  CYS622 
 ASP623  PHE694  ASN695  SER759  ASP760  ASP761  ALA762  ILE779  LEU786  VAL792 
 PHE793  MET794  SER795  GLU796  ALA797  LYS798  CYS799  TRP800  GLU811  SER814 

> <Gold.Protein.RotatedAtoms>
  150.6886  134.3515  159.4910 H   0  0  0  0  0  0  0  0  0  0  0  0  # atno 6907 bound_to 6896
  152.1356  134.9099  160.0566 H   0  0  0  0  0  0  0  0  0  0  0  0  # atno 6908 bound_to 6896
  152.0252  133.3880  159.4311 H   0  0  0  0  0  0  0  0  0  0  0  0  # atno 6909 bound_to 6896
  144.9543  140.7378  143.4768 H   0  0  0  0  0  0  0  0  0  0  0  0  # atno 7974 bound_to 7965
  156.2285  140.1851  156.7302 H   0  0  0  0  0  0  0  0  0  0  0  0  # atno 8008 bound_to 7997
  154.5982  140.0640  156.9360 H   0  0  0  0  0  0  0  0  0  0  0  0  # atno 8009 bound_to 7997
  155.2219  140.3308  155.4317 H   0  0  0  0  0  0  0  0  0  0  0  0  # atno 8010 bound_to 7997
  139.6427  144.0229  152.2104 H   0  0  0  0  0  0  0  0  0  0  0  0  # atno 10167 bound_to 10162
  156.4379  130.4458  149.7072 H   0  0  0  0  0  0  0  0  0  0  0  0  # atno 10718 bound_to 10713
  154.1185  135.2834  155.3214 H   0  0  0  0  0  0  0  0  0  0  0  0  # atno 10763 bound_to 10752
  154.6440  135.5392  153.7826 H   0  0  0  0  0  0  0  0  0  0  0  0  # atno 10764 bound_to 10752
  153.0321  135.6493  154.1340 H   0  0  0  0  0  0  0  0  0  0  0  0  # atno 10765 bound_to 10752
  140.5015  134.0741  155.7795 H   0  0  0  0  0  0  0  0  0  0  0  0  # atno 11005 bound_to 11000
  145.2796  139.1923  143.4798 LP  0  0  0  0  0  0  0  0  0  0  0  0  # atno 17320 bound_to 7965
  146.3332  140.2756  142.8608 LP  0  0  0  0  0  0  0  0  0  0  0  0  # atno 17321 bound_to 7965
  139.9923  144.6352  150.7803 LP  0  0  0  0  0  0  0  0  0  0  0  0  # atno 17342 bound_to 10162
  140.7499  143.2946  151.3238 LP  0  0  0  0  0  0  0  0  0  0  0  0  # atno 17343 bound_to 10162
  156.3949  130.7645  151.2649 LP  0  0  0  0  0  0  0  0  0  0  0  0  # atno 17370 bound_to 10713
  157.7507  131.0257  150.3930 LP  0  0  0  0  0  0  0  0  0  0  0  0  # atno 17371 bound_to 10713
  141.1433  133.9100  157.2275 LP  0  0  0  0  0  0  0  0  0  0  0  0  # atno 17394 bound_to 11000
  139.9711  135.0128  156.9513 LP  0  0  0  0  0  0  0  0  0  0  0  0  # atno 17395 bound_to 11000

$$$$
