AV-unprocessed.smi:467|AV-procd|sdf|2646|dock8
  -GOLD-   2262023 53D 1   1.00000     0.00000
 Structure written by MMmdl.
 45 47  0  0  0  0  0  0  0  0  2 V2000
  152.9379  141.3841  159.3134 C   0  0  0  0  0  0  0  0  0  0  0  0
  151.9763  141.3088  158.1404 C   0  0  0  0  0  0  0  0  0  0  0  0
  152.0411  140.1983  157.2691 C   0  0  0  0  0  0  0  0  0  0  0  0
  151.1670  140.0920  156.1652 C   0  0  0  0  0  0  0  0  0  0  0  0
  151.0587  139.1089  155.1965 N   0  0  0  0  0  0  0  0  0  0  0  0
  150.0676  139.5802  154.4460 C   0  0  0  0  0  0  0  0  0  0  0  0
  149.5163  140.7519  154.8163 N   0  0  0  0  0  0  0  0  0  0  0  0
  148.4303  141.4535  154.1545 C   0  0  0  0  0  0  0  0  0  0  0  0
  147.0550  140.8208  154.4409 C   0  0  1  0  0  0  0  0  0  0  0  0
  146.0477  141.5606  153.7759 O   0  0  0  0  0  0  0  0  0  0  0  0
  146.9895  139.3562  153.9652 C   0  0  0  0  0  0  0  0  0  0  0  0
  145.5968  138.8453  153.8906 N   0  3  0  0  0  0  0  0  0  0  0  0
  145.4895  137.6010  153.0923 C   0  0  0  0  0  0  0  0  0  0  0  0
  144.0229  137.1478  152.9962 C   0  0  0  0  0  0  0  0  0  0  0  0
  143.4918  136.9702  154.3033 O   0  0  0  0  0  0  0  0  0  0  0  0
  143.5066  138.1791  155.0520 C   0  0  0  0  0  0  0  0  0  0  0  0
  144.9565  138.6656  155.2176 C   0  0  0  0  0  0  0  0  0  0  0  0
  150.2169  141.1344  155.9559 C   0  0  0  0  0  0  0  0  0  0  0  0
  150.1407  142.2426  156.8183 C   0  0  0  0  0  0  0  0  0  0  0  0
  151.0232  142.3341  157.9151 C   0  0  0  0  0  0  0  0  0  0  0  0
  150.9362  143.5369  158.8381 C   0  0  0  0  0  0  0  0  0  0  0  0
  153.6330  140.5440  159.3133 H   0  0  0  0  0  0  0  0  0  0  0  0
  152.3909  141.3665  160.2564 H   0  0  0  0  0  0  0  0  0  0  0  0
  153.5246  142.3020  159.2697 H   0  0  0  0  0  0  0  0  0  0  0  0
  152.7665  139.4166  157.4409 H   0  0  0  0  0  0  0  0  0  0  0  0
  149.7200  139.0415  153.5765 H   0  0  0  0  0  0  0  0  0  0  0  0
  148.4439  142.4978  154.4686 H   0  0  0  0  0  0  0  0  0  0  0  0
  148.6293  141.4506  153.0818 H   0  0  0  0  0  0  0  0  0  0  0  0
  146.8651  140.8793  155.5123 H   0  0  0  0  0  0  0  0  0  0  0  0
  145.4043  140.9586  153.4333 H   0  0  0  0  0  0  0  0  0  0  0  0
  147.4614  139.2891  152.9835 H   0  0  0  0  0  0  0  0  0  0  0  0
  147.5727  138.7109  154.6242 H   0  0  0  0  0  0  0  0  0  0  0  0
  145.8861  137.7681  152.0899 H   0  0  0  0  0  0  0  0  0  0  0  0
  146.0945  136.8174  153.5514 H   0  0  0  0  0  0  0  0  0  0  0  0
  143.4249  137.8735  152.4425 H   0  0  0  0  0  0  0  0  0  0  0  0
  143.9567  136.2030  152.4563 H   0  0  0  0  0  0  0  0  0  0  0  0
  142.8951  138.9361  154.5583 H   0  0  0  0  0  0  0  0  0  0  0  0
  143.0580  137.9951  156.0285 H   0  0  0  0  0  0  0  0  0  0  0  0
  145.5242  137.9422  155.8051 H   0  0  0  0  0  0  0  0  0  0  0  0
  144.9603  139.6015  155.7753 H   0  0  0  0  0  0  0  0  0  0  0  0
  149.4107  143.0175  156.6372 H   0  0  0  0  0  0  0  0  0  0  0  0
  150.1364  144.2137  158.5361 H   0  0  0  0  0  0  0  0  0  0  0  0
  151.8719  144.0964  158.8231 H   0  0  0  0  0  0  0  0  0  0  0  0
  150.7376  143.2205  159.8623 H   0  0  0  0  0  0  0  0  0  0  0  0
  145.0632  139.5460  153.3952 H   0  0  0  0  0  0  0  0  0  0  0  0
  1  2  1  0  0  0  0
  1 22  1  0  0  0  0
  1 23  1  0  0  0  0
  1 24  1  0  0  0  0
  2 20  1  0  0  0  0
  2  3  2  0  0  0  0
  3  4  1  0  0  0  0
  3 25  1  0  0  0  0
  4 18  2  0  0  0  0
  4  5  1  0  0  0  0
  5  6  2  0  0  0  0
  6  7  1  0  0  0  0
  6 26  1  0  0  0  0
  7  8  1  0  0  0  0
  7 18  1  0  0  0  0
  8  9  1  0  0  0  0
  8 27  1  0  0  0  0
  8 28  1  0  0  0  0
  9 10  1  0  0  0  0
  9 11  1  0  0  0  0
  9 29  1  0  0  0  0
 10 30  1  0  0  0  0
 11 12  1  0  0  0  0
 11 31  1  0  0  0  0
 11 32  1  0  0  0  0
 12 17  1  0  0  0  0
 12 13  1  0  0  0  0
 12 45  1  0  0  0  0
 13 14  1  0  0  0  0
 13 33  1  0  0  0  0
 13 34  1  0  0  0  0
 14 15  1  0  0  0  0
 14 35  1  0  0  0  0
 14 36  1  0  0  0  0
 15 16  1  0  0  0  0
 16 17  1  0  0  0  0
 16 37  1  0  0  0  0
 16 38  1  0  0  0  0
 17 39  1  0  0  0  0
 17 40  1  0  0  0  0
 18 19  1  0  0  0  0
 19 20  2  0  0  0  0
 19 41  1  0  0  0  0
 20 21  1  0  0  0  0
 21 42  1  0  0  0  0
 21 43  1  0  0  0  0
 21 44  1  0  0  0  0
M  CHG  1  12   1
M  END
> <s_m_source_file>
AV-unprocessed.smi

> <i_m_source_file_index>
467

> <i_lp_mmshare_version>
43012

> <i_f3d_flags>
0

> <s_epik_input>
W0NIM11jKFtjSF0xKWMoW0NIM10pW2NIXWMoYzEyKW4oW2NIXW4yKVtDSDJdW0NASF0oW09IXSlbQ0gyXU4zW0NIMl1bQ0gyXU9bQ0gyXVtDSDJdMw==

> <s_epik_cmdline>
J2VwaWtfcHl0aG9uJywgJy1waCcsICc3LjAnLCAnLXRuJywgJzgnLCAnLW1hJywgJzIwMCcsICctbWV0YWxfYmluZGluZycsICctaW1hZScsICc8aW5maWxlLm1hZT4nLCAnLW9tYWUnLCAnPG91dGZpbGUubWFlPic=

> <r_epik_Ionization_Penalty>
0.695168

> <r_epik_Ionization_Penalty_Charging>
0.608065

> <r_epik_Ionization_Penalty_Neutral>
0.0871028

> <r_epik_State_Penalty>
0.731876

> <r_epik_Charging_Adjusted_Penalty>
1.33994

> <i_epik_Tot_Q>
1

> <i_epik_Tot_abs_Q>
1

> <r_epik_Metal_State_Penalty>
0.652189

> <b_epik_Metal_Only>
0

> <s_lp_Force_Field>
OPLS_2005

> <r_lp_Energy>
21.2169

> <b_lp_Chiralities_Consistent>
1

> <s_lp_Variant>
AV-unprocessed.smi:467-4

> <Gold.Version>
5.8.1

> <Gold.Id.Protein>
6NUR|6NUR_protein|mol2

> <Gold.PLP.Fitness>
44.1833

> <Gold.PLP.PLP>
-33.3831

> <Gold.PLP.part.hbond>
-2.0000

> <Gold.PLP.part.metal>
0.0000

> <Gold.PLP.part.buried>
-1.3411

> <Gold.PLP.part.nonpolar>
-29.9942

> <Gold.PLP.part.repulsive>
0.1379

> <Gold.PLP.ligand.clash>
0.0000

> <Gold.PLP.ligand.torsion>
0.4241

> <Gold.PLP.Chemscore.Hbond>
2.9750

> <Gold.PLP.Chemscore.CHOScore>
0.8963

> <Gold.PLP.Chemscore.Metal>
0.0000

> <Gold.Chemscore.Hbonds>
donor molecule, donor type, donor heavy atom, donor atom, acceptor molecule, acceptor atom, score
      L1  H    10    30       P1 10175  1.00
      L1  H    12    45       P1 10175  2.00
      L1  C     6    26       P1  7957  0.72

> <Gold.PLP.Chemscore.Internal.Correction>
0.0346

> <Gold.Rescore>
     Score         DG    S(hbond)    S(metal)    S(lipo)     H(rot)  DE(clash)    DE(int)     intcor
     15.40     -16.19       1.63        0.00      90.90       2.10       0.30       0.49       ----

> <Gold.Chemscore.Fitness>
15.3957

> <Gold.Chemscore.DG>
-16.1874

> <Gold.Chemscore.ZeroCoef>
-5.4800

> <Gold.Chemscore.Hbond>
1.6320

> <Gold.Chemscore.Metal>
0.0000

> <Gold.Chemscore.Lipo>
90.9016

> <Gold.Chemscore.Internal_Hbond>
0.0000

> <Gold.Chemscore.DEClash>
0.2987

> <Gold.Chemscore.DEInternal>
0.4930

> <Gold.Chemscore.Rot>
2.1011

> <Gold.Chemscore.Internal.Correction>
   9.000000E+99

> <Gold.Chemscore.Hbonds>
donor molecule, donor type, donor heavy atom, donor atom, acceptor molecule, acceptor atom, score
      L1  H    10    30       P1 10175  0.60
      L1  H    12    45       P1 10175  1.00

> <Gold.Chemscore.Hbond.Weighted>
-5.4508

> <Gold.Chemscore.Metal.Weighted>
-0.0000

> <Gold.Chemscore.Lipo.Weighted>
-10.6355

> <Gold.Chemscore.Internal_Hbond.Weighted>
0.0000

> <Gold.Chemscore.DEClash.Weighted>
0.2987

> <Gold.Chemscore.DEInternal.Weighted>
0.4930

> <Gold.Chemscore.Rot.Weighted>
5.3789

> <Gold.Chemscore.Internal.Correction.Weighted>
   9.000000E+99

> <Gold.Protein.RotatedTorsions>
[ 6907 6896 6895 6894 ] final -122.40 input  -60.11 | X-H torsion
[ 7974 7965 7964 7962 ] final  137.50 input  175.53 | X-H torsion
[ 8008 7997 7996 7995 ] final -167.38 input   59.86 | X-H torsion
[ 10167 10162 10161 10158 ] final -151.58 input  -65.29 | X-H torsion
[ 10718 10713 10712 10709 ] final  150.78 input   66.30 | X-H torsion
[ 10763 10752 10751 10750 ] final   75.84 input  -60.55 | X-H torsion
[ 11005 11000 10999 10996 ] final -109.79 input  -57.11 | X-H torsion

> <Gold.Protein.ActiveResidues>
 VAL166  LYS551  ARG553  GLY616  TRP617  ASP618  TYR619  PRO620  LYS621  CYS622 
 ASP623  PHE694  ASN695  SER759  ASP760  ASP761  ALA762  ILE779  LEU786  VAL792 
 PHE793  MET794  SER795  GLU796  ALA797  LYS798  CYS799  TRP800  GLU811  SER814 

> <Gold.Protein.RotatedAtoms>
  150.8572  133.7697  159.3004 H   0  0  0  0  0  0  0  0  0  0  0  0  # atno 6907 bound_to 6896
  151.5350  135.1067  159.9922 H   0  0  0  0  0  0  0  0  0  0  0  0  # atno 6908 bound_to 6896
  152.4599  133.7757  159.6879 H   0  0  0  0  0  0  0  0  0  0  0  0  # atno 6909 bound_to 6896
  144.9462  139.4872  143.5548 H   0  0  0  0  0  0  0  0  0  0  0  0  # atno 7974 bound_to 7965
  155.8769  140.1002  157.1512 H   0  0  0  0  0  0  0  0  0  0  0  0  # atno 8008 bound_to 7997
  154.4002  140.1336  156.4211 H   0  0  0  0  0  0  0  0  0  0  0  0  # atno 8009 bound_to 7997
  155.7687  140.3461  155.5238 H   0  0  0  0  0  0  0  0  0  0  0  0  # atno 8010 bound_to 7997
  139.7255  143.8890  152.2518 H   0  0  0  0  0  0  0  0  0  0  0  0  # atno 10167 bound_to 10162
  157.2791  131.0832  151.1545 H   0  0  0  0  0  0  0  0  0  0  0  0  # atno 10718 bound_to 10713
  153.0683  135.4973  154.8249 H   0  0  0  0  0  0  0  0  0  0  0  0  # atno 10763 bound_to 10752
  154.6986  135.2997  154.9377 H   0  0  0  0  0  0  0  0  0  0  0  0  # atno 10764 bound_to 10752
  154.0108  135.6754  153.4818 H   0  0  0  0  0  0  0  0  0  0  0  0  # atno 10765 bound_to 10752
  141.0828  133.9191  157.2252 H   0  0  0  0  0  0  0  0  0  0  0  0  # atno 11005 bound_to 11000
  146.3304  139.8516  142.8872 LP  0  0  0  0  0  0  0  0  0  0  0  0  # atno 17320 bound_to 7965
  145.2914  141.0168  143.3661 LP  0  0  0  0  0  0  0  0  0  0  0  0  # atno 17321 bound_to 7965
  139.8798  144.7024  150.8891 LP  0  0  0  0  0  0  0  0  0  0  0  0  # atno 17342 bound_to 10162
  140.7762  143.3670  151.1720 LP  0  0  0  0  0  0  0  0  0  0  0  0  # atno 17343 bound_to 10162
  157.2986  130.6831  149.6152 LP  0  0  0  0  0  0  0  0  0  0  0  0  # atno 17370 bound_to 10713
  155.9664  130.4399  150.5277 LP  0  0  0  0  0  0  0  0  0  0  0  0  # atno 17371 bound_to 10713
  139.9643  135.0146  156.9345 LP  0  0  0  0  0  0  0  0  0  0  0  0  # atno 17394 bound_to 11000
  140.5431  134.0700  155.7347 LP  0  0  0  0  0  0  0  0  0  0  0  0  # atno 17395 bound_to 11000

$$$$
