AV-unprocessed.smi:694|AV-procd|sdf|3380|dock9
  -GOLD-   22720 0363D 1   1.00000     0.00000
 Structure written by MMmdl.
 42 43  0  0  0  0  0  0  0  0  1 V2000
  151.2079  142.1640  156.5415 C   0  0  0  0  0  0  0  0  0  0  0  0
  151.6848  140.8576  156.9845 N   0  0  0  0  0  0  0  0  0  0  0  0
  152.5470  140.7596  158.1552 C   0  0  0  0  0  0  0  0  0  0  0  0
  151.2212  139.6863  156.3429 C   0  0  0  0  0  0  0  0  0  0  0  0
  151.2379  138.4290  156.9956 C   0  0  0  0  0  0  0  0  0  0  0  0
  150.7595  137.2942  156.3139 C   0  0  0  0  0  0  0  0  0  0  0  0
  150.2687  137.4311  155.0014 C   0  0  0  0  0  0  0  0  0  0  0  0
  149.8034  136.2612  154.3410 N   0  0  0  0  0  0  0  0  0  0  0  0
  149.7685  134.9951  154.7916 C   0  0  0  0  0  0  0  0  0  0  0  0
  150.1536  134.6184  155.8978 O   0  0  0  0  0  0  0  0  0  0  0  0
  149.2684  134.1665  153.8642 N   0  0  0  0  0  0  0  0  0  0  0  0
  149.1062  132.7255  154.0276 C   0  0  0  0  0  0  0  0  0  0  0  0
  147.7335  132.2313  153.5273 C   0  0  2  0  0  0  0  0  0  0  0  0
  147.6319  130.7046  153.3769 C   0  0  0  0  0  0  0  0  0  0  0  0
  146.6179  130.4450  152.2511 C   0  0  0  0  0  0  0  0  0  0  0  0
  146.2387  131.8182  151.6846 C   0  0  0  0  0  0  0  0  0  0  0  0
  147.3573  132.7567  152.1385 C   0  0  1  0  0  0  0  0  0  0  0  0
  146.9196  134.0993  152.1725 O   0  0  0  0  0  0  0  0  0  0  0  0
  150.3037  138.7220  154.4234 C   0  0  0  0  0  0  0  0  0  0  0  0
  150.7623  139.8120  155.0737 N   0  0  0  0  0  0  0  0  0  0  0  0
  150.1257  142.2351  156.6562 H   0  0  0  0  0  0  0  0  0  0  0  0
  151.4572  142.3287  155.4926 H   0  0  0  0  0  0  0  0  0  0  0  0
  151.6588  142.9701  157.1203 H   0  0  0  0  0  0  0  0  0  0  0  0
  153.4859  140.2682  157.8992 H   0  0  0  0  0  0  0  0  0  0  0  0
  152.0580  140.1904  158.9461 H   0  0  0  0  0  0  0  0  0  0  0  0
  152.7866  141.7449  158.5550 H   0  0  0  0  0  0  0  0  0  0  0  0
  151.6071  138.3114  158.0030 H   0  0  0  0  0  0  0  0  0  0  0  0
  150.7678  136.3294  156.7998 H   0  0  0  0  0  0  0  0  0  0  0  0
  149.5058  136.3969  153.3860 H   0  0  0  0  0  0  0  0  0  0  0  0
  148.9805  134.5595  152.9800 H   0  0  0  0  0  0  0  0  0  0  0  0
  149.9103  132.2034  153.5062 H   0  0  0  0  0  0  0  0  0  0  0  0
  149.2251  132.4915  155.0858 H   0  0  0  0  0  0  0  0  0  0  0  0
  146.9589  132.5477  154.2288 H   0  0  0  0  0  0  0  0  0  0  0  0
  148.5984  130.2855  153.0934 H   0  0  0  0  0  0  0  0  0  0  0  0
  147.3354  130.2287  154.3123 H   0  0  0  0  0  0  0  0  0  0  0  0
  147.0717  129.8250  151.4771 H   0  0  0  0  0  0  0  0  0  0  0  0
  145.7366  129.9164  152.6159 H   0  0  0  0  0  0  0  0  0  0  0  0
  146.1155  131.8071  150.6012 H   0  0  0  0  0  0  0  0  0  0  0  0
  145.2888  132.1328  152.1200 H   0  0  0  0  0  0  0  0  0  0  0  0
  148.2074  132.6688  151.4602 H   0  0  0  0  0  0  0  0  0  0  0  0
  147.6401  134.6573  151.9226 H   0  0  0  0  0  0  0  0  0  0  0  0
  149.9796  138.9098  153.4124 H   0  0  0  0  0  0  0  0  0  0  0  0
  1  2  1  0  0  0  0
  1 21  1  0  0  0  0
  1 22  1  0  0  0  0
  1 23  1  0  0  0  0
  2  3  1  0  0  0  0
  2  4  1  0  0  0  0
  3 24  1  0  0  0  0
  3 25  1  0  0  0  0
  3 26  1  0  0  0  0
  4 20  1  0  0  0  0
  4  5  2  0  0  0  0
  5  6  1  0  0  0  0
  5 27  1  0  0  0  0
  6  7  2  0  0  0  0
  6 28  1  0  0  0  0
  7  8  1  0  0  0  0
  7 19  1  0  0  0  0
  8  9  1  0  0  0  0
  8 29  1  0  0  0  0
  9 10  2  0  0  0  0
  9 11  1  0  0  0  0
 11 12  1  0  0  0  0
 11 30  1  0  0  0  0
 12 13  1  0  0  0  0
 12 31  1  0  0  0  0
 12 32  1  0  0  0  0
 13 17  1  0  0  0  0
 13 14  1  0  0  0  0
 13 33  1  0  0  0  0
 14 15  1  0  0  0  0
 14 34  1  0  0  0  0
 14 35  1  0  0  0  0
 15 16  1  0  0  0  0
 15 36  1  0  0  0  0
 15 37  1  0  0  0  0
 16 17  1  0  0  0  0
 16 38  1  0  0  0  0
 16 39  1  0  0  0  0
 17 18  1  0  0  0  0
 17 40  1  0  0  0  0
 18 41  1  0  0  0  0
 19 20  2  0  0  0  0
 19 42  1  0  0  0  0
M  END
> <s_m_source_file>
AV-unprocessed.smi

> <i_m_source_file_index>
694

> <i_lp_mmshare_version>
43012

> <i_f3d_flags>
0

> <s_epik_input>
W0NIM11OKFtDSDNdKWMxW2NIXVtjSF1jKFtjSF1uMSlbTkhdQyg9TylbTkhdW0NIMl1bQ0BASF0yW0NIMl1bQ0gyXVtDSDJdW0NASF0yW09IXQ==

> <s_epik_cmdline>
J2VwaWtfcHl0aG9uJywgJy1waCcsICc3LjAnLCAnLXRuJywgJzgnLCAnLW1hJywgJzIwMCcsICctbWV0YWxfYmluZGluZycsICctaW1hZScsICc8aW5maWxlLm1hZT4nLCAnLW9tYWUnLCAnPG91dGZpbGUubWFlPic=

> <r_lp_tautomer_probability>
1

> <r_epik_Ionization_Penalty>
0.60335

> <r_epik_Ionization_Penalty_Charging>
0

> <r_epik_Ionization_Penalty_Neutral>
0.60335

> <r_epik_State_Penalty>
0.616805

> <r_epik_Charging_Adjusted_Penalty>
0.616805

> <i_epik_Tot_Q>
0

> <i_epik_Tot_abs_Q>
0

> <r_epik_Metal_State_Penalty>
0.301709

> <b_epik_Metal_Only>
0

> <s_lp_Force_Field>
OPLS_2005

> <r_lp_Energy>
26.6001

> <b_lp_Chiralities_Consistent>
1

> <s_lp_Variant>
AV-unprocessed.smi:694-5

> <Gold.Version>
5.8.1

> <Gold.Id.Protein>
6NUR|6NUR_protein|mol2

> <Gold.PLP.Fitness>
42.8731

> <Gold.PLP.PLP>
-30.2384

> <Gold.PLP.part.hbond>
-4.1837

> <Gold.PLP.part.metal>
0.0000

> <Gold.PLP.part.buried>
-2.4448

> <Gold.PLP.part.nonpolar>
-22.8351

> <Gold.PLP.part.repulsive>
0.1299

> <Gold.PLP.ligand.clash>
0.0000

> <Gold.PLP.ligand.torsion>
0.3703

> <Gold.PLP.Chemscore.Hbond>
3.4541

> <Gold.PLP.Chemscore.CHOScore>
1.0000

> <Gold.PLP.Chemscore.Metal>
0.0000

> <Gold.Chemscore.Hbonds>
donor molecule, donor type, donor heavy atom, donor atom, acceptor molecule, acceptor atom, score
      L1  H     8    29       P1  7948  1.00
      L1  H    11    30       P1  7948  0.46
      L1  H    18    41       P1  7948  1.00
      P1  H  7989  7998       L1    20  0.86
      L1  C    19    42       P1  7957  0.99

> <Gold.PLP.Chemscore.Internal.Correction>
0.0131

> <Gold.Rescore>
     Score         DG    S(hbond)    S(metal)    S(lipo)     H(rot)  DE(clash)    DE(int)     intcor
     14.99     -18.11       2.74        0.00      67.45       1.73       0.03       3.09       ----

> <Gold.Chemscore.Fitness>
14.9917

> <Gold.Chemscore.DG>
-18.1077

> <Gold.Chemscore.ZeroCoef>
-5.4800

> <Gold.Chemscore.Hbond>
2.7409

> <Gold.Chemscore.Metal>
0.0000

> <Gold.Chemscore.Lipo>
67.4491

> <Gold.Chemscore.Internal_Hbond>
0.0000

> <Gold.Chemscore.DEClash>
0.0293

> <Gold.Chemscore.DEInternal>
3.0867

> <Gold.Chemscore.Rot>
1.7259

> <Gold.Chemscore.Internal.Correction>
   9.000000E+99

> <Gold.Chemscore.Hbonds>
donor molecule, donor type, donor heavy atom, donor atom, acceptor molecule, acceptor atom, score
      L1  H     8    29       P1  7948  0.59
      L1  H    11    30       P1  7948  0.02
      L1  H    18    41       P1  7948  0.48
      P1  H  7989  7998       L1    20  0.25

> <Gold.Chemscore.Hbond.Weighted>
-9.1546

> <Gold.Chemscore.Metal.Weighted>
-0.0000

> <Gold.Chemscore.Lipo.Weighted>
-7.8915

> <Gold.Chemscore.Internal_Hbond.Weighted>
0.0000

> <Gold.Chemscore.DEClash.Weighted>
0.0293

> <Gold.Chemscore.DEInternal.Weighted>
3.0867

> <Gold.Chemscore.Rot.Weighted>
4.4184

> <Gold.Chemscore.Internal.Correction.Weighted>
   9.000000E+99

> <Gold.Protein.RotatedTorsions>
[ 6907 6896 6895 6894 ] final   -8.08 input  -60.11 | X-H torsion
[ 7974 7965 7964 7962 ] final  104.02 input  175.53 | X-H torsion
[ 8008 7997 7996 7995 ] final   44.28 input   59.86 | X-H torsion
[ 10167 10162 10161 10158 ] final   83.63 input  -65.29 | X-H torsion
[ 10718 10713 10712 10709 ] final   74.86 input   66.30 | X-H torsion
[ 10763 10752 10751 10750 ] final  143.14 input  -60.55 | X-H torsion
[ 11005 11000 10999 10996 ] final  126.79 input  -57.11 | X-H torsion

> <Gold.Protein.ActiveResidues>
 VAL166  LYS551  ARG553  GLY616  TRP617  ASP618  TYR619  PRO620  LYS621  CYS622 
 ASP623  PHE694  ASN695  SER759  ASP760  ASP761  ALA762  ILE779  LEU786  VAL792 
 PHE793  MET794  SER795  GLU796  ALA797  LYS798  CYS799  TRP800  GLU811  SER814 

> <Gold.Protein.RotatedAtoms>
  151.4393  135.1018  159.9665 H   0  0  0  0  0  0  0  0  0  0  0  0  # atno 6907 bound_to 6896
  152.4928  133.8544  159.7228 H   0  0  0  0  0  0  0  0  0  0  0  0  # atno 6908 bound_to 6896
  150.9099  133.6952  159.2885 H   0  0  0  0  0  0  0  0  0  0  0  0  # atno 6909 bound_to 6896
  145.3382  139.2469  143.3624 H   0  0  0  0  0  0  0  0  0  0  0  0  # atno 7974 bound_to 7965
  155.3168  140.3394  155.4242 H   0  0  0  0  0  0  0  0  0  0  0  0  # atno 8008 bound_to 7997
  156.1929  140.1704  156.8094 H   0  0  0  0  0  0  0  0  0  0  0  0  # atno 8009 bound_to 7997
  154.5463  140.0714  156.8578 H   0  0  0  0  0  0  0  0  0  0  0  0  # atno 8010 bound_to 7997
  139.9164  144.6240  150.8484 H   0  0  0  0  0  0  0  0  0  0  0  0  # atno 10167 bound_to 10162
  157.6610  130.9698  150.1271 H   0  0  0  0  0  0  0  0  0  0  0  0  # atno 10718 bound_to 10713
  153.9674  135.2954  155.3429 H   0  0  0  0  0  0  0  0  0  0  0  0  # atno 10763 bound_to 10752
  154.7341  135.5054  153.9016 H   0  0  0  0  0  0  0  0  0  0  0  0  # atno 10764 bound_to 10752
  153.0917  135.6709  153.9953 H   0  0  0  0  0  0  0  0  0  0  0  0  # atno 10765 bound_to 10752
  139.9474  134.9627  156.8759 H   0  0  0  0  0  0  0  0  0  0  0  0  # atno 11005 bound_to 11000
  146.3018  140.3974  142.8701 LP  0  0  0  0  0  0  0  0  0  0  0  0  # atno 17320 bound_to 7965
  144.8811  140.7401  143.5986 LP  0  0  0  0  0  0  0  0  0  0  0  0  # atno 17321 bound_to 7965
  140.7673  143.3328  151.2373 LP  0  0  0  0  0  0  0  0  0  0  0  0  # atno 17342 bound_to 10162
  139.6899  143.9711  152.2853 LP  0  0  0  0  0  0  0  0  0  0  0  0  # atno 17343 bound_to 10162
  156.2127  130.3668  149.8650 LP  0  0  0  0  0  0  0  0  0  0  0  0  # atno 17370 bound_to 10713
  156.6524  130.8749  151.3533 LP  0  0  0  0  0  0  0  0  0  0  0  0  # atno 17371 bound_to 10713
  140.5801  134.0360  155.7461 LP  0  0  0  0  0  0  0  0  0  0  0  0  # atno 17394 bound_to 11000
  141.1128  133.9588  157.2878 LP  0  0  0  0  0  0  0  0  0  0  0  0  # atno 17395 bound_to 11000

$$$$
