AV-unprocessed.smi:2143|AV-procd|sdf|8727|dock4
  -GOLD-   2272011493D 1   1.00000     0.00000
 Structure written by MMmdl.
 44 45  0  0  0  0  0  0  0  0  1 V2000
  151.6871  145.1110  160.3989 C   0  0  0  0  0  0  0  0  0  0  0  0
  152.4523  143.8513  159.9524 C   0  0  1  0  0  0  0  0  0  0  0  0
  152.8052  143.0005  161.1888 C   0  0  0  0  0  0  0  0  0  0  0  0
  153.5987  141.7452  160.8111 C   0  0  0  0  0  0  0  0  0  0  0  0
  152.8193  140.8991  159.8006 C   0  0  0  0  0  0  0  0  0  0  0  0
  152.4646  141.7142  158.5415 C   0  0  1  0  0  0  0  0  0  0  0  0
  151.6894  140.8759  157.6282 N   0  0  0  0  0  0  0  0  0  0  0  0
  152.1246  139.7461  157.0501 C   0  0  0  0  0  0  0  0  0  0  0  0
  153.2577  139.2932  157.2189 O   0  0  0  0  0  0  0  0  0  0  0  0
  151.1264  139.0344  156.1271 C   0  0  0  0  0  0  0  0  0  0  0  0
  150.7488  137.7006  156.6122 N   0  0  0  0  0  0  0  0  0  0  0  0
  150.1485  137.5656  157.8506 C   0  0  0  0  0  0  0  0  0  0  0  0
  149.7537  136.3790  158.3615 C   0  0  0  0  0  0  0  0  0  0  0  0
  149.9464  135.1410  157.6161 C   0  0  0  0  0  0  0  0  0  0  0  0
  149.5839  134.0418  158.0367 O   0  0  0  0  0  0  0  0  0  0  0  0
  150.5761  135.3057  156.3588 N   0  0  0  0  0  0  0  0  0  0  0  0
  150.7945  134.1366  155.5324 C   0  0  0  0  0  0  0  0  0  0  0  0
  150.9727  136.5513  155.8238 C   0  0  0  0  0  0  0  0  0  0  0  0
  151.4902  136.6462  154.7079 O   0  0  0  0  0  0  0  0  0  0  0  0
  151.6833  143.0096  158.8938 C   0  0  2  0  0  0  0  0  0  0  0  0
  151.3667  143.8295  157.6237 C   0  0  0  0  0  0  0  0  0  0  0  0
  150.6970  144.8593  160.7798 H   0  0  0  0  0  0  0  0  0  0  0  0
  151.5652  145.8242  159.5845 H   0  0  0  0  0  0  0  0  0  0  0  0
  152.2228  145.6328  161.1924 H   0  0  0  0  0  0  0  0  0  0  0  0
  153.3902  144.1817  159.5031 H   0  0  0  0  0  0  0  0  0  0  0  0
  153.3870  143.5927  161.8961 H   0  0  0  0  0  0  0  0  0  0  0  0
  151.8918  142.7100  161.7100 H   0  0  0  0  0  0  0  0  0  0  0  0
  154.5637  142.0295  160.3894 H   0  0  0  0  0  0  0  0  0  0  0  0
  153.8104  141.1564  161.7040 H   0  0  0  0  0  0  0  0  0  0  0  0
  153.4108  140.0237  159.5300 H   0  0  0  0  0  0  0  0  0  0  0  0
  151.9079  140.5228  160.2678 H   0  0  0  0  0  0  0  0  0  0  0  0
  153.3933  142.0093  158.0487 H   0  0  0  0  0  0  0  0  0  0  0  0
  150.7465  141.1761  157.4274 H   0  0  0  0  0  0  0  0  0  0  0  0
  150.2341  139.6504  155.9995 H   0  0  0  0  0  0  0  0  0  0  0  0
  151.5755  138.9577  155.1359 H   0  0  0  0  0  0  0  0  0  0  0  0
  149.9790  138.4548  158.4404 H   0  0  0  0  0  0  0  0  0  0  0  0
  149.2852  136.3456  159.3342 H   0  0  0  0  0  0  0  0  0  0  0  0
  151.7900  134.2075  155.0906 H   0  0  0  0  0  0  0  0  0  0  0  0
  150.0166  134.1401  154.7674 H   0  0  0  0  0  0  0  0  0  0  0  0
  150.7514  133.2274  156.1321 H   0  0  0  0  0  0  0  0  0  0  0  0
  150.7308  142.7122  159.3360 H   0  0  0  0  0  0  0  0  0  0  0  0
  152.2790  144.2040  157.1591 H   0  0  0  0  0  0  0  0  0  0  0  0
  150.7270  144.6834  157.8419 H   0  0  0  0  0  0  0  0  0  0  0  0
  150.8364  143.2377  156.8780 H   0  0  0  0  0  0  0  0  0  0  0  0
  1  2  1  0  0  0  0
  1 22  1  0  0  0  0
  1 23  1  0  0  0  0
  1 24  1  0  0  0  0
  2 20  1  0  0  0  0
  2  3  1  0  0  0  0
  2 25  1  0  0  0  0
  3  4  1  0  0  0  0
  3 26  1  0  0  0  0
  3 27  1  0  0  0  0
  4  5  1  0  0  0  0
  4 28  1  0  0  0  0
  4 29  1  0  0  0  0
  5  6  1  0  0  0  0
  5 30  1  0  0  0  0
  5 31  1  0  0  0  0
  6  7  1  0  0  0  0
  6 20  1  0  0  0  0
  6 32  1  0  0  0  0
  7  8  1  0  0  0  0
  7 33  1  0  0  0  0
  8  9  2  0  0  0  0
  8 10  1  0  0  0  0
 10 11  1  0  0  0  0
 10 34  1  0  0  0  0
 10 35  1  0  0  0  0
 11 18  1  0  0  0  0
 11 12  1  0  0  0  0
 12 13  2  0  0  0  0
 12 36  1  0  0  0  0
 13 14  1  0  0  0  0
 13 37  1  0  0  0  0
 14 15  2  0  0  0  0
 14 16  1  0  0  0  0
 16 17  1  0  0  0  0
 16 18  1  0  0  0  0
 17 38  1  0  0  0  0
 17 39  1  0  0  0  0
 17 40  1  0  0  0  0
 18 19  2  0  0  0  0
 20 21  1  0  0  0  0
 20 41  1  0  0  0  0
 21 42  1  0  0  0  0
 21 43  1  0  0  0  0
 21 44  1  0  0  0  0
M  END
> <s_m_source_file>
AV-unprocessed.smi

> <i_m_source_file_index>
2143

> <i_lp_mmshare_version>
43012

> <i_f3d_flags>
0

> <s_epik_input>
W0NIM11bQ0BASF0xW0NIMl1bQ0gyXVtDSDJdW0NASF0oW0NASF0xW0NIM10pW05IXUMoPU8pW0NIMl1uMltjSF1bY0hdYyg9TyluKFtDSDNdKWMyPU8=

> <s_epik_cmdline>
J2VwaWtfcHl0aG9uJywgJy1waCcsICc3LjAnLCAnLXRuJywgJzgnLCAnLW1hJywgJzIwMCcsICctbWV0YWxfYmluZGluZycsICctaW1hZScsICc8aW5maWxlLm1hZT4nLCAnLW9tYWUnLCAnPG91dGZpbGUubWFlPic=

> <r_lp_tautomer_probability>
1

> <r_epik_Ionization_Penalty>
3.18445e-08

> <r_epik_Ionization_Penalty_Charging>
1.27977e-08

> <r_epik_Ionization_Penalty_Neutral>
1.90469e-08

> <r_epik_State_Penalty>
-0

> <r_epik_Charging_Adjusted_Penalty>
1.27977e-08

> <i_epik_Tot_Q>
0

> <i_epik_Tot_abs_Q>
0

> <r_epik_Metal_State_Penalty>
-0

> <b_epik_Metal_Only>
0

> <s_lp_Force_Field>
OPLS_2005

> <r_lp_Energy>
20.3985

> <b_lp_Chiralities_Consistent>
1

> <s_lp_Variant>
AV-unprocessed.smi:2143-6

> <Gold.Version>
5.8.1

> <Gold.Id.Protein>
6NUR|6NUR_protein|mol2

> <Gold.PLP.Fitness>
47.1935

> <Gold.PLP.PLP>
-38.8557

> <Gold.PLP.part.hbond>
-3.0000

> <Gold.PLP.part.metal>
0.0000

> <Gold.PLP.part.buried>
-4.8781

> <Gold.PLP.part.nonpolar>
-31.3242

> <Gold.PLP.part.repulsive>
0.2268

> <Gold.PLP.ligand.clash>
0.0000

> <Gold.PLP.ligand.torsion>
0.0357

> <Gold.PLP.Chemscore.Hbond>
2.8000

> <Gold.PLP.Chemscore.CHOScore>
0.0000

> <Gold.PLP.Chemscore.Metal>
0.0000

> <Gold.Chemscore.Hbonds>
donor molecule, donor type, donor heavy atom, donor atom, acceptor molecule, acceptor atom, score
      P1  H  6896  6909       L1    15  0.95
      P1  H  7997  8008       L1     9  0.93
      P1  H 10752 10764       L1    19  1.00

> <Gold.PLP.Chemscore.Internal.Correction>
0.0091

> <Gold.Rescore>
     Score         DG    S(hbond)    S(metal)    S(lipo)     H(rot)  DE(clash)    DE(int)     intcor
     21.23     -21.33       2.20        0.00     105.61       1.51       0.03       0.06       ----

> <Gold.Chemscore.Fitness>
21.2327

> <Gold.Chemscore.DG>
-21.3253

> <Gold.Chemscore.ZeroCoef>
-5.4800

> <Gold.Chemscore.Hbond>
2.2042

> <Gold.Chemscore.Metal>
0.0000

> <Gold.Chemscore.Lipo>
105.6118

> <Gold.Chemscore.Internal_Hbond>
0.0000

> <Gold.Chemscore.DEClash>
0.0308

> <Gold.Chemscore.DEInternal>
0.0619

> <Gold.Chemscore.Rot>
1.5131

> <Gold.Chemscore.Internal.Correction>
   9.000000E+99

> <Gold.Chemscore.Hbonds>
donor molecule, donor type, donor heavy atom, donor atom, acceptor molecule, acceptor atom, score
      P1  H  6896  6909       L1    15  0.21
      P1  H  7997  8008       L1     9  0.88
      P1  H 10752 10764       L1    19  0.78

> <Gold.Chemscore.Hbond.Weighted>
-7.3622

> <Gold.Chemscore.Metal.Weighted>
-0.0000

> <Gold.Chemscore.Lipo.Weighted>
-12.3566

> <Gold.Chemscore.Internal_Hbond.Weighted>
0.0000

> <Gold.Chemscore.DEClash.Weighted>
0.0308

> <Gold.Chemscore.DEInternal.Weighted>
0.0619

> <Gold.Chemscore.Rot.Weighted>
3.8734

> <Gold.Chemscore.Internal.Correction.Weighted>
   9.000000E+99

> <Gold.Protein.RotatedTorsions>
[ 6907 6896 6895 6894 ] final    1.16 input  -60.11 | X-H torsion
[ 7974 7965 7964 7962 ] final   97.66 input  175.53 | X-H torsion
[ 8008 7997 7996 7995 ] final  -80.63 input   59.86 | X-H torsion
[ 10167 10162 10161 10158 ] final -103.32 input  -65.29 | X-H torsion
[ 10718 10713 10712 10709 ] final  -22.04 input   66.30 | X-H torsion
[ 10763 10752 10751 10750 ] final  -59.29 input  -60.55 | X-H torsion
[ 11005 11000 10999 10996 ] final  112.85 input  -57.11 | X-H torsion

> <Gold.Protein.ActiveResidues>
 VAL166  LYS551  ARG553  GLY616  TRP617  ASP618  TYR619  PRO620  LYS621  CYS622 
 ASP623  PHE694  ASN695  SER759  ASP760  ASP761  ALA762  ILE779  LEU786  VAL792 
 PHE793  MET794  SER795  GLU796  ALA797  LYS798  CYS799  TRP800  GLU811  SER814 

> <Gold.Protein.RotatedAtoms>
  151.5882  135.1055  160.0032 H   0  0  0  0  0  0  0  0  0  0  0  0  # atno 6907 bound_to 6896
  152.4320  133.7289  159.6587 H   0  0  0  0  0  0  0  0  0  0  0  0  # atno 6908 bound_to 6896
  150.8213  133.8177  159.3160 H   0  0  0  0  0  0  0  0  0  0  0  0  # atno 6909 bound_to 6896
  145.4226  139.2319  143.3188 H   0  0  0  0  0  0  0  0  0  0  0  0  # atno 7974 bound_to 7965
  154.5902  140.0660  156.9228 H   0  0  0  0  0  0  0  0  0  0  0  0  # atno 8008 bound_to 7997
  155.2308  140.3337  155.4285 H   0  0  0  0  0  0  0  0  0  0  0  0  # atno 8009 bound_to 7997
  156.2251  140.1815  156.7368 H   0  0  0  0  0  0  0  0  0  0  0  0  # atno 8010 bound_to 7997
  140.2212  143.3674  152.0968 H   0  0  0  0  0  0  0  0  0  0  0  0  # atno 10167 bound_to 10162
  156.5099  130.4607  149.6654 H   0  0  0  0  0  0  0  0  0  0  0  0  # atno 10718 bound_to 10713
  154.2514  135.6325  153.5241 H   0  0  0  0  0  0  0  0  0  0  0  0  # atno 10763 bound_to 10752
  152.9912  135.5565  154.5804 H   0  0  0  0  0  0  0  0  0  0  0  0  # atno 10764 bound_to 10752
  154.5332  135.2890  155.1136 H   0  0  0  0  0  0  0  0  0  0  0  0  # atno 10765 bound_to 10752
  139.8937  134.9538  156.6648 H   0  0  0  0  0  0  0  0  0  0  0  0  # atno 11005 bound_to 11000
  146.2649  140.4952  142.8838 LP  0  0  0  0  0  0  0  0  0  0  0  0  # atno 17320 bound_to 7965
  144.8235  140.6590  143.6337 LP  0  0  0  0  0  0  0  0  0  0  0  0  # atno 17321 bound_to 7965
  139.5143  144.6946  151.5665 LP  0  0  0  0  0  0  0  0  0  0  0  0  # atno 17342 bound_to 10162
  140.6253  143.9180  150.6560 LP  0  0  0  0  0  0  0  0  0  0  0  0  # atno 17343 bound_to 10162
  156.3250  130.7301  151.2220 LP  0  0  0  0  0  0  0  0  0  0  0  0  # atno 17370 bound_to 10713
  157.7452  131.0445  150.4798 LP  0  0  0  0  0  0  0  0  0  0  0  0  # atno 17371 bound_to 10713
  140.7419  133.8971  155.8284 LP  0  0  0  0  0  0  0  0  0  0  0  0  # atno 17394 bound_to 11000
  141.0071  134.1071  157.4259 LP  0  0  0  0  0  0  0  0  0  0  0  0  # atno 17395 bound_to 11000

$$$$
