#       Name:                AV-unprocessed.smi:284
#       Creating user name   scv26
#       Creation time:       Thu Mar 26 21:51:49 2020


#       File generated by GOLD software.
#

@<TRIPOS>MOLECULE
AV-unprocessed.smi:284
    72    74     1
SMALL
NO_CHARGES


@<TRIPOS>ATOM
      1 ****         0.6928   4.6858  -3.4954 C.3            1 S1                 0.0000
      2 ****         0.9843   3.2219  -3.2028 C.2            1 S1                 0.0000
      3 ****         2.2381   2.7713  -2.9668 C.2            1 S1                 0.0000
      4 ****         2.5437   1.4476  -2.6914 N.am           1 S1                 0.0000
      5 ****         3.9484   0.9749  -2.3381 C.3            1 S1                 0.0000
      6 ****         5.0852   1.8511  -2.8848 C.3            1 S1                 0.0000
      7 ****         5.5230   2.6633  -1.6658 C.3            1 S1                 0.0000
      8 ****         5.4908   4.0491  -1.9420 O.3            1 S1                 0.0000
      9 ****         4.5233   2.2801  -0.5597 C.3            1 S1                 0.0000
     10 ****         5.1235   2.2076   0.8523 C.3            1 S1                 0.0000
     11 ****         5.4175   3.5036   1.3291 O.3            1 S1                 0.0000
     12 ****         4.0784   0.9885  -0.9532 O.3            1 S1                 0.0000
     13 ****         1.4899   0.5177  -2.5585 C.2            1 S1                 0.0000
     14 ****         1.7144  -0.6478  -2.2224 O.2            1 S1                 0.0000
     15 ****         0.1699   0.9510  -2.8166 N.am           1 S1                 0.0000
     16 ****        -0.9296  -0.0305  -2.6819 C.3            1 S1                 0.0000
     17 ****        -1.4355  -0.1755  -1.2379 C.2            1 S1                 0.0000
     18 ****        -1.3319   0.7634  -0.4480 O.2            1 S1                 0.0000
     19 ****        -2.0148  -1.3553  -0.9494 N.am           1 S1                 0.0000
     20 ****        -2.5438  -1.8125   0.2883 C.ar           1 S1                 0.0000
     21 ****        -2.1724  -1.2854   1.5469 C.ar           1 S1                 0.0000
     22 ****        -2.7254  -1.8096   2.7313 C.ar           1 S1                 0.0000
     23 ****        -3.6548  -2.8780   2.6915 C.ar           1 S1                 0.0000
     24 ****        -4.2756  -3.4802   3.9666 C.3            1 S1                 0.0000
     25 ****        -5.8143  -3.3875   3.8924 C.3            1 S1                 0.0000
     26 ****        -3.8274  -2.7561   5.2564 C.3            1 S1                 0.0000
     27 ****        -3.8601  -4.9606   4.0906 C.3            1 S1                 0.0000
     28 ****        -4.0058  -3.4075   1.4276 C.ar           1 S1                 0.0000
     29 ****        -3.4552  -2.8847   0.2426 C.ar           1 S1                 0.0000
     30 ****        -0.1433   2.2902  -3.1511 C.2            1 S1                 0.0000
     31 ****        -1.3087   2.6297  -3.3651 O.2            1 S1                 0.0000
     32 ****         1.6037   5.2842  -3.5298 H              1 S1                 0.0000
     33 ****         0.0472   5.1059  -2.7233 H              1 S1                 0.0000
     34 ****         0.1904   4.7911  -4.4577 H              1 S1                 0.0000
     35 ****         3.0258   3.5062  -2.9816 H              1 S1                 0.0000
     36 ****         4.0204  -0.0405  -2.7308 H              1 S1                 0.0000
     37 ****         5.8998   1.1963  -3.1958 H              1 S1                 0.0000
     38 ****         4.7869   2.4279  -3.7601 H              1 S1                 0.0000
     39 ****         6.5371   2.3761  -1.3849 H              1 S1                 0.0000
     40 ****         6.1083   4.2333  -2.6334 H              1 S1                 0.0000
     41 ****         3.6600   2.9480  -0.5637 H              1 S1                 0.0000
     42 ****         4.4127   1.7455   1.5376 H              1 S1                 0.0000
     43 ****         6.0262   1.5959   0.8648 H              1 S1                 0.0000
     44 ****         6.0208   3.9152   0.7293 H              1 S1                 0.0000
     45 ****        -1.7803   0.2262  -3.3146 H              1 S1                 0.0000
     46 ****        -0.6125  -1.0068  -3.0535 H              1 S1                 0.0000
     47 ****        -2.1222  -1.9928  -1.7250 H              1 S1                 0.0000
     48 ****        -1.4515  -0.4876   1.6343 H              1 S1                 0.0000
     49 ****        -2.4078  -1.3705   3.6639 H              1 S1                 0.0000
     50 ****        -6.2788  -3.7834   4.7962 H              1 S1                 0.0000
     51 ****        -6.2220  -3.9516   3.0536 H              1 S1                 0.0000
     52 ****        -6.1418  -2.3529   3.7826 H              1 S1                 0.0000
     53 ****        -4.1063  -1.7017   5.2442 H              1 S1                 0.0000
     54 ****        -2.7484  -2.8203   5.4023 H              1 S1                 0.0000
     55 ****        -4.2921  -3.1978   6.1388 H              1 S1                 0.0000
     56 ****        -4.2738  -5.4147   4.9917 H              1 S1                 0.0000
     57 ****        -2.7754  -5.0622   4.1411 H              1 S1                 0.0000
     58 ****        -4.2060  -5.5556   3.2450 H              1 S1                 0.0000
     59 ****        -4.7031  -4.2283   1.3540 H              1 S1                 0.0000
     60 ****        -3.7411  -3.3121  -0.7075 H              1 S1                 0.0000
     61 ****         5.7414   4.5622  -1.1211 LP             1 S1                 0.0000
     62 ****         4.5711   4.3134  -2.2325 LP             1 S1                 0.0000
     63 ****         5.8333   3.4427   2.2365 LP             1 S1                 0.0000
     64 ****         4.5763   4.0417   1.3833 LP             1 S1                 0.0000
     65 ****         4.7457   0.2999  -0.6694 LP             1 S1                 0.0000
     66 ****         3.1948   0.7913  -0.5286 LP             1 S1                 0.0000
     67 ****         2.6520  -0.9439  -2.0404 LP             1 S1                 0.0000
     68 ****         0.9587  -1.2965  -2.1320 LP             1 S1                 0.0000
     69 ****        -0.9176   1.6236  -0.7454 LP             1 S1                 0.0000
     70 ****        -1.6621   0.6657   0.4908 LP             1 S1                 0.0000
     71 ****        -1.5195   3.5818  -3.5867 LP             1 S1                 0.0000
     72 ****        -2.0435   1.9531  -3.3172 LP             1 S1                 0.0000
@<TRIPOS>BOND
    1    1    2 1     
    2    1   32 1     
    3    1   33 1     
    4    1   34 1     
    5    2   30 1     
    6    2    3 2     
    7    3    4 1     
    8    3   35 1     
    9    4    5 1     
   10    4   13 am    
   11    5   12 1     
   12    5    6 1     
   13    5   36 1     
   14    6    7 1     
   15    6   37 1     
   16    6   38 1     
   17    7    8 1     
   18    7    9 1     
   19    7   39 1     
   20    8   40 1     
   21    9   10 1     
   22    9   12 1     
   23    9   41 1     
   24   10   11 1     
   25   10   42 1     
   26   10   43 1     
   27   11   44 1     
   28   13   14 2     
   29   13   15 am    
   30   15   16 1     
   31   15   30 am    
   32   16   17 1     
   33   16   45 1     
   34   16   46 1     
   35   17   18 2     
   36   17   19 am    
   37   19   20 1     
   38   19   47 1     
   39   20   29 ar    
   40   20   21 ar    
   41   21   22 ar    
   42   21   48 1     
   43   22   23 ar    
   44   22   49 1     
   45   23   24 1     
   46   23   28 ar    
   47   24   25 1     
   48   24   26 1     
   49   24   27 1     
   50   25   50 1     
   51   25   51 1     
   52   25   52 1     
   53   26   53 1     
   54   26   54 1     
   55   26   55 1     
   56   27   56 1     
   57   27   57 1     
   58   27   58 1     
   59   28   29 ar    
   60   28   59 1     
   61   29   60 1     
   62   30   31 2     
   63    8   61 1     
   64    8   62 1     
   65   11   63 1     
   66   11   64 1     
   67   12   65 1     
   68   12   66 1     
   69   14   67 1     
   70   14   68 1     
   71   18   69 1     
   72   18   70 1     
   73   31   71 1     
   74   31   72 1     
@<TRIPOS>SUBSTRUCTURE
      1 S1             1
@<TRIPOS>SET
LONE_PAIRS      STATIC     ATOMS    <user>   **** ""
12 61 62 63 64 65 66 67 68 69 70 71 72
DONOR_HYDROGENS      STATIC     ATOMS    <user>   **** ""
3 40 44 47
ATOM$BLUE        STATIC     ATOMS    COLORGROUP SYSTEM
12 61 62 63 64 65 66 67 68 69 70 71 72
ATOM$RED        STATIC     ATOMS    COLORGROUP SYSTEM
3 40 44 47
