AV-unprocessed.smi:2788|AV-procd|sdf|10760|dock7
  -GOLD-   2272015193D 1   1.00000     0.00000
 Structure written by MMmdl.
 47 48  0  0  0  0  0  0  0  0  1 V2000
  149.1399  135.9474  158.2221 C   0  0  0  0  0  0  0  0  0  0  0  0
  149.3750  134.9156  157.1561 C   0  0  0  0  0  0  0  0  0  0  0  0
  149.9347  133.7635  157.4836 N   0  0  0  0  0  0  0  0  0  0  0  0
  150.0052  133.0212  156.3011 O   0  0  0  0  0  0  0  0  0  0  0  0
  149.4763  133.7636  155.2958 C   0  0  0  0  0  0  0  0  0  0  0  0
  149.4486  133.1352  153.9438 C   0  0  0  0  0  0  0  0  0  0  0  0
  149.0566  134.9767  155.7679 C   0  0  0  0  0  0  0  0  0  0  0  0
  148.4044  136.1031  155.0066 C   0  0  0  0  0  0  0  0  0  0  0  0
  147.0130  135.6769  154.5385 C   0  0  0  0  0  0  0  0  0  0  0  0
  146.1128  135.5356  155.3642 O   0  0  0  0  0  0  0  0  0  0  0  0
  146.8791  135.4751  153.2144 N   0  0  0  0  0  0  0  0  0  0  0  0
  145.7143  135.0809  152.4045 C   0  0  1  0  0  0  0  0  0  0  0  0
  144.3866  135.1898  153.2032 C   0  0  0  0  0  0  0  0  0  0  0  0
  145.6420  136.1573  151.2851 C   0  0  0  0  0  0  0  0  0  0  0  0
  145.5606  137.4754  151.7902 O   0  0  0  0  0  0  0  0  0  0  0  0
  145.9234  133.6416  151.8054 C   0  0  0  0  0  0  0  0  0  0  0  0
  144.8511  133.2072  150.7712 C   0  0  0  0  0  0  0  0  0  0  0  0
  145.1640  131.8352  150.1536 C   0  0  0  0  0  0  0  0  0  0  0  0
  145.2930  130.7575  151.2368 C   0  0  0  0  0  0  0  0  0  0  0  0
  146.3527  131.1548  152.2719 C   0  0  0  0  0  0  0  0  0  0  0  0
  146.0512  132.5323  152.8846 C   0  0  0  0  0  0  0  0  0  0  0  0
  149.1382  136.9549  157.8068 H   0  0  0  0  0  0  0  0  0  0  0  0
  149.9134  135.9109  158.9900 H   0  0  0  0  0  0  0  0  0  0  0  0
  148.1782  135.7878  158.7102 H   0  0  0  0  0  0  0  0  0  0  0  0
  148.4800  132.6725  153.7553 H   0  0  0  0  0  0  0  0  0  0  0  0
  150.2158  132.3661  153.8538 H   0  0  0  0  0  0  0  0  0  0  0  0
  149.6253  133.8779  153.1658 H   0  0  0  0  0  0  0  0  0  0  0  0
  148.3117  137.0019  155.6165 H   0  0  0  0  0  0  0  0  0  0  0  0
  148.9998  136.3912  154.1397 H   0  0  0  0  0  0  0  0  0  0  0  0
  147.7192  135.6287  152.6761 H   0  0  0  0  0  0  0  0  0  0  0  0
  143.5270  134.9719  152.5689 H   0  0  0  0  0  0  0  0  0  0  0  0
  144.2467  136.1954  153.6013 H   0  0  0  0  0  0  0  0  0  0  0  0
  144.3237  134.5059  154.0466 H   0  0  0  0  0  0  0  0  0  0  0  0
  146.5222  136.0960  150.6433 H   0  0  0  0  0  0  0  0  0  0  0  0
  144.7900  135.9929  150.6256 H   0  0  0  0  0  0  0  0  0  0  0  0
  145.0335  137.9919  151.1997 H   0  0  0  0  0  0  0  0  0  0  0  0
  146.8680  133.6611  151.2604 H   0  0  0  0  0  0  0  0  0  0  0  0
  143.8696  133.1560  151.2406 H   0  0  0  0  0  0  0  0  0  0  0  0
  144.7724  133.9307  149.9617 H   0  0  0  0  0  0  0  0  0  0  0  0
  144.3799  131.5588  149.4480 H   0  0  0  0  0  0  0  0  0  0  0  0
  146.0898  131.8929  149.5798 H   0  0  0  0  0  0  0  0  0  0  0  0
  144.3308  130.6162  151.7310 H   0  0  0  0  0  0  0  0  0  0  0  0
  145.5537  129.8008  150.7834 H   0  0  0  0  0  0  0  0  0  0  0  0
  146.4026  130.4016  153.0587 H   0  0  0  0  0  0  0  0  0  0  0  0
  147.3358  131.1731  151.7999 H   0  0  0  0  0  0  0  0  0  0  0  0
  146.8503  132.7621  153.5874 H   0  0  0  0  0  0  0  0  0  0  0  0
  145.1332  132.4710  153.4702 H   0  0  0  0  0  0  0  0  0  0  0  0
  1  2  1  0  0  0  0
  1 22  1  0  0  0  0
  1 23  1  0  0  0  0
  1 24  1  0  0  0  0
  2  7  1  0  0  0  0
  2  3  2  0  0  0  0
  3  4  1  0  0  0  0
  4  5  1  0  0  0  0
  5  6  1  0  0  0  0
  5  7  2  0  0  0  0
  6 25  1  0  0  0  0
  6 26  1  0  0  0  0
  6 27  1  0  0  0  0
  7  8  1  0  0  0  0
  8  9  1  0  0  0  0
  8 28  1  0  0  0  0
  8 29  1  0  0  0  0
  9 10  2  0  0  0  0
  9 11  1  0  0  0  0
 11 12  1  0  0  0  0
 11 30  1  0  0  0  0
 12 13  1  0  0  0  0
 12 14  1  0  0  0  0
 12 16  1  0  0  0  0
 13 31  1  0  0  0  0
 13 32  1  0  0  0  0
 13 33  1  0  0  0  0
 14 15  1  0  0  0  0
 14 34  1  0  0  0  0
 14 35  1  0  0  0  0
 15 36  1  0  0  0  0
 16 21  1  0  0  0  0
 16 17  1  0  0  0  0
 16 37  1  0  0  0  0
 17 18  1  0  0  0  0
 17 38  1  0  0  0  0
 17 39  1  0  0  0  0
 18 19  1  0  0  0  0
 18 40  1  0  0  0  0
 18 41  1  0  0  0  0
 19 20  1  0  0  0  0
 19 42  1  0  0  0  0
 19 43  1  0  0  0  0
 20 21  1  0  0  0  0
 20 44  1  0  0  0  0
 20 45  1  0  0  0  0
 21 46  1  0  0  0  0
 21 47  1  0  0  0  0
M  END
> <s_m_source_file>
AV-unprocessed.smi

> <i_m_source_file_index>
2788

> <i_lp_mmshare_version>
43012

> <i_f3d_flags>
0

> <s_epik_input>
W0NIM11jMW5vYyhbQ0gzXSljMVtDSDJdQyg9TylbTkhdW0NAQF0oW0NIM10pKFtDSDJdW09IXSlbQ0hdMltDSDJdW0NIMl1bQ0gyXVtDSDJdW0NIMl0y

> <s_epik_cmdline>
J2VwaWtfcHl0aG9uJywgJy1waCcsICc3LjAnLCAnLXRuJywgJzgnLCAnLW1hJywgJzIwMCcsICctbWV0YWxfYmluZGluZycsICctaW1hZScsICc8aW5maWxlLm1hZT4nLCAnLW9tYWUnLCAnPG91dGZpbGUubWFlPic=

> <r_lp_tautomer_probability>
1

> <r_epik_Ionization_Penalty>
1.3408e-07

> <r_epik_Ionization_Penalty_Charging>
0

> <r_epik_Ionization_Penalty_Neutral>
1.3408e-07

> <r_epik_State_Penalty>
-0

> <r_epik_Charging_Adjusted_Penalty>
0

> <i_epik_Tot_Q>
0

> <i_epik_Tot_abs_Q>
0

> <r_epik_Metal_State_Penalty>
-0

> <b_epik_Metal_Only>
0

> <s_lp_Force_Field>
OPLS_2005

> <r_lp_Energy>
15.0378

> <b_lp_Chiralities_Consistent>
1

> <s_lp_Variant>
AV-unprocessed.smi:2788-1

> <Gold.Version>
5.8.1

> <Gold.Id.Protein>
6NUR|6NUR_protein|mol2

> <Gold.PLP.Fitness>
39.0658

> <Gold.PLP.PLP>
-30.6462

> <Gold.PLP.part.hbond>
-3.0000

> <Gold.PLP.part.metal>
0.0000

> <Gold.PLP.part.buried>
-5.3817

> <Gold.PLP.part.nonpolar>
-22.3523

> <Gold.PLP.part.repulsive>
0.0211

> <Gold.PLP.ligand.clash>
0.0000

> <Gold.PLP.ligand.torsion>
0.3326

> <Gold.PLP.Chemscore.Hbond>
3.0000

> <Gold.PLP.Chemscore.CHOScore>
0.0000

> <Gold.PLP.Chemscore.Metal>
0.0000

> <Gold.Chemscore.Hbonds>
donor molecule, donor type, donor heavy atom, donor atom, acceptor molecule, acceptor atom, score
      L1  H    11    30       P1  7948  1.00
      L1  H    15    36       P1 10171  1.00
      P1  H  6896  6907       L1     3  1.00

> <Gold.PLP.Chemscore.Internal.Correction>
0.0848

> <Gold.Rescore>
     Score         DG    S(hbond)    S(metal)    S(lipo)     H(rot)  DE(clash)    DE(int)     intcor
     17.22     -18.96       2.97        0.00      79.47       2.24       0.03       1.71       ----

> <Gold.Chemscore.Fitness>
17.2200

> <Gold.Chemscore.DG>
-18.9587

> <Gold.Chemscore.ZeroCoef>
-5.4800

> <Gold.Chemscore.Hbond>
2.9654

> <Gold.Chemscore.Metal>
0.0000

> <Gold.Chemscore.Lipo>
79.4664

> <Gold.Chemscore.Internal_Hbond>
0.0000

> <Gold.Chemscore.DEClash>
0.0255

> <Gold.Chemscore.DEInternal>
1.7132

> <Gold.Chemscore.Rot>
2.2357

> <Gold.Chemscore.Internal.Correction>
   9.000000E+99

> <Gold.Chemscore.Hbonds>
donor molecule, donor type, donor heavy atom, donor atom, acceptor molecule, acceptor atom, score
      L1  H    11    30       P1  7948  0.98
      L1  H    15    36       P1 10171  1.00
      P1  H  6896  6907       L1     3  0.86

> <Gold.Chemscore.Hbond.Weighted>
-9.9046

> <Gold.Chemscore.Metal.Weighted>
-0.0000

> <Gold.Chemscore.Lipo.Weighted>
-9.2976

> <Gold.Chemscore.Internal_Hbond.Weighted>
0.0000

> <Gold.Chemscore.DEClash.Weighted>
0.0255

> <Gold.Chemscore.DEInternal.Weighted>
1.7132

> <Gold.Chemscore.Rot.Weighted>
5.7235

> <Gold.Chemscore.Internal.Correction.Weighted>
   9.000000E+99

> <Gold.Protein.RotatedTorsions>
[ 6907 6896 6895 6894 ] final -124.54 input  -60.11 | X-H torsion
[ 7974 7965 7964 7962 ] final  -78.60 input  175.53 | X-H torsion
[ 8008 7997 7996 7995 ] final -178.37 input   59.86 | X-H torsion
[ 10167 10162 10161 10158 ] final    8.18 input  -65.29 | X-H torsion
[ 10718 10713 10712 10709 ] final -144.28 input   66.30 | X-H torsion
[ 10763 10752 10751 10750 ] final   -8.19 input  -60.55 | X-H torsion
[ 11005 11000 10999 10996 ] final  -66.86 input  -57.11 | X-H torsion

> <Gold.Protein.ActiveResidues>
 VAL166  LYS551  ARG553  GLY616  TRP617  ASP618  TYR619  PRO620  LYS621  CYS622 
 ASP623  PHE694  ASN695  SER759  ASP760  ASP761  ALA762  ILE779  LEU786  VAL792 
 PHE793  MET794  SER795  GLU796  ALA797  LYS798  CYS799  TRP800  GLU811  SER814 

> <Gold.Protein.RotatedAtoms>
  150.8779  133.7413  159.2940 H   0  0  0  0  0  0  0  0  0  0  0  0  # atno 6907 bound_to 6896
  151.5004  135.1060  159.9837 H   0  0  0  0  0  0  0  0  0  0  0  0  # atno 6908 bound_to 6896
  152.4740  133.8049  159.7028 H   0  0  0  0  0  0  0  0  0  0  0  0  # atno 6909 bound_to 6896
  145.5843  140.9442  143.1327 H   0  0  0  0  0  0  0  0  0  0  0  0  # atno 7974 bound_to 7965
  156.0180  140.1255  157.0386 H   0  0  0  0  0  0  0  0  0  0  0  0  # atno 8008 bound_to 7997
  154.4300  140.1074  156.5993 H   0  0  0  0  0  0  0  0  0  0  0  0  # atno 8009 bound_to 7997
  155.5985  140.3470  155.4589 H   0  0  0  0  0  0  0  0  0  0  0  0  # atno 8010 bound_to 7997
  140.6329  143.7953  150.7319 H   0  0  0  0  0  0  0  0  0  0  0  0  # atno 10167 bound_to 10162
  156.3682  130.7774  151.1951 H   0  0  0  0  0  0  0  0  0  0  0  0  # atno 10718 bound_to 10713
  153.4370  135.7013  153.6194 H   0  0  0  0  0  0  0  0  0  0  0  0  # atno 10763 bound_to 10752
  153.4585  135.3742  155.2325 H   0  0  0  0  0  0  0  0  0  0  0  0  # atno 10764 bound_to 10752
  154.8727  135.4014  154.3762 H   0  0  0  0  0  0  0  0  0  0  0  0  # atno 10765 bound_to 10752
  141.1493  133.6707  156.6204 H   0  0  0  0  0  0  0  0  0  0  0  0  # atno 11005 bound_to 11000
  144.7380  139.7530  143.7322 LP  0  0  0  0  0  0  0  0  0  0  0  0  # atno 17320 bound_to 7965
  146.1694  139.4838  142.9937 LP  0  0  0  0  0  0  0  0  0  0  0  0  # atno 17321 bound_to 7965
  140.1568  143.4310  152.2094 LP  0  0  0  0  0  0  0  0  0  0  0  0  # atno 17342 bound_to 10162
  139.5541  144.7360  151.4346 LP  0  0  0  0  0  0  0  0  0  0  0  0  # atno 17343 bound_to 10162
  157.7481  131.0380  150.4482 LP  0  0  0  0  0  0  0  0  0  0  0  0  # atno 17370 bound_to 10713
  156.4705  130.4051  149.6521 LP  0  0  0  0  0  0  0  0  0  0  0  0  # atno 17371 bound_to 10713
  140.3545  134.7740  157.4490 LP  0  0  0  0  0  0  0  0  0  0  0  0  # atno 17394 bound_to 11000
  140.0834  134.5700  155.8517 LP  0  0  0  0  0  0  0  0  0  0  0  0  # atno 17395 bound_to 11000

$$$$
