AV-unprocessed.smi:1215|AV-procd|sdf|5096|dock10
  -GOLD-   22720 4143D 1   1.00000     0.00000
 Structure written by MMmdl.
 46 47  0  0  0  0  0  0  0  0  2 V2000
  151.0578  142.5663  157.1147 C   0  0  0  0  0  0  0  0  0  0  0  0
  151.4740  141.0978  157.2617 C   0  0  0  0  0  0  0  0  0  0  0  0
  150.8827  140.2658  156.2319 N   0  0  0  0  0  0  0  0  0  0  0  0
  150.8037  138.8878  156.1890 C   0  0  0  0  0  0  0  0  0  0  0  0
  150.1570  138.5911  155.0224 C   0  0  0  0  0  0  0  0  0  0  0  0
  149.8108  137.3271  154.4813 N   0  0  0  0  0  0  0  0  0  0  0  0
  149.7041  136.1606  155.1382 C   0  0  0  0  0  0  0  0  0  0  0  0
  149.8893  136.0067  156.3458 O   0  0  0  0  0  0  0  0  0  0  0  0
  149.3705  135.1610  154.3096 N   0  0  0  0  0  0  0  0  0  0  0  0
  149.1757  133.7733  154.7135 C   0  0  0  0  0  0  0  0  0  0  0  0
  148.4906  132.9518  153.6030 C   0  0  0  0  0  0  0  0  0  0  0  0
  147.5254  133.7434  152.7925 N   0  3  2  0  0  0  0  0  0  0  0  0
  146.5263  134.4444  153.6443 C   0  0  0  0  0  0  0  0  0  0  0  0
  145.6785  135.4285  152.8229 C   0  0  0  0  0  0  0  0  0  0  0  0
  144.9941  134.7208  151.6492 C   0  0  0  0  0  0  0  0  0  0  0  0
  146.0431  133.9929  150.7976 C   0  0  0  0  0  0  0  0  0  0  0  0
  146.9050  133.0239  151.6350 C   0  0  2  0  0  0  0  0  0  0  0  0
  146.1269  131.7534  152.0396 C   0  0  0  0  0  0  0  0  0  0  0  0
  149.8729  139.8393  154.4092 C   0  0  0  0  0  0  0  0  0  0  0  0
  150.3159  140.8468  155.1454 N   0  0  0  0  0  0  0  0  0  0  0  0
  151.4980  143.1749  157.9047 H   0  0  0  0  0  0  0  0  0  0  0  0
  149.9746  142.6757  157.1743 H   0  0  0  0  0  0  0  0  0  0  0  0
  151.3845  142.9763  156.1585 H   0  0  0  0  0  0  0  0  0  0  0  0
  152.5596  141.0031  157.2106 H   0  0  0  0  0  0  0  0  0  0  0  0
  151.1681  140.7164  158.2366 H   0  0  0  0  0  0  0  0  0  0  0  0
  151.2052  138.2659  156.9754 H   0  0  0  0  0  0  0  0  0  0  0  0
  149.6312  137.3100  153.4879 H   0  0  0  0  0  0  0  0  0  0  0  0
  149.2355  135.3770  153.3324 H   0  0  0  0  0  0  0  0  0  0  0  0
  150.1321  133.3258  154.9898 H   0  0  0  0  0  0  0  0  0  0  0  0
  148.5647  133.7921  155.6151 H   0  0  0  0  0  0  0  0  0  0  0  0
  149.2323  132.4798  152.9585 H   0  0  0  0  0  0  0  0  0  0  0  0
  147.9423  132.1339  154.0723 H   0  0  0  0  0  0  0  0  0  0  0  0
  145.8863  133.7187  154.1471 H   0  0  0  0  0  0  0  0  0  0  0  0
  147.0404  134.9989  154.4302 H   0  0  0  0  0  0  0  0  0  0  0  0
  144.9302  135.8992  153.4614 H   0  0  0  0  0  0  0  0  0  0  0  0
  146.3129  136.2318  152.4459 H   0  0  0  0  0  0  0  0  0  0  0  0
  144.2529  134.0130  152.0213 H   0  0  0  0  0  0  0  0  0  0  0  0
  144.4524  135.4447  151.0397 H   0  0  0  0  0  0  0  0  0  0  0  0
  145.5557  133.4587  149.9811 H   0  0  0  0  0  0  0  0  0  0  0  0
  146.6919  134.7330  150.3270 H   0  0  0  0  0  0  0  0  0  0  0  0
  147.7092  132.7044  150.9731 H   0  0  0  0  0  0  0  0  0  0  0  0
  145.6773  131.2840  151.1643 H   0  0  0  0  0  0  0  0  0  0  0  0
  145.3208  131.9651  152.7413 H   0  0  0  0  0  0  0  0  0  0  0  0
  146.7776  131.0067  152.4940 H   0  0  0  0  0  0  0  0  0  0  0  0
  149.3715  140.0443  153.4748 H   0  0  0  0  0  0  0  0  0  0  0  0
  148.0760  134.4825  152.3792 H   0  0  0  0  0  0  0  0  0  0  0  0
  1  2  1  0  0  0  0
  1 21  1  0  0  0  0
  1 22  1  0  0  0  0
  1 23  1  0  0  0  0
  2  3  1  0  0  0  0
  2 24  1  0  0  0  0
  2 25  1  0  0  0  0
  3 20  1  0  0  0  0
  3  4  1  0  0  0  0
  4  5  2  0  0  0  0
  4 26  1  0  0  0  0
  5  6  1  0  0  0  0
  5 19  1  0  0  0  0
  6  7  1  0  0  0  0
  6 27  1  0  0  0  0
  7  8  2  0  0  0  0
  7  9  1  0  0  0  0
  9 10  1  0  0  0  0
  9 28  1  0  0  0  0
 10 11  1  0  0  0  0
 10 29  1  0  0  0  0
 10 30  1  0  0  0  0
 11 12  1  0  0  0  0
 11 31  1  0  0  0  0
 11 32  1  0  0  0  0
 12 17  1  0  0  0  0
 12 13  1  0  0  0  0
 12 46  1  0  0  0  0
 13 14  1  0  0  0  0
 13 33  1  0  0  0  0
 13 34  1  0  0  0  0
 14 15  1  0  0  0  0
 14 35  1  0  0  0  0
 14 36  1  0  0  0  0
 15 16  1  0  0  0  0
 15 37  1  0  0  0  0
 15 38  1  0  0  0  0
 16 17  1  0  0  0  0
 16 39  1  0  0  0  0
 16 40  1  0  0  0  0
 17 18  1  0  0  0  0
 17 41  1  0  0  0  0
 18 42  1  0  0  0  0
 18 43  1  0  0  0  0
 18 44  1  0  0  0  0
 19 20  2  0  0  0  0
 19 45  1  0  0  0  0
M  CHG  1  12   1
M  END
> <s_m_source_file>
AV-unprocessed.smi

> <i_m_source_file_index>
1215

> <i_lp_mmshare_version>
43012

> <i_f3d_flags>
0

> <s_epik_input>
W0NIM11bQ0gyXW4xW2NIXWMoW2NIXW4xKVtOSF1DKD1PKVtOSF1bQ0gyXVtDSDJdTjJbQ0gyXVtDSDJdW0NIMl1bQ0gyXVtDQEhdMltDSDNd

> <s_epik_cmdline>
J2VwaWtfcHl0aG9uJywgJy1waCcsICc3LjAnLCAnLXRuJywgJzgnLCAnLW1hJywgJzIwMCcsICctbWV0YWxfYmluZGluZycsICctaW1hZScsICc8aW5maWxlLm1hZT4nLCAnLW9tYWUnLCAnPG91dGZpbGUubWFlPic=

> <r_lp_tautomer_probability>
1

> <r_epik_Ionization_Penalty>
0.00247187

> <r_epik_Ionization_Penalty_Charging>
0.00232067

> <r_epik_Ionization_Penalty_Neutral>
0.000151201

> <r_epik_State_Penalty>
0.00160128

> <r_epik_Charging_Adjusted_Penalty>
0.00392194

> <i_epik_Tot_Q>
1

> <i_epik_Tot_abs_Q>
1

> <r_epik_Metal_State_Penalty>
-0

> <b_epik_Metal_Only>
0

> <s_lp_Force_Field>
OPLS_2005

> <r_lp_Energy>
24.1958

> <b_lp_Chiralities_Consistent>
1

> <s_lp_Variant>
AV-unprocessed.smi:1215-3

> <Gold.Version>
5.8.1

> <Gold.Id.Protein>
6NUR|6NUR_protein|mol2

> <Gold.PLP.Fitness>
46.4360

> <Gold.PLP.PLP>
-32.5268

> <Gold.PLP.part.hbond>
-4.0000

> <Gold.PLP.part.metal>
0.0000

> <Gold.PLP.part.buried>
-3.3701

> <Gold.PLP.part.nonpolar>
-26.2640

> <Gold.PLP.part.repulsive>
0.1576

> <Gold.PLP.ligand.clash>
0.0000

> <Gold.PLP.ligand.torsion>
0.5092

> <Gold.PLP.Chemscore.Hbond>
3.9600

> <Gold.PLP.Chemscore.CHOScore>
1.0000

> <Gold.PLP.Chemscore.Metal>
0.0000

> <Gold.Chemscore.Hbonds>
donor molecule, donor type, donor heavy atom, donor atom, acceptor molecule, acceptor atom, score
      L1  H     6    27       P1  7948  0.95
      L1  H     9    28       P1  7948  1.00
      L1  H    12    46       P1  7948  2.00
      L1  C    19    45       P1  7957  1.00

> <Gold.PLP.Chemscore.Internal.Correction>
0.0476

> <Gold.Rescore>
     Score         DG    S(hbond)    S(metal)    S(lipo)     H(rot)  DE(clash)    DE(int)     intcor
     16.01     -17.52       2.37        0.00      69.95       1.59       0.09       1.42       ----

> <Gold.Chemscore.Fitness>
16.0100

> <Gold.Chemscore.DG>
-17.5228

> <Gold.Chemscore.ZeroCoef>
-5.4800

> <Gold.Chemscore.Hbond>
2.3746

> <Gold.Chemscore.Metal>
0.0000

> <Gold.Chemscore.Lipo>
69.9521

> <Gold.Chemscore.Internal_Hbond>
0.0000

> <Gold.Chemscore.DEClash>
0.0949

> <Gold.Chemscore.DEInternal>
1.4179

> <Gold.Chemscore.Rot>
1.5909

> <Gold.Chemscore.Internal.Correction>
   9.000000E+99

> <Gold.Chemscore.Hbonds>
donor molecule, donor type, donor heavy atom, donor atom, acceptor molecule, acceptor atom, score
      L1  H     6    27       P1  7948  0.70
      L1  H     9    28       P1  7948  0.26
      L1  H    12    46       P1  7948  0.29

> <Gold.Chemscore.Hbond.Weighted>
-7.9311

> <Gold.Chemscore.Metal.Weighted>
-0.0000

> <Gold.Chemscore.Lipo.Weighted>
-8.1844

> <Gold.Chemscore.Internal_Hbond.Weighted>
0.0000

> <Gold.Chemscore.DEClash.Weighted>
0.0949

> <Gold.Chemscore.DEInternal.Weighted>
1.4179

> <Gold.Chemscore.Rot.Weighted>
4.0728

> <Gold.Chemscore.Internal.Correction.Weighted>
   9.000000E+99

> <Gold.Protein.RotatedTorsions>
[ 6907 6896 6895 6894 ] final -126.58 input  -60.11 | X-H torsion
[ 7974 7965 7964 7962 ] final -163.87 input  175.53 | X-H torsion
[ 8008 7997 7996 7995 ] final -171.31 input   59.86 | X-H torsion
[ 10167 10162 10161 10158 ] final -152.15 input  -65.29 | X-H torsion
[ 10718 10713 10712 10709 ] final  -82.39 input   66.30 | X-H torsion
[ 10763 10752 10751 10750 ] final  143.12 input  -60.55 | X-H torsion
[ 11005 11000 10999 10996 ] final  104.29 input  -57.11 | X-H torsion

> <Gold.Protein.ActiveResidues>
 VAL166  LYS551  ARG553  GLY616  TRP617  ASP618  TYR619  PRO620  LYS621  CYS622 
 ASP623  PHE694  ASN695  SER759  ASP760  ASP761  ALA762  ILE779  LEU786  VAL792 
 PHE793  MET794  SER795  GLU796  ALA797  LYS798  CYS799  TRP800  GLU811  SER814 

> <Gold.Protein.RotatedAtoms>
  150.8984  133.7150  159.2885 H   0  0  0  0  0  0  0  0  0  0  0  0  # atno 6907 bound_to 6896
  151.4677  135.1042  159.9752 H   0  0  0  0  0  0  0  0  0  0  0  0  # atno 6908 bound_to 6896
  152.4862  133.8332  159.7169 H   0  0  0  0  0  0  0  0  0  0  0  0  # atno 6909 bound_to 6896
  144.7313  140.3043  143.6199 H   0  0  0  0  0  0  0  0  0  0  0  0  # atno 7974 bound_to 7965
  155.9299  140.1089  157.1140 H   0  0  0  0  0  0  0  0  0  0  0  0  # atno 8008 bound_to 7997
  154.4069  140.1239  156.4855 H   0  0  0  0  0  0  0  0  0  0  0  0  # atno 8009 bound_to 7997
  155.7092  140.3471  155.4969 H   0  0  0  0  0  0  0  0  0  0  0  0  # atno 8010 bound_to 7997
  139.7206  143.8964  152.2502 H   0  0  0  0  0  0  0  0  0  0  0  0  # atno 10167 bound_to 10162
  156.0034  130.4633  150.4098 H   0  0  0  0  0  0  0  0  0  0  0  0  # atno 10718 bound_to 10713
  153.9671  135.2954  155.3430 H   0  0  0  0  0  0  0  0  0  0  0  0  # atno 10763 bound_to 10752
  154.7343  135.5053  153.9018 H   0  0  0  0  0  0  0  0  0  0  0  0  # atno 10764 bound_to 10752
  153.0918  135.6710  153.9950 H   0  0  0  0  0  0  0  0  0  0  0  0  # atno 10765 bound_to 10752
  139.8790  134.9295  156.5338 H   0  0  0  0  0  0  0  0  0  0  0  0  # atno 11005 bound_to 11000
  145.7728  139.1863  143.2202 LP  0  0  0  0  0  0  0  0  0  0  0  0  # atno 17320 bound_to 7965
  146.0897  140.7670  142.9601 LP  0  0  0  0  0  0  0  0  0  0  0  0  # atno 17321 bound_to 7965
  139.8858  144.6992  150.8826 LP  0  0  0  0  0  0  0  0  0  0  0  0  # atno 17342 bound_to 10162
  140.7753  143.3625  151.1802 LP  0  0  0  0  0  0  0  0  0  0  0  0  # atno 17343 bound_to 10162
  157.2161  131.0472  151.2572 LP  0  0  0  0  0  0  0  0  0  0  0  0  # atno 17370 bound_to 10713
  157.3843  130.7248  149.6652 LP  0  0  0  0  0  0  0  0  0  0  0  0  # atno 17371 bound_to 10713
  140.8361  133.8241  155.9030 LP  0  0  0  0  0  0  0  0  0  0  0  0  # atno 17394 bound_to 11000
  140.9282  134.2055  157.4881 LP  0  0  0  0  0  0  0  0  0  0  0  0  # atno 17395 bound_to 11000

$$$$
