AV-unprocessed.smi:1216|AV-procd|sdf|5099|dock5
  -GOLD-   22720 4153D 1   1.00000     0.00000
 Structure written by MMmdl.
 43 44  0  0  0  0  0  0  0  0  2 V2000
  146.4800  138.3499  151.8027 C   0  0  0  0  0  0  0  0  0  0  0  0
  145.8497  137.0210  152.2411 C   0  0  1  0  0  0  0  0  0  0  0  0
  145.6118  136.0913  151.0312 C   0  0  0  0  0  0  0  0  0  0  0  0
  144.7787  134.9277  151.3527 N   0  0  0  0  0  0  0  0  0  0  0  0
  144.3653  133.9371  150.4990 C   0  0  0  0  0  0  0  0  0  0  0  0
  143.6163  133.0650  151.2463 C   0  0  0  0  0  0  0  0  0  0  0  0
  143.5987  133.5632  152.5215 N   0  3  0  0  0  0  0  0  0  0  0  0
  144.3024  134.6981  152.5833 C   0  0  0  0  0  0  0  0  0  0  0  0
  146.7233  136.3894  153.2288 N   0  0  0  0  0  0  0  0  0  0  0  0
  146.4236  136.1684  154.5184 C   0  0  0  0  0  0  0  0  0  0  0  0
  145.3313  136.4464  155.0157 O   0  0  0  0  0  0  0  0  0  0  0  0
  147.5251  135.5063  155.3570 C   0  0  0  0  0  0  0  0  0  0  0  0
  148.3156  134.5196  154.6054 N   0  0  0  0  0  0  0  0  0  0  0  0
  149.7793  134.6610  154.6638 C   0  0  0  0  0  0  0  0  0  0  0  0
  150.4812  133.5443  155.4709 C   0  0  0  0  0  0  0  0  0  0  0  0
  149.7948  132.1641  155.4618 C   0  0  0  0  0  0  0  0  0  0  0  0
  149.4551  131.6131  154.0609 C   0  0  0  0  0  0  0  0  0  0  0  0
  148.6137  132.5311  153.1421 C   0  0  0  0  0  0  0  0  0  0  0  0
  147.7186  133.5327  153.8903 C   0  0  0  0  0  0  0  0  0  0  0  0
  146.4961  133.4060  153.8149 O   0  0  0  0  0  0  0  0  0  0  0  0
  145.8411  138.8711  151.0892 H   0  0  0  0  0  0  0  0  0  0  0  0
  147.4494  138.1938  151.3282 H   0  0  0  0  0  0  0  0  0  0  0  0
  146.6287  139.0149  152.6544 H   0  0  0  0  0  0  0  0  0  0  0  0
  144.8895  137.2603  152.7019 H   0  0  0  0  0  0  0  0  0  0  0  0
  145.1104  136.6336  150.2283 H   0  0  0  0  0  0  0  0  0  0  0  0
  146.5585  135.7324  150.6247 H   0  0  0  0  0  0  0  0  0  0  0  0
  144.6333  133.9235  149.4525 H   0  0  0  0  0  0  0  0  0  0  0  0
  143.1076  132.1518  150.9736 H   0  0  0  0  0  0  0  0  0  0  0  0
  144.4621  135.3044  153.4572 H   0  0  0  0  0  0  0  0  0  0  0  0
  147.6437  136.1213  152.9105 H   0  0  0  0  0  0  0  0  0  0  0  0
  148.1738  136.2895  155.7507 H   0  0  0  0  0  0  0  0  0  0  0  0
  147.0794  135.0345  156.2347 H   0  0  0  0  0  0  0  0  0  0  0  0
  150.1779  134.6903  153.6496 H   0  0  0  0  0  0  0  0  0  0  0  0
  150.0563  135.6301  155.0809 H   0  0  0  0  0  0  0  0  0  0  0  0
  151.5067  133.4446  155.1142 H   0  0  0  0  0  0  0  0  0  0  0  0
  150.5624  133.8662  156.5095 H   0  0  0  0  0  0  0  0  0  0  0  0
  150.4381  131.4487  155.9749 H   0  0  0  0  0  0  0  0  0  0  0  0
  148.8870  132.2079  156.0651 H   0  0  0  0  0  0  0  0  0  0  0  0
  150.3829  131.3639  153.5447 H   0  0  0  0  0  0  0  0  0  0  0  0
  148.9285  130.6662  154.1858 H   0  0  0  0  0  0  0  0  0  0  0  0
  149.2651  133.0796  152.4621 H   0  0  0  0  0  0  0  0  0  0  0  0
  147.9927  131.9133  152.4920 H   0  0  0  0  0  0  0  0  0  0  0  0
  143.1242  133.1356  153.3068 H   0  0  0  0  0  0  0  0  0  0  0  0
  1  2  1  0  0  0  0
  1 21  1  0  0  0  0
  1 22  1  0  0  0  0
  1 23  1  0  0  0  0
  2  3  1  0  0  0  0
  2  9  1  0  0  0  0
  2 24  1  0  0  0  0
  3  4  1  0  0  0  0
  3 25  1  0  0  0  0
  3 26  1  0  0  0  0
  4  8  1  0  0  0  0
  4  5  1  0  0  0  0
  5  6  2  0  0  0  0
  5 27  1  0  0  0  0
  6  7  1  0  0  0  0
  6 28  1  0  0  0  0
  7  8  2  0  0  0  0
  7 43  1  0  0  0  0
  8 29  1  0  0  0  0
  9 10  1  0  0  0  0
  9 30  1  0  0  0  0
 10 11  2  0  0  0  0
 10 12  1  0  0  0  0
 12 13  1  0  0  0  0
 12 31  1  0  0  0  0
 12 32  1  0  0  0  0
 13 19  1  0  0  0  0
 13 14  1  0  0  0  0
 14 15  1  0  0  0  0
 14 33  1  0  0  0  0
 14 34  1  0  0  0  0
 15 16  1  0  0  0  0
 15 35  1  0  0  0  0
 15 36  1  0  0  0  0
 16 17  1  0  0  0  0
 16 37  1  0  0  0  0
 16 38  1  0  0  0  0
 17 18  1  0  0  0  0
 17 39  1  0  0  0  0
 17 40  1  0  0  0  0
 18 19  1  0  0  0  0
 18 41  1  0  0  0  0
 18 42  1  0  0  0  0
 19 20  2  0  0  0  0
M  CHG  1   7   1
M  END
> <s_m_source_file>
AV-unprocessed.smi

> <i_m_source_file_index>
1216

> <i_lp_mmshare_version>
43012

> <i_f3d_flags>
0

> <s_epik_input>
W2NIXTFuW2NIXVtjSF1uMVtDSDJdW0NAQEhdKFtDSDNdKVtOSF1DKD1PKVtDSDJdTjJbQ0gyXVtDSDJdW0NIMl1bQ0gyXVtDSDJdQzI9Tw==

> <s_epik_cmdline>
J2VwaWtfcHl0aG9uJywgJy1waCcsICc3LjAnLCAnLXRuJywgJzgnLCAnLW1hJywgJzIwMCcsICctbWV0YWxfYmluZGluZycsICctaW1hZScsICc8aW5maWxlLm1hZT4nLCAnLW9tYWUnLCAnPG91dGZpbGUubWFlPic=

> <r_lp_tautomer_probability>
1

> <r_epik_Ionization_Penalty>
0.254232

> <r_epik_Ionization_Penalty_Charging>
0

> <r_epik_Ionization_Penalty_Neutral>
0.254232

> <r_epik_State_Penalty>
0.245698

> <r_epik_Charging_Adjusted_Penalty>
0.245698

> <i_epik_Tot_Q>
1

> <i_epik_Tot_abs_Q>
1

> <r_epik_Metal_State_Penalty>
0.535799

> <b_epik_Metal_Only>
0

> <s_lp_Force_Field>
OPLS_2005

> <r_lp_Energy>
21.2202

> <b_lp_Chiralities_Consistent>
1

> <s_lp_Variant>
AV-unprocessed.smi:1216-2

> <Gold.Version>
5.8.1

> <Gold.Id.Protein>
6NUR|6NUR_protein|mol2

> <Gold.PLP.Fitness>
44.7803

> <Gold.PLP.PLP>
-33.7386

> <Gold.PLP.part.hbond>
-2.0000

> <Gold.PLP.part.metal>
0.0000

> <Gold.PLP.part.buried>
-2.9671

> <Gold.PLP.part.nonpolar>
-29.6856

> <Gold.PLP.part.repulsive>
0.0871

> <Gold.PLP.ligand.clash>
0.0000

> <Gold.PLP.ligand.torsion>
0.4913

> <Gold.PLP.Chemscore.Hbond>
3.0000

> <Gold.PLP.Chemscore.CHOScore>
0.9884

> <Gold.PLP.Chemscore.Metal>
0.0000

> <Gold.Chemscore.Hbonds>
donor molecule, donor type, donor heavy atom, donor atom, acceptor molecule, acceptor atom, score
      L1  H     7    43       P1 10957  1.85
      L1  H     9    30       P1  7948  1.00
      L1  C     5    27       P1  7921  1.00

> <Gold.PLP.Chemscore.Internal.Correction>
0.0592

> <Gold.Rescore>
     Score         DG    S(hbond)    S(metal)    S(lipo)     H(rot)  DE(clash)    DE(int)     intcor
     12.06     -13.70       1.90        0.00      64.67       2.22       0.06       1.58       ----

> <Gold.Chemscore.Fitness>
12.0630

> <Gold.Chemscore.DG>
-13.7044

> <Gold.Chemscore.ZeroCoef>
-5.4800

> <Gold.Chemscore.Hbond>
1.8954

> <Gold.Chemscore.Metal>
0.0000

> <Gold.Chemscore.Lipo>
64.6743

> <Gold.Chemscore.Internal_Hbond>
0.0000

> <Gold.Chemscore.DEClash>
0.0607

> <Gold.Chemscore.DEInternal>
1.5807

> <Gold.Chemscore.Rot>
2.2161

> <Gold.Chemscore.Internal.Correction>
   9.000000E+99

> <Gold.Chemscore.Hbonds>
donor molecule, donor type, donor heavy atom, donor atom, acceptor molecule, acceptor atom, score
      L1  H     7    43       P1 10957  0.75
      L1  H     9    30       P1  7948  0.97

> <Gold.Chemscore.Hbond.Weighted>
-6.3308

> <Gold.Chemscore.Metal.Weighted>
-0.0000

> <Gold.Chemscore.Lipo.Weighted>
-7.5669

> <Gold.Chemscore.Internal_Hbond.Weighted>
0.0000

> <Gold.Chemscore.DEClash.Weighted>
0.0607

> <Gold.Chemscore.DEInternal.Weighted>
1.5807

> <Gold.Chemscore.Rot.Weighted>
5.6733

> <Gold.Chemscore.Internal.Correction.Weighted>
   9.000000E+99

> <Gold.Protein.RotatedTorsions>
[ 6907 6896 6895 6894 ] final -164.82 input  -60.11 | X-H torsion
[ 7974 7965 7964 7962 ] final  -30.15 input  175.53 | X-H torsion
[ 8008 7997 7996 7995 ] final    9.62 input   59.86 | X-H torsion
[ 10167 10162 10161 10158 ] final  -28.08 input  -65.29 | X-H torsion
[ 10718 10713 10712 10709 ] final  131.53 input   66.30 | X-H torsion
[ 10763 10752 10751 10750 ] final  -19.23 input  -60.55 | X-H torsion
[ 11005 11000 10999 10996 ] final  150.94 input  -57.11 | X-H torsion

> <Gold.Protein.ActiveResidues>
 VAL166  LYS551  ARG553  GLY616  TRP617  ASP618  TYR619  PRO620  LYS621  CYS622 
 ASP623  PHE694  ASN695  SER759  ASP760  ASP761  ALA762  ILE779  LEU786  VAL792 
 PHE793  MET794  SER795  GLU796  ALA797  LYS798  CYS799  TRP800  GLU811  SER814 

> <Gold.Protein.RotatedAtoms>
  151.4179  133.3707  159.2752 H   0  0  0  0  0  0  0  0  0  0  0  0  # atno 6907 bound_to 6896
  150.9315  134.8731  159.7565 H   0  0  0  0  0  0  0  0  0  0  0  0  # atno 6908 bound_to 6896
  152.5030  134.4124  159.9505 H   0  0  0  0  0  0  0  0  0  0  0  0  # atno 6909 bound_to 6896
  146.1164  140.5504  142.8755 H   0  0  0  0  0  0  0  0  0  0  0  0  # atno 7974 bound_to 7965
  154.7825  140.2821  155.6053 H   0  0  0  0  0  0  0  0  0  0  0  0  # atno 8008 bound_to 7997
  156.2952  140.2620  156.2581 H   0  0  0  0  0  0  0  0  0  0  0  0  # atno 8009 bound_to 7997
  154.9768  140.0375  157.2249 H   0  0  0  0  0  0  0  0  0  0  0  0  # atno 8010 bound_to 7997
  140.7272  143.4039  151.1218 H   0  0  0  0  0  0  0  0  0  0  0  0  # atno 10167 bound_to 10162
  157.4959  131.1092  150.9494 H   0  0  0  0  0  0  0  0  0  0  0  0  # atno 10718 bound_to 10713
  153.6016  135.6999  153.5382 H   0  0  0  0  0  0  0  0  0  0  0  0  # atno 10763 bound_to 10752
  153.3092  135.4106  155.1321 H   0  0  0  0  0  0  0  0  0  0  0  0  # atno 10764 bound_to 10752
  154.8581  135.3668  154.5551 H   0  0  0  0  0  0  0  0  0  0  0  0  # atno 10765 bound_to 10752
  140.1175  134.8885  157.2024 H   0  0  0  0  0  0  0  0  0  0  0  0  # atno 11005 bound_to 11000
  144.7557  140.5300  143.6771 LP  0  0  0  0  0  0  0  0  0  0  0  0  # atno 17320 bound_to 7965
  145.5558  139.1478  143.3369 LP  0  0  0  0  0  0  0  0  0  0  0  0  # atno 17321 bound_to 7965
  139.7663  143.8560  152.3111 LP  0  0  0  0  0  0  0  0  0  0  0  0  # atno 17342 bound_to 10162
  139.8463  144.7186  150.9268 LP  0  0  0  0  0  0  0  0  0  0  0  0  # atno 17343 bound_to 10162
  157.0181  130.5663  149.5328 LP  0  0  0  0  0  0  0  0  0  0  0  0  # atno 17370 bound_to 10713
  156.0200  130.5295  150.8247 LP  0  0  0  0  0  0  0  0  0  0  0  0  # atno 17371 bound_to 10713
  140.3009  134.3132  155.7290 LP  0  0  0  0  0  0  0  0  0  0  0  0  # atno 17394 bound_to 11000
  141.2144  133.7591  156.9639 LP  0  0  0  0  0  0  0  0  0  0  0  0  # atno 17395 bound_to 11000

$$$$
