AV-unprocessed.smi:232|AV-procd|sdf|1768|dock2
  -GOLD-   2262020303D 1   1.00000     0.00000
 Structure written by MMmdl.
 52 55  0  0  0  0  0  0  0  0  1 V2000
  150.6538  142.8810  157.9101 C   0  0  0  0  0  0  0  0  0  0  0  0
  150.9223  141.4565  158.4108 C   0  0  0  0  0  0  0  0  0  0  0  0
  152.4047  141.2066  158.7620 C   0  0  1  0  0  0  0  0  0  0  0  0
  152.9217  142.0680  159.9241 C   0  0  0  0  0  0  0  0  0  0  0  0
  153.9632  141.1928  160.6319 C   0  0  0  0  0  0  0  0  0  0  0  0
  153.9853  139.8903  159.8246 C   0  0  1  0  0  0  0  0  0  0  0  0
  154.2885  138.6460  160.6749 C   0  0  0  0  0  0  0  0  0  0  0  0
  152.6799  139.8353  159.1759 N   0  0  0  0  0  0  0  0  0  0  0  0
  152.5301  138.9081  158.2002 C   0  0  0  0  0  0  0  0  0  0  0  0
  153.2928  138.9571  157.0754 N   0  0  0  0  0  0  0  0  0  0  0  0
  153.1192  138.0479  156.1109 C   0  0  0  0  0  0  0  0  0  0  0  0
  152.2549  137.0309  156.0667 N   0  0  0  0  0  0  0  0  0  0  0  0
  151.4884  136.9847  157.1942 C   0  0  0  0  0  0  0  0  0  0  0  0
  151.5621  137.8754  158.3004 C   0  0  0  0  0  0  0  0  0  0  0  0
  150.6261  137.5212  159.2637 N   0  0  0  0  0  0  0  0  0  0  0  0
  150.0275  136.4793  158.7530 C   0  0  0  0  0  0  0  0  0  0  0  0
  150.4815  136.0920  157.5121 N   0  0  0  0  0  0  0  0  0  0  0  0
  149.9945  134.9824  156.7129 C   0  0  0  0  0  0  0  0  0  0  0  0
  150.8326  134.7713  155.4370 C   0  0  2  0  0  0  0  0  0  0  0  0
  150.6501  135.8494  154.5381 O   0  0  0  0  0  0  0  0  0  0  0  0
  150.5386  133.4258  154.7434 C   0  0  2  0  0  0  0  0  0  0  0  0
  149.1587  133.2795  154.0957 C   0  0  0  0  0  0  0  0  0  0  0  0
  149.0024  131.7757  154.0721 C   0  0  0  0  0  0  0  0  0  0  0  0
  149.6388  131.3767  155.4011 C   0  0  0  0  0  0  0  0  0  0  0  0
  150.6798  132.3214  155.6341 O   0  0  0  0  0  0  0  0  0  0  0  0
  149.6061  143.0023  157.6345 H   0  0  0  0  0  0  0  0  0  0  0  0
  151.2571  143.1079  157.0306 H   0  0  0  0  0  0  0  0  0  0  0  0
  150.8818  143.6232  158.6751 H   0  0  0  0  0  0  0  0  0  0  0  0
  150.2951  141.2486  159.2786 H   0  0  0  0  0  0  0  0  0  0  0  0
  150.6032  140.7623  157.6330 H   0  0  0  0  0  0  0  0  0  0  0  0
  153.0134  141.4184  157.8811 H   0  0  0  0  0  0  0  0  0  0  0  0
  153.3439  143.0082  159.5680 H   0  0  0  0  0  0  0  0  0  0  0  0
  152.1173  142.3093  160.6204 H   0  0  0  0  0  0  0  0  0  0  0  0
  154.9473  141.6612  160.6645 H   0  0  0  0  0  0  0  0  0  0  0  0
  153.6488  141.0105  161.6604 H   0  0  0  0  0  0  0  0  0  0  0  0
  154.7568  139.9872  159.0590 H   0  0  0  0  0  0  0  0  0  0  0  0
  155.2511  138.7441  161.1771 H   0  0  0  0  0  0  0  0  0  0  0  0
  154.3291  137.7455  160.0614 H   0  0  0  0  0  0  0  0  0  0  0  0
  153.5265  138.4936  161.4398 H   0  0  0  0  0  0  0  0  0  0  0  0
  153.7634  138.1517  155.2504 H   0  0  0  0  0  0  0  0  0  0  0  0
  149.2287  135.9649  159.2672 H   0  0  0  0  0  0  0  0  0  0  0  0
  150.0127  134.0839  157.3307 H   0  0  0  0  0  0  0  0  0  0  0  0
  148.9496  135.1673  156.4603 H   0  0  0  0  0  0  0  0  0  0  0  0
  151.8880  134.7762  155.7127 H   0  0  0  0  0  0  0  0  0  0  0  0
  150.9125  135.5680  153.6751 H   0  0  0  0  0  0  0  0  0  0  0  0
  151.2869  133.2736  153.9634 H   0  0  0  0  0  0  0  0  0  0  0  0
  148.3736  133.7167  154.7129 H   0  0  0  0  0  0  0  0  0  0  0  0
  149.1049  133.7312  153.1047 H   0  0  0  0  0  0  0  0  0  0  0  0
  147.9653  131.4518  153.9815 H   0  0  0  0  0  0  0  0  0  0  0  0
  149.5683  131.3524  153.2411 H   0  0  0  0  0  0  0  0  0  0  0  0
  148.9105  131.4590  156.2087 H   0  0  0  0  0  0  0  0  0  0  0  0
  150.0206  130.3558  155.3915 H   0  0  0  0  0  0  0  0  0  0  0  0
  1  2  1  0  0  0  0
  1 26  1  0  0  0  0
  1 27  1  0  0  0  0
  1 28  1  0  0  0  0
  2  3  1  0  0  0  0
  2 29  1  0  0  0  0
  2 30  1  0  0  0  0
  3  8  1  0  0  0  0
  3  4  1  0  0  0  0
  3 31  1  0  0  0  0
  4  5  1  0  0  0  0
  4 32  1  0  0  0  0
  4 33  1  0  0  0  0
  5  6  1  0  0  0  0
  5 34  1  0  0  0  0
  5 35  1  0  0  0  0
  6  7  1  0  0  0  0
  6  8  1  0  0  0  0
  6 36  1  0  0  0  0
  7 37  1  0  0  0  0
  7 38  1  0  0  0  0
  7 39  1  0  0  0  0
  8  9  1  0  0  0  0
  9 14  1  0  0  0  0
  9 10  2  0  0  0  0
 10 11  1  0  0  0  0
 11 12  2  0  0  0  0
 11 40  1  0  0  0  0
 12 13  1  0  0  0  0
 13 17  1  0  0  0  0
 13 14  2  0  0  0  0
 14 15  1  0  0  0  0
 15 16  2  0  0  0  0
 16 17  1  0  0  0  0
 16 41  1  0  0  0  0
 17 18  1  0  0  0  0
 18 19  1  0  0  0  0
 18 42  1  0  0  0  0
 18 43  1  0  0  0  0
 19 20  1  0  0  0  0
 19 21  1  0  0  0  0
 19 44  1  0  0  0  0
 20 45  1  0  0  0  0
 21 25  1  0  0  0  0
 21 22  1  0  0  0  0
 21 46  1  0  0  0  0
 22 23  1  0  0  0  0
 22 47  1  0  0  0  0
 22 48  1  0  0  0  0
 23 24  1  0  0  0  0
 23 49  1  0  0  0  0
 23 50  1  0  0  0  0
 24 25  1  0  0  0  0
 24 51  1  0  0  0  0
 24 52  1  0  0  0  0
M  END
> <s_m_source_file>
AV-unprocessed.smi

> <i_m_source_file_index>
232

> <i_lp_mmshare_version>
43012

> <i_f3d_flags>
0

> <s_epik_input>
W0NIM11bQ0gyXVtDQEBIXTFbQ0gyXVtDSDJdW0NAQEhdKFtDSDNdKU4xYyhuW2NIXW4yKWMoYzIzKW5bY0hdbjNbQ0gyXVtDQEhdKFtPSF0pW0NAQEhdNFtDSDJdW0NIMl1bQ0gyXU80

> <s_epik_cmdline>
J2VwaWtfcHl0aG9uJywgJy1waCcsICc3LjAnLCAnLXRuJywgJzgnLCAnLW1hJywgJzIwMCcsICctbWV0YWxfYmluZGluZycsICctaW1hZScsICc8aW5maWxlLm1hZT4nLCAnLW9tYWUnLCAnPG91dGZpbGUubWFlPic=

> <r_lp_tautomer_probability>
1

> <r_epik_Ionization_Penalty>
0.00258048

> <r_epik_Ionization_Penalty_Charging>
0

> <r_epik_Ionization_Penalty_Neutral>
0.00258048

> <r_epik_State_Penalty>
0.00168551

> <r_epik_Charging_Adjusted_Penalty>
0.00168551

> <i_epik_Tot_Q>
0

> <i_epik_Tot_abs_Q>
0

> <r_epik_Metal_State_Penalty>
-0

> <b_epik_Metal_Only>
0

> <s_lp_Force_Field>
OPLS_2005

> <r_lp_Energy>
54.3711

> <b_lp_Chiralities_Consistent>
1

> <s_lp_Variant>
AV-unprocessed.smi:232-2

> <Gold.Version>
5.8.1

> <Gold.Id.Protein>
6NUR|6NUR_protein|mol2

> <Gold.PLP.Fitness>
46.0165

> <Gold.PLP.PLP>
-38.3461

> <Gold.PLP.part.hbond>
-4.3514

> <Gold.PLP.part.metal>
0.0000

> <Gold.PLP.part.buried>
-5.0091

> <Gold.PLP.part.nonpolar>
-28.2347

> <Gold.PLP.part.repulsive>
0.0061

> <Gold.PLP.ligand.clash>
0.2447

> <Gold.PLP.ligand.torsion>
0.1334

> <Gold.PLP.Chemscore.Hbond>
2.6992

> <Gold.PLP.Chemscore.CHOScore>
0.0000

> <Gold.PLP.Chemscore.Metal>
0.0000

> <Gold.Chemscore.Hbonds>
donor molecule, donor type, donor heavy atom, donor atom, acceptor molecule, acceptor atom, score
      L1  H    20    45       P1  7949  0.36
      P1  H  7997  8009       L1    10  1.00
      P1  H 10752 10765       L1    12  0.94

> <Gold.PLP.Chemscore.Internal.Correction>
0.0844

> <Gold.Rescore>
     Score         DG    S(hbond)    S(metal)    S(lipo)     H(rot)  DE(clash)    DE(int)     intcor
     13.32     -15.05       1.44        0.00      93.74       2.43       0.05       1.68       ----

> <Gold.Chemscore.Fitness>
13.3224

> <Gold.Chemscore.DG>
-15.0518

> <Gold.Chemscore.ZeroCoef>
-5.4800

> <Gold.Chemscore.Hbond>
1.4417

> <Gold.Chemscore.Metal>
0.0000

> <Gold.Chemscore.Lipo>
93.7369

> <Gold.Chemscore.Internal_Hbond>
0.0000

> <Gold.Chemscore.DEClash>
0.0456

> <Gold.Chemscore.DEInternal>
1.6837

> <Gold.Chemscore.Rot>
2.4260

> <Gold.Chemscore.Internal.Correction>
   9.000000E+99

> <Gold.Chemscore.Hbonds>
donor molecule, donor type, donor heavy atom, donor atom, acceptor molecule, acceptor atom, score
      L1  H    20    45       P1  7949  0.04
      P1  H  7997  8009       L1    10  0.77
      P1  H 10752 10765       L1    12  0.56

> <Gold.Chemscore.Hbond.Weighted>
-4.8152

> <Gold.Chemscore.Metal.Weighted>
-0.0000

> <Gold.Chemscore.Lipo.Weighted>
-10.9672

> <Gold.Chemscore.Internal_Hbond.Weighted>
0.0000

> <Gold.Chemscore.DEClash.Weighted>
0.0456

> <Gold.Chemscore.DEInternal.Weighted>
1.6837

> <Gold.Chemscore.Rot.Weighted>
6.2107

> <Gold.Chemscore.Internal.Correction.Weighted>
   9.000000E+99

> <Gold.Protein.RotatedTorsions>
[ 6907 6896 6895 6894 ] final   24.33 input  -60.11 | X-H torsion
[ 7974 7965 7964 7962 ] final   -9.06 input  175.53 | X-H torsion
[ 8008 7997 7996 7995 ] final -179.46 input   59.86 | X-H torsion
[ 10167 10162 10161 10158 ] final  140.74 input  -65.29 | X-H torsion
[ 10718 10713 10712 10709 ] final  151.72 input   66.30 | X-H torsion
[ 10763 10752 10751 10750 ] final -154.17 input  -60.55 | X-H torsion
[ 11005 11000 10999 10996 ] final  158.06 input  -57.11 | X-H torsion

> <Gold.Protein.ActiveResidues>
 VAL166  LYS551  ARG553  GLY616  TRP617  ASP618  TYR619  PRO620  LYS621  CYS622 
 ASP623  PHE694  ASN695  SER759  ASP760  ASP761  ALA762  ILE779  LEU786  VAL792 
 PHE793  MET794  SER795  GLU796  ALA797  LYS798  CYS799  TRP800  GLU811  SER814 

> <Gold.Protein.RotatedAtoms>
  151.9558  135.0147  160.0544 H   0  0  0  0  0  0  0  0  0  0  0  0  # atno 6907 bound_to 6896
  152.1912  133.4770  159.5017 H   0  0  0  0  0  0  0  0  0  0  0  0  # atno 6908 bound_to 6896
  150.6935  134.1627  159.4225 H   0  0  0  0  0  0  0  0  0  0  0  0  # atno 6909 bound_to 6896
  146.2263  140.2560  142.8349 H   0  0  0  0  0  0  0  0  0  0  0  0  # atno 7974 bound_to 7965
  156.0308  140.1281  157.0260 H   0  0  0  0  0  0  0  0  0  0  0  0  # atno 8008 bound_to 7997
  154.4349  140.1050  156.6167 H   0  0  0  0  0  0  0  0  0  0  0  0  # atno 8009 bound_to 7997
  155.5810  140.3468  155.4542 H   0  0  0  0  0  0  0  0  0  0  0  0  # atno 8010 bound_to 7997
  139.5040  144.6215  151.6038 H   0  0  0  0  0  0  0  0  0  0  0  0  # atno 10167 bound_to 10162
  157.2671  131.0809  151.1626 H   0  0  0  0  0  0  0  0  0  0  0  0  # atno 10718 bound_to 10713
  154.7877  135.3196  154.7848 H   0  0  0  0  0  0  0  0  0  0  0  0  # atno 10763 bound_to 10752
  153.8544  135.6859  153.4793 H   0  0  0  0  0  0  0  0  0  0  0  0  # atno 10764 bound_to 10752
  153.1535  135.4689  154.9611 H   0  0  0  0  0  0  0  0  0  0  0  0  # atno 10765 bound_to 10752
  140.1829  134.8463  157.2823 H   0  0  0  0  0  0  0  0  0  0  0  0  # atno 11005 bound_to 11000
  144.9375  140.8043  143.5651 LP  0  0  0  0  0  0  0  0  0  0  0  0  # atno 17320 bound_to 7965
  145.2509  139.2032  143.4943 LP  0  0  0  0  0  0  0  0  0  0  0  0  # atno 17321 bound_to 7965
  140.5919  143.9764  150.6330 LP  0  0  0  0  0  0  0  0  0  0  0  0  # atno 17342 bound_to 10162
  140.2947  143.3300  152.1029 LP  0  0  0  0  0  0  0  0  0  0  0  0  # atno 17343 bound_to 10162
  157.3113  130.6891  149.6217 LP  0  0  0  0  0  0  0  0  0  0  0  0  # atno 17370 bound_to 10713
  155.9663  130.4363  150.5127 LP  0  0  0  0  0  0  0  0  0  0  0  0  # atno 17371 bound_to 10713
  140.2247  134.3981  155.7549 LP  0  0  0  0  0  0  0  0  0  0  0  0  # atno 17394 bound_to 11000
  141.2223  133.7184  156.8546 LP  0  0  0  0  0  0  0  0  0  0  0  0  # atno 17395 bound_to 11000

$$$$
