AV-unprocessed.smi:148|AV-procd|sdf|1221|dock7
  -GOLD-   2262018413D 1   1.00000     0.00000
 Structure written by MMmdl.
 63 67  0  0  0  0  0  0  0  0  1 V2000
  157.1986  133.8113  159.0422 O   0  0  0  0  0  0  0  0  0  0  0  0
  156.2822  133.9557  160.1071 C   0  0  0  0  0  0  0  0  0  0  0  0
  155.6762  135.3809  160.1405 C   0  0  1  0  0  0  0  0  0  0  0  0
  154.7803  135.6694  158.9065 C   0  0  0  0  0  0  0  0  0  0  0  0
  154.3150  137.0437  158.8470 N   0  0  0  0  0  0  0  0  0  0  0  0
  155.0832  138.1632  158.6234 C   0  0  0  0  0  0  0  0  0  0  0  0
  154.4279  139.2918  158.6085 N   0  0  0  0  0  0  0  0  0  0  0  0
  153.1075  138.9219  158.8374 C   0  0  0  0  0  0  0  0  0  0  0  0
  151.8743  139.6285  158.9343 C   0  0  0  0  0  0  0  0  0  0  0  0
  151.7306  140.9680  158.8051 N   0  0  0  0  0  0  0  0  0  0  0  0
  152.8732  141.6382  159.4287 C   0  0  0  0  0  0  0  0  0  0  0  0
  152.6543  143.1530  159.5341 C   0  0  0  0  0  0  0  0  0  0  0  0
  152.3220  143.7409  158.1591 C   0  0  0  0  0  0  0  0  0  0  0  0
  151.1020  143.0199  157.5735 C   0  0  0  0  0  0  0  0  0  0  0  0
  151.3351  141.4885  157.4823 C   0  0  2  0  0  0  0  0  0  0  0  0
  150.1352  140.7245  156.8328 C   0  0  2  0  0  0  0  0  0  0  0  0
  150.5168  139.3648  156.2074 C   0  0  0  0  0  0  0  0  0  0  0  0
  149.7589  139.2608  154.8768 C   0  0  0  0  0  0  0  0  0  0  0  0
  148.6819  140.3415  154.9357 C   0  0  0  0  0  0  0  0  0  0  0  0
  149.3423  141.4634  155.7346 C   0  0  1  0  0  0  0  0  0  0  0  0
  148.3693  142.3413  156.2604 O   0  0  0  0  0  0  0  0  0  0  0  0
  150.7526  138.9145  159.2007 N   0  0  0  0  0  0  0  0  0  0  0  0
  150.8202  137.5865  159.3334 C   0  0  0  0  0  0  0  0  0  0  0  0
  151.8894  136.7926  159.2486 N   0  0  0  0  0  0  0  0  0  0  0  0
  153.0222  137.5110  159.0022 C   0  0  0  0  0  0  0  0  0  0  0  0
  154.9745  135.6694  161.4982 C   0  0  1  0  0  0  0  0  0  0  0  0
  155.7925  135.4351  162.7557 C   0  0  0  0  0  0  0  0  0  0  0  0
  154.9319  136.1330  163.8029 C   0  0  0  0  0  0  0  0  0  0  0  0
  154.3774  137.2643  163.1388 O   0  0  0  0  0  0  0  0  0  0  0  0
  154.4636  137.0972  161.7248 C   0  0  0  0  0  0  0  0  0  0  0  0
  157.1124  134.5573  158.4682 H   0  0  0  0  0  0  0  0  0  0  0  0
  155.5125  133.1988  159.9595 H   0  0  0  0  0  0  0  0  0  0  0  0
  156.7799  133.7215  161.0485 H   0  0  0  0  0  0  0  0  0  0  0  0
  156.5154  136.0755  160.0731 H   0  0  0  0  0  0  0  0  0  0  0  0
  155.3104  135.4529  157.9800 H   0  0  0  0  0  0  0  0  0  0  0  0
  153.8958  135.0338  158.9121 H   0  0  0  0  0  0  0  0  0  0  0  0
  156.1510  138.1144  158.4661 H   0  0  0  0  0  0  0  0  0  0  0  0
  153.0509  141.2307  160.4254 H   0  0  0  0  0  0  0  0  0  0  0  0
  153.7705  141.4371  158.8409 H   0  0  0  0  0  0  0  0  0  0  0  0
  151.8407  143.3586  160.2310 H   0  0  0  0  0  0  0  0  0  0  0  0
  153.5443  143.6317  159.9432 H   0  0  0  0  0  0  0  0  0  0  0  0
  152.1234  144.8095  158.2450 H   0  0  0  0  0  0  0  0  0  0  0  0
  153.1760  143.6316  157.4895 H   0  0  0  0  0  0  0  0  0  0  0  0
  150.2460  143.2406  158.2099 H   0  0  0  0  0  0  0  0  0  0  0  0
  150.8758  143.4440  156.5964 H   0  0  0  0  0  0  0  0  0  0  0  0
  152.1928  141.3471  156.8246 H   0  0  0  0  0  0  0  0  0  0  0  0
  149.4184  140.4623  157.6112 H   0  0  0  0  0  0  0  0  0  0  0  0
  151.5874  139.2505  156.0443 H   0  0  0  0  0  0  0  0  0  0  0  0
  150.2210  138.5566  156.8777 H   0  0  0  0  0  0  0  0  0  0  0  0
  150.4414  139.4750  154.0531 H   0  0  0  0  0  0  0  0  0  0  0  0
  149.3425  138.2671  154.7089 H   0  0  0  0  0  0  0  0  0  0  0  0
  148.3545  140.6639  153.9467 H   0  0  0  0  0  0  0  0  0  0  0  0
  147.8102  139.9580  155.4686 H   0  0  0  0  0  0  0  0  0  0  0  0
  149.9988  142.0183  155.0674 H   0  0  0  0  0  0  0  0  0  0  0  0
  148.5723  143.2198  155.9759 H   0  0  0  0  0  0  0  0  0  0  0  0
  149.8830  137.0885  159.5337 H   0  0  0  0  0  0  0  0  0  0  0  0
  154.1112  135.0060  161.5752 H   0  0  0  0  0  0  0  0  0  0  0  0
  155.9535  134.3791  162.9740 H   0  0  0  0  0  0  0  0  0  0  0  0
  156.7620  135.9291  162.7078 H   0  0  0  0  0  0  0  0  0  0  0  0
  154.1181  135.4813  164.1234 H   0  0  0  0  0  0  0  0  0  0  0  0
  155.4999  136.4260  164.6861 H   0  0  0  0  0  0  0  0  0  0  0  0
  155.1557  137.8456  161.3417 H   0  0  0  0  0  0  0  0  0  0  0  0
  153.4955  137.2658  161.2525 H   0  0  0  0  0  0  0  0  0  0  0  0
  1  2  1  0  0  0  0
  1 31  1  0  0  0  0
  2  3  1  0  0  0  0
  2 32  1  0  0  0  0
  2 33  1  0  0  0  0
  3  4  1  0  0  0  0
  3 26  1  0  0  0  0
  3 34  1  0  0  0  0
  4  5  1  0  0  0  0
  4 35  1  0  0  0  0
  4 36  1  0  0  0  0
  5 25  1  0  0  0  0
  5  6  1  0  0  0  0
  6  7  2  0  0  0  0
  6 37  1  0  0  0  0
  7  8  1  0  0  0  0
  8 25  2  0  0  0  0
  8  9  1  0  0  0  0
  9 10  1  0  0  0  0
  9 22  2  0  0  0  0
 10 15  1  0  0  0  0
 10 11  1  0  0  0  0
 11 12  1  0  0  0  0
 11 38  1  0  0  0  0
 11 39  1  0  0  0  0
 12 13  1  0  0  0  0
 12 40  1  0  0  0  0
 12 41  1  0  0  0  0
 13 14  1  0  0  0  0
 13 42  1  0  0  0  0
 13 43  1  0  0  0  0
 14 15  1  0  0  0  0
 14 44  1  0  0  0  0
 14 45  1  0  0  0  0
 15 16  1  0  0  0  0
 15 46  1  0  0  0  0
 16 20  1  0  0  0  0
 16 17  1  0  0  0  0
 16 47  1  0  0  0  0
 17 18  1  0  0  0  0
 17 48  1  0  0  0  0
 17 49  1  0  0  0  0
 18 19  1  0  0  0  0
 18 50  1  0  0  0  0
 18 51  1  0  0  0  0
 19 20  1  0  0  0  0
 19 52  1  0  0  0  0
 19 53  1  0  0  0  0
 20 21  1  0  0  0  0
 20 54  1  0  0  0  0
 21 55  1  0  0  0  0
 22 23  1  0  0  0  0
 23 24  2  0  0  0  0
 23 56  1  0  0  0  0
 24 25  1  0  0  0  0
 26 30  1  0  0  0  0
 26 27  1  0  0  0  0
 26 57  1  0  0  0  0
 27 28  1  0  0  0  0
 27 58  1  0  0  0  0
 27 59  1  0  0  0  0
 28 29  1  0  0  0  0
 28 60  1  0  0  0  0
 28 61  1  0  0  0  0
 29 30  1  0  0  0  0
 30 62  1  0  0  0  0
 30 63  1  0  0  0  0
M  END
> <s_m_source_file>
AV-unprocessed.smi

> <i_m_source_file_index>
148

> <i_lp_mmshare_version>
43012

> <i_f3d_flags>
0

> <s_epik_input>
W0NIMl0xT1tDSDJdW0NIMl1bQ0BIXTFbQ0BIXShbQ0gyXVtPSF0pW0NIMl1uKFtjSF1uMiljKGMyMyluW2NIXW5jM040W0NIMl1bQ0gyXVtDSDJdW0NIMl1bQ0BIXTRbQ0BASF01W0NIMl1bQ0gyXVtDSDJdW0NASF01W09IXQ==

> <s_epik_cmdline>
J2VwaWtfcHl0aG9uJywgJy1waCcsICc3LjAnLCAnLXRuJywgJzgnLCAnLW1hJywgJzIwMCcsICctbWV0YWxfYmluZGluZycsICctaW1hZScsICc8aW5maWxlLm1hZT4nLCAnLW9tYWUnLCAnPG91dGZpbGUubWFlPic=

> <r_lp_tautomer_probability>
1

> <r_epik_Ionization_Penalty>
0.00556303

> <r_epik_Ionization_Penalty_Charging>
0

> <r_epik_Ionization_Penalty_Neutral>
0.00556303

> <r_epik_State_Penalty>
0.00401767

> <r_epik_Charging_Adjusted_Penalty>
0.00401767

> <i_epik_Tot_Q>
0

> <i_epik_Tot_abs_Q>
0

> <r_epik_Metal_State_Penalty>
-0

> <b_epik_Metal_Only>
0

> <s_lp_Force_Field>
OPLS_2005

> <r_lp_Energy>
68.4806

> <b_lp_Chiralities_Consistent>
1

> <s_lp_Variant>
AV-unprocessed.smi:148-20

> <Gold.Version>
5.8.1

> <Gold.Id.Protein>
6NUR|6NUR_protein|mol2

> <Gold.PLP.Fitness>
57.9866

> <Gold.PLP.PLP>
-51.1490

> <Gold.PLP.part.hbond>
-2.7124

> <Gold.PLP.part.metal>
0.0000

> <Gold.PLP.part.buried>
-4.2994

> <Gold.PLP.part.nonpolar>
-41.6706

> <Gold.PLP.part.repulsive>
0.0210

> <Gold.PLP.ligand.clash>
0.0000

> <Gold.PLP.ligand.torsion>
1.2721

> <Gold.PLP.Chemscore.Hbond>
2.9920

> <Gold.PLP.Chemscore.CHOScore>
0.0000

> <Gold.PLP.Chemscore.Metal>
0.0000

> <Gold.Chemscore.Hbonds>
donor molecule, donor type, donor heavy atom, donor atom, acceptor molecule, acceptor atom, score
      L1  H    21    55       P1  8028  1.00
      P1  H  6896  6908       L1    24  1.00
      P1  H  7997  8009       L1     7  1.00

> <Gold.PLP.Chemscore.Internal.Correction>
0.4057

> <Gold.Rescore>
     Score         DG    S(hbond)    S(metal)    S(lipo)     H(rot)  DE(clash)    DE(int)     intcor
     12.74     -19.54       2.11        0.00     132.50       3.32       1.29       5.51       ----

> <Gold.Chemscore.Fitness>
12.7394

> <Gold.Chemscore.DG>
-19.5410

> <Gold.Chemscore.ZeroCoef>
-5.4800

> <Gold.Chemscore.Hbond>
2.1134

> <Gold.Chemscore.Metal>
0.0000

> <Gold.Chemscore.Lipo>
132.4985

> <Gold.Chemscore.Internal_Hbond>
0.0000

> <Gold.Chemscore.DEClash>
1.2891

> <Gold.Chemscore.DEInternal>
5.5125

> <Gold.Chemscore.Rot>
3.3203

> <Gold.Chemscore.Internal.Correction>
   9.000000E+99

> <Gold.Chemscore.Hbonds>
donor molecule, donor type, donor heavy atom, donor atom, acceptor molecule, acceptor atom, score
      L1  H    21    55       P1  8028  0.94
      P1  H  6896  6908       L1    24  0.80
      P1  H  7997  8009       L1     7  0.48

> <Gold.Chemscore.Hbond.Weighted>
-7.0587

> <Gold.Chemscore.Metal.Weighted>
-0.0000

> <Gold.Chemscore.Lipo.Weighted>
-15.5023

> <Gold.Chemscore.Internal_Hbond.Weighted>
0.0000

> <Gold.Chemscore.DEClash.Weighted>
1.2891

> <Gold.Chemscore.DEInternal.Weighted>
5.5125

> <Gold.Chemscore.Rot.Weighted>
8.5000

> <Gold.Chemscore.Internal.Correction.Weighted>
   9.000000E+99

> <Gold.Protein.RotatedTorsions>
[ 6907 6896 6895 6894 ] final -120.68 input  -60.11 | X-H torsion
[ 7974 7965 7964 7962 ] final   46.39 input  175.53 | X-H torsion
[ 8008 7997 7996 7995 ] final  137.17 input   59.86 | X-H torsion
[ 10167 10162 10161 10158 ] final   88.31 input  -65.29 | X-H torsion
[ 10718 10713 10712 10709 ] final  140.88 input   66.30 | X-H torsion
[ 10763 10752 10751 10750 ] final  -46.60 input  -60.55 | X-H torsion
[ 11005 11000 10999 10996 ] final  -70.53 input  -57.11 | X-H torsion

> <Gold.Protein.ActiveResidues>
 VAL166  LYS551  ARG553  GLY616  TRP617  ASP618  TYR619  PRO620  LYS621  CYS622 
 ASP623  PHE694  ASN695  SER759  ASP760  ASP761  ALA762  ILE779  LEU786  VAL792 
 PHE793  MET794  SER795  GLU796  ALA797  LYS798  CYS799  TRP800  GLU811  SER814 

> <Gold.Protein.RotatedAtoms>
  150.8415  133.7929  159.3058 H   0  0  0  0  0  0  0  0  0  0  0  0  # atno 6907 bound_to 6896
  151.5629  135.1063  159.9986 H   0  0  0  0  0  0  0  0  0  0  0  0  # atno 6908 bound_to 6896
  152.4478  133.7527  159.6759 H   0  0  0  0  0  0  0  0  0  0  0  0  # atno 6909 bound_to 6896
  146.0394  139.4861  142.9788 H   0  0  0  0  0  0  0  0  0  0  0  0  # atno 7974 bound_to 7965
  156.3003  140.2426  156.3866 H   0  0  0  0  0  0  0  0  0  0  0  0  # atno 8008 bound_to 7997
  154.8652  140.0418  157.1710 H   0  0  0  0  0  0  0  0  0  0  0  0  # atno 8009 bound_to 7997
  154.8854  140.2955  155.5405 H   0  0  0  0  0  0  0  0  0  0  0  0  # atno 8010 bound_to 7997
  139.8685  144.6505  150.8976 H   0  0  0  0  0  0  0  0  0  0  0  0  # atno 10167 bound_to 10162
  157.3983  131.1013  151.0577 H   0  0  0  0  0  0  0  0  0  0  0  0  # atno 10718 bound_to 10713
  154.0476  135.6635  153.4797 H   0  0  0  0  0  0  0  0  0  0  0  0  # atno 10763 bound_to 10752
  153.0476  135.5104  154.7782 H   0  0  0  0  0  0  0  0  0  0  0  0  # atno 10764 bound_to 10752
  154.6778  135.3040  154.9621 H   0  0  0  0  0  0  0  0  0  0  0  0  # atno 10765 bound_to 10752
  141.1576  133.6792  156.6767 H   0  0  0  0  0  0  0  0  0  0  0  0  # atno 11005 bound_to 11000
  145.6910  141.0164  143.1555 LP  0  0  0  0  0  0  0  0  0  0  0  0  # atno 17320 bound_to 7965
  144.7067  139.8533  143.7428 LP  0  0  0  0  0  0  0  0  0  0  0  0  # atno 17321 bound_to 7965
  140.7764  143.3683  151.1696 LP  0  0  0  0  0  0  0  0  0  0  0  0  # atno 17342 bound_to 10162
  139.7306  143.9079  152.3018 LP  0  0  0  0  0  0  0  0  0  0  0  0  # atno 17343 bound_to 10162
  157.1585  130.6215  149.5603 LP  0  0  0  0  0  0  0  0  0  0  0  0  # atno 17370 bound_to 10713
  155.9816  130.4825  150.6838 LP  0  0  0  0  0  0  0  0  0  0  0  0  # atno 17371 bound_to 10713
  140.3133  134.8068  157.4194 LP  0  0  0  0  0  0  0  0  0  0  0  0  # atno 17394 bound_to 11000
  140.1159  134.5283  155.8225 LP  0  0  0  0  0  0  0  0  0  0  0  0  # atno 17395 bound_to 11000

$$$$
