#       Name:                AV-unprocessed.smi:2871
#       Creating user name   scv26
#       Creation time:       Fri Mar 27 15:49:46 2020


#       File generated by GOLD software.
#

@<TRIPOS>MOLECULE
AV-unprocessed.smi:2871
    42    44     1
SMALL
NO_CHARGES


@<TRIPOS>ATOM
      1 ****        -3.3817  -0.1135  -3.0763 C.3            1 S1                 0.0000
      2 ****        -2.6579   0.1405  -1.8375 N.pl3          1 S1                 0.0000
      3 ****        -3.3864   0.3176  -0.5858 C.3            1 S1                 0.0000
      4 ****        -1.2469   0.1988  -1.8400 C.ar           1 S1                 0.0000
      5 ****        -0.4869  -0.0075  -3.0173 C.ar           1 S1                 0.0000
      6 ****         0.9189   0.0709  -2.8955 C.ar           1 S1                 0.0000
      7 ****         1.8461  -0.1341  -4.0839 C.3            1 S1                 0.0000
      8 ****         1.1657  -0.4127  -5.1966 F              1 S1                 0.0000
      9 ****         2.5613   0.9716  -4.2915 F              1 S1                 0.0000
     10 ****         2.6791  -1.1450  -3.8351 F              1 S1                 0.0000
     11 ****         1.5119   0.3331  -1.7090 N.ar           1 S1                 0.0000
     12 ****         0.7122   0.5121  -0.6585 C.ar           1 S1                 0.0000
     13 ****         1.3515   0.7707   0.5398 N.pl3          1 S1                 0.0000
     14 ****         0.6793   0.8732   1.8304 C.3            1 S1                 0.0000
     15 ****         1.6146   1.2942   2.9662 C.3            1 S1                 0.0000
     16 ****         1.3691   0.1875   4.0019 C.3            1 S1                 0.0000
     17 ****         2.0462  -1.1270   3.5935 C.3            1 S1                 0.0000
     18 ****         1.1580  -1.5882   2.4397 C.3            1 S1                 0.0000
     19 ****         0.1170  -0.4580   2.3677 C.3            1 S1                 0.0000
     20 ****         0.0119  -0.1315   3.7432 O.3            1 S1                 0.0000
     21 ****        -0.6230   0.4599  -0.6664 N.ar           1 S1                 0.0000
     22 ****        -3.1747   0.6691  -3.8068 H              1 S1                 0.0000
     23 ****        -4.4587  -0.1357  -2.9090 H              1 S1                 0.0000
     24 ****        -3.0916  -1.0744  -3.5019 H              1 S1                 0.0000
     25 ****        -3.1686   1.2923  -0.1485 H              1 S1                 0.0000
     26 ****        -3.1045  -0.4537   0.1316 H              1 S1                 0.0000
     27 ****        -4.4636   0.2542  -0.7391 H              1 S1                 0.0000
     28 ****        -0.9467  -0.2177  -3.9709 H              1 S1                 0.0000
     29 ****         2.3608   0.7917   0.5265 H              1 S1                 0.0000
     30 ****        -0.1285   1.6022   1.7521 H              1 S1                 0.0000
     31 ****         2.6641   1.3535   2.6740 H              1 S1                 0.0000
     32 ****         1.3174   2.2677   3.3578 H              1 S1                 0.0000
     33 ****         1.5737   0.4892   5.0295 H              1 S1                 0.0000
     34 ****         3.0864  -0.9857   3.2984 H              1 S1                 0.0000
     35 ****         2.0169  -1.8493   4.4100 H              1 S1                 0.0000
     36 ****         1.7065  -1.7251   1.5076 H              1 S1                 0.0000
     37 ****         0.6775  -2.5352   2.6875 H              1 S1                 0.0000
     38 ****        -0.8267  -0.7574   1.9109 H              1 S1                 0.0000
     39 ****         2.5066   0.3902  -1.6237 LP             1 S1                 0.0000
     40 ****        -0.5926   0.6500   3.8977 LP             1 S1                 0.0000
     41 ****        -0.3011  -0.9082   4.2898 LP             1 S1                 0.0000
     42 ****        -1.1476   0.6096   0.1717 LP             1 S1                 0.0000
@<TRIPOS>BOND
    1    1    2 1     
    2    1   22 1     
    3    1   23 1     
    4    1   24 1     
    5    2    3 1     
    6    2    4 1     
    7    3   25 1     
    8    3   26 1     
    9    3   27 1     
   10    4   21 ar    
   11    4    5 ar    
   12    5    6 ar    
   13    5   28 1     
   14    6    7 1     
   15    6   11 ar    
   16    7    8 1     
   17    7    9 1     
   18    7   10 1     
   19   11   12 ar    
   20   12   13 1     
   21   12   21 ar    
   22   13   14 1     
   23   13   29 1     
   24   14   19 1     
   25   14   15 1     
   26   14   30 1     
   27   15   16 1     
   28   15   31 1     
   29   15   32 1     
   30   16   20 1     
   31   16   17 1     
   32   16   33 1     
   33   17   18 1     
   34   17   34 1     
   35   17   35 1     
   36   18   19 1     
   37   18   36 1     
   38   18   37 1     
   39   19   20 1     
   40   19   38 1     
   41   11   39 1     
   42   20   40 1     
   43   20   41 1     
   44   21   42 1     
@<TRIPOS>SUBSTRUCTURE
      1 S1             1
@<TRIPOS>SET
LONE_PAIRS      STATIC     ATOMS    <user>   **** ""
4 39 40 41 42
DONOR_HYDROGENS      STATIC     ATOMS    <user>   **** ""
1 29
ATOM$BLUE        STATIC     ATOMS    COLORGROUP SYSTEM
4 39 40 41 42
ATOM$RED        STATIC     ATOMS    COLORGROUP SYSTEM
1 29
