#       Name:                AV-unprocessed.smi:1989
#       Creating user name   scv26
#       Creation time:       Fri Mar 27 10:26:40 2020


#       File generated by GOLD software.
#

@<TRIPOS>MOLECULE
AV-unprocessed.smi:1989
    33    34     1
SMALL
NO_CHARGES


@<TRIPOS>ATOM
      1 ****        -2.7277   2.0048   0.2725 C.3            1 S1                 0.0000
      2 ****        -2.2946   1.0258  -0.7635 C.2            1 S1                 0.0000
      3 ****        -1.8579  -0.2026  -0.4776 N.2            1 S1                 0.0000
      4 ****        -1.4838  -0.9216  -1.6183 C.2            1 S1                 0.0000
      5 ****        -0.9173  -2.3059  -1.4824 C.3            1 S1                 0.0000
      6 ****         0.6156  -2.3376  -1.3188 C.3            1 S1                 0.0000
      7 ****         1.0701  -1.5421  -0.1807 N.am           1 S1                 0.0000
      8 ****         1.5958  -0.3081  -0.2516 C.2            1 S1                 0.0000
      9 ****         1.8634   0.2652  -1.3074 O.2            1 S1                 0.0000
     10 ****         1.8643   0.2133   0.9561 N.am           1 S1                 0.0000
     11 ****         1.0617   0.1405   2.1752 C.3            1 S1                 0.0000
     12 ****         1.9068   1.2997   2.6935 C.3            1 S1                 0.0000
     13 ****         2.3505   1.5564   1.2567 C.3            1 S1                 0.0000
     14 ****        -1.6623  -0.2175  -2.7829 C.2            1 S1                 0.0000
     15 ****        -2.2923   1.3796  -2.4867 S.3            1 S1                 0.0000
     16 ****        -3.0816   1.4855   1.1637 H              1 S1                 0.0000
     17 ****        -3.5358   2.6269  -0.1126 H              1 S1                 0.0000
     18 ****        -1.8906   2.6461   0.5492 H              1 S1                 0.0000
     19 ****        -1.3742  -2.8071  -0.6282 H              1 S1                 0.0000
     20 ****        -1.1922  -2.9039  -2.3518 H              1 S1                 0.0000
     21 ****         0.9456  -3.3657  -1.1694 H              1 S1                 0.0000
     22 ****         1.0915  -1.9991  -2.2407 H              1 S1                 0.0000
     23 ****         0.9240  -1.9374   0.7367 H              1 S1                 0.0000
     24 ****         0.0110   0.3962   2.0273 H              1 S1                 0.0000
     25 ****         1.1809  -0.7797   2.7480 H              1 S1                 0.0000
     26 ****         1.3345   2.1121   3.1425 H              1 S1                 0.0000
     27 ****         2.7247   0.9738   3.3384 H              1 S1                 0.0000
     28 ****         3.4273   1.6876   1.1449 H              1 S1                 0.0000
     29 ****         1.7895   2.3509   0.7615 H              1 S1                 0.0000
     30 ****        -1.4474  -0.5347  -3.7925 H              1 S1                 0.0000
     31 ****        -1.8040  -0.5694   0.4511 LP             1 S1                 0.0000
     32 ****         1.6903  -0.1895  -2.1811 LP             1 S1                 0.0000
     33 ****         2.2540   1.1856  -1.2915 LP             1 S1                 0.0000
@<TRIPOS>BOND
    1    1    2 1     
    2    1   16 1     
    3    1   17 1     
    4    1   18 1     
    5    2   15 1     
    6    2    3 2     
    7    3    4 1     
    8    4    5 1     
    9    4   14 2     
   10    5    6 1     
   11    5   19 1     
   12    5   20 1     
   13    6    7 1     
   14    6   21 1     
   15    6   22 1     
   16    7    8 am    
   17    7   23 1     
   18    8    9 2     
   19    8   10 am    
   20   10   13 1     
   21   10   11 1     
   22   11   12 1     
   23   11   24 1     
   24   11   25 1     
   25   12   13 1     
   26   12   26 1     
   27   12   27 1     
   28   13   28 1     
   29   13   29 1     
   30   14   15 1     
   31   14   30 1     
   32    3   31 1     
   33    9   32 1     
   34    9   33 1     
@<TRIPOS>SUBSTRUCTURE
      1 S1             1
@<TRIPOS>SET
LONE_PAIRS      STATIC     ATOMS    <user>   **** ""
3 31 32 33
DONOR_HYDROGENS      STATIC     ATOMS    <user>   **** ""
1 23
ATOM$BLUE        STATIC     ATOMS    COLORGROUP SYSTEM
3 31 32 33
ATOM$RED        STATIC     ATOMS    COLORGROUP SYSTEM
1 23
