AV-unprocessed.smi:2528|AV-procd|sdf|9956|dock8
  -GOLD-   2272013593D 1   1.00000     0.00000
 Structure written by MMmdl.
 43 45  0  0  0  0  0  0  0  0  1 V2000
  150.8904  136.9728  159.4701 O   0  0  0  0  0  0  0  0  0  0  0  0
  149.9436  137.2495  158.7330 C   0  0  0  0  0  0  0  0  0  0  0  0
  150.0923  137.7615  157.5028 N   0  0  0  0  0  0  0  0  0  0  0  0
  151.3748  138.0454  156.8668 C   0  0  0  0  0  0  0  0  0  0  0  0
  151.7948  139.5197  157.0127 C   0  0  2  0  0  0  0  0  0  0  0  0
  152.1450  139.9114  158.4629 C   0  0  0  0  0  0  0  0  0  0  0  0
  152.4526  141.3311  158.5846 N   0  0  0  0  0  0  0  0  0  0  0  0
  152.7650  141.6907  159.9668 C   0  0  0  0  0  0  0  0  0  0  0  0
  153.1250  143.1772  160.1203 C   0  0  0  0  0  0  0  0  0  0  0  0
  151.9882  144.0592  159.5850 C   0  0  0  0  0  0  0  0  0  0  0  0
  151.6299  143.6428  158.1501 C   0  0  0  0  0  0  0  0  0  0  0  0
  151.3357  142.1304  158.0715 C   0  0  1  0  0  0  0  0  0  0  0  0
  150.9841  141.7201  156.6274 C   0  0  0  0  0  0  0  0  0  0  0  0
  150.7047  140.3253  156.5752 O   0  0  0  0  0  0  0  0  0  0  0  0
  148.6448  137.0812  159.0379 N   0  0  0  0  0  0  0  0  0  0  0  0
  148.0860  136.5633  160.2371 C   0  0  0  0  0  0  0  0  0  0  0  0
  146.9709  135.7126  160.0612 C   0  0  0  0  0  0  0  0  0  0  0  0
  146.3456  135.1477  161.1897 C   0  0  0  0  0  0  0  0  0  0  0  0
  146.8506  135.4500  162.4669 C   0  0  0  0  0  0  0  0  0  0  0  0
  147.9630  136.3067  162.5544 C   0  0  0  0  0  0  0  0  0  0  0  0
  148.5643  136.8483  161.4743 N   0  0  0  0  0  0  0  0  0  0  0  0
  149.2625  137.9594  156.9629 H   0  0  0  0  0  0  0  0  0  0  0  0
  152.1424  137.3936  157.2874 H   0  0  0  0  0  0  0  0  0  0  0  0
  151.2965  137.7847  155.8110 H   0  0  0  0  0  0  0  0  0  0  0  0
  152.6510  139.7163  156.3648 H   0  0  0  0  0  0  0  0  0  0  0  0
  151.3094  139.6574  159.1171 H   0  0  0  0  0  0  0  0  0  0  0  0
  152.9978  139.3246  158.8052 H   0  0  0  0  0  0  0  0  0  0  0  0
  151.9157  141.4570  160.6108 H   0  0  0  0  0  0  0  0  0  0  0  0
  153.5984  141.0842  160.3230 H   0  0  0  0  0  0  0  0  0  0  0  0
  153.3205  143.4111  161.1670 H   0  0  0  0  0  0  0  0  0  0  0  0
  154.0453  143.3903  159.5746 H   0  0  0  0  0  0  0  0  0  0  0  0
  151.1117  143.9556  160.2259 H   0  0  0  0  0  0  0  0  0  0  0  0
  152.2759  145.1104  159.6151 H   0  0  0  0  0  0  0  0  0  0  0  0
  150.7673  144.2143  157.8059 H   0  0  0  0  0  0  0  0  0  0  0  0
  152.4553  143.8936  157.4823 H   0  0  0  0  0  0  0  0  0  0  0  0
  150.4580  141.9322  158.6890 H   0  0  0  0  0  0  0  0  0  0  0  0
  150.1068  142.2652  156.2784 H   0  0  0  0  0  0  0  0  0  0  0  0
  151.8005  141.9577  155.9433 H   0  0  0  0  0  0  0  0  0  0  0  0
  147.9792  137.3447  158.3266 H   0  0  0  0  0  0  0  0  0  0  0  0
  146.5961  135.4904  159.0725 H   0  0  0  0  0  0  0  0  0  0  0  0
  145.4936  134.4939  161.0766 H   0  0  0  0  0  0  0  0  0  0  0  0
  146.3976  135.0367  163.3559 H   0  0  0  0  0  0  0  0  0  0  0  0
  148.3816  136.5643  163.5160 H   0  0  0  0  0  0  0  0  0  0  0  0
  1  2  2  0  0  0  0
  2  3  1  0  0  0  0
  2 15  1  0  0  0  0
  3  4  1  0  0  0  0
  3 22  1  0  0  0  0
  4  5  1  0  0  0  0
  4 23  1  0  0  0  0
  4 24  1  0  0  0  0
  5 14  1  0  0  0  0
  5  6  1  0  0  0  0
  5 25  1  0  0  0  0
  6  7  1  0  0  0  0
  6 26  1  0  0  0  0
  6 27  1  0  0  0  0
  7 12  1  0  0  0  0
  7  8  1  0  0  0  0
  8  9  1  0  0  0  0
  8 28  1  0  0  0  0
  8 29  1  0  0  0  0
  9 10  1  0  0  0  0
  9 30  1  0  0  0  0
  9 31  1  0  0  0  0
 10 11  1  0  0  0  0
 10 32  1  0  0  0  0
 10 33  1  0  0  0  0
 11 12  1  0  0  0  0
 11 34  1  0  0  0  0
 11 35  1  0  0  0  0
 12 13  1  0  0  0  0
 12 36  1  0  0  0  0
 13 14  1  0  0  0  0
 13 37  1  0  0  0  0
 13 38  1  0  0  0  0
 15 16  1  0  0  0  0
 15 39  1  0  0  0  0
 16 21  1  0  0  0  0
 16 17  2  0  0  0  0
 17 18  1  0  0  0  0
 17 40  1  0  0  0  0
 18 19  2  0  0  0  0
 18 41  1  0  0  0  0
 19 20  1  0  0  0  0
 19 42  1  0  0  0  0
 20 21  2  0  0  0  0
 20 43  1  0  0  0  0
M  END
> <s_m_source_file>
AV-unprocessed.smi

> <i_m_source_file_index>
2528

> <i_lp_mmshare_version>
43012

> <i_f3d_flags>
0

> <s_epik_input>
bjFbY0hdW2NIXVtjSF1bY0hdYzFbTkhdQyg9TylbTkhdW0NIMl1bQ0BIXShbQ0gyXTIpT1tDSDJdW0NAQEhdKE4yMylbQ0gyXVtDSDJdW0NIMl1bQ0gyXTM=

> <s_epik_cmdline>
J2VwaWtfcHl0aG9uJywgJy1waCcsICc3LjAnLCAnLXRuJywgJzgnLCAnLW1hJywgJzIwMCcsICctbWV0YWxfYmluZGluZycsICctaW1hZScsICc8aW5maWxlLm1hZT4nLCAnLW9tYWUnLCAnPG91dGZpbGUubWFlPic=

> <r_epik_Ionization_Penalty>
1.14192

> <r_epik_Ionization_Penalty_Charging>
0

> <r_epik_Ionization_Penalty_Neutral>
1.14192

> <r_epik_State_Penalty>
1.20248

> <r_epik_Charging_Adjusted_Penalty>
1.20248

> <i_epik_Tot_Q>
0

> <i_epik_Tot_abs_Q>
0

> <r_epik_Metal_State_Penalty>
1.20248

> <b_epik_Metal_Only>
0

> <s_lp_Force_Field>
OPLS_2005

> <r_lp_Energy>
34.3645

> <b_lp_Chiralities_Consistent>
1

> <s_lp_Variant>
AV-unprocessed.smi:2528-9

> <Gold.Version>
5.8.1

> <Gold.Id.Protein>
6NUR|6NUR_protein|mol2

> <Gold.PLP.Fitness>
45.0420

> <Gold.PLP.PLP>
-40.0875

> <Gold.PLP.part.hbond>
-1.9865

> <Gold.PLP.part.metal>
0.0000

> <Gold.PLP.part.buried>
-5.9455

> <Gold.PLP.part.nonpolar>
-32.4729

> <Gold.PLP.part.repulsive>
0.2192

> <Gold.PLP.ligand.clash>
0.0000

> <Gold.PLP.ligand.torsion>
0.5098

> <Gold.PLP.Chemscore.Hbond>
1.9913

> <Gold.PLP.Chemscore.CHOScore>
0.0000

> <Gold.PLP.Chemscore.Metal>
0.0000

> <Gold.Chemscore.Hbonds>
donor molecule, donor type, donor heavy atom, donor atom, acceptor molecule, acceptor atom, score
      P1  H  6896  6907       L1     1  1.00
      P1  H  6931  6943       L1    21  1.00

> <Gold.PLP.Chemscore.Internal.Correction>
0.0003

> <Gold.Rescore>
     Score         DG    S(hbond)    S(metal)    S(lipo)     H(rot)  DE(clash)    DE(int)     intcor
     19.37     -20.55       1.83        0.00     104.37       1.27       0.00       1.18       ----

> <Gold.Chemscore.Fitness>
19.3731

> <Gold.Chemscore.DG>
-20.5533

> <Gold.Chemscore.ZeroCoef>
-5.4800

> <Gold.Chemscore.Hbond>
1.8301

> <Gold.Chemscore.Metal>
0.0000

> <Gold.Chemscore.Lipo>
104.3665

> <Gold.Chemscore.Internal_Hbond>
0.0000

> <Gold.Chemscore.DEClash>
0.0000

> <Gold.Chemscore.DEInternal>
1.1801

> <Gold.Chemscore.Rot>
1.2696

> <Gold.Chemscore.Internal.Correction>
   9.000000E+99

> <Gold.Chemscore.Hbonds>
donor molecule, donor type, donor heavy atom, donor atom, acceptor molecule, acceptor atom, score
      P1  H  6896  6907       L1     1  0.78
      P1  H  6931  6943       L1    21  0.51

> <Gold.Chemscore.Hbond.Weighted>
-6.1126

> <Gold.Chemscore.Metal.Weighted>
-0.0000

> <Gold.Chemscore.Lipo.Weighted>
-12.2109

> <Gold.Chemscore.Internal_Hbond.Weighted>
0.0000

> <Gold.Chemscore.DEClash.Weighted>
0.0000

> <Gold.Chemscore.DEInternal.Weighted>
1.1801

> <Gold.Chemscore.Rot.Weighted>
3.2502

> <Gold.Chemscore.Internal.Correction.Weighted>
   9.000000E+99

> <Gold.Protein.RotatedTorsions>
[ 6907 6896 6895 6894 ] final  -35.52 input  -60.11 | X-H torsion
[ 7974 7965 7964 7962 ] final  149.17 input  175.53 | X-H torsion
[ 8008 7997 7996 7995 ] final  -60.30 input   59.86 | X-H torsion
[ 10167 10162 10161 10158 ] final   85.02 input  -65.29 | X-H torsion
[ 10718 10713 10712 10709 ] final   98.81 input   66.30 | X-H torsion
[ 10763 10752 10751 10750 ] final  -68.11 input  -60.55 | X-H torsion
[ 11005 11000 10999 10996 ] final  -48.30 input  -57.11 | X-H torsion

> <Gold.Protein.ActiveResidues>
 VAL166  LYS551  ARG553  GLY616  TRP617  ASP618  TYR619  PRO620  LYS621  CYS622 
 ASP623  PHE694  ASN695  SER759  ASP760  ASP761  ALA762  ILE779  LEU786  VAL792 
 PHE793  MET794  SER795  GLU796  ALA797  LYS798  CYS799  TRP800  GLU811  SER814 

> <Gold.Protein.RotatedAtoms>
  151.0388  134.9592  159.8150 H   0  0  0  0  0  0  0  0  0  0  0  0  # atno 6907 bound_to 6896
  152.5360  134.2685  159.8972 H   0  0  0  0  0  0  0  0  0  0  0  0  # atno 6908 bound_to 6896
  151.2697  133.4219  159.2654 H   0  0  0  0  0  0  0  0  0  0  0  0  # atno 6909 bound_to 6896
  144.8458  139.6247  143.5996 H   0  0  0  0  0  0  0  0  0  0  0  0  # atno 7974 bound_to 7965
  154.4392  140.1042  156.6252 H   0  0  0  0  0  0  0  0  0  0  0  0  # atno 8008 bound_to 7997
  155.5664  140.3488  155.4485 H   0  0  0  0  0  0  0  0  0  0  0  0  # atno 8009 bound_to 7997
  156.0422  140.1284  157.0132 H   0  0  0  0  0  0  0  0  0  0  0  0  # atno 8010 bound_to 7997
  139.9020  144.6323  150.8626 H   0  0  0  0  0  0  0  0  0  0  0  0  # atno 10167 bound_to 10162
  157.6888  131.0651  150.4853 H   0  0  0  0  0  0  0  0  0  0  0  0  # atno 10718 bound_to 10713
  154.3842  135.6067  153.5807 H   0  0  0  0  0  0  0  0  0  0  0  0  # atno 10763 bound_to 10752
  152.9788  135.5868  154.4374 H   0  0  0  0  0  0  0  0  0  0  0  0  # atno 10764 bound_to 10752
  154.4148  135.2845  155.1992 H   0  0  0  0  0  0  0  0  0  0  0  0  # atno 10765 bound_to 10752
  141.0692  133.6684  156.3421 H   0  0  0  0  0  0  0  0  0  0  0  0  # atno 11005 bound_to 11000
  146.2743  139.6712  142.9274 LP  0  0  0  0  0  0  0  0  0  0  0  0  # atno 17320 bound_to 7965
  145.4600  141.0432  143.2757 LP  0  0  0  0  0  0  0  0  0  0  0  0  # atno 17321 bound_to 7965
  140.7704  143.3429  151.2170 LP  0  0  0  0  0  0  0  0  0  0  0  0  # atno 17342 bound_to 10162
  139.7017  143.9523  152.2908 LP  0  0  0  0  0  0  0  0  0  0  0  0  # atno 17343 bound_to 10162
  156.5183  130.4156  149.6264 LP  0  0  0  0  0  0  0  0  0  0  0  0  # atno 17370 bound_to 10713
  156.3178  130.7264  151.2169 LP  0  0  0  0  0  0  0  0  0  0  0  0  # atno 17371 bound_to 10713
  140.5709  134.5841  157.5457 LP  0  0  0  0  0  0  0  0  0  0  0  0  # atno 17394 bound_to 11000
  139.9507  134.7623  156.0456 LP  0  0  0  0  0  0  0  0  0  0  0  0  # atno 17395 bound_to 11000

$$$$
