AV-unprocessed.smi:1824|AV-procd|sdf|7412|dock1
  -GOLD-   22720 9 83D 1   1.00000     0.00000
 Structure written by MMmdl.
 45 47  0  0  0  0  0  0  0  0  2 V2000
  143.5987  144.1485  155.4941 C   0  0  0  0  0  0  0  0  0  0  0  0
  144.5978  143.0339  155.8211 C   0  0  1  0  0  0  0  0  0  0  0  0
  145.7835  143.0117  154.8397 C   0  0  0  0  0  0  0  0  0  0  0  0
  146.7719  142.0031  155.2011 N   0  0  0  0  0  0  0  0  0  0  0  0
  147.8631  141.9658  154.2261 C   0  0  0  0  0  0  0  0  0  0  0  0
  149.1059  141.1616  154.6571 C   0  0  1  0  0  0  0  0  0  0  0  0
  149.7913  140.7426  153.4936 O   0  0  0  0  0  0  0  0  0  0  0  0
  150.0506  142.0060  155.5334 C   0  0  0  0  0  0  0  0  0  0  0  0
  150.8881  141.1861  156.4209 N   0  0  0  0  0  0  0  0  0  0  0  0
  151.2374  139.8754  156.3151 C   0  0  0  0  0  0  0  0  0  0  0  0
  152.0246  139.5714  157.3838 N   0  3  0  0  0  0  0  0  0  0  0  0
  152.1821  140.7049  158.1844 C   0  0  0  0  0  0  0  0  0  0  0  0
  152.8867  140.8922  159.3690 C   0  0  0  0  0  0  0  0  0  0  0  0
  152.8472  142.1837  159.9342 C   0  0  0  0  0  0  0  0  0  0  0  0
  153.5150  142.4206  161.0881 F   0  0  0  0  0  0  0  0  0  0  0  0
  152.1280  143.2314  159.3212 C   0  0  0  0  0  0  0  0  0  0  0  0
  152.1186  144.4573  159.8961 F   0  0  0  0  0  0  0  0  0  0  0  0
  151.4168  143.0289  158.1200 C   0  0  0  0  0  0  0  0  0  0  0  0
  151.4574  141.7480  157.5702 C   0  0  0  0  0  0  0  0  0  0  0  0
  147.2377  142.2679  156.5617 C   0  0  0  0  0  0  0  0  0  0  0  0
  146.0846  142.3299  157.5833 C   0  0  2  0  0  0  0  0  0  0  0  0
  145.4901  140.9497  157.9109 C   0  0  0  0  0  0  0  0  0  0  0  0
  145.0828  143.2490  157.1450 O   0  0  0  0  0  0  0  0  0  0  0  0
  143.1847  144.0236  154.4933 H   0  0  0  0  0  0  0  0  0  0  0  0
  144.0722  145.1296  155.5410 H   0  0  0  0  0  0  0  0  0  0  0  0
  142.7680  144.1457  156.2002 H   0  0  0  0  0  0  0  0  0  0  0  0
  144.0719  142.0796  155.7788 H   0  0  0  0  0  0  0  0  0  0  0  0
  145.4096  142.8173  153.8338 H   0  0  0  0  0  0  0  0  0  0  0  0
  146.2540  143.9961  154.8117 H   0  0  0  0  0  0  0  0  0  0  0  0
  147.4974  141.5411  153.2898 H   0  0  0  0  0  0  0  0  0  0  0  0
  148.1601  142.9883  153.9878 H   0  0  0  0  0  0  0  0  0  0  0  0
  148.8192  140.2762  155.2227 H   0  0  0  0  0  0  0  0  0  0  0  0
  149.2181  140.1734  153.0022 H   0  0  0  0  0  0  0  0  0  0  0  0
  150.6868  142.6509  154.9266 H   0  0  0  0  0  0  0  0  0  0  0  0
  149.4663  142.6697  156.1719 H   0  0  0  0  0  0  0  0  0  0  0  0
  150.9432  139.1987  155.5257 H   0  0  0  0  0  0  0  0  0  0  0  0
  153.4407  140.0940  159.8406 H   0  0  0  0  0  0  0  0  0  0  0  0
  150.8757  143.8406  157.6574 H   0  0  0  0  0  0  0  0  0  0  0  0
  147.9475  141.5076  156.8838 H   0  0  0  0  0  0  0  0  0  0  0  0
  147.7753  143.2172  156.5809 H   0  0  0  0  0  0  0  0  0  0  0  0
  146.4828  142.7334  158.5145 H   0  0  0  0  0  0  0  0  0  0  0  0
  146.2428  140.3002  158.3581 H   0  0  0  0  0  0  0  0  0  0  0  0
  145.1119  140.4447  157.0223 H   0  0  0  0  0  0  0  0  0  0  0  0
  144.6674  141.0390  158.6205 H   0  0  0  0  0  0  0  0  0  0  0  0
  152.4241  138.6566  157.5510 H   0  0  0  0  0  0  0  0  0  0  0  0
  1  2  1  0  0  0  0
  1 24  1  0  0  0  0
  1 25  1  0  0  0  0
  1 26  1  0  0  0  0
  2 23  1  0  0  0  0
  2  3  1  0  0  0  0
  2 27  1  0  0  0  0
  3  4  1  0  0  0  0
  3 28  1  0  0  0  0
  3 29  1  0  0  0  0
  4  5  1  0  0  0  0
  4 20  1  0  0  0  0
  5  6  1  0  0  0  0
  5 30  1  0  0  0  0
  5 31  1  0  0  0  0
  6  7  1  0  0  0  0
  6  8  1  0  0  0  0
  6 32  1  0  0  0  0
  7 33  1  0  0  0  0
  8  9  1  0  0  0  0
  8 34  1  0  0  0  0
  8 35  1  0  0  0  0
  9 19  1  0  0  0  0
  9 10  1  0  0  0  0
 10 11  2  0  0  0  0
 10 36  1  0  0  0  0
 11 12  1  0  0  0  0
 11 45  1  0  0  0  0
 12 19  2  0  0  0  0
 12 13  1  0  0  0  0
 13 14  2  0  0  0  0
 13 37  1  0  0  0  0
 14 15  1  0  0  0  0
 14 16  1  0  0  0  0
 16 17  1  0  0  0  0
 16 18  2  0  0  0  0
 18 19  1  0  0  0  0
 18 38  1  0  0  0  0
 20 21  1  0  0  0  0
 20 39  1  0  0  0  0
 20 40  1  0  0  0  0
 21 22  1  0  0  0  0
 21 23  1  0  0  0  0
 21 41  1  0  0  0  0
 22 42  1  0  0  0  0
 22 43  1  0  0  0  0
 22 44  1  0  0  0  0
M  CHG  1  11   1
M  END
> <s_m_source_file>
AV-unprocessed.smi

> <i_m_source_file_index>
1824

> <i_lp_mmshare_version>
43012

> <i_f3d_flags>
0

> <s_epik_input>
W0NIM11bQ0BASF0xW0NIMl1OKFtDSDJdW0NASF0oTzEpW0NIM10pW0NIMl1bQ0BIXShbT0hdKVtDSDJdbihbY0hdbjIpYyhjMjMpW2NIXWMoRiljKEYpW2NIXTM=

> <s_epik_cmdline>
J2VwaWtfcHl0aG9uJywgJy1waCcsICc3LjAnLCAnLXRuJywgJzgnLCAnLW1hJywgJzIwMCcsICctbWV0YWxfYmluZGluZycsICctaW1hZScsICc8aW5maWxlLm1hZT4nLCAnLW9tYWUnLCAnPG91dGZpbGUubWFlPic=

> <r_epik_Ionization_Penalty>
2.58709

> <r_epik_Ionization_Penalty_Charging>
2.37273

> <r_epik_Ionization_Penalty_Neutral>
0.214359

> <r_epik_State_Penalty>
2.71799

> <r_epik_Charging_Adjusted_Penalty>
5.09071

> <i_epik_Tot_Q>
1

> <i_epik_Tot_abs_Q>
1

> <r_epik_Metal_State_Penalty>
6.80217

> <b_epik_Metal_Only>
0

> <s_lp_Force_Field>
OPLS_2005

> <r_lp_Energy>
35.189

> <b_lp_Chiralities_Consistent>
1

> <s_lp_Variant>
AV-unprocessed.smi:1824-20

> <Gold.Version>
5.8.1

> <Gold.Id.Protein>
6NUR|6NUR_protein|mol2

> <Gold.PLP.Fitness>
49.3031

> <Gold.PLP.PLP>
-45.8519

> <Gold.PLP.part.hbond>
-2.4145

> <Gold.PLP.part.metal>
0.0000

> <Gold.PLP.part.buried>
-2.6469

> <Gold.PLP.part.nonpolar>
-39.9598

> <Gold.PLP.part.repulsive>
0.2960

> <Gold.PLP.ligand.clash>
0.0000

> <Gold.PLP.ligand.torsion>
0.9376

> <Gold.PLP.Chemscore.Hbond>
1.7200

> <Gold.PLP.Chemscore.CHOScore>
0.0000

> <Gold.PLP.Chemscore.Metal>
0.0000

> <Gold.Chemscore.Hbonds>
donor molecule, donor type, donor heavy atom, donor atom, acceptor molecule, acceptor atom, score
      L1  H     7    33       P1  7957  0.30
      P1  H  7989  7998       L1     7  0.37
      P1  H  8011  8017       L1     7  1.00

> <Gold.PLP.Chemscore.Internal.Correction>
0.1663

> <Gold.Rescore>
     Score         DG    S(hbond)    S(metal)    S(lipo)     H(rot)  DE(clash)    DE(int)     intcor
     12.96     -14.91       1.25        0.00      95.66       2.32       0.05       1.90       ----

> <Gold.Chemscore.Fitness>
12.9635

> <Gold.Chemscore.DG>
-14.9118

> <Gold.Chemscore.ZeroCoef>
-5.4800

> <Gold.Chemscore.Hbond>
1.2518

> <Gold.Chemscore.Metal>
0.0000

> <Gold.Chemscore.Lipo>
95.6610

> <Gold.Chemscore.Internal_Hbond>
0.0000

> <Gold.Chemscore.DEClash>
0.0521

> <Gold.Chemscore.DEInternal>
1.8961

> <Gold.Chemscore.Rot>
2.3210

> <Gold.Chemscore.Internal.Correction>
   9.000000E+99

> <Gold.Chemscore.Hbonds>
donor molecule, donor type, donor heavy atom, donor atom, acceptor molecule, acceptor atom, score
      L1  H     7    33       P1  7957  0.30
      P1  H  7989  7998       L1     7  0.37
      P1  H  8011  8017       L1     7  0.14

> <Gold.Chemscore.Hbond.Weighted>
-4.1811

> <Gold.Chemscore.Metal.Weighted>
-0.0000

> <Gold.Chemscore.Lipo.Weighted>
-11.1923

> <Gold.Chemscore.Internal_Hbond.Weighted>
0.0000

> <Gold.Chemscore.DEClash.Weighted>
0.0521

> <Gold.Chemscore.DEInternal.Weighted>
1.8961

> <Gold.Chemscore.Rot.Weighted>
5.9416

> <Gold.Chemscore.Internal.Correction.Weighted>
   9.000000E+99

> <Gold.Protein.RotatedTorsions>
[ 6907 6896 6895 6894 ] final  175.79 input  -60.11 | X-H torsion
[ 7974 7965 7964 7962 ] final   97.93 input  175.53 | X-H torsion
[ 8008 7997 7996 7995 ] final  130.91 input   59.86 | X-H torsion
[ 10167 10162 10161 10158 ] final  -27.05 input  -65.29 | X-H torsion
[ 10718 10713 10712 10709 ] final   35.85 input   66.30 | X-H torsion
[ 10763 10752 10751 10750 ] final -138.02 input  -60.55 | X-H torsion
[ 11005 11000 10999 10996 ] final   99.44 input  -57.11 | X-H torsion

> <Gold.Protein.ActiveResidues>
 VAL166  LYS551  ARG553  GLY616  TRP617  ASP618  TYR619  PRO620  LYS621  CYS622 
 ASP623  PHE694  ASN695  SER759  ASP760  ASP761  ALA762  ILE779  LEU786  VAL792 
 PHE793  MET794  SER795  GLU796  ALA797  LYS798  CYS799  TRP800  GLU811  SER814 

> <Gold.Protein.RotatedAtoms>
  151.7306  133.3317  159.3338 H   0  0  0  0  0  0  0  0  0  0  0  0  # atno 6907 bound_to 6896
  150.7614  134.6367  159.6224 H   0  0  0  0  0  0  0  0  0  0  0  0  # atno 6908 bound_to 6896
  152.3594  134.6896  160.0263 H   0  0  0  0  0  0  0  0  0  0  0  0  # atno 6909 bound_to 6896
  145.4189  139.2324  143.3207 H   0  0  0  0  0  0  0  0  0  0  0  0  # atno 7974 bound_to 7965
  156.2962  140.2584  156.2839 H   0  0  0  0  0  0  0  0  0  0  0  0  # atno 8008 bound_to 7997
  154.9575  140.0393  157.2192 H   0  0  0  0  0  0  0  0  0  0  0  0  # atno 8009 bound_to 7997
  154.7978  140.2823  155.5948 H   0  0  0  0  0  0  0  0  0  0  0  0  # atno 8010 bound_to 7997
  140.7279  143.4126  151.1081 H   0  0  0  0  0  0  0  0  0  0  0  0  # atno 10167 bound_to 10162
  157.3278  130.7481  149.6827 H   0  0  0  0  0  0  0  0  0  0  0  0  # atno 10718 bound_to 10713
  154.8647  135.3625  154.5317 H   0  0  0  0  0  0  0  0  0  0  0  0  # atno 10763 bound_to 10752
  153.5942  135.7014  153.5415 H   0  0  0  0  0  0  0  0  0  0  0  0  # atno 10764 bound_to 10752
  153.3347  135.4114  155.1485 H   0  0  0  0  0  0  0  0  0  0  0  0  # atno 10765 bound_to 10752
  139.8771  134.9095  156.4606 H   0  0  0  0  0  0  0  0  0  0  0  0  # atno 11005 bound_to 11000
  146.2667  140.4911  142.8831 LP  0  0  0  0  0  0  0  0  0  0  0  0  # atno 17320 bound_to 7965
  144.8259  140.6627  143.6323 LP  0  0  0  0  0  0  0  0  0  0  0  0  # atno 17321 bound_to 7965
  139.7761  143.8423  152.3129 LP  0  0  0  0  0  0  0  0  0  0  0  0  # atno 17342 bound_to 10162
  139.8358  144.7233  150.9393 LP  0  0  0  0  0  0  0  0  0  0  0  0  # atno 17343 bound_to 10162
  155.9692  130.4204  150.4421 LP  0  0  0  0  0  0  0  0  0  0  0  0  # atno 17370 bound_to 10713
  157.2448  131.0533  151.2415 LP  0  0  0  0  0  0  0  0  0  0  0  0  # atno 17371 bound_to 10713
  140.8866  133.7878  155.9525 LP  0  0  0  0  0  0  0  0  0  0  0  0  # atno 17394 bound_to 11000
  140.8798  134.2626  157.5150 LP  0  0  0  0  0  0  0  0  0  0  0  0  # atno 17395 bound_to 11000

$$$$
