AV-unprocessed.smi:1552|AV-procd|sdf|6237|dock6
  -GOLD-   22720 6423D 1   1.00000     0.00000
 Structure written by MMmdl.
 49 50  0  0  0  0  0  0  0  0  3 V2000
  143.4728  137.1632  152.9981 C   0  0  0  0  0  0  0  0  0  0  0  0
  143.7692  135.8107  152.4732 N   0  3  0  0  0  0  0  0  0  0  0  0
  143.1031  134.7606  153.2835 C   0  0  0  0  0  0  0  0  0  0  0  0
  145.2250  135.6049  152.1893 C   0  0  1  0  0  0  0  0  0  0  0  0
  146.1442  135.9522  153.3884 C   0  0  0  0  0  0  0  0  0  0  0  0
  146.8989  137.1777  153.1556 N   0  0  0  0  0  0  0  0  0  0  0  0
  147.0946  138.1764  154.0312 C   0  0  0  0  0  0  0  0  0  0  0  0
  146.5946  138.1306  155.1539 O   0  0  0  0  0  0  0  0  0  0  0  0
  147.9263  139.4018  153.6027 C   0  0  0  0  0  0  0  0  0  0  0  0
  149.2856  139.3990  154.1663 N   0  0  0  0  0  0  0  0  0  0  0  0
  150.0071  138.1928  154.1339 C   0  0  0  0  0  0  0  0  0  0  0  0
  151.2571  138.0998  154.6265 C   0  0  0  0  0  0  0  0  0  0  0  0
  151.8618  139.2932  155.2057 C   0  0  0  0  0  0  0  0  0  0  0  0
  153.0001  139.2251  155.6652 O   0  0  0  0  0  0  0  0  0  0  0  0
  151.1230  140.4413  155.2088 N   0  5  0  0  0  0  0  0  0  0  0  0
  149.8538  140.5219  154.7018 C   0  0  0  0  0  0  0  0  0  0  0  0
  149.2042  141.5686  154.7121 O   0  0  0  0  0  0  0  0  0  0  0  0
  145.4932  134.2111  151.5508 C   0  0  0  0  0  0  0  0  0  0  0  0
  144.4211  133.8339  150.5040 C   0  0  0  0  0  0  0  0  0  0  0  0
  144.7600  132.5114  149.7966 C   0  0  0  0  0  0  0  0  0  0  0  0
  144.9634  131.3724  150.8072 C   0  0  0  0  0  0  0  0  0  0  0  0
  146.0308  131.7405  151.8492 C   0  0  0  0  0  0  0  0  0  0  0  0
  145.6807  133.0571  152.5610 C   0  0  0  0  0  0  0  0  0  0  0  0
  143.9484  137.3183  153.9674 H   0  0  0  0  0  0  0  0  0  0  0  0
  142.3982  137.3045  153.1181 H   0  0  0  0  0  0  0  0  0  0  0  0
  143.8283  137.9330  152.3124 H   0  0  0  0  0  0  0  0  0  0  0  0
  143.4199  134.8013  154.3265 H   0  0  0  0  0  0  0  0  0  0  0  0
  143.3061  133.7598  152.9059 H   0  0  0  0  0  0  0  0  0  0  0  0
  142.0220  134.9011  153.2622 H   0  0  0  0  0  0  0  0  0  0  0  0
  145.4976  136.3178  151.4087 H   0  0  0  0  0  0  0  0  0  0  0  0
  145.5383  136.0870  154.2857 H   0  0  0  0  0  0  0  0  0  0  0  0
  146.8473  135.1436  153.5901 H   0  0  0  0  0  0  0  0  0  0  0  0
  147.3099  137.2870  152.2396 H   0  0  0  0  0  0  0  0  0  0  0  0
  147.9964  139.4685  152.5166 H   0  0  0  0  0  0  0  0  0  0  0  0
  147.3882  140.2996  153.9106 H   0  0  0  0  0  0  0  0  0  0  0  0
  149.4895  137.3588  153.6832 H   0  0  0  0  0  0  0  0  0  0  0  0
  151.7995  137.1664  154.5915 H   0  0  0  0  0  0  0  0  0  0  0  0
  146.4292  134.2915  150.9966 H   0  0  0  0  0  0  0  0  0  0  0  0
  143.4447  133.7433  150.9811 H   0  0  0  0  0  0  0  0  0  0  0  0
  144.3281  134.6255  149.7597 H   0  0  0  0  0  0  0  0  0  0  0  0
  143.9651  132.2495  149.0974 H   0  0  0  0  0  0  0  0  0  0  0  0
  145.6653  132.6364  149.2011 H   0  0  0  0  0  0  0  0  0  0  0  0
  144.0200  131.1562  151.3102 H   0  0  0  0  0  0  0  0  0  0  0  0
  145.2516  130.4595  150.2852 H   0  0  0  0  0  0  0  0  0  0  0  0
  146.1281  130.9369  152.5798 H   0  0  0  0  0  0  0  0  0  0  0  0
  147.0024  131.8336  151.3622 H   0  0  0  0  0  0  0  0  0  0  0  0
  146.4670  133.2970  153.2767 H   0  0  0  0  0  0  0  0  0  0  0  0
  144.7663  132.9063  153.1343 H   0  0  0  0  0  0  0  0  0  0  0  0
  143.3228  135.7807  151.5676 H   0  0  0  0  0  0  0  0  0  0  0  0
  1  2  1  0  0  0  0
  1 24  1  0  0  0  0
  1 25  1  0  0  0  0
  1 26  1  0  0  0  0
  2  3  1  0  0  0  0
  2  4  1  0  0  0  0
  2 49  1  0  0  0  0
  3 27  1  0  0  0  0
  3 28  1  0  0  0  0
  3 29  1  0  0  0  0
  4  5  1  0  0  0  0
  4 18  1  0  0  0  0
  4 30  1  0  0  0  0
  5  6  1  0  0  0  0
  5 31  1  0  0  0  0
  5 32  1  0  0  0  0
  6  7  1  0  0  0  0
  6 33  1  0  0  0  0
  7  8  2  0  0  0  0
  7  9  1  0  0  0  0
  9 10  1  0  0  0  0
  9 34  1  0  0  0  0
  9 35  1  0  0  0  0
 10 16  1  0  0  0  0
 10 11  1  0  0  0  0
 11 12  2  0  0  0  0
 11 36  1  0  0  0  0
 12 13  1  0  0  0  0
 12 37  1  0  0  0  0
 13 14  2  0  0  0  0
 13 15  1  0  0  0  0
 15 16  1  0  0  0  0
 16 17  2  0  0  0  0
 18 23  1  0  0  0  0
 18 19  1  0  0  0  0
 18 38  1  0  0  0  0
 19 20  1  0  0  0  0
 19 39  1  0  0  0  0
 19 40  1  0  0  0  0
 20 21  1  0  0  0  0
 20 41  1  0  0  0  0
 20 42  1  0  0  0  0
 21 22  1  0  0  0  0
 21 43  1  0  0  0  0
 21 44  1  0  0  0  0
 22 23  1  0  0  0  0
 22 45  1  0  0  0  0
 22 46  1  0  0  0  0
 23 47  1  0  0  0  0
 23 48  1  0  0  0  0
M  CHG  1   2   1
M  CHG  1  15  -1
M  END
> <s_m_source_file>
AV-unprocessed.smi

> <i_m_source_file_index>
1552

> <i_lp_mmshare_version>
43012

> <i_f3d_flags>
0

> <s_epik_input>
W0NIMl0xW0NIMl1bQ0gyXVtDSDJdW0NIMl1bQ0hdMVtDQEhdKE4oW0NIM10pW0NIM10pW0NIMl1bTkhdQyg9TylbQ0gyXW4yW2NIXVtjSF1jKD1PKVtuSF1jMj1P

> <s_epik_cmdline>
J2VwaWtfcHl0aG9uJywgJy1waCcsICc3LjAnLCAnLXRuJywgJzgnLCAnLW1hJywgJzIwMCcsICctbWV0YWxfYmluZGluZycsICctaW1hZScsICc8aW5maWxlLm1hZT4nLCAnLW9tYWUnLCAnPG91dGZpbGUubWFlPic=

> <r_lp_tautomer_probability>
1

> <r_epik_Ionization_Penalty>
2.93575

> <r_epik_Ionization_Penalty_Charging>
0.00331645

> <r_epik_Ionization_Penalty_Neutral>
2.93244

> <r_epik_State_Penalty>
2.92822

> <r_epik_Charging_Adjusted_Penalty>
2.93154

> <i_epik_Tot_Q>
0

> <i_epik_Tot_abs_Q>
2

> <r_epik_Metal_State_Penalty>
0.448509

> <b_epik_Metal_Only>
1

> <s_lp_Force_Field>
OPLS_2005

> <r_lp_Energy>
36.4882

> <b_lp_Chiralities_Consistent>
1

> <s_lp_Variant>
AV-unprocessed.smi:1552-4

> <Gold.Version>
5.8.1

> <Gold.Id.Protein>
6NUR|6NUR_protein|mol2

> <Gold.PLP.Fitness>
43.8954

> <Gold.PLP.PLP>
-39.2723

> <Gold.PLP.part.hbond>
-3.1617

> <Gold.PLP.part.metal>
0.0000

> <Gold.PLP.part.buried>
-3.3562

> <Gold.PLP.part.nonpolar>
-33.0007

> <Gold.PLP.part.repulsive>
0.2675

> <Gold.PLP.ligand.clash>
0.0000

> <Gold.PLP.ligand.torsion>
1.6587

> <Gold.PLP.Chemscore.Hbond>
1.5450

> <Gold.PLP.Chemscore.CHOScore>
1.0000

> <Gold.PLP.Chemscore.Metal>
0.0000

> <Gold.Chemscore.Hbonds>
donor molecule, donor type, donor heavy atom, donor atom, acceptor molecule, acceptor atom, score
      L1  H     6    33       P1  7948  0.37
      P1  H  7989  7998       L1    15  0.16
      P1  H  7997  8010       L1    14  1.00
      L1  C    11    36       P1  7948  1.00

> <Gold.PLP.Chemscore.Internal.Correction>
0.3054

> <Gold.Rescore>
     Score         DG    S(hbond)    S(metal)    S(lipo)     H(rot)  DE(clash)    DE(int)     intcor
     12.10     -13.77       1.56        0.00      79.59       2.43       0.11       1.56       ----

> <Gold.Chemscore.Fitness>
12.1003

> <Gold.Chemscore.DG>
-13.7726

> <Gold.Chemscore.ZeroCoef>
-5.4800

> <Gold.Chemscore.Hbond>
1.5577

> <Gold.Chemscore.Metal>
0.0000

> <Gold.Chemscore.Lipo>
79.5880

> <Gold.Chemscore.Internal_Hbond>
0.0000

> <Gold.Chemscore.DEClash>
0.1131

> <Gold.Chemscore.DEInternal>
1.5592

> <Gold.Chemscore.Rot>
2.4305

> <Gold.Chemscore.Internal.Correction>
   9.000000E+99

> <Gold.Chemscore.Hbonds>
donor molecule, donor type, donor heavy atom, donor atom, acceptor molecule, acceptor atom, score
      L1  H     6    33       P1  7948  0.35
      P1  H  7997  8010       L1    14  1.00

> <Gold.Chemscore.Hbond.Weighted>
-5.2028

> <Gold.Chemscore.Metal.Weighted>
-0.0000

> <Gold.Chemscore.Lipo.Weighted>
-9.3118

> <Gold.Chemscore.Internal_Hbond.Weighted>
0.0000

> <Gold.Chemscore.DEClash.Weighted>
0.1131

> <Gold.Chemscore.DEInternal.Weighted>
1.5592

> <Gold.Chemscore.Rot.Weighted>
6.2220

> <Gold.Chemscore.Internal.Correction.Weighted>
   9.000000E+99

> <Gold.Protein.RotatedTorsions>
[ 6907 6896 6895 6894 ] final  -43.17 input  -60.11 | X-H torsion
[ 7974 7965 7964 7962 ] final  -56.36 input  175.53 | X-H torsion
[ 8008 7997 7996 7995 ] final   80.98 input   59.86 | X-H torsion
[ 10167 10162 10161 10158 ] final   12.72 input  -65.29 | X-H torsion
[ 10718 10713 10712 10709 ] final   72.99 input   66.30 | X-H torsion
[ 10763 10752 10751 10750 ] final  -37.98 input  -60.55 | X-H torsion
[ 11005 11000 10999 10996 ] final   73.79 input  -57.11 | X-H torsion

> <Gold.Protein.ActiveResidues>
 VAL166  LYS551  ARG553  GLY616  TRP617  ASP618  TYR619  PRO620  LYS621  CYS622 
 ASP623  PHE694  ASN695  SER759  ASP760  ASP761  ALA762  ILE779  LEU786  VAL792 
 PHE793  MET794  SER795  GLU796  ALA797  LYS798  CYS799  TRP800  GLU811  SER814 

> <Gold.Protein.RotatedAtoms>
  150.9470  134.8874  159.7647 H   0  0  0  0  0  0  0  0  0  0  0  0  # atno 6907 bound_to 6896
  152.5104  134.3861  159.9378 H   0  0  0  0  0  0  0  0  0  0  0  0  # atno 6908 bound_to 6896
  151.3878  133.3759  159.2752 H   0  0  0  0  0  0  0  0  0  0  0  0  # atno 6909 bound_to 6896
  145.8636  140.8267  142.9924 H   0  0  0  0  0  0  0  0  0  0  0  0  # atno 7974 bound_to 7965
  155.8909  140.3439  155.5955 H   0  0  0  0  0  0  0  0  0  0  0  0  # atno 8008 bound_to 7997
  155.7612  140.0833  157.2173 H   0  0  0  0  0  0  0  0  0  0  0  0  # atno 8009 bound_to 7997
  154.4033  140.1535  156.2822 H   0  0  0  0  0  0  0  0  0  0  0  0  # atno 8010 bound_to 7997
  140.6050  143.8527  150.7004 H   0  0  0  0  0  0  0  0  0  0  0  0  # atno 10167 bound_to 10162
  157.6527  130.9606  150.1006 H   0  0  0  0  0  0  0  0  0  0  0  0  # atno 10718 bound_to 10713
  153.9052  135.6798  153.4753 H   0  0  0  0  0  0  0  0  0  0  0  0  # atno 10763 bound_to 10752
  153.1107  135.4784  154.9028 H   0  0  0  0  0  0  0  0  0  0  0  0  # atno 10764 bound_to 10752
  154.7555  135.3196  154.8433 H   0  0  0  0  0  0  0  0  0  0  0  0  # atno 10765 bound_to 10752
  139.9422  134.7378  156.1070 H   0  0  0  0  0  0  0  0  0  0  0  0  # atno 11005 bound_to 11000
  144.6726  140.1133  143.7454 LP  0  0  0  0  0  0  0  0  0  0  0  0  # atno 17320 bound_to 7965
  145.9219  139.2551  143.1376 LP  0  0  0  0  0  0  0  0  0  0  0  0  # atno 17321 bound_to 7965
  140.2082  143.3905  152.1739 LP  0  0  0  0  0  0  0  0  0  0  0  0  # atno 17342 bound_to 10162
  139.5318  144.7167  151.5029 LP  0  0  0  0  0  0  0  0  0  0  0  0  # atno 17343 bound_to 10162
  156.1930  130.3655  149.8886 LP  0  0  0  0  0  0  0  0  0  0  0  0  # atno 17370 bound_to 10713
  156.6809  130.8858  151.3575 LP  0  0  0  0  0  0  0  0  0  0  0  0  # atno 17371 bound_to 10713
  141.1061  133.6659  156.2867 LP  0  0  0  0  0  0  0  0  0  0  0  0  # atno 17394 bound_to 11000
  140.5923  134.5638  157.5502 LP  0  0  0  0  0  0  0  0  0  0  0  0  # atno 17395 bound_to 11000

$$$$
