#       Name:                AV-unprocessed.smi:1033
#       Creating user name   scv26
#       Creation time:       Fri Mar 27 02:50:31 2020


#       File generated by GOLD software.
#

@<TRIPOS>MOLECULE
AV-unprocessed.smi:1033
    62    64     1
SMALL
NO_CHARGES


@<TRIPOS>ATOM
      1 ****        -7.1982   1.1505  -2.2169 C.3            1 S1                 0.0000
      2 ****        -5.8987   1.4041  -1.4720 C.ar           1 S1                 0.0000
      3 ****        -5.9601   1.7081  -0.0929 C.ar           1 S1                 0.0000
      4 ****        -4.7549   1.9366   0.5603 C.ar           1 S1                 0.0000
      5 ****        -4.4807   2.2529   1.8928 N.pl3          1 S1                 1.0000
      6 ****        -3.1357   2.3839   2.0612 C.2            1 S1                 0.0000
      7 ****        -2.5477   2.1546   0.8557 N.pl3          1 S1                 0.0000
      8 ****        -1.1282   2.1704   0.4788 C.3            1 S1                 0.0000
      9 ****        -0.5083   0.7603   0.4022 C.3            1 S1                 0.0000
     10 ****        -0.6500   0.1431   1.6675 O.3            1 S1                 0.0000
     11 ****         0.9876   0.8194   0.0303 C.3            1 S1                 0.0000
     12 ****         1.4929  -0.3283  -0.7326 N.3            1 S1                 0.0000
     13 ****         2.8325  -0.0989  -1.2737 C.3            1 S1                 0.0000
     14 ****         3.9338  -0.0997  -0.1933 C.3            1 S1                 0.0000
     15 ****         3.9173  -1.3780   0.5635 N.4            1 S1                 1.0000
     16 ****         5.0027  -1.4507   1.5743 C.3            1 S1                 0.0000
     17 ****         5.3670  -2.8993   1.9555 C.3            1 S1                 0.0000
     18 ****         5.9830  -3.6900   0.7916 C.3            1 S1                 0.0000
     19 ****         6.3068  -2.8599   3.0085 O.3            1 S1                 0.0000
     20 ****         2.5640  -1.6408   1.1230 C.3            1 S1                 0.0000
     21 ****         1.5040  -1.5948   0.0032 C.3            1 S1                 0.0000
     22 ****        -3.5183   1.8721  -0.1104 C.ar           1 S1                 0.0000
     23 ****        -3.4390   1.5738  -1.4684 C.ar           1 S1                 0.0000
     24 ****        -4.6539   1.3365  -2.1504 C.ar           1 S1                 0.0000
     25 ****        -4.5997   1.0055  -3.6322 C.3            1 S1                 0.0000
     26 ****        -8.0612   1.2424  -1.5567 H              1 S1                 0.0000
     27 ****        -7.2080   0.1456  -2.6394 H              1 S1                 0.0000
     28 ****        -7.3210   1.8695  -3.0273 H              1 S1                 0.0000
     29 ****        -6.9037   1.7604   0.4301 H              1 S1                 0.0000
     30 ****        -2.6272   2.6236   2.9842 H              1 S1                 0.0000
     31 ****        -1.0338   2.6927  -0.4742 H              1 S1                 0.0000
     32 ****        -0.6011   2.7764   1.2173 H              1 S1                 0.0000
     33 ****        -1.0517   0.1726  -0.3387 H              1 S1                 0.0000
     34 ****        -0.3515  -0.7508   1.6003 H              1 S1                 0.0000
     35 ****         1.1273   1.7043  -0.5919 H              1 S1                 0.0000
     36 ****         1.5886   1.0036   0.9208 H              1 S1                 0.0000
     37 ****         3.0572  -0.8751  -2.0067 H              1 S1                 0.0000
     38 ****         2.8545   0.8421  -1.8246 H              1 S1                 0.0000
     39 ****         4.9049   0.0263  -0.6737 H              1 S1                 0.0000
     40 ****         3.8119   0.7407   0.4913 H              1 S1                 0.0000
     41 ****         5.8966  -0.9611   1.1843 H              1 S1                 0.0000
     42 ****         4.7064  -0.8826   2.4581 H              1 S1                 0.0000
     43 ****         4.4925  -3.4289   2.3323 H              1 S1                 0.0000
     44 ****         5.2805  -3.7863  -0.0366 H              1 S1                 0.0000
     45 ****         6.2577  -4.6981   1.1040 H              1 S1                 0.0000
     46 ****         6.8818  -3.2035   0.4105 H              1 S1                 0.0000
     47 ****         7.0958  -2.4415   2.6988 H              1 S1                 0.0000
     48 ****         2.5360  -2.6238   1.5917 H              1 S1                 0.0000
     49 ****         2.3338  -0.9162   1.9050 H              1 S1                 0.0000
     50 ****         0.5167  -1.8071   0.4115 H              1 S1                 0.0000
     51 ****         1.7039  -2.4065  -0.6980 H              1 S1                 0.0000
     52 ****        -2.4913   1.5232  -1.9836 H              1 S1                 0.0000
     53 ****        -3.5725   0.9712  -3.9965 H              1 S1                 0.0000
     54 ****        -5.1338   1.7584  -4.2120 H              1 S1                 0.0000
     55 ****        -5.0527   0.0329  -3.8252 H              1 S1                 0.0000
     56 ****         4.1031  -2.1047  -0.1130 H              1 S1                 0.0000
     57 ****        -5.1587   2.3713   2.6345 H              1 S1                 0.0000
     58 ****        -1.6108   0.1579   1.9443 LP             1 S1                 0.0000
     59 ****        -0.1004   0.6322   2.3448 LP             1 S1                 0.0000
     60 ****         0.8313  -0.4130  -1.4777 LP             1 S1                 0.0000
     61 ****         6.5156  -3.7912   3.3072 LP             1 S1                 0.0000
     62 ****         5.9301  -2.3405   3.7754 LP             1 S1                 0.0000
@<TRIPOS>BOND
    1    1    2 1     
    2    1   26 1     
    3    1   27 1     
    4    1   28 1     
    5    2   24 ar    
    6    2    3 ar    
    7    3    4 ar    
    8    3   29 1     
    9    4   22 ar    
   10    4    5 1     
   11    5    6 2     
   12    5   57 1     
   13    6    7 1     
   14    6   30 1     
   15    7    8 1     
   16    7   22 1     
   17    8    9 1     
   18    8   31 1     
   19    8   32 1     
   20    9   10 1     
   21    9   11 1     
   22    9   33 1     
   23   10   34 1     
   24   11   12 1     
   25   11   35 1     
   26   11   36 1     
   27   12   21 1     
   28   12   13 1     
   29   13   14 1     
   30   13   37 1     
   31   13   38 1     
   32   14   15 1     
   33   14   39 1     
   34   14   40 1     
   35   15   16 1     
   36   15   20 1     
   37   15   56 1     
   38   16   17 1     
   39   16   41 1     
   40   16   42 1     
   41   17   18 1     
   42   17   19 1     
   43   17   43 1     
   44   18   44 1     
   45   18   45 1     
   46   18   46 1     
   47   19   47 1     
   48   20   21 1     
   49   20   48 1     
   50   20   49 1     
   51   21   50 1     
   52   21   51 1     
   53   22   23 ar    
   54   23   24 ar    
   55   23   52 1     
   56   24   25 1     
   57   25   53 1     
   58   25   54 1     
   59   25   55 1     
   60   10   58 1     
   61   10   59 1     
   62   12   60 1     
   63   19   61 1     
   64   19   62 1     
@<TRIPOS>SUBSTRUCTURE
      1 S1             1
@<TRIPOS>SET
LONE_PAIRS      STATIC     ATOMS    <user>   **** ""
5 58 59 60 61 62
DONOR_HYDROGENS      STATIC     ATOMS    <user>   **** ""
4 57 34 56 47
ATOM$BLUE        STATIC     ATOMS    COLORGROUP SYSTEM
5 58 59 60 61 62
ATOM$RED        STATIC     ATOMS    COLORGROUP SYSTEM
4 57 34 56 47
