AV-unprocessed.smi:21|AV-procd|sdf|159|dock1
  -GOLD-   2262015393D 1   1.00000     0.00000
 Structure written by MMmdl.
 61 64  0  0  0  0  0  0  0  0  1 V2000
  152.8896  144.7791  158.1172 C   0  0  0  0  0  0  0  0  0  0  0  0
  151.8335  145.0890  159.0118 O   0  0  0  0  0  0  0  0  0  0  0  0
  151.3912  143.9742  159.7735 C   0  0  1  0  0  0  0  0  0  0  0  0
  150.9621  142.8288  158.8437 C   0  0  0  0  0  0  0  0  0  0  0  0
  151.9174  141.6722  159.1808 C   0  0  2  0  0  0  0  0  0  0  0  0
  151.3098  140.2739  158.9323 C   0  0  0  0  0  0  0  0  0  0  0  0
  151.3075  139.9036  157.5168 N   0  0  0  0  0  0  0  0  0  0  0  0
  150.5657  140.7372  156.5798 C   0  0  0  0  0  0  0  0  0  0  0  0
  151.6027  138.6209  157.1769 C   0  0  0  0  0  0  0  0  0  0  0  0
  152.7044  138.0530  157.7341 N   0  0  0  0  0  0  0  0  0  0  0  0
  153.0437  136.7951  157.4403 C   0  0  0  0  0  0  0  0  0  0  0  0
  152.4301  135.9347  156.6275 N   0  0  0  0  0  0  0  0  0  0  0  0
  151.3192  136.4918  156.0675 C   0  0  0  0  0  0  0  0  0  0  0  0
  150.8348  137.8144  156.2840 C   0  0  0  0  0  0  0  0  0  0  0  0
  149.6638  138.0039  155.5571 N   0  0  0  0  0  0  0  0  0  0  0  0
  149.4733  136.8686  154.9439 C   0  0  0  0  0  0  0  0  0  0  0  0
  150.4328  135.9110  155.1776 N   0  0  0  0  0  0  0  0  0  0  0  0
  150.4670  134.5651  154.6336 C   0  0  0  0  0  0  0  0  0  0  0  0
  149.2008  133.7112  154.9225 C   0  0  1  0  0  0  0  0  0  0  0  0
  148.3111  133.6833  153.6557 C   0  0  0  0  0  0  0  0  0  0  0  0
  147.6724  134.9262  153.4475 O   0  0  0  0  0  0  0  0  0  0  0  0
  149.5352  132.2726  155.4206 C   0  0  2  0  0  0  0  0  0  0  0  0
  150.6975  132.1784  156.3991 C   0  0  0  0  0  0  0  0  0  0  0  0
  151.0762  130.7080  156.3136 C   0  0  0  0  0  0  0  0  0  0  0  0
  150.9488  130.4022  154.9354 O   0  0  0  0  0  0  0  0  0  0  0  0
  150.0007  131.2814  154.3375 C   0  0  0  0  0  0  0  0  0  0  0  0
  152.3214  141.9214  160.5552 N   0  0  0  0  0  0  0  0  0  0  0  0
  153.5106  141.1847  160.9626 C   0  0  0  0  0  0  0  0  0  0  0  0
  152.5258  143.3559  160.6014 C   0  0  0  0  0  0  0  0  0  0  0  0
  150.5498  144.2492  160.4122 H   0  0  0  0  0  0  0  0  0  0  0  0
  152.7987  141.7834  158.5462 H   0  0  0  0  0  0  0  0  0  0  0  0
  153.1894  145.6799  157.5820 H   0  0  0  0  0  0  0  0  0  0  0  0
  152.5855  144.0373  157.3781 H   0  0  0  0  0  0  0  0  0  0  0  0
  153.7616  144.4021  158.6530 H   0  0  0  0  0  0  0  0  0  0  0  0
  149.9285  142.5541  159.0591 H   0  0  0  0  0  0  0  0  0  0  0  0
  151.0166  143.1009  157.7887 H   0  0  0  0  0  0  0  0  0  0  0  0
  151.8942  139.5191  159.4582 H   0  0  0  0  0  0  0  0  0  0  0  0
  150.3106  140.2186  159.3647 H   0  0  0  0  0  0  0  0  0  0  0  0
  150.9235  140.5933  155.5598 H   0  0  0  0  0  0  0  0  0  0  0  0
  150.6897  141.7911  156.8288 H   0  0  0  0  0  0  0  0  0  0  0  0
  149.5010  140.5062  156.6146 H   0  0  0  0  0  0  0  0  0  0  0  0
  153.9349  136.4257  157.9260 H   0  0  0  0  0  0  0  0  0  0  0  0
  148.6284  136.7028  154.2914 H   0  0  0  0  0  0  0  0  0  0  0  0
  150.6238  134.6657  153.5595 H   0  0  0  0  0  0  0  0  0  0  0  0
  151.3514  134.0583  155.0220 H   0  0  0  0  0  0  0  0  0  0  0  0
  148.6214  134.2033  155.7047 H   0  0  0  0  0  0  0  0  0  0  0  0
  148.8982  133.4263  152.7736 H   0  0  0  0  0  0  0  0  0  0  0  0
  147.5175  132.9424  153.7395 H   0  0  0  0  0  0  0  0  0  0  0  0
  148.1331  135.3905  152.7657 H   0  0  0  0  0  0  0  0  0  0  0  0
  148.6561  131.8560  155.9151 H   0  0  0  0  0  0  0  0  0  0  0  0
  151.5321  132.7975  156.0667 H   0  0  0  0  0  0  0  0  0  0  0  0
  150.4305  132.4732  157.4143 H   0  0  0  0  0  0  0  0  0  0  0  0
  152.0833  130.5074  156.6794 H   0  0  0  0  0  0  0  0  0  0  0  0
  150.3740  130.0967  156.8824 H   0  0  0  0  0  0  0  0  0  0  0  0
  149.1716  130.7034  153.9314 H   0  0  0  0  0  0  0  0  0  0  0  0
  150.4933  131.7927  153.5100 H   0  0  0  0  0  0  0  0  0  0  0  0
  153.8004  141.4581  161.9775 H   0  0  0  0  0  0  0  0  0  0  0  0
  154.3529  141.3941  160.3022 H   0  0  0  0  0  0  0  0  0  0  0  0
  153.3289  140.1102  160.9526 H   0  0  0  0  0  0  0  0  0  0  0  0
  153.4846  143.6061  160.1435 H   0  0  0  0  0  0  0  0  0  0  0  0
  152.5422  143.7271  161.6265 H   0  0  0  0  0  0  0  0  0  0  0  0
  1  2  1  0  0  0  0
  1 32  1  0  0  0  0
  1 33  1  0  0  0  0
  1 34  1  0  0  0  0
  2  3  1  0  0  0  0
  3 30  1  0  0  0  0
  3 29  1  0  0  0  0
  3  4  1  0  0  0  0
  4  5  1  0  0  0  0
  4 35  1  0  0  0  0
  4 36  1  0  0  0  0
  5 31  1  0  0  0  0
  5  6  1  0  0  0  0
  5 27  1  0  0  0  0
  6  7  1  0  0  0  0
  6 37  1  0  0  0  0
  6 38  1  0  0  0  0
  7  8  1  0  0  0  0
  7  9  1  0  0  0  0
  8 39  1  0  0  0  0
  8 40  1  0  0  0  0
  8 41  1  0  0  0  0
  9 14  1  0  0  0  0
  9 10  2  0  0  0  0
 10 11  1  0  0  0  0
 11 12  2  0  0  0  0
 11 42  1  0  0  0  0
 12 13  1  0  0  0  0
 13 17  1  0  0  0  0
 13 14  2  0  0  0  0
 14 15  1  0  0  0  0
 15 16  2  0  0  0  0
 16 17  1  0  0  0  0
 16 43  1  0  0  0  0
 17 18  1  0  0  0  0
 18 19  1  0  0  0  0
 18 44  1  0  0  0  0
 18 45  1  0  0  0  0
 19 20  1  0  0  0  0
 19 22  1  0  0  0  0
 19 46  1  0  0  0  0
 20 21  1  0  0  0  0
 20 47  1  0  0  0  0
 20 48  1  0  0  0  0
 21 49  1  0  0  0  0
 22 26  1  0  0  0  0
 22 23  1  0  0  0  0
 22 50  1  0  0  0  0
 23 24  1  0  0  0  0
 23 51  1  0  0  0  0
 23 52  1  0  0  0  0
 24 25  1  0  0  0  0
 24 53  1  0  0  0  0
 24 54  1  0  0  0  0
 25 26  1  0  0  0  0
 26 55  1  0  0  0  0
 26 56  1  0  0  0  0
 27 28  1  0  0  0  0
 27 29  1  0  0  0  0
 28 57  1  0  0  0  0
 28 58  1  0  0  0  0
 28 59  1  0  0  0  0
 29 60  1  0  0  0  0
 29 61  1  0  0  0  0
M  END
> <s_m_source_file>
AV-unprocessed.smi

> <i_m_source_file_index>
21

> <i_lp_mmshare_version>
43012

> <i_f3d_flags>
0

> <s_epik_input>
W0NIM11PW0NASF0xW0NIMl1bQ0BIXShOKFtDSDNdKVtDSDJdMSlbQ0gyXU4oW0NIM10pYyhuW2NIXW4yKWMoYzIzKW5bY0hdbjNbQ0gyXVtDQEhdKFtDSDJdW09IXSlbQ0BASF00W0NIMl1bQ0gyXU9bQ0gyXTQ=

> <s_epik_cmdline>
J2VwaWtfcHl0aG9uJywgJy1waCcsICc3LjAnLCAnLXRuJywgJzgnLCAnLW1hJywgJzIwMCcsICctbWV0YWxfYmluZGluZycsICctaW1hZScsICc8aW5maWxlLm1hZT4nLCAnLW9tYWUnLCAnPG91dGZpbGUubWFlPic=

> <r_lp_tautomer_probability>
1

> <r_epik_Ionization_Penalty>
2.17574

> <r_epik_Ionization_Penalty_Charging>
0

> <r_epik_Ionization_Penalty_Neutral>
2.17574

> <r_epik_State_Penalty>
2.31336

> <r_epik_Charging_Adjusted_Penalty>
2.31336

> <i_epik_Tot_Q>
0

> <i_epik_Tot_abs_Q>
0

> <r_epik_Metal_State_Penalty>
2.31025

> <b_epik_Metal_Only>
0

> <s_lp_Force_Field>
OPLS_2005

> <r_lp_Energy>
70.5477

> <b_lp_Chiralities_Consistent>
1

> <s_lp_Variant>
AV-unprocessed.smi:21-39

> <Gold.Version>
5.8.1

> <Gold.Id.Protein>
6NUR|6NUR_protein|mol2

> <Gold.PLP.Fitness>
49.0852

> <Gold.PLP.PLP>
-44.0620

> <Gold.PLP.part.hbond>
-2.0000

> <Gold.PLP.part.metal>
0.0000

> <Gold.PLP.part.buried>
-7.5107

> <Gold.PLP.part.nonpolar>
-34.1129

> <Gold.PLP.part.repulsive>
0.1873

> <Gold.PLP.ligand.clash>
0.0000

> <Gold.PLP.ligand.torsion>
1.9003

> <Gold.PLP.Chemscore.Hbond>
2.0000

> <Gold.PLP.Chemscore.CHOScore>
0.7122

> <Gold.PLP.Chemscore.Metal>
0.0000

> <Gold.Chemscore.Hbonds>
donor molecule, donor type, donor heavy atom, donor atom, acceptor molecule, acceptor atom, score
      L1  H    21    49       P1  7948  0.83
      P1  H 10752 10765       L1    12  1.00
      L1  C    16    43       P1  7948  0.80

> <Gold.PLP.Chemscore.Internal.Correction>
0.6873

> <Gold.Rescore>
     Score         DG    S(hbond)    S(metal)    S(lipo)     H(rot)  DE(clash)    DE(int)     intcor
     13.24     -16.29       1.44        0.00     117.03       3.00       0.77       2.28       ----

> <Gold.Chemscore.Fitness>
13.2363

> <Gold.Chemscore.DG>
-16.2946

> <Gold.Chemscore.ZeroCoef>
-5.4800

> <Gold.Chemscore.Hbond>
1.4401

> <Gold.Chemscore.Metal>
0.0000

> <Gold.Chemscore.Lipo>
117.0328

> <Gold.Chemscore.Internal_Hbond>
0.0000

> <Gold.Chemscore.DEClash>
0.7746

> <Gold.Chemscore.DEInternal>
2.2837

> <Gold.Chemscore.Rot>
3.0031

> <Gold.Chemscore.Internal.Correction>
   9.000000E+99

> <Gold.Chemscore.Hbonds>
donor molecule, donor type, donor heavy atom, donor atom, acceptor molecule, acceptor atom, score
      L1  H    21    49       P1  7948  0.80
      P1  H 10752 10765       L1    12  0.28

> <Gold.Chemscore.Hbond.Weighted>
-4.8098

> <Gold.Chemscore.Metal.Weighted>
-0.0000

> <Gold.Chemscore.Lipo.Weighted>
-13.6928

> <Gold.Chemscore.Internal_Hbond.Weighted>
0.0000

> <Gold.Chemscore.DEClash.Weighted>
0.7746

> <Gold.Chemscore.DEInternal.Weighted>
2.2837

> <Gold.Chemscore.Rot.Weighted>
7.6880

> <Gold.Chemscore.Internal.Correction.Weighted>
   9.000000E+99

> <Gold.Protein.RotatedTorsions>
[ 6907 6896 6895 6894 ] final  -20.48 input  -60.11 | X-H torsion
[ 7974 7965 7964 7962 ] final  -97.01 input  175.53 | X-H torsion
[ 8008 7997 7996 7995 ] final  -32.97 input   59.86 | X-H torsion
[ 10167 10162 10161 10158 ] final  105.07 input  -65.29 | X-H torsion
[ 10718 10713 10712 10709 ] final  174.54 input   66.30 | X-H torsion
[ 10763 10752 10751 10750 ] final -136.95 input  -60.55 | X-H torsion
[ 11005 11000 10999 10996 ] final  -74.73 input  -57.11 | X-H torsion

> <Gold.Protein.ActiveResidues>
 VAL166  LYS551  ARG553  GLY616  TRP617  ASP618  TYR619  PRO620  LYS621  CYS622 
 ASP623  PHE694  ASN695  SER759  ASP760  ASP761  ALA762  ILE779  LEU786  VAL792 
 PHE793  MET794  SER795  GLU796  ALA797  LYS798  CYS799  TRP800  GLU811  SER814 

> <Gold.Protein.RotatedAtoms>
  151.2476  135.0611  159.9048 H   0  0  0  0  0  0  0  0  0  0  0  0  # atno 6907 bound_to 6896
  152.5384  134.0367  159.8059 H   0  0  0  0  0  0  0  0  0  0  0  0  # atno 6908 bound_to 6896
  151.0570  133.5526  159.2668 H   0  0  0  0  0  0  0  0  0  0  0  0  # atno 6909 bound_to 6896
  145.3394  140.9457  143.2616 H   0  0  0  0  0  0  0  0  0  0  0  0  # atno 7974 bound_to 7965
  154.4163  140.1723  156.1813 H   0  0  0  0  0  0  0  0  0  0  0  0  # atno 8008 bound_to 7997
  155.9680  140.3388  155.6526 H   0  0  0  0  0  0  0  0  0  0  0  0  # atno 8009 bound_to 7997
  155.6663  140.0706  157.2527 H   0  0  0  0  0  0  0  0  0  0  0  0  # atno 8010 bound_to 7997
  139.7123  144.7075  151.1006 H   0  0  0  0  0  0  0  0  0  0  0  0  # atno 10167 bound_to 10162
  156.9481  131.0022  151.2954 H   0  0  0  0  0  0  0  0  0  0  0  0  # atno 10718 bound_to 10713
  154.8673  135.3657  154.5144 H   0  0  0  0  0  0  0  0  0  0  0  0  # atno 10763 bound_to 10752
  153.5777  135.7019  153.5481 H   0  0  0  0  0  0  0  0  0  0  0  0  # atno 10764 bound_to 10752
  153.3485  135.4078  155.1590 H   0  0  0  0  0  0  0  0  0  0  0  0  # atno 10765 bound_to 10752
  141.1638  133.6921  156.7409 H   0  0  0  0  0  0  0  0  0  0  0  0  # atno 11005 bound_to 11000
  144.8802  139.4915  143.6726 LP  0  0  0  0  0  0  0  0  0  0  0  0  # atno 17320 bound_to 7965
  146.3013  139.7437  142.9089 LP  0  0  0  0  0  0  0  0  0  0  0  0  # atno 17321 bound_to 7965
  140.7736  143.5276  150.9461 LP  0  0  0  0  0  0  0  0  0  0  0  0  # atno 17342 bound_to 10162
  139.8961  143.6893  152.3138 LP  0  0  0  0  0  0  0  0  0  0  0  0  # atno 17343 bound_to 10162
  157.5740  130.8330  149.8430 LP  0  0  0  0  0  0  0  0  0  0  0  0  # atno 17370 bound_to 10713
  156.0375  130.3747  150.1522 LP  0  0  0  0  0  0  0  0  0  0  0  0  # atno 17371 bound_to 10713
  140.2675  134.8418  157.3816 LP  0  0  0  0  0  0  0  0  0  0  0  0  # atno 17394 bound_to 11000
  140.1553  134.4798  155.7932 LP  0  0  0  0  0  0  0  0  0  0  0  0  # atno 17395 bound_to 11000

$$$$
