AV-unprocessed.smi:103|AV-procd|sdf|984|dock4
  -GOLD-   2262017553D 1   1.00000     0.00000
 Structure written by MMmdl.
 53 55  0  0  0  0  0  0  0  0  1 V2000
  147.1252  134.4330  162.1818 C   0  0  0  0  0  0  0  0  0  0  0  0
  147.5810  135.5352  161.2351 C   0  0  0  0  0  0  0  0  0  0  0  0
  148.1285  136.5566  161.6508 O   0  0  0  0  0  0  0  0  0  0  0  0
  147.3184  135.2467  159.9518 O   0  0  0  0  0  0  0  0  0  0  0  0
  148.0236  135.9190  158.9202 C   0  0  0  0  0  0  0  0  0  0  0  0
  147.8301  137.4418  159.0585 C   0  0  1  0  0  0  0  0  0  0  0  0
  149.0847  138.0722  158.8461 O   0  0  0  0  0  0  0  0  0  0  0  0
  149.2693  138.2748  157.4799 C   0  0  2  0  0  0  0  0  0  0  0  0
  150.0546  139.5389  157.2935 N   0  0  0  0  0  0  0  0  0  0  0  0
  151.2782  139.7327  156.6844 C   0  0  0  0  0  0  0  0  0  0  0  0
  152.3304  138.4689  155.9806 S   0  0  0  0  0  0  0  0  0  0  0  0
  151.1927  137.6559  154.7878 C   0  0  0  0  0  0  0  0  0  0  0  0
  153.4007  139.1520  155.2381 O   0  0  0  0  0  0  0  0  0  0  0  0
  152.6555  137.5294  157.0652 O   0  0  0  0  0  0  0  0  0  0  0  0
  151.7620  140.9449  156.7156 N   0  0  0  0  0  0  0  0  0  0  0  0
  150.7507  141.6710  157.3285 C   0  0  0  0  0  0  0  0  0  0  0  0
  150.5816  143.0392  157.6591 C   0  0  0  0  0  0  0  0  0  0  0  0
  151.5054  143.9746  157.3987 N   0  0  0  0  0  0  0  0  0  0  0  0
  149.4332  143.4209  158.2650 N   0  0  0  0  0  0  0  0  0  0  0  0
  148.4957  142.5072  158.5357 C   0  0  0  0  0  0  0  0  0  0  0  0
  148.5140  141.1939  158.2929 N   0  0  0  0  0  0  0  0  0  0  0  0
  149.6738  140.8086  157.6832 C   0  0  0  0  0  0  0  0  0  0  0  0
  147.8728  138.3278  156.8213 C   0  0  2  0  0  0  0  0  0  0  0  0
  147.5880  139.5906  156.2251 O   0  0  0  0  0  0  0  0  0  0  0  0
  148.2227  139.9813  155.1080 C   0  0  0  0  0  0  0  0  0  0  0  0
  147.8532  141.4014  154.7041 C   0  0  0  0  0  0  0  0  0  0  0  0
  149.0236  139.3141  154.4542 O   0  0  0  0  0  0  0  0  0  0  0  0
  146.9317  138.0891  157.9962 C   0  0  1  0  0  0  0  0  0  0  0  0
  145.8435  137.2485  157.6311 O   0  0  0  0  0  0  0  0  0  0  0  0
  144.8863  136.9427  158.5221 C   0  0  0  0  0  0  0  0  0  0  0  0
  143.8214  136.0278  157.9328 C   0  0  0  0  0  0  0  0  0  0  0  0
  144.8275  137.3314  159.6886 O   0  0  0  0  0  0  0  0  0  0  0  0
  147.6220  133.4948  161.9347 H   0  0  0  0  0  0  0  0  0  0  0  0
  146.0478  134.2871  162.1031 H   0  0  0  0  0  0  0  0  0  0  0  0
  147.3652  134.6897  163.2137 H   0  0  0  0  0  0  0  0  0  0  0  0
  149.0817  135.6711  159.0137 H   0  0  0  0  0  0  0  0  0  0  0  0
  147.6970  135.5798  157.9359 H   0  0  0  0  0  0  0  0  0  0  0  0
  147.4809  137.6755  160.0647 H   0  0  0  0  0  0  0  0  0  0  0  0
  149.8967  137.4757  157.0894 H   0  0  0  0  0  0  0  0  0  0  0  0
  151.7151  136.8428  154.2848 H   0  0  0  0  0  0  0  0  0  0  0  0
  150.8554  138.3838  154.0504 H   0  0  0  0  0  0  0  0  0  0  0  0
  150.3318  137.2570  155.3240 H   0  0  0  0  0  0  0  0  0  0  0  0
  152.3705  143.7158  156.9463 H   0  0  0  0  0  0  0  0  0  0  0  0
  151.3353  144.9360  157.6559 H   0  0  0  0  0  0  0  0  0  0  0  0
  147.6048  142.8810  159.0187 H   0  0  0  0  0  0  0  0  0  0  0  0
  147.8060  137.4998  156.1136 H   0  0  0  0  0  0  0  0  0  0  0  0
  148.1522  142.1041  155.4820 H   0  0  0  0  0  0  0  0  0  0  0  0
  146.7766  141.4845  154.5565 H   0  0  0  0  0  0  0  0  0  0  0  0
  148.3526  141.6791  153.7759 H   0  0  0  0  0  0  0  0  0  0  0  0
  146.5801  139.0443  158.3905 H   0  0  0  0  0  0  0  0  0  0  0  0
  144.2691  135.0909  157.6012 H   0  0  0  0  0  0  0  0  0  0  0  0
  143.3430  136.5050  157.0775 H   0  0  0  0  0  0  0  0  0  0  0  0
  143.0558  135.8022  158.6753 H   0  0  0  0  0  0  0  0  0  0  0  0
  1  2  1  0  0  0  0
  1 33  1  0  0  0  0
  1 34  1  0  0  0  0
  1 35  1  0  0  0  0
  2  3  2  0  0  0  0
  2  4  1  0  0  0  0
  4  5  1  0  0  0  0
  5  6  1  0  0  0  0
  5 36  1  0  0  0  0
  5 37  1  0  0  0  0
  6 28  1  0  0  0  0
  6  7  1  0  0  0  0
  6 38  1  0  0  0  0
  7  8  1  0  0  0  0
  8  9  1  0  0  0  0
  8 23  1  0  0  0  0
  8 39  1  0  0  0  0
  9 22  1  0  0  0  0
  9 10  1  0  0  0  0
 10 11  1  0  0  0  0
 10 15  2  0  0  0  0
 11 12  1  0  0  0  0
 11 13  2  0  0  0  0
 11 14  2  0  0  0  0
 12 40  1  0  0  0  0
 12 41  1  0  0  0  0
 12 42  1  0  0  0  0
 15 16  1  0  0  0  0
 16 22  2  0  0  0  0
 16 17  1  0  0  0  0
 17 18  1  0  0  0  0
 17 19  2  0  0  0  0
 18 43  1  0  0  0  0
 18 44  1  0  0  0  0
 19 20  1  0  0  0  0
 20 21  2  0  0  0  0
 20 45  1  0  0  0  0
 21 22  1  0  0  0  0
 23 24  1  0  0  0  0
 23 28  1  0  0  0  0
 23 46  1  0  0  0  0
 24 25  1  0  0  0  0
 25 26  1  0  0  0  0
 25 27  2  0  0  0  0
 26 47  1  0  0  0  0
 26 48  1  0  0  0  0
 26 49  1  0  0  0  0
 28 29  1  0  0  0  0
 28 50  1  0  0  0  0
 29 30  1  0  0  0  0
 30 31  1  0  0  0  0
 30 32  2  0  0  0  0
 31 51  1  0  0  0  0
 31 52  1  0  0  0  0
 31 53  1  0  0  0  0
M  END
> <s_m_source_file>
AV-unprocessed.smi

> <i_m_source_file_index>
103

> <i_lp_mmshare_version>
43012

> <i_f3d_flags>
0

> <s_epik_input>
W0NIM11DKD1PKU9bQ0gyXVtDQEBIXTFPW0NASF0oW0NAQEhdKE9DKD1PKVtDSDNdKVtDQEhdMU9DKD1PKVtDSDNdKW4oYyhuMilTKD1PKSg9TylbQ0gzXSljKGMyMyluW2NIXW5jM1tOSDJd

> <s_epik_cmdline>
J2VwaWtfcHl0aG9uJywgJy1waCcsICc3LjAnLCAnLXRuJywgJzgnLCAnLW1hJywgJzIwMCcsICctbWV0YWxfYmluZGluZycsICctaW1hZScsICc8aW5maWxlLm1hZT4nLCAnLW9tYWUnLCAnPG91dGZpbGUubWFlPic=

> <r_lp_tautomer_probability>
1

> <r_epik_Ionization_Penalty>
1.51338e-05

> <r_epik_Ionization_Penalty_Charging>
0

> <r_epik_Ionization_Penalty_Neutral>
1.51338e-05

> <r_epik_State_Penalty>
-0

> <r_epik_Charging_Adjusted_Penalty>
0

> <i_epik_Tot_Q>
0

> <i_epik_Tot_abs_Q>
0

> <r_epik_Metal_State_Penalty>
-0

> <b_epik_Metal_Only>
0

> <s_epik_Chemistry_Notes>
This compound has an ester and may undergo hydrolysis at high or low pH. This compound contains an acetal/aminal-like group ( X-CH(R)-Y where X, Y are N, S, or O) that may be acid/base labile, releasing an aldehyde.

> <s_lp_Force_Field>
OPLS_2005

> <r_lp_Energy>
18.7929

> <b_lp_Chiralities_Consistent>
1

> <s_lp_Variant>
AV-unprocessed.smi:103-8

> <Gold.Version>
5.8.1

> <Gold.Id.Protein>
6NUR|6NUR_protein|mol2

> <Gold.PLP.Fitness>
33.7389

> <Gold.PLP.PLP>
-29.5404

> <Gold.PLP.part.hbond>
-3.0215

> <Gold.PLP.part.metal>
0.0000

> <Gold.PLP.part.buried>
-5.3169

> <Gold.PLP.part.nonpolar>
-22.9606

> <Gold.PLP.part.repulsive>
1.4178

> <Gold.PLP.ligand.clash>
0.0000

> <Gold.PLP.ligand.torsion>
2.0890

> <Gold.PLP.Chemscore.Hbond>
2.0000

> <Gold.PLP.Chemscore.CHOScore>
0.0000

> <Gold.PLP.Chemscore.Metal>
0.0000

> <Gold.Chemscore.Hbonds>
donor molecule, donor type, donor heavy atom, donor atom, acceptor molecule, acceptor atom, score
      P1  H  6931  6943       L1     3  1.00
      P1  H  7997  8009       L1    13  1.00

> <Gold.PLP.Chemscore.Internal.Correction>
2.3765

> <Gold.Rescore>
     Score         DG    S(hbond)    S(metal)    S(lipo)     H(rot)  DE(clash)    DE(int)     intcor
     -1.39      -5.33       1.97        0.00      35.46       4.25       0.23       6.48       ----

> <Gold.Chemscore.Fitness>
-1.3885

> <Gold.Chemscore.DG>
-5.3281

> <Gold.Chemscore.ZeroCoef>
-5.4800

> <Gold.Chemscore.Hbond>
1.9665

> <Gold.Chemscore.Metal>
0.0000

> <Gold.Chemscore.Lipo>
35.4596

> <Gold.Chemscore.Internal_Hbond>
0.0000

> <Gold.Chemscore.DEClash>
0.2332

> <Gold.Chemscore.DEInternal>
6.4835

> <Gold.Chemscore.Rot>
4.2456

> <Gold.Chemscore.Internal.Correction>
   9.000000E+99

> <Gold.Chemscore.Hbonds>
donor molecule, donor type, donor heavy atom, donor atom, acceptor molecule, acceptor atom, score
      P1  H  6931  6943       L1     3  0.99
      P1  H  7997  8009       L1    13  0.98

> <Gold.Chemscore.Hbond.Weighted>
-6.5680

> <Gold.Chemscore.Metal.Weighted>
-0.0000

> <Gold.Chemscore.Lipo.Weighted>
-4.1488

> <Gold.Chemscore.Internal_Hbond.Weighted>
0.0000

> <Gold.Chemscore.DEClash.Weighted>
0.2332

> <Gold.Chemscore.DEInternal.Weighted>
6.4835

> <Gold.Chemscore.Rot.Weighted>
10.8687

> <Gold.Chemscore.Internal.Correction.Weighted>
   9.000000E+99

> <Gold.Protein.RotatedTorsions>
[ 6907 6896 6895 6894 ] final -123.93 input  -60.11 | X-H torsion
[ 7974 7965 7964 7962 ] final  -51.44 input  175.53 | X-H torsion
[ 8008 7997 7996 7995 ] final -134.14 input   59.86 | X-H torsion
[ 10167 10162 10161 10158 ] final   57.49 input  -65.29 | X-H torsion
[ 10718 10713 10712 10709 ] final   94.37 input   66.30 | X-H torsion
[ 10763 10752 10751 10750 ] final   33.39 input  -60.55 | X-H torsion
[ 11005 11000 10999 10996 ] final  -51.98 input  -57.11 | X-H torsion

> <Gold.Protein.ActiveResidues>
 VAL166  LYS551  ARG553  GLY616  TRP617  ASP618  TYR619  PRO620  LYS621  CYS622 
 ASP623  PHE694  ASN695  SER759  ASP760  ASP761  ALA762  ILE779  LEU786  VAL792 
 PHE793  MET794  SER795  GLU796  ALA797  LYS798  CYS799  TRP800  GLU811  SER814 

> <Gold.Protein.RotatedAtoms>
  150.8718  133.7494  159.2958 H   0  0  0  0  0  0  0  0  0  0  0  0  # atno 6907 bound_to 6896
  151.5104  135.1063  159.9862 H   0  0  0  0  0  0  0  0  0  0  0  0  # atno 6908 bound_to 6896
  152.4700  133.7964  159.6985 H   0  0  0  0  0  0  0  0  0  0  0  0  # atno 6909 bound_to 6896
  145.9189  140.7851  142.9657 H   0  0  0  0  0  0  0  0  0  0  0  0  # atno 7974 bound_to 7965
  155.3572  140.0480  157.3046 H   0  0  0  0  0  0  0  0  0  0  0  0  # atno 8008 bound_to 7997
  154.5197  140.2220  155.8963 H   0  0  0  0  0  0  0  0  0  0  0  0  # atno 8009 bound_to 7997
  156.1675  140.3103  155.8921 H   0  0  0  0  0  0  0  0  0  0  0  0  # atno 8010 bound_to 7997
  140.1974  144.4023  150.6544 H   0  0  0  0  0  0  0  0  0  0  0  0  # atno 10167 bound_to 10162
  157.6948  131.0510  150.4176 H   0  0  0  0  0  0  0  0  0  0  0  0  # atno 10718 bound_to 10713
  153.0214  135.6388  154.1504 H   0  0  0  0  0  0  0  0  0  0  0  0  # atno 10763 bound_to 10752
  154.1238  135.2845  155.3203 H   0  0  0  0  0  0  0  0  0  0  0  0  # atno 10764 bound_to 10752
  154.6244  135.5514  153.7673 H   0  0  0  0  0  0  0  0  0  0  0  0  # atno 10765 bound_to 10752
  141.0900  133.6634  156.3956 H   0  0  0  0  0  0  0  0  0  0  0  0  # atno 11005 bound_to 11000
  144.6751  140.1944  143.7393 LP  0  0  0  0  0  0  0  0  0  0  0  0  # atno 17320 bound_to 7965
  145.8575  139.2206  143.1736 LP  0  0  0  0  0  0  0  0  0  0  0  0  # atno 17321 bound_to 7965
  140.6414  143.2204  151.6282 LP  0  0  0  0  0  0  0  0  0  0  0  0  # atno 17342 bound_to 10162
  139.5231  144.3144  152.0965 LP  0  0  0  0  0  0  0  0  0  0  0  0  # atno 17343 bound_to 10162
  156.4554  130.4020  149.6609 LP  0  0  0  0  0  0  0  0  0  0  0  0  # atno 17370 bound_to 10713
  156.3743  130.7547  151.2533 LP  0  0  0  0  0  0  0  0  0  0  0  0  # atno 17371 bound_to 10713
  140.5274  134.6245  157.5339 LP  0  0  0  0  0  0  0  0  0  0  0  0  # atno 17394 bound_to 11000
  139.9724  134.7271  156.0015 LP  0  0  0  0  0  0  0  0  0  0  0  0  # atno 17395 bound_to 11000

$$$$
