AV-unprocessed.smi:1|AV-procd|sdf|6|dock3
  -GOLD-   2262015 93D 1   1.00000     0.00000
 Structure written by MMmdl.
 57 62  0  0  0  0  0  0  0  0  1 V2000
  152.8525  140.1580  158.2456 O   0  0  0  0  0  0  0  0  0  0  0  0
  152.0173  140.9779  157.8630 C   0  0  0  0  0  0  0  0  0  0  0  0
  151.0957  140.6928  156.7781 N   0  0  0  0  0  0  0  0  0  0  0  0
  151.0773  139.6147  155.9600 C   0  0  0  0  0  0  0  0  0  0  0  0
  151.5178  139.6677  154.6756 N   0  0  0  0  0  0  0  0  0  0  0  0
  151.4594  138.5816  153.8999 C   0  0  0  0  0  0  0  0  0  0  0  0
  151.0004  137.3658  154.2019 N   0  0  0  0  0  0  0  0  0  0  0  0
  150.5558  137.3024  155.4912 C   0  0  0  0  0  0  0  0  0  0  0  0
  150.5613  138.3768  156.4242 C   0  0  0  0  0  0  0  0  0  0  0  0
  150.0336  137.9519  157.6363 N   0  0  0  0  0  0  0  0  0  0  0  0
  149.7403  136.6965  157.4301 C   0  0  0  0  0  0  0  0  0  0  0  0
  150.0229  136.2220  156.1685 N   0  0  0  0  0  0  0  0  0  0  0  0
  149.8044  134.8335  155.6540 C   0  0  1  0  0  0  0  0  0  0  0  0
  149.6310  133.9784  156.7419 O   0  0  0  0  0  0  0  0  0  0  0  0
  148.6676  132.9888  156.4167 C   0  0  1  0  0  0  0  0  0  0  0  0
  148.0676  132.3664  157.6835 C   0  0  0  0  0  0  0  0  0  0  0  0
  147.7069  133.4013  158.5839 O   0  0  0  0  0  0  0  0  0  0  0  0
  147.0772  133.1053  159.7373 C   0  0  0  0  0  0  0  0  0  0  0  0
  146.6577  131.9804  160.0169 O   0  0  0  0  0  0  0  0  0  0  0  0
  146.9417  134.2831  160.6424 C   0  0  0  0  0  0  0  0  0  0  0  0
  147.3509  135.5580  160.1864 C   0  0  0  0  0  0  0  0  0  0  0  0
  147.2357  136.6887  161.0183 C   0  0  0  0  0  0  0  0  0  0  0  0
  146.7106  136.5582  162.3171 C   0  0  0  0  0  0  0  0  0  0  0  0
  146.2996  135.2957  162.7828 C   0  0  0  0  0  0  0  0  0  0  0  0
  146.4136  134.1637  161.9519 C   0  0  0  0  0  0  0  0  0  0  0  0
  147.6729  133.7232  155.5181 C   0  0  1  0  0  0  0  0  0  0  0  0
  146.7148  134.4482  156.2692 O   0  0  0  0  0  0  0  0  0  0  0  0
  146.4386  135.8945  155.4847 S   0  0  0  0  0  0  0  0  0  0  0  0
  145.3312  135.6947  154.5374 O   0  0  0  0  0  0  0  0  0  0  0  0
  146.4414  136.9805  156.4762 O   0  0  0  0  0  0  0  0  0  0  0  0
  147.8598  135.9620  154.6089 O   0  0  0  0  0  0  0  0  0  0  0  0
  148.5513  134.7279  154.7591 C   0  0  1  0  0  0  0  0  0  0  0  0
  151.8274  142.2952  158.5570 C   0  0  0  0  0  0  0  0  0  0  0  0
  152.1565  142.4292  159.9247 C   0  0  0  0  0  0  0  0  0  0  0  0
  152.0001  143.6677  160.5776 C   0  0  0  0  0  0  0  0  0  0  0  0
  151.5216  144.7844  159.8665 C   0  0  0  0  0  0  0  0  0  0  0  0
  151.2030  144.6630  158.5010 C   0  0  0  0  0  0  0  0  0  0  0  0
  151.3574  143.4248  157.8473 C   0  0  0  0  0  0  0  0  0  0  0  0
  150.3949  141.3966  156.5974 H   0  0  0  0  0  0  0  0  0  0  0  0
  151.8322  138.7051  152.8939 H   0  0  0  0  0  0  0  0  0  0  0  0
  149.3103  136.0743  158.2015 H   0  0  0  0  0  0  0  0  0  0  0  0
  150.7247  134.5878  155.1228 H   0  0  0  0  0  0  0  0  0  0  0  0
  149.1773  132.2197  155.8338 H   0  0  0  0  0  0  0  0  0  0  0  0
  147.1796  131.7862  157.4304 H   0  0  0  0  0  0  0  0  0  0  0  0
  148.7813  131.6831  158.1466 H   0  0  0  0  0  0  0  0  0  0  0  0
  147.7576  135.6831  159.1931 H   0  0  0  0  0  0  0  0  0  0  0  0
  147.5513  137.6570  160.6589 H   0  0  0  0  0  0  0  0  0  0  0  0
  146.6238  137.4250  162.9556 H   0  0  0  0  0  0  0  0  0  0  0  0
  145.8968  135.1946  163.7797 H   0  0  0  0  0  0  0  0  0  0  0  0
  146.0896  133.2096  162.3413 H   0  0  0  0  0  0  0  0  0  0  0  0
  147.1473  133.0433  154.8466 H   0  0  0  0  0  0  0  0  0  0  0  0
  148.8494  134.3338  153.7872 H   0  0  0  0  0  0  0  0  0  0  0  0
  152.5274  141.5821  160.4837 H   0  0  0  0  0  0  0  0  0  0  0  0
  152.2495  143.7612  161.6243 H   0  0  0  0  0  0  0  0  0  0  0  0
  151.4036  145.7343  160.3670 H   0  0  0  0  0  0  0  0  0  0  0  0
  150.8426  145.5210  157.9529 H   0  0  0  0  0  0  0  0  0  0  0  0
  151.1157  143.3560  156.7966 H   0  0  0  0  0  0  0  0  0  0  0  0
  1  2  2  0  0  0  0
  2  3  1  0  0  0  0
  2 33  1  0  0  0  0
  3  4  1  0  0  0  0
  3 39  1  0  0  0  0
  4  9  1  0  0  0  0
  4  5  2  0  0  0  0
  5  6  1  0  0  0  0
  6  7  2  0  0  0  0
  6 40  1  0  0  0  0
  7  8  1  0  0  0  0
  8 12  1  0  0  0  0
  8  9  2  0  0  0  0
  9 10  1  0  0  0  0
 10 11  2  0  0  0  0
 11 12  1  0  0  0  0
 11 41  1  0  0  0  0
 12 13  1  0  0  0  0
 13 32  1  0  0  0  0
 13 14  1  0  0  0  0
 13 42  1  0  0  0  0
 14 15  1  0  0  0  0
 15 16  1  0  0  0  0
 15 26  1  0  0  0  0
 15 43  1  0  0  0  0
 16 17  1  0  0  0  0
 16 44  1  0  0  0  0
 16 45  1  0  0  0  0
 17 18  1  0  0  0  0
 18 19  2  0  0  0  0
 18 20  1  0  0  0  0
 20 25  1  0  0  0  0
 20 21  2  0  0  0  0
 21 22  1  0  0  0  0
 21 46  1  0  0  0  0
 22 23  2  0  0  0  0
 22 47  1  0  0  0  0
 23 24  1  0  0  0  0
 23 48  1  0  0  0  0
 24 25  2  0  0  0  0
 24 49  1  0  0  0  0
 25 50  1  0  0  0  0
 26 32  1  0  0  0  0
 26 27  1  0  0  0  0
 26 51  1  0  0  0  0
 27 28  1  0  0  0  0
 28 29  2  0  0  0  0
 28 30  2  0  0  0  0
 28 31  1  0  0  0  0
 31 32  1  0  0  0  0
 32 52  1  0  0  0  0
 33 38  1  0  0  0  0
 33 34  2  0  0  0  0
 34 35  1  0  0  0  0
 34 53  1  0  0  0  0
 35 36  2  0  0  0  0
 35 54  1  0  0  0  0
 36 37  1  0  0  0  0
 36 55  1  0  0  0  0
 37 38  2  0  0  0  0
 37 56  1  0  0  0  0
 38 57  1  0  0  0  0
M  END
> <s_m_source_file>
AV-unprocessed.smi

> <i_m_source_file_index>
1

> <i_lp_mmshare_version>
43012

> <i_f3d_flags>
0

> <s_epik_input>
W2NIXTFbY0hdW2NIXVtjSF1bY0hdYzFDKD1PKVtOSF1jKG5bY0hdbjIpYyhjMjMpbltjSF1uM1tDQEBIXShbQ0BIXShbQ0BIXTQ1KU9TKE81KSg9Tyk9TylPW0NASF00W0NIMl1PQyg9TyljNltjSF1bY0hdW2NIXVtjSF1bY0hdNg==

> <s_epik_cmdline>
J2VwaWtfcHl0aG9uJywgJy1waCcsICc3LjAnLCAnLXRuJywgJzgnLCAnLW1hJywgJzIwMCcsICctbWV0YWxfYmluZGluZycsICctaW1hZScsICc8aW5maWxlLm1hZT4nLCAnLW9tYWUnLCAnPG91dGZpbGUubWFlPic=

> <r_lp_tautomer_probability>
1

> <r_epik_Ionization_Penalty>
0.00195722

> <r_epik_Ionization_Penalty_Charging>
0

> <r_epik_Ionization_Penalty_Neutral>
0.00195722

> <r_epik_State_Penalty>
0.00633741

> <r_epik_Charging_Adjusted_Penalty>
0.00633741

> <i_epik_Tot_Q>
0

> <i_epik_Tot_abs_Q>
0

> <r_epik_Metal_State_Penalty>
0.341185

> <b_epik_Metal_Only>
0

> <s_epik_Chemistry_Notes>
This compound has an ester and may undergo hydrolysis at high or low pH. This compound contains an acetal/aminal-like group ( X-CH(R)-Y where X, Y are N, S, or O) that may be acid/base labile, releasing an aldehyde.

> <s_lp_Force_Field>
OPLS_2005

> <r_lp_Energy>
46.6539

> <b_lp_Chiralities_Consistent>
1

> <s_lp_Variant>
AV-unprocessed.smi:1-6

> <Gold.Version>
5.8.1

> <Gold.Id.Protein>
6NUR|6NUR_protein|mol2

> <Gold.PLP.Fitness>
66.2640

> <Gold.PLP.PLP>
-58.4730

> <Gold.PLP.part.hbond>
-4.6322

> <Gold.PLP.part.metal>
0.0000

> <Gold.PLP.part.buried>
-7.7962

> <Gold.PLP.part.nonpolar>
-47.0568

> <Gold.PLP.part.repulsive>
0.4709

> <Gold.PLP.ligand.clash>
0.0000

> <Gold.PLP.ligand.torsion>
1.6956

> <Gold.PLP.Chemscore.Hbond>
3.5884

> <Gold.PLP.Chemscore.CHOScore>
0.0000

> <Gold.PLP.Chemscore.Metal>
0.0000

> <Gold.Chemscore.Hbonds>
donor molecule, donor type, donor heavy atom, donor atom, acceptor molecule, acceptor atom, score
      P1  H  7989  7998       L1     5  1.00
      P1  H  7997  8009       L1     1  0.78

> <Gold.PLP.Chemscore.Internal.Correction>
0.4171

> <Gold.Rescore>
     Score         DG    S(hbond)    S(metal)    S(lipo)     H(rot)  DE(clash)    DE(int)     intcor
     20.06     -23.26       2.53        0.00     126.39       2.13       0.16       3.03       ----

> <Gold.Chemscore.Fitness>
20.0608

> <Gold.Chemscore.DG>
-23.2555

> <Gold.Chemscore.ZeroCoef>
-5.4800

> <Gold.Chemscore.Hbond>
2.5298

> <Gold.Chemscore.Metal>
0.0000

> <Gold.Chemscore.Lipo>
126.3879

> <Gold.Chemscore.Internal_Hbond>
0.0000

> <Gold.Chemscore.DEClash>
0.1628

> <Gold.Chemscore.DEInternal>
3.0319

> <Gold.Chemscore.Rot>
2.1333

> <Gold.Chemscore.Internal.Correction>
   9.000000E+99

> <Gold.Chemscore.Hbonds>
donor molecule, donor type, donor heavy atom, donor atom, acceptor molecule, acceptor atom, score
      P1  H  7989  7998       L1     5  0.25
      P1  H  7997  8009       L1     1  0.63

> <Gold.Chemscore.Hbond.Weighted>
-8.4495

> <Gold.Chemscore.Metal.Weighted>
-0.0000

> <Gold.Chemscore.Lipo.Weighted>
-14.7874

> <Gold.Chemscore.Internal_Hbond.Weighted>
0.0000

> <Gold.Chemscore.DEClash.Weighted>
0.1628

> <Gold.Chemscore.DEInternal.Weighted>
3.0319

> <Gold.Chemscore.Rot.Weighted>
5.4614

> <Gold.Chemscore.Internal.Correction.Weighted>
   9.000000E+99

> <Gold.Protein.RotatedTorsions>
[ 6907 6896 6895 6894 ] final  105.56 input  -60.11 | X-H torsion
[ 7974 7965 7964 7962 ] final -138.53 input  175.53 | X-H torsion
[ 8008 7997 7996 7995 ] final  156.95 input   59.86 | X-H torsion
[ 10167 10162 10161 10158 ] final   25.69 input  -65.29 | X-H torsion
[ 10718 10713 10712 10709 ] final   85.46 input   66.30 | X-H torsion
[ 10763 10752 10751 10750 ] final   37.02 input  -60.55 | X-H torsion
[ 11005 11000 10999 10996 ] final -135.69 input  -57.11 | X-H torsion

> <Gold.Protein.ActiveResidues>
 VAL166  LYS551  ARG553  GLY616  TRP617  ASP618  TYR619  PRO620  LYS621  CYS622 
 ASP623  PHE694  ASN695  SER759  ASP760  ASP761  ALA762  ILE779  LEU786  VAL792 
 PHE793  MET794  SER795  GLU796  ALA797  LYS798  CYS799  TRP800  GLU811  SER814 

> <Gold.Protein.RotatedAtoms>
  152.5226  133.9511  159.7671 H   0  0  0  0  0  0  0  0  0  0  0  0  # atno 6907 bound_to 6896
  150.9821  133.6227  159.2728 H   0  0  0  0  0  0  0  0  0  0  0  0  # atno 6908 bound_to 6896
  151.3401  135.0867  159.9421 H   0  0  0  0  0  0  0  0  0  0  0  0  # atno 6909 bound_to 6896
  144.8751  140.6425  143.5242 H   0  0  0  0  0  0  0  0  0  0  0  0  # atno 7974 bound_to 7965
  156.2393  140.1898  156.7033 H   0  0  0  0  0  0  0  0  0  0  0  0  # atno 8008 bound_to 7997
  154.6166  140.0614  156.9588 H   0  0  0  0  0  0  0  0  0  0  0  0  # atno 8009 bound_to 7997
  155.1930  140.3286  155.4358 H   0  0  0  0  0  0  0  0  0  0  0  0  # atno 8010 bound_to 7997
  140.5085  144.0199  150.6362 H   0  0  0  0  0  0  0  0  0  0  0  0  # atno 10167 bound_to 10162
  157.6915  131.0176  150.2826 H   0  0  0  0  0  0  0  0  0  0  0  0  # atno 10718 bound_to 10713
  153.0054  135.6289  154.2078 H   0  0  0  0  0  0  0  0  0  0  0  0  # atno 10763 bound_to 10752
  154.1821  135.2813  155.3050 H   0  0  0  0  0  0  0  0  0  0  0  0  # atno 10764 bound_to 10752
  154.5826  135.5642  153.7260 H   0  0  0  0  0  0  0  0  0  0  0  0  # atno 10765 bound_to 10752
  140.8875  134.1854  157.4550 H   0  0  0  0  0  0  0  0  0  0  0  0  # atno 11005 bound_to 11000
  145.4058  139.1589  143.4153 LP  0  0  0  0  0  0  0  0  0  0  0  0  # atno 17320 bound_to 7965
  146.2957  140.4158  142.8722 LP  0  0  0  0  0  0  0  0  0  0  0  0  # atno 17321 bound_to 7965
  140.3515  143.2960  152.0482 LP  0  0  0  0  0  0  0  0  0  0  0  0  # atno 17342 bound_to 10162
  139.4890  144.6370  151.6954 LP  0  0  0  0  0  0  0  0  0  0  0  0  # atno 17343 bound_to 10162
  156.3370  130.3809  149.7441 LP  0  0  0  0  0  0  0  0  0  0  0  0  # atno 17370 bound_to 10713
  156.4963  130.8108  151.3114 LP  0  0  0  0  0  0  0  0  0  0  0  0  # atno 17371 bound_to 10713
  139.8726  134.9844  156.5238 LP  0  0  0  0  0  0  0  0  0  0  0  0  # atno 17394 bound_to 11000
  140.8387  133.8222  155.9054 LP  0  0  0  0  0  0  0  0  0  0  0  0  # atno 17395 bound_to 11000

$$$$
