AV-unprocessed.smi:1697|AV-procd|sdf|6805|dock8
  -GOLD-   22720 7573D 1   1.00000     0.00000
 Structure written by MMmdl.
 54 56  0  0  0  0  0  0  0  0  2 V2000
  143.2577  135.9369  155.3304 C   0  0  0  0  0  0  0  0  0  0  0  0
  144.1792  137.1289  155.6236 C   0  0  0  0  0  0  0  0  0  0  0  0
  144.7066  137.6980  154.4319 O   0  0  0  0  0  0  0  0  0  0  0  0
  145.5577  136.8447  153.6732 C   0  0  2  0  0  0  0  0  0  0  0  0
  146.8000  136.5149  154.5143 C   0  0  0  0  0  0  0  0  0  0  0  0
  147.6755  137.7580  154.7509 C   0  0  0  0  0  0  0  0  0  0  0  0
  148.0626  138.3974  153.4669 N   0  3  2  0  0  0  0  0  0  0  0  0
  149.0244  139.5123  153.6621 C   0  0  0  0  0  0  0  0  0  0  0  0
  148.6610  140.4135  154.8637 C   0  0  2  0  0  0  0  0  0  0  0  0
  147.4278  141.0504  154.5910 O   0  0  0  0  0  0  0  0  0  0  0  0
  149.7293  141.4862  155.1721 C   0  0  0  0  0  0  0  0  0  0  0  0
  150.7446  141.0447  156.1148 N   0  0  0  0  0  0  0  0  0  0  0  0
  151.5189  139.9464  156.0192 C   0  0  0  0  0  0  0  0  0  0  0  0
  152.3809  139.7203  157.0059 N   0  0  0  0  0  0  0  0  0  0  0  0
  152.1450  140.8025  157.8358 C   0  0  0  0  0  0  0  0  0  0  0  0
  152.7325  141.1564  159.0698 C   0  0  0  0  0  0  0  0  0  0  0  0
  152.3273  142.3221  159.7578 C   0  0  0  0  0  0  0  0  0  0  0  0
  152.9810  142.6600  161.0861 C   0  0  0  0  0  0  0  0  0  0  0  0
  151.3239  143.1593  159.2072 C   0  0  0  0  0  0  0  0  0  0  0  0
  150.8750  144.4193  159.9261 C   0  0  0  0  0  0  0  0  0  0  0  0
  150.7271  142.8210  157.9748 C   0  0  0  0  0  0  0  0  0  0  0  0
  151.1331  141.6540  157.3036 C   0  0  0  0  0  0  0  0  0  0  0  0
  146.8673  138.7824  152.6704 C   0  0  0  0  0  0  0  0  0  0  0  0
  145.9773  137.5616  152.3797 C   0  0  0  0  0  0  0  0  0  0  0  0
  142.8111  135.5598  156.2505 H   0  0  0  0  0  0  0  0  0  0  0  0
  143.7988  135.1117  154.8677 H   0  0  0  0  0  0  0  0  0  0  0  0
  142.4467  136.2248  154.6611 H   0  0  0  0  0  0  0  0  0  0  0  0
  143.6044  137.9032  156.1320 H   0  0  0  0  0  0  0  0  0  0  0  0
  144.9839  136.8462  156.3038 H   0  0  0  0  0  0  0  0  0  0  0  0
  145.0536  135.9105  153.4187 H   0  0  0  0  0  0  0  0  0  0  0  0
  146.5001  136.0810  155.4689 H   0  0  0  0  0  0  0  0  0  0  0  0
  147.3898  135.7524  154.0036 H   0  0  0  0  0  0  0  0  0  0  0  0
  147.1470  138.4816  155.3738 H   0  0  0  0  0  0  0  0  0  0  0  0
  148.5696  137.4614  155.3006 H   0  0  0  0  0  0  0  0  0  0  0  0
  150.0284  139.1022  153.7805 H   0  0  0  0  0  0  0  0  0  0  0  0
  149.0510  140.1262  152.7607 H   0  0  0  0  0  0  0  0  0  0  0  0
  148.5295  139.8137  155.7633 H   0  0  0  0  0  0  0  0  0  0  0  0
  147.5836  141.9768  154.4841 H   0  0  0  0  0  0  0  0  0  0  0  0
  150.2255  141.8015  154.2531 H   0  0  0  0  0  0  0  0  0  0  0  0
  149.2504  142.3777  155.5785 H   0  0  0  0  0  0  0  0  0  0  0  0
  151.4392  139.2694  155.1810 H   0  0  0  0  0  0  0  0  0  0  0  0
  153.4995  140.5202  159.4870 H   0  0  0  0  0  0  0  0  0  0  0  0
  153.5275  143.6005  161.0131 H   0  0  0  0  0  0  0  0  0  0  0  0
  153.6853  141.8859  161.3917 H   0  0  0  0  0  0  0  0  0  0  0  0
  152.2294  142.7549  161.8702 H   0  0  0  0  0  0  0  0  0  0  0  0
  150.1610  144.9858  159.3278 H   0  0  0  0  0  0  0  0  0  0  0  0
  151.7262  145.0688  160.1311 H   0  0  0  0  0  0  0  0  0  0  0  0
  150.3959  144.1672  160.8722 H   0  0  0  0  0  0  0  0  0  0  0  0
  149.9611  143.4502  157.5467 H   0  0  0  0  0  0  0  0  0  0  0  0
  146.2989  139.5419  153.2094 H   0  0  0  0  0  0  0  0  0  0  0  0
  147.1663  139.2307  151.7239 H   0  0  0  0  0  0  0  0  0  0  0  0
  146.5214  136.8645  151.7411 H   0  0  0  0  0  0  0  0  0  0  0  0
  145.0967  137.8691  151.8154 H   0  0  0  0  0  0  0  0  0  0  0  0
  148.5574  137.6914  152.9400 H   0  0  0  0  0  0  0  0  0  0  0  0
  1  2  1  0  0  0  0
  1 25  1  0  0  0  0
  1 26  1  0  0  0  0
  1 27  1  0  0  0  0
  2  3  1  0  0  0  0
  2 28  1  0  0  0  0
  2 29  1  0  0  0  0
  3  4  1  0  0  0  0
  4 24  1  0  0  0  0
  4  5  1  0  0  0  0
  4 30  1  0  0  0  0
  5  6  1  0  0  0  0
  5 31  1  0  0  0  0
  5 32  1  0  0  0  0
  6  7  1  0  0  0  0
  6 33  1  0  0  0  0
  6 34  1  0  0  0  0
  7  8  1  0  0  0  0
  7 23  1  0  0  0  0
  7 54  1  0  0  0  0
  8  9  1  0  0  0  0
  8 35  1  0  0  0  0
  8 36  1  0  0  0  0
  9 10  1  0  0  0  0
  9 11  1  0  0  0  0
  9 37  1  0  0  0  0
 10 38  1  0  0  0  0
 11 12  1  0  0  0  0
 11 39  1  0  0  0  0
 11 40  1  0  0  0  0
 12 22  1  0  0  0  0
 12 13  1  0  0  0  0
 13 14  2  0  0  0  0
 13 41  1  0  0  0  0
 14 15  1  0  0  0  0
 15 22  2  0  0  0  0
 15 16  1  0  0  0  0
 16 17  2  0  0  0  0
 16 42  1  0  0  0  0
 17 18  1  0  0  0  0
 17 19  1  0  0  0  0
 18 43  1  0  0  0  0
 18 44  1  0  0  0  0
 18 45  1  0  0  0  0
 19 20  1  0  0  0  0
 19 21  2  0  0  0  0
 20 46  1  0  0  0  0
 20 47  1  0  0  0  0
 20 48  1  0  0  0  0
 21 22  1  0  0  0  0
 21 49  1  0  0  0  0
 23 24  1  0  0  0  0
 23 50  1  0  0  0  0
 23 51  1  0  0  0  0
 24 52  1  0  0  0  0
 24 53  1  0  0  0  0
M  CHG  1   7   1
M  END
> <s_m_source_file>
AV-unprocessed.smi

> <i_m_source_file_index>
1697

> <i_lp_mmshare_version>
43012

> <i_f3d_flags>
0

> <s_epik_input>
W0NIM11bQ0gyXU9bQ0hdMVtDSDJdW0NIMl1OKFtDSDJdW0NIMl0xKVtDSDJdW0NASF0oW09IXSlbQ0gyXW4oW2NIXW4yKWMoYzIzKVtjSF1jKFtDSDNdKWMoW2NIXTMpW0NIM10=

> <s_epik_cmdline>
J2VwaWtfcHl0aG9uJywgJy1waCcsICc3LjAnLCAnLXRuJywgJzgnLCAnLW1hJywgJzIwMCcsICctbWV0YWxfYmluZGluZycsICctaW1hZScsICc8aW5maWxlLm1hZT4nLCAnLW9tYWUnLCAnPG91dGZpbGUubWFlPic=

> <r_epik_Ionization_Penalty>
0.112476

> <r_epik_Ionization_Penalty_Charging>
0.0244612

> <r_epik_Ionization_Penalty_Neutral>
0.0880147

> <r_epik_State_Penalty>
0.0961447

> <r_epik_Charging_Adjusted_Penalty>
0.120606

> <i_epik_Tot_Q>
1

> <i_epik_Tot_abs_Q>
1

> <r_epik_Metal_State_Penalty>
0.0206204

> <b_epik_Metal_Only>
0

> <s_lp_Force_Field>
OPLS_2005

> <r_lp_Energy>
22.8908

> <b_lp_Chiralities_Consistent>
1

> <s_lp_Variant>
AV-unprocessed.smi:1697-3

> <Gold.Version>
5.8.1

> <Gold.Id.Protein>
6NUR|6NUR_protein|mol2

> <Gold.PLP.Fitness>
48.3627

> <Gold.PLP.PLP>
-40.5174

> <Gold.PLP.part.hbond>
-2.9330

> <Gold.PLP.part.metal>
0.0000

> <Gold.PLP.part.buried>
0.0734

> <Gold.PLP.part.nonpolar>
-36.9279

> <Gold.PLP.part.repulsive>
0.1420

> <Gold.PLP.ligand.clash>
0.0000

> <Gold.PLP.ligand.torsion>
0.6596

> <Gold.PLP.Chemscore.Hbond>
3.0000

> <Gold.PLP.Chemscore.CHOScore>
0.0000

> <Gold.PLP.Chemscore.Metal>
0.0000

> <Gold.Chemscore.Hbonds>
donor molecule, donor type, donor heavy atom, donor atom, acceptor molecule, acceptor atom, score
      L1  H     7    54       P1  7948  2.00
      P1  H  7997  8008       L1    14  0.83

> <Gold.PLP.Chemscore.Internal.Correction>
0.1645

> <Gold.Rescore>
     Score         DG    S(hbond)    S(metal)    S(lipo)     H(rot)  DE(clash)    DE(int)     intcor
     16.17     -19.20       1.69        0.00     118.63       2.27       2.22       0.81       ----

> <Gold.Chemscore.Fitness>
16.1656

> <Gold.Chemscore.DG>
-19.1956

> <Gold.Chemscore.ZeroCoef>
-5.4800

> <Gold.Chemscore.Hbond>
1.6917

> <Gold.Chemscore.Metal>
0.0000

> <Gold.Chemscore.Lipo>
118.6254

> <Gold.Chemscore.Internal_Hbond>
0.0000

> <Gold.Chemscore.DEClash>
2.2215

> <Gold.Chemscore.DEInternal>
0.8086

> <Gold.Chemscore.Rot>
2.2710

> <Gold.Chemscore.Internal.Correction>
   9.000000E+99

> <Gold.Chemscore.Hbonds>
donor molecule, donor type, donor heavy atom, donor atom, acceptor molecule, acceptor atom, score
      L1  H     7    54       P1  7948  1.00
      P1  H  7997  8008       L1    14  0.18

> <Gold.Chemscore.Hbond.Weighted>
-5.6502

> <Gold.Chemscore.Metal.Weighted>
-0.0000

> <Gold.Chemscore.Lipo.Weighted>
-13.8792

> <Gold.Chemscore.Internal_Hbond.Weighted>
0.0000

> <Gold.Chemscore.DEClash.Weighted>
2.2215

> <Gold.Chemscore.DEInternal.Weighted>
0.8086

> <Gold.Chemscore.Rot.Weighted>
5.8137

> <Gold.Chemscore.Internal.Correction.Weighted>
   9.000000E+99

> <Gold.Protein.RotatedTorsions>
[ 6907 6896 6895 6894 ] final  134.11 input  -60.11 | X-H torsion
[ 7974 7965 7964 7962 ] final   75.68 input  175.53 | X-H torsion
[ 8008 7997 7996 7995 ] final  -43.19 input   59.86 | X-H torsion
[ 10167 10162 10161 10158 ] final   14.64 input  -65.29 | X-H torsion
[ 10718 10713 10712 10709 ] final  -93.21 input   66.30 | X-H torsion
[ 10763 10752 10751 10750 ] final  -38.80 input  -60.55 | X-H torsion
[ 11005 11000 10999 10996 ] final  101.08 input  -57.11 | X-H torsion

> <Gold.Protein.ActiveResidues>
 VAL166  LYS551  ARG553  GLY616  TRP617  ASP618  TYR619  PRO620  LYS621  CYS622 
 ASP623  PHE694  ASN695  SER759  ASP760  ASP761  ALA762  ILE779  LEU786  VAL792 
 PHE793  MET794  SER795  GLU796  ALA797  LYS798  CYS799  TRP800  GLU811  SER814 

> <Gold.Protein.RotatedAtoms>
  152.3148  133.5791  159.5704 H   0  0  0  0  0  0  0  0  0  0  0  0  # atno 6907 bound_to 6896
  150.7341  134.0099  159.3675 H   0  0  0  0  0  0  0  0  0  0  0  0  # atno 6908 bound_to 6896
  151.7988  135.0715  160.0448 H   0  0  0  0  0  0  0  0  0  0  0  0  # atno 6909 bound_to 6896
  145.7125  139.2620  143.1642 H   0  0  0  0  0  0  0  0  0  0  0  0  # atno 7974 bound_to 7965
  154.3997  140.1454  156.3478 H   0  0  0  0  0  0  0  0  0  0  0  0  # atno 8008 bound_to 7997
  155.8297  140.3466  155.5543 H   0  0  0  0  0  0  0  0  0  0  0  0  # atno 8009 bound_to 7997
  155.8201  140.0896  157.1844 H   0  0  0  0  0  0  0  0  0  0  0  0  # atno 8010 bound_to 7997
  140.5922  143.8773  150.6884 H   0  0  0  0  0  0  0  0  0  0  0  0  # atno 10167 bound_to 10162
  156.0011  130.5018  150.5742 H   0  0  0  0  0  0  0  0  0  0  0  0  # atno 10718 bound_to 10713
  153.9188  135.6784  153.4748 H   0  0  0  0  0  0  0  0  0  0  0  0  # atno 10763 bound_to 10752
  153.1039  135.4815  154.8914 H   0  0  0  0  0  0  0  0  0  0  0  0  # atno 10764 bound_to 10752
  154.7488  135.3179  154.8551 H   0  0  0  0  0  0  0  0  0  0  0  0  # atno 10765 bound_to 10752
  139.8772  134.9168  156.4853 H   0  0  0  0  0  0  0  0  0  0  0  0  # atno 11005 bound_to 11000
  146.0699  140.7880  142.9693 LP  0  0  0  0  0  0  0  0  0  0  0  0  # atno 17320 bound_to 7965
  144.6938  140.3326  143.7213 LP  0  0  0  0  0  0  0  0  0  0  0  0  # atno 17321 bound_to 7965
  140.2299  143.3744  152.1574 LP  0  0  0  0  0  0  0  0  0  0  0  0  # atno 17342 bound_to 10162
  139.5234  144.7071  151.5319 LP  0  0  0  0  0  0  0  0  0  0  0  0  # atno 17343 bound_to 10162
  157.3632  131.0753  151.1619 LP  0  0  0  0  0  0  0  0  0  0  0  0  # atno 17370 bound_to 10713
  157.2397  130.6564  149.5884 LP  0  0  0  0  0  0  0  0  0  0  0  0  # atno 17371 bound_to 10713
  140.8698  133.7997  155.9352 LP  0  0  0  0  0  0  0  0  0  0  0  0  # atno 17394 bound_to 11000
  140.8964  134.2432  157.5066 LP  0  0  0  0  0  0  0  0  0  0  0  0  # atno 17395 bound_to 11000

$$$$
