#       Name:                AV-unprocessed.smi:2591
#       Creating user name   scv26
#       Creation time:       Fri Mar 27 14:17:06 2020


#       File generated by GOLD software.
#

@<TRIPOS>MOLECULE
AV-unprocessed.smi:2591
    40    41     1
SMALL
NO_CHARGES


@<TRIPOS>ATOM
      1 ****        -3.9674  -1.9374  -2.8578 C.3            1 S1                 0.0000
      2 ****        -3.4198  -1.2821  -1.6798 N.3            1 S1                 0.0000
      3 ****        -3.7460   0.1370  -1.6514 C.3            1 S1                 0.0000
      4 ****        -3.1620   0.8263  -0.4069 C.3            1 S1                 0.0000
      5 ****        -1.7533   0.6191  -0.3619 O.3            1 S1                 0.0000
      6 ****        -1.3868  -0.7616  -0.3431 C.3            1 S1                 0.0000
      7 ****         0.1430  -0.8682  -0.2632 C.2            1 S1                 0.0000
      8 ****         0.7392  -1.7143  -0.9314 O.2            1 S1                 0.0000
      9 ****         0.7432  -0.0077   0.5815 N.am           1 S1                 0.0000
     10 ****         2.1268   0.1230   0.8729 C.ar           1 S1                 0.0000
     11 ****         2.4445   1.1026   1.8400 C.ar           1 S1                 0.0000
     12 ****         3.7907   1.3087   2.2119 C.ar           1 S1                 0.0000
     13 ****         4.1624   2.3587   3.2475 C.3            1 S1                 0.0000
     14 ****         5.2677   2.0064   3.9048 F              1 S1                 0.0000
     15 ****         4.3789   3.5221   2.6354 F              1 S1                 0.0000
     16 ****         3.1803   2.5164   4.1358 F              1 S1                 0.0000
     17 ****         4.7834   0.5282   1.5854 C.ar           1 S1                 0.0000
     18 ****         4.3817  -0.4227   0.6302 C.ar           1 S1                 0.0000
     19 ****         3.0936  -0.6230   0.2838 N.ar           1 S1                 0.0000
     20 ****        -1.9753  -1.4546  -1.5937 C.3            1 S1                 0.0000
     21 ****        -5.0518  -1.8278  -2.8921 H              1 S1                 0.0000
     22 ****        -3.7418  -3.0042  -2.8453 H              1 S1                 0.0000
     23 ****        -3.5530  -1.5132  -3.7734 H              1 S1                 0.0000
     24 ****        -3.3595   0.6240  -2.5482 H              1 S1                 0.0000
     25 ****        -4.8284   0.2689  -1.6658 H              1 S1                 0.0000
     26 ****        -3.3645   1.8968  -0.4359 H              1 S1                 0.0000
     27 ****        -3.6228   0.4371   0.5022 H              1 S1                 0.0000
     28 ****        -1.7961  -1.2239   0.5571 H              1 S1                 0.0000
     29 ****         0.1322   0.6294   1.0714 H              1 S1                 0.0000
     30 ****         1.6607   1.6912   2.2947 H              1 S1                 0.0000
     31 ****         5.8290   0.6529   1.8261 H              1 S1                 0.0000
     32 ****         5.1141  -1.0383   0.1293 H              1 S1                 0.0000
     33 ****        -1.7393  -2.5194  -1.5682 H              1 S1                 0.0000
     34 ****        -1.5030  -1.0519  -2.4917 H              1 S1                 0.0000
     35 ****        -3.8433  -1.7216  -0.8877 LP             1 S1                 0.0000
     36 ****        -1.3945   1.0543   0.4638 LP             1 S1                 0.0000
     37 ****        -1.3436   1.0456  -1.1683 LP             1 S1                 0.0000
     38 ****         0.2268  -2.3330  -1.5270 LP             1 S1                 0.0000
     39 ****         1.7354  -1.7823  -0.8782 LP             1 S1                 0.0000
     40 ****         2.8546  -1.3132  -0.3992 LP             1 S1                 0.0000
@<TRIPOS>BOND
    1    1    2 1     
    2    1   21 1     
    3    1   22 1     
    4    1   23 1     
    5    2   20 1     
    6    2    3 1     
    7    3    4 1     
    8    3   24 1     
    9    3   25 1     
   10    4    5 1     
   11    4   26 1     
   12    4   27 1     
   13    5    6 1     
   14    6    7 1     
   15    6   20 1     
   16    6   28 1     
   17    7    8 2     
   18    7    9 am    
   19    9   10 1     
   20    9   29 1     
   21   10   19 ar    
   22   10   11 ar    
   23   11   12 ar    
   24   11   30 1     
   25   12   13 1     
   26   12   17 ar    
   27   13   14 1     
   28   13   15 1     
   29   13   16 1     
   30   17   18 ar    
   31   17   31 1     
   32   18   19 ar    
   33   18   32 1     
   34   20   33 1     
   35   20   34 1     
   36    2   35 1     
   37    5   36 1     
   38    5   37 1     
   39    8   38 1     
   40    8   39 1     
   41   19   40 1     
@<TRIPOS>SUBSTRUCTURE
      1 S1             1
@<TRIPOS>SET
LONE_PAIRS      STATIC     ATOMS    <user>   **** ""
6 35 36 37 38 39 40
DONOR_HYDROGENS      STATIC     ATOMS    <user>   **** ""
1 29
ATOM$BLUE        STATIC     ATOMS    COLORGROUP SYSTEM
6 35 36 37 38 39 40
ATOM$RED        STATIC     ATOMS    COLORGROUP SYSTEM
1 29
