AV-unprocessed.smi:102|AV-procd|sdf|975|dock5
  -GOLD-   2262017533D 1   1.00000     0.00000
 Structure written by MMmdl.
 43 44  0  0  0  0  0  0  0  0  2 V2000
  152.7936  143.1947  162.2147 C   0  0  0  0  0  0  0  0  0  0  0  0
  153.0080  142.2082  161.0745 C   0  0  0  0  0  0  0  0  0  0  0  0
  153.9946  141.4726  161.0362 O   0  0  0  0  0  0  0  0  0  0  0  0
  152.0218  142.2531  160.1668 O   0  0  0  0  0  0  0  0  0  0  0  0
  152.1602  141.5407  158.9487 C   0  0  0  0  0  0  0  0  0  0  0  0
  151.1234  142.0493  157.9377 C   0  0  2  0  0  0  0  0  0  0  0  0
  149.7978  141.8186  158.3994 O   0  0  0  0  0  0  0  0  0  0  0  0
  148.9226  141.8240  157.3098 C   0  0  2  0  0  0  0  0  0  0  0  0
  147.9465  140.6762  157.4679 N   0  0  0  0  0  0  0  0  0  0  0  0
  148.4026  139.3720  157.5600 C   0  0  0  0  0  0  0  0  0  0  0  0
  147.5456  138.3378  157.6760 C   0  0  0  0  0  0  0  0  0  0  0  0
  148.0191  137.0827  157.7602 F   0  0  0  0  0  0  0  0  0  0  0  0
  146.1065  138.5916  157.7059 C   0  0  0  0  0  0  0  0  0  0  0  0
  145.3291  137.6450  157.8173 O   0  0  0  0  0  0  0  0  0  0  0  0
  145.6849  139.8857  157.6059 N   0  5  0  0  0  0  0  0  0  0  0  0
  146.5484  140.9354  157.4782 C   0  0  0  0  0  0  0  0  0  0  0  0
  146.1749  142.1022  157.3576 O   0  0  0  0  0  0  0  0  0  0  0  0
  149.7746  141.7096  156.0271 C   0  0  2  0  0  0  0  0  0  0  0  0
  149.2689  140.7572  155.0949 O   0  0  0  0  0  0  0  0  0  0  0  0
  148.1546  141.0181  154.3943 C   0  0  0  0  0  0  0  0  0  0  0  0
  147.6961  139.8201  153.5741 C   0  0  0  0  0  0  0  0  0  0  0  0
  147.5435  142.0865  154.3731 O   0  0  0  0  0  0  0  0  0  0  0  0
  151.1520  141.3492  156.5771 C   0  0  2  0  0  0  0  0  0  0  0  0
  151.2908  139.9431  156.7782 O   0  0  0  0  0  0  0  0  0  0  0  0
  151.4324  139.1045  155.7372 C   0  0  0  0  0  0  0  0  0  0  0  0
  151.5431  137.6498  156.1747 C   0  0  0  0  0  0  0  0  0  0  0  0
  151.4687  139.4205  154.5483 O   0  0  0  0  0  0  0  0  0  0  0  0
  151.8134  143.0440  162.6674 H   0  0  0  0  0  0  0  0  0  0  0  0
  152.8517  144.2184  161.8449 H   0  0  0  0  0  0  0  0  0  0  0  0
  153.5537  143.0615  162.9849 H   0  0  0  0  0  0  0  0  0  0  0  0
  153.1662  141.7035  158.5599 H   0  0  0  0  0  0  0  0  0  0  0  0
  152.0401  140.4688  159.1140 H   0  0  0  0  0  0  0  0  0  0  0  0
  151.2540  143.1213  157.7789 H   0  0  0  0  0  0  0  0  0  0  0  0
  148.3337  142.7413  157.3476 H   0  0  0  0  0  0  0  0  0  0  0  0
  149.4622  139.1671  157.5353 H   0  0  0  0  0  0  0  0  0  0  0  0
  149.8086  142.7076  155.5872 H   0  0  0  0  0  0  0  0  0  0  0  0
  147.5550  138.9526  154.2192 H   0  0  0  0  0  0  0  0  0  0  0  0
  148.4416  139.5731  152.8182 H   0  0  0  0  0  0  0  0  0  0  0  0
  146.7525  140.0363  153.0731 H   0  0  0  0  0  0  0  0  0  0  0  0
  151.9541  141.7446  155.9524 H   0  0  0  0  0  0  0  0  0  0  0  0
  151.2768  137.5386  157.2262 H   0  0  0  0  0  0  0  0  0  0  0  0
  152.5629  137.2916  156.0359 H   0  0  0  0  0  0  0  0  0  0  0  0
  150.8728  137.0263  155.5828 H   0  0  0  0  0  0  0  0  0  0  0  0
  1  2  1  0  0  0  0
  1 28  1  0  0  0  0
  1 29  1  0  0  0  0
  1 30  1  0  0  0  0
  2  3  2  0  0  0  0
  2  4  1  0  0  0  0
  4  5  1  0  0  0  0
  5  6  1  0  0  0  0
  5 31  1  0  0  0  0
  5 32  1  0  0  0  0
  6 23  1  0  0  0  0
  6  7  1  0  0  0  0
  6 33  1  0  0  0  0
  7  8  1  0  0  0  0
  8  9  1  0  0  0  0
  8 18  1  0  0  0  0
  8 34  1  0  0  0  0
  9 16  1  0  0  0  0
  9 10  1  0  0  0  0
 10 11  2  0  0  0  0
 10 35  1  0  0  0  0
 11 12  1  0  0  0  0
 11 13  1  0  0  0  0
 13 14  2  0  0  0  0
 13 15  1  0  0  0  0
 15 16  1  0  0  0  0
 16 17  2  0  0  0  0
 18 19  1  0  0  0  0
 18 23  1  0  0  0  0
 18 36  1  0  0  0  0
 19 20  1  0  0  0  0
 20 21  1  0  0  0  0
 20 22  2  0  0  0  0
 21 37  1  0  0  0  0
 21 38  1  0  0  0  0
 21 39  1  0  0  0  0
 23 24  1  0  0  0  0
 23 40  1  0  0  0  0
 24 25  1  0  0  0  0
 25 26  1  0  0  0  0
 25 27  2  0  0  0  0
 26 41  1  0  0  0  0
 26 42  1  0  0  0  0
 26 43  1  0  0  0  0
M  CHG  1  15  -1
M  END
> <s_m_source_file>
AV-unprocessed.smi

> <i_m_source_file_index>
102

> <i_lp_mmshare_version>
43012

> <i_f3d_flags>
0

> <s_epik_input>
W0NIM11DKD1PKU9bQ0gyXVtDQEBIXTFPW0NASF0oW0NAQEhdKE9DKD1PKVtDSDNdKVtDQEhdMU9DKD1PKVtDSDNdKW4yW2NIXWMoRiljKD1PKVtuSF1jMj1P

> <s_epik_cmdline>
J2VwaWtfcHl0aG9uJywgJy1waCcsICc3LjAnLCAnLXRuJywgJzgnLCAnLW1hJywgJzIwMCcsICctbWV0YWxfYmluZGluZycsICctaW1hZScsICc8aW5maWxlLm1hZT4nLCAnLW9tYWUnLCAnPG91dGZpbGUubWFlPic=

> <r_epik_Ionization_Penalty>
1.40304

> <r_epik_Ionization_Penalty_Charging>
1.43915e-08

> <r_epik_Ionization_Penalty_Neutral>
1.40304

> <r_epik_State_Penalty>
1.48536

> <r_epik_Charging_Adjusted_Penalty>
1.48536

> <i_epik_Tot_Q>
-1

> <i_epik_Tot_abs_Q>
1

> <r_epik_Metal_State_Penalty>
0.00663881

> <b_epik_Metal_Only>
0

> <s_epik_Chemistry_Notes>
This compound has an ester and may undergo hydrolysis at high or low pH. This compound contains an acetal/aminal-like group ( X-CH(R)-Y where X, Y are N, S, or O) that may be acid/base labile, releasing an aldehyde.

> <s_lp_Force_Field>
OPLS_2005

> <r_lp_Energy>
23.9264

> <b_lp_Chiralities_Consistent>
1

> <s_lp_Variant>
AV-unprocessed.smi:102-31

> <Gold.Version>
5.8.1

> <Gold.Id.Protein>
6NUR|6NUR_protein|mol2

> <Gold.PLP.Fitness>
34.9530

> <Gold.PLP.PLP>
-32.3771

> <Gold.PLP.part.hbond>
-1.0000

> <Gold.PLP.part.metal>
0.0000

> <Gold.PLP.part.buried>
-6.6016

> <Gold.PLP.part.nonpolar>
-24.7644

> <Gold.PLP.part.repulsive>
0.5030

> <Gold.PLP.ligand.clash>
0.0000

> <Gold.PLP.ligand.torsion>
0.2980

> <Gold.PLP.Chemscore.Hbond>
1.0000

> <Gold.PLP.Chemscore.CHOScore>
0.0000

> <Gold.PLP.Chemscore.Metal>
0.0000

> <Gold.Chemscore.Hbonds>
donor molecule, donor type, donor heavy atom, donor atom, acceptor molecule, acceptor atom, score
      P1  H  7989  7998       L1    27  1.00

> <Gold.PLP.Chemscore.Internal.Correction>
0.1719

> <Gold.Rescore>
     Score         DG    S(hbond)    S(metal)    S(lipo)     H(rot)  DE(clash)    DE(int)     intcor
      0.57      -4.85       0.98        0.00      54.03       4.00       0.05       4.23       ----

> <Gold.Chemscore.Fitness>
0.5680

> <Gold.Chemscore.DG>
-4.8493

> <Gold.Chemscore.ZeroCoef>
-5.4800

> <Gold.Chemscore.Hbond>
0.9807

> <Gold.Chemscore.Metal>
0.0000

> <Gold.Chemscore.Lipo>
54.0278

> <Gold.Chemscore.Internal_Hbond>
0.0000

> <Gold.Chemscore.DEClash>
0.0488

> <Gold.Chemscore.DEInternal>
4.2326

> <Gold.Chemscore.Rot>
3.9951

> <Gold.Chemscore.Internal.Correction>
   9.000000E+99

> <Gold.Chemscore.Hbonds>
donor molecule, donor type, donor heavy atom, donor atom, acceptor molecule, acceptor atom, score
      P1  H  7989  7998       L1    27  1.00

> <Gold.Chemscore.Hbond.Weighted>
-3.2755

> <Gold.Chemscore.Metal.Weighted>
-0.0000

> <Gold.Chemscore.Lipo.Weighted>
-6.3213

> <Gold.Chemscore.Internal_Hbond.Weighted>
0.0000

> <Gold.Chemscore.DEClash.Weighted>
0.0488

> <Gold.Chemscore.DEInternal.Weighted>
4.2326

> <Gold.Chemscore.Rot.Weighted>
10.2274

> <Gold.Chemscore.Internal.Correction.Weighted>
   9.000000E+99

> <Gold.Protein.RotatedTorsions>
[ 6907 6896 6895 6894 ] final  160.88 input  -60.11 | X-H torsion
[ 7974 7965 7964 7962 ] final -177.64 input  175.53 | X-H torsion
[ 8008 7997 7996 7995 ] final -145.74 input   59.86 | X-H torsion
[ 10167 10162 10161 10158 ] final   52.92 input  -65.29 | X-H torsion
[ 10718 10713 10712 10709 ] final  -53.12 input   66.30 | X-H torsion
[ 10763 10752 10751 10750 ] final  -69.93 input  -60.55 | X-H torsion
[ 11005 11000 10999 10996 ] final -118.68 input  -57.11 | X-H torsion

> <Gold.Protein.ActiveResidues>
 VAL166  LYS551  ARG553  GLY616  TRP617  ASP618  TYR619  PRO620  LYS621  CYS622 
 ASP623  PHE694  ASN695  SER759  ASP760  ASP761  ALA762  ILE779  LEU786  VAL792 
 PHE793  MET794  SER795  GLU796  ALA797  LYS798  CYS799  TRP800  GLU811  SER814 

> <Gold.Protein.RotatedAtoms>
  151.9640  133.3704  159.4045 H   0  0  0  0  0  0  0  0  0  0  0  0  # atno 6907 bound_to 6896
  150.6959  134.4211  159.5214 H   0  0  0  0  0  0  0  0  0  0  0  0  # atno 6908 bound_to 6896
  152.1904  134.8677  160.0569 H   0  0  0  0  0  0  0  0  0  0  0  0  # atno 6909 bound_to 6896
  144.7128  140.0989  143.6417 H   0  0  0  0  0  0  0  0  0  0  0  0  # atno 7974 bound_to 7965
  155.5482  140.0614  157.2856 H   0  0  0  0  0  0  0  0  0  0  0  0  # atno 8008 bound_to 7997
  154.4429  140.1907  156.0704 H   0  0  0  0  0  0  0  0  0  0  0  0  # atno 8009 bound_to 7997
  156.0536  140.3281  155.7383 H   0  0  0  0  0  0  0  0  0  0  0  0  # atno 8010 bound_to 7997
  140.2462  144.3529  150.6363 H   0  0  0  0  0  0  0  0  0  0  0  0  # atno 10167 bound_to 10162
  156.1562  130.4150  149.9865 H   0  0  0  0  0  0  0  0  0  0  0  0  # atno 10718 bound_to 10713
  154.4105  135.6010  153.5950 H   0  0  0  0  0  0  0  0  0  0  0  0  # atno 10763 bound_to 10752
  152.9790  135.5928  154.4076 H   0  0  0  0  0  0  0  0  0  0  0  0  # atno 10764 bound_to 10752
  154.3887  135.2842  155.2146 H   0  0  0  0  0  0  0  0  0  0  0  0  # atno 10765 bound_to 10752
  141.0269  134.0041  157.3202 H   0  0  0  0  0  0  0  0  0  0  0  0  # atno 11005 bound_to 11000
  145.9555  139.2763  143.1187 LP  0  0  0  0  0  0  0  0  0  0  0  0  # atno 17320 bound_to 7965
  145.9277  140.9071  143.0372 LP  0  0  0  0  0  0  0  0  0  0  0  0  # atno 17321 bound_to 7965
  140.6076  143.2168  151.6951 LP  0  0  0  0  0  0  0  0  0  0  0  0  # atno 17342 bound_to 10162
  139.5061  144.3694  152.0485 LP  0  0  0  0  0  0  0  0  0  0  0  0  # atno 17343 bound_to 10162
  156.7708  130.9185  151.3644 LP  0  0  0  0  0  0  0  0  0  0  0  0  # atno 17370 bound_to 10713
  157.6697  130.9039  150.0012 LP  0  0  0  0  0  0  0  0  0  0  0  0  # atno 17371 bound_to 10713
  139.9181  135.0198  156.7961 LP  0  0  0  0  0  0  0  0  0  0  0  0  # atno 17394 bound_to 11000
  140.6476  133.9761  155.7739 LP  0  0  0  0  0  0  0  0  0  0  0  0  # atno 17395 bound_to 11000

$$$$
