AV-unprocessed.smi:1244|AV-procd|sdf|5224|dock7
  -GOLD-   22720 4323D 1   1.00000     0.00000
 Structure written by MMmdl.
 55 57  0  0  0  0  0  0  0  0  2 V2000
  145.2906  130.7471  151.7068 C   0  0  0  0  0  0  0  0  0  0  0  0
  146.0284  131.6800  150.7300 C   0  0  2  0  0  0  0  0  0  0  0  0
  146.3282  133.0737  151.3168 C   0  0  0  0  0  0  0  0  0  0  0  0
  145.0994  133.8989  151.3959 N   0  3  1  0  0  0  0  0  0  0  0  0
  145.3465  135.2207  152.0239 C   0  0  0  0  0  0  0  0  0  0  0  0
  145.7619  136.2919  150.9969 C   0  0  0  0  0  0  0  0  0  0  0  0
  146.7845  137.1819  151.5336 N   0  0  0  0  0  0  0  0  0  0  0  0
  146.5590  138.1463  152.4367 C   0  0  0  0  0  0  0  0  0  0  0  0
  145.4522  138.3696  152.9273 O   0  0  0  0  0  0  0  0  0  0  0  0
  147.6892  138.8055  152.7405 N   0  0  0  0  0  0  0  0  0  0  0  0
  147.8598  139.8665  153.6741 C   0  0  0  0  0  0  0  0  0  0  0  0
  146.8946  140.8941  153.8104 C   0  0  0  0  0  0  0  0  0  0  0  0
  147.1393  141.9582  154.6951 C   0  0  0  0  0  0  0  0  0  0  0  0
  148.3524  141.9675  155.4032 C   0  0  0  0  0  0  0  0  0  0  0  0
  149.2873  141.0051  155.2746 N   0  0  0  0  0  0  0  0  0  0  0  0
  149.0595  139.9644  154.4358 C   0  0  0  0  0  0  0  0  0  0  0  0
  150.0672  138.9764  154.3543 N   0  0  0  0  0  0  0  0  0  0  0  0
  151.4201  139.2599  154.8219 C   0  0  0  0  0  0  0  0  0  0  0  0
  152.0886  137.8941  154.9450 C   0  0  0  0  0  0  0  0  0  0  0  0
  150.9376  137.0109  155.4170 C   0  0  0  0  0  0  0  0  0  0  0  0
  149.7112  137.6080  154.7190 C   0  0  0  0  0  0  0  0  0  0  0  0
  144.4501  133.9801  150.0655 C   0  0  0  0  0  0  0  0  0  0  0  0
  144.1423  132.5688  149.5333 C   0  0  1  0  0  0  0  0  0  0  0  0
  143.5451  132.6038  148.1223 C   0  0  0  0  0  0  0  0  0  0  0  0
  145.3458  131.8070  149.4825 O   0  0  0  0  0  0  0  0  0  0  0  0
  145.8967  130.5604  152.5937 H   0  0  0  0  0  0  0  0  0  0  0  0
  145.0839  129.7829  151.2418 H   0  0  0  0  0  0  0  0  0  0  0  0
  144.3433  131.1655  152.0454 H   0  0  0  0  0  0  0  0  0  0  0  0
  146.9831  131.2041  150.5037 H   0  0  0  0  0  0  0  0  0  0  0  0
  146.7787  132.9698  152.3049 H   0  0  0  0  0  0  0  0  0  0  0  0
  147.0593  133.5864  150.6894 H   0  0  0  0  0  0  0  0  0  0  0  0
  144.4290  135.5492  152.5144 H   0  0  0  0  0  0  0  0  0  0  0  0
  146.0980  135.1244  152.8093 H   0  0  0  0  0  0  0  0  0  0  0  0
  146.1758  135.8311  150.1009 H   0  0  0  0  0  0  0  0  0  0  0  0
  144.8946  136.8720  150.6762 H   0  0  0  0  0  0  0  0  0  0  0  0
  147.7249  137.0643  151.1847 H   0  0  0  0  0  0  0  0  0  0  0  0
  148.5412  138.4474  152.3339 H   0  0  0  0  0  0  0  0  0  0  0  0
  145.9821  140.8957  153.2342 H   0  0  0  0  0  0  0  0  0  0  0  0
  146.4200  142.7545  154.8170 H   0  0  0  0  0  0  0  0  0  0  0  0
  148.5818  142.7721  156.0860 H   0  0  0  0  0  0  0  0  0  0  0  0
  151.9529  139.9112  154.1283 H   0  0  0  0  0  0  0  0  0  0  0  0
  151.4002  139.7420  155.8002 H   0  0  0  0  0  0  0  0  0  0  0  0
  152.4393  137.5596  153.9677 H   0  0  0  0  0  0  0  0  0  0  0  0
  152.9370  137.8956  155.6299 H   0  0  0  0  0  0  0  0  0  0  0  0
  151.0858  135.9563  155.1840 H   0  0  0  0  0  0  0  0  0  0  0  0
  150.8255  137.1037  156.4980 H   0  0  0  0  0  0  0  0  0  0  0  0
  148.8302  137.5694  155.3616 H   0  0  0  0  0  0  0  0  0  0  0  0
  149.4920  137.0469  153.8101 H   0  0  0  0  0  0  0  0  0  0  0  0
  143.5217  134.5465  150.1284 H   0  0  0  0  0  0  0  0  0  0  0  0
  145.1031  134.5132  149.3722 H   0  0  0  0  0  0  0  0  0  0  0  0
  143.4233  132.0790  150.1904 H   0  0  0  0  0  0  0  0  0  0  0  0
  142.6139  133.1705  148.1038 H   0  0  0  0  0  0  0  0  0  0  0  0
  143.3269  131.5965  147.7665 H   0  0  0  0  0  0  0  0  0  0  0  0
  144.2324  133.0657  147.4129 H   0  0  0  0  0  0  0  0  0  0  0  0
  144.4651  133.4043  152.0070 H   0  0  0  0  0  0  0  0  0  0  0  0
  1  2  1  0  0  0  0
  1 26  1  0  0  0  0
  1 27  1  0  0  0  0
  1 28  1  0  0  0  0
  2 25  1  0  0  0  0
  2  3  1  0  0  0  0
  2 29  1  0  0  0  0
  3  4  1  0  0  0  0
  3 30  1  0  0  0  0
  3 31  1  0  0  0  0
  4  5  1  0  0  0  0
  4 22  1  0  0  0  0
  4 55  1  0  0  0  0
  5  6  1  0  0  0  0
  5 32  1  0  0  0  0
  5 33  1  0  0  0  0
  6  7  1  0  0  0  0
  6 34  1  0  0  0  0
  6 35  1  0  0  0  0
  7  8  1  0  0  0  0
  7 36  1  0  0  0  0
  8  9  2  0  0  0  0
  8 10  1  0  0  0  0
 10 11  1  0  0  0  0
 10 37  1  0  0  0  0
 11 16  1  0  0  0  0
 11 12  2  0  0  0  0
 12 13  1  0  0  0  0
 12 38  1  0  0  0  0
 13 14  2  0  0  0  0
 13 39  1  0  0  0  0
 14 15  1  0  0  0  0
 14 40  1  0  0  0  0
 15 16  2  0  0  0  0
 16 17  1  0  0  0  0
 17 21  1  0  0  0  0
 17 18  1  0  0  0  0
 18 19  1  0  0  0  0
 18 41  1  0  0  0  0
 18 42  1  0  0  0  0
 19 20  1  0  0  0  0
 19 43  1  0  0  0  0
 19 44  1  0  0  0  0
 20 21  1  0  0  0  0
 20 45  1  0  0  0  0
 20 46  1  0  0  0  0
 21 47  1  0  0  0  0
 21 48  1  0  0  0  0
 22 23  1  0  0  0  0
 22 49  1  0  0  0  0
 22 50  1  0  0  0  0
 23 24  1  0  0  0  0
 23 25  1  0  0  0  0
 23 51  1  0  0  0  0
 24 52  1  0  0  0  0
 24 53  1  0  0  0  0
 24 54  1  0  0  0  0
M  CHG  1   4   1
M  END
> <s_m_source_file>
AV-unprocessed.smi

> <i_m_source_file_index>
1244

> <i_lp_mmshare_version>
43012

> <i_f3d_flags>
0

> <s_epik_input>
W0NIM11bQ0BASF0xW0NIMl1OKFtDSDJdW0NASF0oTzEpW0NIM10pW0NIMl1bQ0gyXVtOSF1DKD1PKVtOSF1jMltjSF1bY0hdW2NIXW5jMk4zW0NIMl1bQ0gyXVtDSDJdW0NIMl0z

> <s_epik_cmdline>
J2VwaWtfcHl0aG9uJywgJy1waCcsICc3LjAnLCAnLXRuJywgJzgnLCAnLW1hJywgJzIwMCcsICctbWV0YWxfYmluZGluZycsICctaW1hZScsICc8aW5maWxlLm1hZT4nLCAnLW9tYWUnLCAnPG91dGZpbGUubWFlPic=

> <r_lp_tautomer_probability>
1

> <r_epik_Ionization_Penalty>
0.684913

> <r_epik_Ionization_Penalty_Charging>
0.602531

> <r_epik_Ionization_Penalty_Neutral>
0.0823829

> <r_epik_State_Penalty>
0.678827

> <r_epik_Charging_Adjusted_Penalty>
1.28136

> <i_epik_Tot_Q>
1

> <i_epik_Tot_abs_Q>
1

> <r_epik_Metal_State_Penalty>
0.67806

> <b_epik_Metal_Only>
0

> <s_lp_Force_Field>
OPLS_2005

> <r_lp_Energy>
45.4431

> <b_lp_Chiralities_Consistent>
1

> <s_lp_Variant>
AV-unprocessed.smi:1244-4

> <Gold.Version>
5.8.1

> <Gold.Id.Protein>
6NUR|6NUR_protein|mol2

> <Gold.PLP.Fitness>
44.6885

> <Gold.PLP.PLP>
-41.1886

> <Gold.PLP.part.hbond>
-2.8025

> <Gold.PLP.part.metal>
0.0000

> <Gold.PLP.part.buried>
2.2378

> <Gold.PLP.part.nonpolar>
-44.0311

> <Gold.PLP.part.repulsive>
3.0892

> <Gold.PLP.ligand.clash>
0.0000

> <Gold.PLP.ligand.torsion>
1.1688

> <Gold.PLP.Chemscore.Hbond>
0.8555

> <Gold.PLP.Chemscore.CHOScore>
0.9673

> <Gold.PLP.Chemscore.Metal>
0.0000

> <Gold.Chemscore.Hbonds>
donor molecule, donor type, donor heavy atom, donor atom, acceptor molecule, acceptor atom, score
      L1  H     7    36       P1  7948  0.61
      L1  H    10    37       P1  7948  0.21
      L1  C    14    40       P1  8028  0.91

> <Gold.PLP.Chemscore.Internal.Correction>
0.3690

> <Gold.Rescore>
     Score         DG    S(hbond)    S(metal)    S(lipo)     H(rot)  DE(clash)    DE(int)     intcor
     16.28     -20.10       1.39        0.00     120.18       1.60       1.65       2.18       ----

> <Gold.Chemscore.Fitness>
16.2752

> <Gold.Chemscore.DG>
-20.0969

> <Gold.Chemscore.ZeroCoef>
-5.4800

> <Gold.Chemscore.Hbond>
1.3912

> <Gold.Chemscore.Metal>
0.0000

> <Gold.Chemscore.Lipo>
120.1790

> <Gold.Chemscore.Internal_Hbond>
0.0000

> <Gold.Chemscore.DEClash>
1.6462

> <Gold.Chemscore.DEInternal>
2.1755

> <Gold.Chemscore.Rot>
1.5978

> <Gold.Chemscore.Internal.Correction>
   9.000000E+99

> <Gold.Chemscore.Hbonds>
donor molecule, donor type, donor heavy atom, donor atom, acceptor molecule, acceptor atom, score
      L1  H     7    36       P1  7948  0.59
      L1  H    10    37       P1  7948  0.22

> <Gold.Chemscore.Hbond.Weighted>
-4.6464

> <Gold.Chemscore.Metal.Weighted>
-0.0000

> <Gold.Chemscore.Lipo.Weighted>
-14.0609

> <Gold.Chemscore.Internal_Hbond.Weighted>
0.0000

> <Gold.Chemscore.DEClash.Weighted>
1.6462

> <Gold.Chemscore.DEInternal.Weighted>
2.1755

> <Gold.Chemscore.Rot.Weighted>
4.0905

> <Gold.Chemscore.Internal.Correction.Weighted>
   9.000000E+99

> <Gold.Protein.RotatedTorsions>
[ 6907 6896 6895 6894 ] final  -51.66 input  -60.11 | X-H torsion
[ 7974 7965 7964 7962 ] final  132.01 input  175.53 | X-H torsion
[ 8008 7997 7996 7995 ] final  -67.43 input   59.86 | X-H torsion
[ 10167 10162 10161 10158 ] final   90.99 input  -65.29 | X-H torsion
[ 10718 10713 10712 10709 ] final   40.07 input   66.30 | X-H torsion
[ 10763 10752 10751 10750 ] final -167.40 input  -60.55 | X-H torsion
[ 11005 11000 10999 10996 ] final  -37.21 input  -57.11 | X-H torsion

> <Gold.Protein.ActiveResidues>
 VAL166  LYS551  ARG553  GLY616  TRP617  ASP618  TYR619  PRO620  LYS621  CYS622 
 ASP623  PHE694  ASN695  SER759  ASP760  ASP761  ALA762  ILE779  LEU786  VAL792 
 PHE793  MET794  SER795  GLU796  ALA797  LYS798  CYS799  TRP800  GLU811  SER814 

> <Gold.Protein.RotatedAtoms>
  150.8591  134.7937  159.7068 H   0  0  0  0  0  0  0  0  0  0  0  0  # atno 6907 bound_to 6896
  152.4633  134.5130  159.9769 H   0  0  0  0  0  0  0  0  0  0  0  0  # atno 6908 bound_to 6896
  151.5237  133.3423  159.2941 H   0  0  0  0  0  0  0  0  0  0  0  0  # atno 6909 bound_to 6896
  145.0013  139.4309  143.5290 H   0  0  0  0  0  0  0  0  0  0  0  0  # atno 7974 bound_to 7965
  154.4799  140.0893  156.7353 H   0  0  0  0  0  0  0  0  0  0  0  0  # atno 8008 bound_to 7997
  155.4497  140.3457  155.4281 H   0  0  0  0  0  0  0  0  0  0  0  0  # atno 8009 bound_to 7997
  156.1176  140.1465  156.9239 H   0  0  0  0  0  0  0  0  0  0  0  0  # atno 8010 bound_to 7997
  139.8418  144.6637  150.9274 H   0  0  0  0  0  0  0  0  0  0  0  0  # atno 10167 bound_to 10162
  157.3779  130.7737  149.7169 H   0  0  0  0  0  0  0  0  0  0  0  0  # atno 10718 bound_to 10713
  154.6735  135.2943  154.9710 H   0  0  0  0  0  0  0  0  0  0  0  0  # atno 10763 bound_to 10752
  154.0729  135.6615  153.4831 H   0  0  0  0  0  0  0  0  0  0  0  0  # atno 10764 bound_to 10752
  153.0501  135.5179  154.7743 H   0  0  0  0  0  0  0  0  0  0  0  0  # atno 10765 bound_to 10752
  140.9934  133.6993  156.1891 H   0  0  0  0  0  0  0  0  0  0  0  0  # atno 11005 bound_to 11000
  146.3452  139.9404  142.8742 LP  0  0  0  0  0  0  0  0  0  0  0  0  # atno 17320 bound_to 7965
  145.2149  140.9911  143.4079 LP  0  0  0  0  0  0  0  0  0  0  0  0  # atno 17321 bound_to 7965
  140.7797  143.3906  151.1317 LP  0  0  0  0  0  0  0  0  0  0  0  0  # atno 17342 bound_to 10162
  139.7551  143.8719  152.3087 LP  0  0  0  0  0  0  0  0  0  0  0  0  # atno 17343 bound_to 10162
  155.9769  130.4069  150.3747 LP  0  0  0  0  0  0  0  0  0  0  0  0  # atno 17370 bound_to 10713
  157.1846  131.0400  151.2731 LP  0  0  0  0  0  0  0  0  0  0  0  0  # atno 17371 bound_to 10713
  140.7004  134.4570  157.5586 LP  0  0  0  0  0  0  0  0  0  0  0  0  # atno 17394 bound_to 11000
  139.9003  134.8571  156.1924 LP  0  0  0  0  0  0  0  0  0  0  0  0  # atno 17395 bound_to 11000

$$$$
