#       Name:                AV-unprocessed.smi:3126
#       Creating user name   scv26
#       Creation time:       Fri Mar 27 17:29:31 2020


#       File generated by GOLD software.
#

@<TRIPOS>MOLECULE
AV-unprocessed.smi:3126
    43    44     1
SMALL
NO_CHARGES


@<TRIPOS>ATOM
      1 ****        -1.6249  -4.4140   2.2422 C.3            1 S1                 0.0000
      2 ****        -2.1375  -2.9820   2.0369 C.3            1 S1                 0.0000
      3 ****        -1.5724  -2.2834   0.7833 C.3            1 S1                 0.0000
      4 ****        -2.0851  -2.9181  -0.5270 C.3            1 S1                 0.0000
      5 ****        -1.5324  -2.1952  -1.7652 C.3            1 S1                 0.0000
      6 ****        -1.8616  -0.6938  -1.7347 C.3            1 S1                 0.0000
      7 ****        -1.3840  -0.0223  -0.4338 C.3            1 S1                 0.0000
      8 ****         0.0927   0.0807  -0.4027 N.4            1 S1                 1.0000
      9 ****         0.6210   1.4586  -0.4337 C.3            1 S1                 0.0000
     10 ****         2.1546   1.4603  -0.4023 C.3            1 S1                 0.0000
     11 ****         2.7219   2.8659  -0.4101 C.ar           1 S1                 0.0000
     12 ****         2.9877   3.5452   0.7969 C.ar           1 S1                 0.0000
     13 ****         3.5093   4.8516   0.7398 C.ar           1 S1                 0.0000
     14 ****         3.7432   5.4257  -0.5257 C.ar           1 S1                 0.0000
     15 ****         3.4912   4.7852  -1.6877 N.ar           1 S1                 0.0000
     16 ****         2.9926   3.5322  -1.6244 C.ar           1 S1                 0.0000
     17 ****        -1.9062  -0.7755   0.8053 C.3            1 S1                 0.0000
     18 ****        -2.0016  -4.8254   3.1789 H              1 S1                 0.0000
     19 ****        -0.5358  -4.4414   2.2847 H              1 S1                 0.0000
     20 ****        -1.9496  -5.0786   1.4421 H              1 S1                 0.0000
     21 ****        -3.2277  -2.9859   2.0015 H              1 S1                 0.0000
     22 ****        -1.8687  -2.4011   2.9199 H              1 S1                 0.0000
     23 ****        -0.4864  -2.3862   0.8091 H              1 S1                 0.0000
     24 ****        -1.8015  -3.9689  -0.5785 H              1 S1                 0.0000
     25 ****        -3.1756  -2.8924  -0.5474 H              1 S1                 0.0000
     26 ****        -0.4524  -2.3366  -1.8199 H              1 S1                 0.0000
     27 ****        -1.9456  -2.6443  -2.6689 H              1 S1                 0.0000
     28 ****        -1.4272  -0.1948  -2.6020 H              1 S1                 0.0000
     29 ****        -2.9416  -0.5684  -1.8234 H              1 S1                 0.0000
     30 ****        -1.8021   0.9853  -0.4060 H              1 S1                 0.0000
     31 ****         0.4210  -0.3640   0.4427 H              1 S1                 0.0000
     32 ****         0.2639   1.9615  -1.3338 H              1 S1                 0.0000
     33 ****         0.2302   2.0086   0.4238 H              1 S1                 0.0000
     34 ****         2.5123   0.9390   0.4869 H              1 S1                 0.0000
     35 ****         2.5487   0.9133  -1.2602 H              1 S1                 0.0000
     36 ****         2.7945   3.0756   1.7503 H              1 S1                 0.0000
     37 ****         3.7257   5.4015   1.6439 H              1 S1                 0.0000
     38 ****         4.1426   6.4259  -0.6062 H              1 S1                 0.0000
     39 ****         2.8012   3.0489  -2.5711 H              1 S1                 0.0000
     40 ****        -2.9890  -0.6531   0.8609 H              1 S1                 0.0000
     41 ****        -1.5068  -0.3141   1.7096 H              1 S1                 0.0000
     42 ****         0.4635  -0.4263  -1.1939 H              1 S1                 0.0000
     43 ****         3.6684   5.2255  -2.5679 LP             1 S1                 0.0000
@<TRIPOS>BOND
    1    1    2 1     
    2    1   18 1     
    3    1   19 1     
    4    1   20 1     
    5    2    3 1     
    6    2   21 1     
    7    2   22 1     
    8    3   17 1     
    9    3    4 1     
   10    3   23 1     
   11    4    5 1     
   12    4   24 1     
   13    4   25 1     
   14    5    6 1     
   15    5   26 1     
   16    5   27 1     
   17    6    7 1     
   18    6   28 1     
   19    6   29 1     
   20    7    8 1     
   21    7   17 1     
   22    7   30 1     
   23    8    9 1     
   24    8   31 1     
   25    8   42 1     
   26    9   10 1     
   27    9   32 1     
   28    9   33 1     
   29   10   11 1     
   30   10   34 1     
   31   10   35 1     
   32   11   16 ar    
   33   11   12 ar    
   34   12   13 ar    
   35   12   36 1     
   36   13   14 ar    
   37   13   37 1     
   38   14   15 ar    
   39   14   38 1     
   40   15   16 ar    
   41   16   39 1     
   42   17   40 1     
   43   17   41 1     
   44   15   43 1     
@<TRIPOS>SUBSTRUCTURE
      1 S1             1
@<TRIPOS>SET
LONE_PAIRS      STATIC     ATOMS    <user>   **** ""
1 43
DONOR_HYDROGENS      STATIC     ATOMS    <user>   **** ""
2 31 42
ATOM$BLUE        STATIC     ATOMS    COLORGROUP SYSTEM
1 43
ATOM$RED        STATIC     ATOMS    COLORGROUP SYSTEM
2 31 42
