AV-unprocessed.smi:1741|AV-procd|sdf|7018|dock4
  -GOLD-   22720 8233D 1   1.00000     0.00000
 Structure written by MMmdl.
 38 39  0  0  0  0  0  0  0  0  1 V2000
  151.1458  141.3629  157.4749 C   0  0  0  0  0  0  0  0  0  0  0  0
  151.9825  140.1602  157.0219 C   0  0  0  0  0  0  0  0  0  0  0  0
  151.2971  139.3765  156.0127 N   0  0  0  0  0  0  0  0  0  0  0  0
  150.9181  138.0500  156.0736 C   0  0  0  0  0  0  0  0  0  0  0  0
  150.3092  137.7847  154.8796 C   0  0  0  0  0  0  0  0  0  0  0  0
  149.7353  136.5760  154.4104 N   0  0  0  0  0  0  0  0  0  0  0  0
  149.5253  135.4473  155.1072 C   0  0  0  0  0  0  0  0  0  0  0  0
  149.7815  135.2973  156.3021 O   0  0  0  0  0  0  0  0  0  0  0  0
  148.9973  134.4910  154.3296 N   0  0  0  0  0  0  0  0  0  0  0  0
  148.6472  133.1369  154.7535 C   0  0  2  0  0  0  0  0  0  0  0  0
  149.8947  132.4730  155.3567 C   0  0  0  0  0  0  0  0  0  0  0  0
  148.0879  132.3511  153.5514 C   0  0  1  0  0  0  0  0  0  0  0  0
  147.5457  130.9619  153.8910 C   0  0  0  0  0  0  0  0  0  0  0  0
  146.5310  130.6918  152.7912 C   0  0  0  0  0  0  0  0  0  0  0  0
  146.2905  132.0655  152.1594 C   0  0  0  0  0  0  0  0  0  0  0  0
  146.9351  132.9900  153.0240 O   0  0  0  0  0  0  0  0  0  0  0  0
  150.3558  138.9971  154.1437 C   0  0  0  0  0  0  0  0  0  0  0  0
  150.9545  139.9550  154.8348 N   0  0  0  0  0  0  0  0  0  0  0  0
  151.6721  141.9345  158.2393 H   0  0  0  0  0  0  0  0  0  0  0  0
  150.1921  141.0429  157.8958 H   0  0  0  0  0  0  0  0  0  0  0  0
  150.9368  142.0359  156.6429 H   0  0  0  0  0  0  0  0  0  0  0  0
  152.9395  140.4938  156.6185 H   0  0  0  0  0  0  0  0  0  0  0  0
  152.2048  139.5154  157.8728 H   0  0  0  0  0  0  0  0  0  0  0  0
  151.1136  137.4368  156.9408 H   0  0  0  0  0  0  0  0  0  0  0  0
  149.4697  136.5649  153.4365 H   0  0  0  0  0  0  0  0  0  0  0  0
  148.8192  134.7179  153.3623 H   0  0  0  0  0  0  0  0  0  0  0  0
  147.8807  133.1703  155.5297 H   0  0  0  0  0  0  0  0  0  0  0  0
  149.6704  131.4760  155.7358 H   0  0  0  0  0  0  0  0  0  0  0  0
  150.2840  133.0567  156.1915 H   0  0  0  0  0  0  0  0  0  0  0  0
  150.6905  132.3765  154.6172 H   0  0  0  0  0  0  0  0  0  0  0  0
  148.8390  132.2731  152.7625 H   0  0  0  0  0  0  0  0  0  0  0  0
  148.3284  130.2044  153.9380 H   0  0  0  0  0  0  0  0  0  0  0  0
  147.0386  130.9812  154.8567 H   0  0  0  0  0  0  0  0  0  0  0  0
  146.9203  129.9922  152.0507 H   0  0  0  0  0  0  0  0  0  0  0  0
  145.6136  130.2699  153.2033 H   0  0  0  0  0  0  0  0  0  0  0  0
  146.7495  132.1176  151.1711 H   0  0  0  0  0  0  0  0  0  0  0  0
  145.2307  132.2997  152.0554 H   0  0  0  0  0  0  0  0  0  0  0  0
  149.9840  139.2098  153.1522 H   0  0  0  0  0  0  0  0  0  0  0  0
  1  2  1  0  0  0  0
  1 19  1  0  0  0  0
  1 20  1  0  0  0  0
  1 21  1  0  0  0  0
  2  3  1  0  0  0  0
  2 22  1  0  0  0  0
  2 23  1  0  0  0  0
  3 18  1  0  0  0  0
  3  4  1  0  0  0  0
  4  5  2  0  0  0  0
  4 24  1  0  0  0  0
  5  6  1  0  0  0  0
  5 17  1  0  0  0  0
  6  7  1  0  0  0  0
  6 25  1  0  0  0  0
  7  8  2  0  0  0  0
  7  9  1  0  0  0  0
  9 10  1  0  0  0  0
  9 26  1  0  0  0  0
 10 11  1  0  0  0  0
 10 12  1  0  0  0  0
 10 27  1  0  0  0  0
 11 28  1  0  0  0  0
 11 29  1  0  0  0  0
 11 30  1  0  0  0  0
 12 16  1  0  0  0  0
 12 13  1  0  0  0  0
 12 31  1  0  0  0  0
 13 14  1  0  0  0  0
 13 32  1  0  0  0  0
 13 33  1  0  0  0  0
 14 15  1  0  0  0  0
 14 34  1  0  0  0  0
 14 35  1  0  0  0  0
 15 16  1  0  0  0  0
 15 36  1  0  0  0  0
 15 37  1  0  0  0  0
 17 18  2  0  0  0  0
 17 38  1  0  0  0  0
M  END
> <s_m_source_file>
AV-unprocessed.smi

> <i_m_source_file_index>
1741

> <i_lp_mmshare_version>
43012

> <i_f3d_flags>
0

> <s_epik_input>
W0NIM11bQ0gyXW4xW2NIXWMoW2NIXW4xKVtOSF1DKD1PKVtOSF1bQ0BIXShbQ0gzXSlbQ0BASF0yW0NIMl1bQ0gyXVtDSDJdTzI=

> <s_epik_cmdline>
J2VwaWtfcHl0aG9uJywgJy1waCcsICc3LjAnLCAnLXRuJywgJzgnLCAnLW1hJywgJzIwMCcsICctbWV0YWxfYmluZGluZycsICctaW1hZScsICc8aW5maWxlLm1hZT4nLCAnLW9tYWUnLCAnPG91dGZpbGUubWFlPic=

> <r_lp_tautomer_probability>
1

> <r_epik_Ionization_Penalty>
0.000179292

> <r_epik_Ionization_Penalty_Charging>
0

> <r_epik_Ionization_Penalty_Neutral>
0.000179292

> <r_epik_State_Penalty>
-0

> <r_epik_Charging_Adjusted_Penalty>
0

> <i_epik_Tot_Q>
0

> <i_epik_Tot_abs_Q>
0

> <r_epik_Metal_State_Penalty>
-0

> <b_epik_Metal_Only>
0

> <s_lp_Force_Field>
OPLS_2005

> <r_lp_Energy>
22.1528

> <b_lp_Chiralities_Consistent>
1

> <s_lp_Variant>
AV-unprocessed.smi:1741-3

> <Gold.Version>
5.8.1

> <Gold.Id.Protein>
6NUR|6NUR_protein|mol2

> <Gold.PLP.Fitness>
40.4588

> <Gold.PLP.PLP>
-29.0417

> <Gold.PLP.part.hbond>
-3.5294

> <Gold.PLP.part.metal>
0.0000

> <Gold.PLP.part.buried>
-2.4039

> <Gold.PLP.part.nonpolar>
-22.9520

> <Gold.PLP.part.repulsive>
0.2650

> <Gold.PLP.ligand.clash>
0.0000

> <Gold.PLP.ligand.torsion>
0.0394

> <Gold.PLP.Chemscore.Hbond>
2.8208

> <Gold.PLP.Chemscore.CHOScore>
1.0000

> <Gold.PLP.Chemscore.Metal>
0.0000

> <Gold.Chemscore.Hbonds>
donor molecule, donor type, donor heavy atom, donor atom, acceptor molecule, acceptor atom, score
      L1  H     6    25       P1  7948  1.00
      L1  H     9    26       P1  7948  0.77
      P1  H  7989  7998       L1    18  0.95
      L1  C    17    38       P1  7957  1.00

> <Gold.PLP.Chemscore.Internal.Correction>
0.0335

> <Gold.Rescore>
     Score         DG    S(hbond)    S(metal)    S(lipo)     H(rot)  DE(clash)    DE(int)     intcor
     13.58     -15.73       1.99        0.00      61.01       1.38       0.27       1.88       ----

> <Gold.Chemscore.Fitness>
13.5797

> <Gold.Chemscore.DG>
-15.7328

> <Gold.Chemscore.ZeroCoef>
-5.4800

> <Gold.Chemscore.Hbond>
1.9893

> <Gold.Chemscore.Metal>
0.0000

> <Gold.Chemscore.Lipo>
61.0146

> <Gold.Chemscore.Internal_Hbond>
0.0000

> <Gold.Chemscore.DEClash>
0.2719

> <Gold.Chemscore.DEInternal>
1.8813

> <Gold.Chemscore.Rot>
1.3790

> <Gold.Chemscore.Internal.Correction>
   9.000000E+99

> <Gold.Chemscore.Hbonds>
donor molecule, donor type, donor heavy atom, donor atom, acceptor molecule, acceptor atom, score
      L1  H     6    25       P1  7948  0.74
      L1  H     9    26       P1  7948  0.22
      P1  H  7989  7998       L1    18  0.22

> <Gold.Chemscore.Hbond.Weighted>
-6.6443

> <Gold.Chemscore.Metal.Weighted>
-0.0000

> <Gold.Chemscore.Lipo.Weighted>
-7.1387

> <Gold.Chemscore.Internal_Hbond.Weighted>
0.0000

> <Gold.Chemscore.DEClash.Weighted>
0.2719

> <Gold.Chemscore.DEInternal.Weighted>
1.8813

> <Gold.Chemscore.Rot.Weighted>
3.5302

> <Gold.Chemscore.Internal.Correction.Weighted>
   9.000000E+99

> <Gold.Protein.RotatedTorsions>
[ 6907 6896 6895 6894 ] final   -5.02 input  -60.11 | X-H torsion
[ 7974 7965 7964 7962 ] final -161.31 input  175.53 | X-H torsion
[ 8008 7997 7996 7995 ] final  127.37 input   59.86 | X-H torsion
[ 10167 10162 10161 10158 ] final   50.67 input  -65.29 | X-H torsion
[ 10718 10713 10712 10709 ] final   17.42 input   66.30 | X-H torsion
[ 10763 10752 10751 10750 ] final   60.66 input  -60.55 | X-H torsion
[ 11005 11000 10999 10996 ] final  -44.07 input  -57.11 | X-H torsion

> <Gold.Protein.ActiveResidues>
 VAL166  LYS551  ARG553  GLY616  TRP617  ASP618  TYR619  PRO620  LYS621  CYS622 
 ASP623  PHE694  ASN695  SER759  ASP760  ASP761  ALA762  ILE779  LEU786  VAL792 
 PHE793  MET794  SER795  GLU796  ALA797  LYS798  CYS799  TRP800  GLU811  SER814 

> <Gold.Protein.RotatedAtoms>
  151.4883  135.1056  159.9796 H   0  0  0  0  0  0  0  0  0  0  0  0  # atno 6907 bound_to 6896
  152.4751  133.8116  159.7017 H   0  0  0  0  0  0  0  0  0  0  0  0  # atno 6908 bound_to 6896
  150.8784  133.7344  159.2965 H   0  0  0  0  0  0  0  0  0  0  0  0  # atno 6909 bound_to 6896
  144.7395  140.3416  143.6133 H   0  0  0  0  0  0  0  0  0  0  0  0  # atno 7974 bound_to 7965
  156.2889  140.2670  156.2263 H   0  0  0  0  0  0  0  0  0  0  0  0  # atno 8008 bound_to 7997
  155.0118  140.0387  157.2420 H   0  0  0  0  0  0  0  0  0  0  0  0  # atno 8009 bound_to 7997
  154.7512  140.2743  155.6296 H   0  0  0  0  0  0  0  0  0  0  0  0  # atno 8010 bound_to 7997
  140.2700  144.3276  150.6293 H   0  0  0  0  0  0  0  0  0  0  0  0  # atno 10167 bound_to 10162
  157.0819  130.6391  149.5828 H   0  0  0  0  0  0  0  0  0  0  0  0  # atno 10718 bound_to 10713
  152.9927  135.5528  154.5909 H   0  0  0  0  0  0  0  0  0  0  0  0  # atno 10763 bound_to 10752
  154.5271  135.2811  155.1215 H   0  0  0  0  0  0  0  0  0  0  0  0  # atno 10764 bound_to 10752
  154.2545  135.6392  153.5305 H   0  0  0  0  0  0  0  0  0  0  0  0  # atno 10765 bound_to 10752
  141.0426  133.6774  156.2821 H   0  0  0  0  0  0  0  0  0  0  0  0  # atno 11005 bound_to 11000
  145.7369  139.1752  143.2398 LP  0  0  0  0  0  0  0  0  0  0  0  0  # atno 17320 bound_to 7965
  146.1164  140.7364  142.9478 LP  0  0  0  0  0  0  0  0  0  0  0  0  # atno 17321 bound_to 7965
  140.5897  143.2168  151.7275 LP  0  0  0  0  0  0  0  0  0  0  0  0  # atno 17342 bound_to 10162
  139.4992  144.3957  152.0234 LP  0  0  0  0  0  0  0  0  0  0  0  0  # atno 17343 bound_to 10162
  155.9921  130.4978  150.7328 LP  0  0  0  0  0  0  0  0  0  0  0  0  # atno 17370 bound_to 10713
  157.4793  131.0901  151.0554 LP  0  0  0  0  0  0  0  0  0  0  0  0  # atno 17371 bound_to 10713
  140.6206  134.5365  157.5547 LP  0  0  0  0  0  0  0  0  0  0  0  0  # atno 17394 bound_to 11000
  139.9287  134.8005  156.0992 LP  0  0  0  0  0  0  0  0  0  0  0  0  # atno 17395 bound_to 11000

$$$$
