AV-unprocessed.smi:1745|AV-procd|sdf|7031|dock3
  -GOLD-   22720 8253D 1   1.00000     0.00000
 Structure written by MMmdl.
 47 49  0  0  0  0  0  0  0  0  1 V2000
  144.3268  137.0975  152.5557 C   0  0  0  0  0  0  0  0  0  0  0  0
  145.3525  135.9579  152.6474 C   0  0  2  0  0  0  0  0  0  0  0  0
  146.6576  136.5294  152.9762 N   0  0  0  0  0  0  0  0  0  0  0  0
  146.9164  137.3701  153.9884 C   0  0  0  0  0  0  0  0  0  0  0  0
  146.0664  137.7520  154.7923 O   0  0  0  0  0  0  0  0  0  0  0  0
  148.2085  137.7390  153.9899 N   0  0  0  0  0  0  0  0  0  0  0  0
  148.8661  138.6471  154.8625 C   0  0  0  0  0  0  0  0  0  0  0  0
  148.4524  138.9241  156.1858 C   0  0  0  0  0  0  0  0  0  0  0  0
  149.1966  139.8387  156.9552 C   0  0  0  0  0  0  0  0  0  0  0  0
  150.3410  140.4498  156.3909 C   0  0  0  0  0  0  0  0  0  0  0  0
  151.0946  141.3774  157.1425 N   0  0  0  0  0  0  0  0  0  0  0  0
  150.5652  142.7379  157.1929 C   0  0  0  0  0  0  0  0  0  0  0  0
  151.6224  143.7028  157.7575 C   0  0  0  0  0  0  0  0  0  0  0  0
  152.0759  143.2358  159.0239 O   0  0  0  0  0  0  0  0  0  0  0  0
  152.6902  141.9551  158.9274 C   0  0  0  0  0  0  0  0  0  0  0  0
  151.6683  140.9290  158.4097 C   0  0  0  0  0  0  0  0  0  0  0  0
  150.7403  140.1724  155.1255 N   0  0  0  0  0  0  0  0  0  0  0  0
  150.0264  139.2930  154.3927 C   0  0  0  0  0  0  0  0  0  0  0  0
  145.4289  135.1462  151.3375 C   0  0  1  0  0  0  0  0  0  0  0  0
  146.3694  133.9393  151.3756 C   0  0  0  0  0  0  0  0  0  0  0  0
  145.7955  133.0685  150.2825 C   0  0  0  0  0  0  0  0  0  0  0  0
  144.2970  133.2871  150.4662 C   0  0  0  0  0  0  0  0  0  0  0  0
  144.1535  134.5936  151.0182 O   0  0  0  0  0  0  0  0  0  0  0  0
  143.3282  136.7138  152.3455 H   0  0  0  0  0  0  0  0  0  0  0  0
  144.5853  137.8029  151.7650 H   0  0  0  0  0  0  0  0  0  0  0  0
  144.2723  137.6527  153.4928 H   0  0  0  0  0  0  0  0  0  0  0  0
  145.0284  135.2897  153.4476 H   0  0  0  0  0  0  0  0  0  0  0  0
  147.4230  136.2745  152.3696 H   0  0  0  0  0  0  0  0  0  0  0  0
  148.7687  137.3926  153.2250 H   0  0  0  0  0  0  0  0  0  0  0  0
  147.5897  138.4512  156.6285 H   0  0  0  0  0  0  0  0  0  0  0  0
  148.8737  140.0691  157.9593 H   0  0  0  0  0  0  0  0  0  0  0  0
  150.2552  143.0884  156.2096 H   0  0  0  0  0  0  0  0  0  0  0  0
  149.6772  142.7454  157.8261 H   0  0  0  0  0  0  0  0  0  0  0  0
  152.4654  143.8003  157.0712 H   0  0  0  0  0  0  0  0  0  0  0  0
  151.1951  144.6982  157.8792 H   0  0  0  0  0  0  0  0  0  0  0  0
  153.5589  142.0052  158.2689 H   0  0  0  0  0  0  0  0  0  0  0  0
  153.0532  141.6589  159.9116 H   0  0  0  0  0  0  0  0  0  0  0  0
  150.8694  140.7953  159.1405 H   0  0  0  0  0  0  0  0  0  0  0  0
  152.1597  139.9637  158.2810 H   0  0  0  0  0  0  0  0  0  0  0  0
  150.3913  139.1070  153.3930 H   0  0  0  0  0  0  0  0  0  0  0  0
  145.7228  135.7952  150.5106 H   0  0  0  0  0  0  0  0  0  0  0  0
  147.4130  134.2052  151.2052 H   0  0  0  0  0  0  0  0  0  0  0  0
  146.2985  133.4250  152.3353 H   0  0  0  0  0  0  0  0  0  0  0  0
  146.1136  133.4358  149.3059 H   0  0  0  0  0  0  0  0  0  0  0  0
  146.0875  132.0215  150.3672 H   0  0  0  0  0  0  0  0  0  0  0  0
  143.7462  133.1877  149.5307 H   0  0  0  0  0  0  0  0  0  0  0  0
  143.8905  132.5661  151.1763 H   0  0  0  0  0  0  0  0  0  0  0  0
  1  2  1  0  0  0  0
  1 24  1  0  0  0  0
  1 25  1  0  0  0  0
  1 26  1  0  0  0  0
  2  3  1  0  0  0  0
  2 19  1  0  0  0  0
  2 27  1  0  0  0  0
  3  4  1  0  0  0  0
  3 28  1  0  0  0  0
  4  5  2  0  0  0  0
  4  6  1  0  0  0  0
  6  7  1  0  0  0  0
  6 29  1  0  0  0  0
  7 18  1  0  0  0  0
  7  8  2  0  0  0  0
  8  9  1  0  0  0  0
  8 30  1  0  0  0  0
  9 10  2  0  0  0  0
  9 31  1  0  0  0  0
 10 11  1  0  0  0  0
 10 17  1  0  0  0  0
 11 16  1  0  0  0  0
 11 12  1  0  0  0  0
 12 13  1  0  0  0  0
 12 32  1  0  0  0  0
 12 33  1  0  0  0  0
 13 14  1  0  0  0  0
 13 34  1  0  0  0  0
 13 35  1  0  0  0  0
 14 15  1  0  0  0  0
 15 16  1  0  0  0  0
 15 36  1  0  0  0  0
 15 37  1  0  0  0  0
 16 38  1  0  0  0  0
 16 39  1  0  0  0  0
 17 18  2  0  0  0  0
 18 40  1  0  0  0  0
 19 23  1  0  0  0  0
 19 20  1  0  0  0  0
 19 41  1  0  0  0  0
 20 21  1  0  0  0  0
 20 42  1  0  0  0  0
 20 43  1  0  0  0  0
 21 22  1  0  0  0  0
 21 44  1  0  0  0  0
 21 45  1  0  0  0  0
 22 23  1  0  0  0  0
 22 46  1  0  0  0  0
 22 47  1  0  0  0  0
M  END
> <s_m_source_file>
AV-unprocessed.smi

> <i_m_source_file_index>
1745

> <i_lp_mmshare_version>
43012

> <i_f3d_flags>
0

> <s_epik_input>
TzFbQ0gyXVtDSDJdW0NIMl1bQ0BIXTFbQ0BIXShbQ0gzXSlbTkhdQyg9TylbTkhdYzJbY0hdW2NIXWMobltjSF0yKU4zW0NIMl1bQ0gyXU9bQ0gyXVtDSDJdMw==

> <s_epik_cmdline>
J2VwaWtfcHl0aG9uJywgJy1waCcsICc3LjAnLCAnLXRuJywgJzgnLCAnLW1hJywgJzIwMCcsICctbWV0YWxfYmluZGluZycsICctaW1hZScsICc8aW5maWxlLm1hZT4nLCAnLW9tYWUnLCAnPG91dGZpbGUubWFlPic=

> <r_lp_tautomer_probability>
1

> <r_epik_Ionization_Penalty>
0.00206005

> <r_epik_Ionization_Penalty_Charging>
0

> <r_epik_Ionization_Penalty_Neutral>
0.00206005

> <r_epik_State_Penalty>
0.00138459

> <r_epik_Charging_Adjusted_Penalty>
0.00138459

> <i_epik_Tot_Q>
0

> <i_epik_Tot_abs_Q>
0

> <r_epik_Metal_State_Penalty>
-0

> <b_epik_Metal_Only>
0

> <s_lp_Force_Field>
OPLS_2005

> <r_lp_Energy>
34.4703

> <b_lp_Chiralities_Consistent>
1

> <s_lp_Variant>
AV-unprocessed.smi:1745-3

> <Gold.Version>
5.8.1

> <Gold.Id.Protein>
6NUR|6NUR_protein|mol2

> <Gold.PLP.Fitness>
42.6394

> <Gold.PLP.PLP>
-32.3217

> <Gold.PLP.part.hbond>
-3.0000

> <Gold.PLP.part.metal>
0.0000

> <Gold.PLP.part.buried>
-4.4758

> <Gold.PLP.part.nonpolar>
-25.8661

> <Gold.PLP.part.repulsive>
0.3400

> <Gold.PLP.ligand.clash>
0.0000

> <Gold.PLP.ligand.torsion>
0.4990

> <Gold.PLP.Chemscore.Hbond>
2.6500

> <Gold.PLP.Chemscore.CHOScore>
1.0000

> <Gold.PLP.Chemscore.Metal>
0.0000

> <Gold.Chemscore.Hbonds>
donor molecule, donor type, donor heavy atom, donor atom, acceptor molecule, acceptor atom, score
      L1  H     3    28       P1  7948  1.00
      L1  H     6    29       P1  7948  0.99
      P1  H  7989  7998       L1    17  0.60
      L1  C    18    40       P1  7957  1.00

> <Gold.PLP.Chemscore.Internal.Correction>
0.3656

> <Gold.Rescore>
     Score         DG    S(hbond)    S(metal)    S(lipo)     H(rot)  DE(clash)    DE(int)     intcor
     15.82     -18.66       2.04        0.00      84.87       1.40       0.19       2.65       ----

> <Gold.Chemscore.Fitness>
15.8168

> <Gold.Chemscore.DG>
-18.6591

> <Gold.Chemscore.ZeroCoef>
-5.4800

> <Gold.Chemscore.Hbond>
2.0422

> <Gold.Chemscore.Metal>
0.0000

> <Gold.Chemscore.Lipo>
84.8654

> <Gold.Chemscore.Internal_Hbond>
0.0000

> <Gold.Chemscore.DEClash>
0.1884

> <Gold.Chemscore.DEInternal>
2.6539

> <Gold.Chemscore.Rot>
1.3950

> <Gold.Chemscore.Internal.Correction>
   9.000000E+99

> <Gold.Chemscore.Hbonds>
donor molecule, donor type, donor heavy atom, donor atom, acceptor molecule, acceptor atom, score
      L1  H     3    28       P1  7948  0.98
      L1  H     6    29       P1  7948  0.94
      P1  H  7989  7998       L1    17  0.04

> <Gold.Chemscore.Hbond.Weighted>
-6.8210

> <Gold.Chemscore.Metal.Weighted>
-0.0000

> <Gold.Chemscore.Lipo.Weighted>
-9.9292

> <Gold.Chemscore.Internal_Hbond.Weighted>
0.0000

> <Gold.Chemscore.DEClash.Weighted>
0.1884

> <Gold.Chemscore.DEInternal.Weighted>
2.6539

> <Gold.Chemscore.Rot.Weighted>
3.5712

> <Gold.Chemscore.Internal.Correction.Weighted>
   9.000000E+99

> <Gold.Protein.RotatedTorsions>
[ 6907 6896 6895 6894 ] final -145.57 input  -60.11 | X-H torsion
[ 7974 7965 7964 7962 ] final   87.25 input  175.53 | X-H torsion
[ 8008 7997 7996 7995 ] final -170.75 input   59.86 | X-H torsion
[ 10167 10162 10161 10158 ] final   52.73 input  -65.29 | X-H torsion
[ 10718 10713 10712 10709 ] final -174.37 input   66.30 | X-H torsion
[ 10763 10752 10751 10750 ] final -129.98 input  -60.55 | X-H torsion
[ 11005 11000 10999 10996 ] final   12.92 input  -57.11 | X-H torsion

> <Gold.Protein.ActiveResidues>
 VAL166  LYS551  ARG553  GLY616  TRP617  ASP618  TYR619  PRO620  LYS621  CYS622 
 ASP623  PHE694  ASN695  SER759  ASP760  ASP761  ALA762  ILE779  LEU786  VAL792 
 PHE793  MET794  SER795  GLU796  ALA797  LYS798  CYS799  TRP800  GLU811  SER814 

> <Gold.Protein.RotatedAtoms>
  151.1297  133.5046  159.2599 H   0  0  0  0  0  0  0  0  0  0  0  0  # atno 6907 bound_to 6896
  151.1771  135.0344  159.8786 H   0  0  0  0  0  0  0  0  0  0  0  0  # atno 6908 bound_to 6896
  152.5459  134.1153  159.8429 H   0  0  0  0  0  0  0  0  0  0  0  0  # atno 6909 bound_to 6896
  145.5615  139.2304  143.2457 H   0  0  0  0  0  0  0  0  0  0  0  0  # atno 7974 bound_to 7965
  155.9225  140.1076  157.1196 H   0  0  0  0  0  0  0  0  0  0  0  0  # atno 8008 bound_to 7997
  154.4056  140.1253  156.4763 H   0  0  0  0  0  0  0  0  0  0  0  0  # atno 8009 bound_to 7997
  155.7179  140.3470  155.5005 H   0  0  0  0  0  0  0  0  0  0  0  0  # atno 8010 bound_to 7997
  140.2483  144.3507  150.6356 H   0  0  0  0  0  0  0  0  0  0  0  0  # atno 10167 bound_to 10162
  156.7841  130.9494  151.3120 H   0  0  0  0  0  0  0  0  0  0  0  0  # atno 10718 bound_to 10713
  154.8756  135.3877  154.4008 H   0  0  0  0  0  0  0  0  0  0  0  0  # atno 10763 bound_to 10752
  153.4733  135.7030  153.5986 H   0  0  0  0  0  0  0  0  0  0  0  0  # atno 10764 bound_to 10752
  153.4433  135.3851  155.2209 H   0  0  0  0  0  0  0  0  0  0  0  0  # atno 10765 bound_to 10752
  140.4866  134.0882  155.7762 H   0  0  0  0  0  0  0  0  0  0  0  0  # atno 11005 bound_to 11000
  146.1848  140.6440  142.9173 LP  0  0  0  0  0  0  0  0  0  0  0  0  # atno 17320 bound_to 7965
  144.7480  140.5119  143.6821 LP  0  0  0  0  0  0  0  0  0  0  0  0  # atno 17321 bound_to 7965
  140.6060  143.2168  151.6979 LP  0  0  0  0  0  0  0  0  0  0  0  0  # atno 17342 bound_to 10162
  139.5054  144.3717  152.0463 LP  0  0  0  0  0  0  0  0  0  0  0  0  # atno 17343 bound_to 10162
  157.6632  130.8985  149.9875 LP  0  0  0  0  0  0  0  0  0  0  0  0  # atno 17370 bound_to 10713
  156.1200  130.3646  149.9904 LP  0  0  0  0  0  0  0  0  0  0  0  0  # atno 17371 bound_to 10713
  141.1505  133.8977  157.2109 LP  0  0  0  0  0  0  0  0  0  0  0  0  # atno 17394 bound_to 11000
  139.9794  135.0103  156.9713 LP  0  0  0  0  0  0  0  0  0  0  0  0  # atno 17395 bound_to 11000

$$$$
