AV-unprocessed.smi:2083|AV-procd|sdf|8493|dock8
  -GOLD-   2272011203D 1   1.00000     0.00000
 Structure written by MMmdl.
 45 46  0  0  0  0  0  0  0  0  2 V2000
  151.7651  140.6942  155.9436 C   0  0  0  0  0  0  0  0  0  0  0  0
  151.4907  139.2740  155.5850 C   0  0  0  0  0  0  0  0  0  0  0  0
  150.4519  138.6600  154.9433 C   0  0  0  0  0  0  0  0  0  0  0  0
  150.8383  137.2935  154.9443 C   0  0  0  0  0  0  0  0  0  0  0  0
  150.0067  136.3006  154.3655 N   0  0  0  0  0  0  0  0  0  0  0  0
  149.6957  135.0965  154.8753 C   0  0  0  0  0  0  0  0  0  0  0  0
  150.1317  134.6375  155.9314 O   0  0  0  0  0  0  0  0  0  0  0  0
  148.8361  134.4366  154.0855 N   0  0  0  0  0  0  0  0  0  0  0  0
  148.3015  133.1059  154.3607 C   0  0  0  0  0  0  0  0  0  0  0  0
  148.8192  132.0325  153.3730 C   0  0  1  0  0  0  0  0  0  0  0  0
  149.6621  130.9387  154.0645 C   0  0  0  0  0  0  0  0  0  0  0  0
  147.6973  131.4779  152.5592 N   0  3  2  0  0  0  0  0  0  0  0  0
  146.7985  132.4910  151.9408 C   0  0  0  0  0  0  0  0  0  0  0  0
  145.8439  131.8314  150.9339 C   0  0  0  0  0  0  0  0  0  0  0  0
  145.0312  130.7122  151.6011 C   0  0  0  0  0  0  0  0  0  0  0  0
  145.9499  129.6953  152.3045 C   0  0  1  0  0  0  0  0  0  0  0  0
  146.6765  128.7677  151.3149 C   0  0  0  0  0  0  0  0  0  0  0  0
  146.9281  130.4127  153.2589 C   0  0  0  0  0  0  0  0  0  0  0  0
  152.0066  137.0910  155.5339 N   0  0  0  0  0  0  0  0  0  0  0  0
  152.4305  138.3593  155.9478 O   0  0  0  0  0  0  0  0  0  0  0  0
  151.0171  141.3575  155.5091 H   0  0  0  0  0  0  0  0  0  0  0  0
  152.7441  141.0033  155.5774 H   0  0  0  0  0  0  0  0  0  0  0  0
  151.7496  140.8288  157.0252 H   0  0  0  0  0  0  0  0  0  0  0  0
  149.5609  139.1184  154.5404 H   0  0  0  0  0  0  0  0  0  0  0  0
  149.5933  136.5403  153.4768 H   0  0  0  0  0  0  0  0  0  0  0  0
  148.5316  134.8837  153.2328 H   0  0  0  0  0  0  0  0  0  0  0  0
  148.5822  132.8555  155.3831 H   0  0  0  0  0  0  0  0  0  0  0  0
  147.2109  133.1432  154.3425 H   0  0  0  0  0  0  0  0  0  0  0  0
  149.4803  132.5499  152.6767 H   0  0  0  0  0  0  0  0  0  0  0  0
  150.5558  131.3627  154.5227 H   0  0  0  0  0  0  0  0  0  0  0  0
  150.0005  130.1828  153.3562 H   0  0  0  0  0  0  0  0  0  0  0  0
  149.1042  130.4348  154.8540 H   0  0  0  0  0  0  0  0  0  0  0  0
  146.2176  132.9966  152.7134 H   0  0  0  0  0  0  0  0  0  0  0  0
  147.3786  133.2575  151.4286 H   0  0  0  0  0  0  0  0  0  0  0  0
  145.1685  132.5799  150.5183 H   0  0  0  0  0  0  0  0  0  0  0  0
  146.4116  131.4322  150.0927 H   0  0  0  0  0  0  0  0  0  0  0  0
  144.3557  131.1531  152.3356 H   0  0  0  0  0  0  0  0  0  0  0  0
  144.3980  130.2136  150.8664 H   0  0  0  0  0  0  0  0  0  0  0  0
  145.3138  129.0521  152.9141 H   0  0  0  0  0  0  0  0  0  0  0  0
  147.3623  129.3161  150.6691 H   0  0  0  0  0  0  0  0  0  0  0  0
  145.9650  128.2451  150.6748 H   0  0  0  0  0  0  0  0  0  0  0  0
  147.2569  128.0108  151.8432 H   0  0  0  0  0  0  0  0  0  0  0  0
  147.6078  129.6800  153.6959 H   0  0  0  0  0  0  0  0  0  0  0  0
  146.3728  130.8540  154.0877 H   0  0  0  0  0  0  0  0  0  0  0  0
  148.1484  131.0045  151.7894 H   0  0  0  0  0  0  0  0  0  0  0  0
  1  2  1  0  0  0  0
  1 21  1  0  0  0  0
  1 22  1  0  0  0  0
  1 23  1  0  0  0  0
  2 20  1  0  0  0  0
  2  3  2  0  0  0  0
  3  4  1  0  0  0  0
  3 24  1  0  0  0  0
  4  5  1  0  0  0  0
  4 19  2  0  0  0  0
  5  6  1  0  0  0  0
  5 25  1  0  0  0  0
  6  7  2  0  0  0  0
  6  8  1  0  0  0  0
  8  9  1  0  0  0  0
  8 26  1  0  0  0  0
  9 10  1  0  0  0  0
  9 27  1  0  0  0  0
  9 28  1  0  0  0  0
 10 11  1  0  0  0  0
 10 12  1  0  0  0  0
 10 29  1  0  0  0  0
 11 30  1  0  0  0  0
 11 31  1  0  0  0  0
 11 32  1  0  0  0  0
 12 18  1  0  0  0  0
 12 13  1  0  0  0  0
 12 45  1  0  0  0  0
 13 14  1  0  0  0  0
 13 33  1  0  0  0  0
 13 34  1  0  0  0  0
 14 15  1  0  0  0  0
 14 35  1  0  0  0  0
 14 36  1  0  0  0  0
 15 16  1  0  0  0  0
 15 37  1  0  0  0  0
 15 38  1  0  0  0  0
 16 17  1  0  0  0  0
 16 18  1  0  0  0  0
 16 39  1  0  0  0  0
 17 40  1  0  0  0  0
 17 41  1  0  0  0  0
 17 42  1  0  0  0  0
 18 43  1  0  0  0  0
 18 44  1  0  0  0  0
 19 20  1  0  0  0  0
M  CHG  1  12   1
M  END
> <s_m_source_file>
AV-unprocessed.smi

> <i_m_source_file_index>
2083

> <i_lp_mmshare_version>
43012

> <i_f3d_flags>
0

> <s_epik_input>
W0NIM11jMVtjSF1jKG5vMSlbTkhdQyg9TylbTkhdW0NIMl1bQ0BIXShbQ0gzXSlOMltDSDJdW0NIMl1bQ0gyXVtDQEBIXShbQ0gzXSlbQ0gyXTI=

> <s_epik_cmdline>
J2VwaWtfcHl0aG9uJywgJy1waCcsICc3LjAnLCAnLXRuJywgJzgnLCAnLW1hJywgJzIwMCcsICctbWV0YWxfYmluZGluZycsICctaW1hZScsICc8aW5maWxlLm1hZT4nLCAnLW9tYWUnLCAnPG91dGZpbGUubWFlPic=

> <r_epik_Ionization_Penalty>
0.00216453

> <r_epik_Ionization_Penalty_Charging>
0.00212879

> <r_epik_Ionization_Penalty_Neutral>
3.57418e-05

> <r_epik_State_Penalty>
0.00146033

> <r_epik_Charging_Adjusted_Penalty>
0.00358912

> <i_epik_Tot_Q>
1

> <i_epik_Tot_abs_Q>
1

> <r_epik_Metal_State_Penalty>
0.0215827

> <b_epik_Metal_Only>
0

> <s_lp_Force_Field>
OPLS_2005

> <r_lp_Energy>
19.7178

> <b_lp_Chiralities_Consistent>
1

> <s_lp_Variant>
AV-unprocessed.smi:2083-4

> <Gold.Version>
5.8.1

> <Gold.Id.Protein>
6NUR|6NUR_protein|mol2

> <Gold.PLP.Fitness>
46.2304

> <Gold.PLP.PLP>
-36.8750

> <Gold.PLP.part.hbond>
-4.7293

> <Gold.PLP.part.metal>
0.0000

> <Gold.PLP.part.buried>
-3.8671

> <Gold.PLP.part.nonpolar>
-29.0225

> <Gold.PLP.part.repulsive>
0.1209

> <Gold.PLP.ligand.clash>
0.0000

> <Gold.PLP.ligand.torsion>
1.3391

> <Gold.PLP.Chemscore.Hbond>
3.9760

> <Gold.PLP.Chemscore.CHOScore>
0.0000

> <Gold.PLP.Chemscore.Metal>
0.0000

> <Gold.Chemscore.Hbonds>
donor molecule, donor type, donor heavy atom, donor atom, acceptor molecule, acceptor atom, score
      L1  H     5    25       P1  7948  1.00
      L1  H     8    26       P1  7948  0.91
      L1  H    12    45       P1 10747  1.00
      P1  H 10752 10765       L1    19  0.98

> <Gold.PLP.Chemscore.Internal.Correction>
0.1057

> <Gold.Rescore>
     Score         DG    S(hbond)    S(metal)    S(lipo)     H(rot)  DE(clash)    DE(int)     intcor
     21.47     -23.01       3.33        0.00      88.66       1.55       0.21       1.33       ----

> <Gold.Chemscore.Fitness>
21.4744

> <Gold.Chemscore.DG>
-23.0116

> <Gold.Chemscore.ZeroCoef>
-5.4800

> <Gold.Chemscore.Hbond>
3.3291

> <Gold.Chemscore.Metal>
0.0000

> <Gold.Chemscore.Lipo>
88.6635

> <Gold.Chemscore.Internal_Hbond>
0.0000

> <Gold.Chemscore.DEClash>
0.2067

> <Gold.Chemscore.DEInternal>
1.3305

> <Gold.Chemscore.Rot>
1.5474

> <Gold.Chemscore.Internal.Correction>
   9.000000E+99

> <Gold.Chemscore.Hbonds>
donor molecule, donor type, donor heavy atom, donor atom, acceptor molecule, acceptor atom, score
      L1  H     5    25       P1  7948  0.59
      L1  H     8    26       P1  7948  0.58
      L1  H    12    45       P1 10747  0.99
      P1  H 10752 10765       L1    19  0.78

> <Gold.Chemscore.Hbond.Weighted>
-11.1192

> <Gold.Chemscore.Metal.Weighted>
-0.0000

> <Gold.Chemscore.Lipo.Weighted>
-10.3736

> <Gold.Chemscore.Internal_Hbond.Weighted>
0.0000

> <Gold.Chemscore.DEClash.Weighted>
0.2067

> <Gold.Chemscore.DEInternal.Weighted>
1.3305

> <Gold.Chemscore.Rot.Weighted>
3.9612

> <Gold.Chemscore.Internal.Correction.Weighted>
   9.000000E+99

> <Gold.Protein.RotatedTorsions>
[ 6907 6896 6895 6894 ] final  125.18 input  -60.11 | X-H torsion
[ 7974 7965 7964 7962 ] final  161.00 input  175.53 | X-H torsion
[ 8008 7997 7996 7995 ] final  166.78 input   59.86 | X-H torsion
[ 10167 10162 10161 10158 ] final   57.92 input  -65.29 | X-H torsion
[ 10718 10713 10712 10709 ] final -103.46 input   66.30 | X-H torsion
[ 10763 10752 10751 10750 ] final -169.73 input  -60.55 | X-H torsion
[ 11005 11000 10999 10996 ] final  147.20 input  -57.11 | X-H torsion

> <Gold.Protein.ActiveResidues>
 VAL166  LYS551  ARG553  GLY616  TRP617  ASP618  TYR619  PRO620  LYS621  CYS622 
 ASP623  PHE694  ASN695  SER759  ASP760  ASP761  ALA762  ILE779  LEU786  VAL792 
 PHE793  MET794  SER795  GLU796  ALA797  LYS798  CYS799  TRP800  GLU811  SER814 

> <Gold.Protein.RotatedAtoms>
  152.4014  133.6824  159.6319 H   0  0  0  0  0  0  0  0  0  0  0  0  # atno 6907 bound_to 6896
  150.7905  133.8784  159.3287 H   0  0  0  0  0  0  0  0  0  0  0  0  # atno 6908 bound_to 6896
  151.6548  135.0998  160.0219 H   0  0  0  0  0  0  0  0  0  0  0  0  # atno 6909 bound_to 6896
  144.7708  139.7837  143.6298 H   0  0  0  0  0  0  0  0  0  0  0  0  # atno 7974 bound_to 7965
  156.1690  140.1634  156.8481 H   0  0  0  0  0  0  0  0  0  0  0  0  # atno 8008 bound_to 7997
  154.5237  140.0772  156.8253 H   0  0  0  0  0  0  0  0  0  0  0  0  # atno 8009 bound_to 7997
  155.3552  140.3392  155.4242 H   0  0  0  0  0  0  0  0  0  0  0  0  # atno 8010 bound_to 7997
  140.1928  144.4068  150.6563 H   0  0  0  0  0  0  0  0  0  0  0  0  # atno 10167 bound_to 10162
  156.0266  130.5468  150.7256 H   0  0  0  0  0  0  0  0  0  0  0  0  # atno 10718 bound_to 10713
  154.6492  135.2909  155.0008 H   0  0  0  0  0  0  0  0  0  0  0  0  # atno 10763 bound_to 10752
  154.1107  135.6563  153.4888 H   0  0  0  0  0  0  0  0  0  0  0  0  # atno 10764 bound_to 10752
  153.0367  135.5264  154.7392 H   0  0  0  0  0  0  0  0  0  0  0  0  # atno 10765 bound_to 10752
  140.0856  134.9071  157.1571 H   0  0  0  0  0  0  0  0  0  0  0  0  # atno 11005 bound_to 11000
  146.1852  139.5064  142.9841 LP  0  0  0  0  0  0  0  0  0  0  0  0  # atno 17320 bound_to 7965
  145.6331  141.0300  143.1852 LP  0  0  0  0  0  0  0  0  0  0  0  0  # atno 17321 bound_to 7965
  140.6444  143.2210  151.6219 LP  0  0  0  0  0  0  0  0  0  0  0  0  # atno 17342 bound_to 10162
  139.5249  144.3091  152.1008 LP  0  0  0  0  0  0  0  0  0  0  0  0  # atno 17343 bound_to 10162
  157.4861  131.0907  151.0481 LP  0  0  0  0  0  0  0  0  0  0  0  0  # atno 17370 bound_to 10713
  157.0901  130.5938  149.5438 LP  0  0  0  0  0  0  0  0  0  0  0  0  # atno 17371 bound_to 10713
  140.3424  134.2689  155.7210 LP  0  0  0  0  0  0  0  0  0  0  0  0  # atno 17394 bound_to 11000
  141.2061  133.7841  157.0193 LP  0  0  0  0  0  0  0  0  0  0  0  0  # atno 17395 bound_to 11000

$$$$
