#       Name:                AV-unprocessed.smi:3354
#       Creating user name   scv26
#       Creation time:       Fri Mar 27 19:39:57 2020


#       File generated by GOLD software.
#

@<TRIPOS>MOLECULE
AV-unprocessed.smi:3354
    43    45     1
SMALL
NO_CHARGES


@<TRIPOS>ATOM
      1 ****        -3.4369  -1.6060   2.8083 C.3            1 S1                 0.0000
      2 ****        -4.3440  -0.4423   2.4590 C.3            1 S1                 0.0000
      3 ****        -4.7472  -0.1822   1.0261 C.3            1 S1                 0.0000
      4 ****        -3.8365   0.7947   1.7436 C.3            1 S1                 0.0000
      5 ****        -2.4504   0.8954   1.3901 N.am           1 S1                 0.0000
      6 ****        -1.9528   0.4887   0.0829 C.3            1 S1                 0.0000
      7 ****        -0.5598   1.1298  -0.0457 C.3            1 S1                 0.0000
      8 ****         0.4127   0.1767  -0.5736 N.am           1 S1                 0.0000
      9 ****         1.6165   0.5053  -1.0622 C.2            1 S1                 0.0000
     10 ****         2.0321   1.6625  -1.1170 O.2            1 S1                 0.0000
     11 ****         2.2983  -0.5852  -1.4521 N.am           1 S1                 0.0000
     12 ****         3.5968  -0.6555  -2.0248 C.ar           1 S1                 0.0000
     13 ****         4.2208   0.4118  -2.7152 C.ar           1 S1                 0.0000
     14 ****         5.5056   0.2123  -3.2560 C.ar           1 S1                 0.0000
     15 ****         6.1160  -1.0465  -3.0936 C.ar           1 S1                 0.0000
     16 ****         5.5277  -2.0766  -2.4497 N.ar           1 S1                 0.0000
     17 ****         4.2953  -1.8783  -1.9349 C.ar           1 S1                 0.0000
     18 ****        -0.2026   1.6143   1.3681 C.3            1 S1                 0.0000
     19 ****        -1.5244   1.5369   2.1114 C.2            1 S1                 0.0000
     20 ****        -1.6890   2.0283   3.2271 O.2            1 S1                 0.0000
     21 ****        -2.7377  -1.8189   2.0000 H              1 S1                 0.0000
     22 ****        -4.0325  -2.5005   2.9908 H              1 S1                 0.0000
     23 ****        -2.8680  -1.3776   3.7097 H              1 S1                 0.0000
     24 ****        -5.1103  -0.2597   3.2097 H              1 S1                 0.0000
     25 ****        -4.3287  -0.8375   0.2654 H              1 S1                 0.0000
     26 ****        -5.7735   0.1316   0.8467 H              1 S1                 0.0000
     27 ****        -4.3063   1.7330   2.0347 H              1 S1                 0.0000
     28 ****        -1.9009  -0.6005   0.0457 H              1 S1                 0.0000
     29 ****        -2.6170   0.8228  -0.7153 H              1 S1                 0.0000
     30 ****        -0.6304   1.9911  -0.7132 H              1 S1                 0.0000
     31 ****         0.1514  -0.7983  -0.5601 H              1 S1                 0.0000
     32 ****         1.8603  -1.4750  -1.2629 H              1 S1                 0.0000
     33 ****         3.7387   1.3671  -2.8531 H              1 S1                 0.0000
     34 ****         6.0100   1.0055  -3.7879 H              1 S1                 0.0000
     35 ****         7.1004  -1.2325  -3.4970 H              1 S1                 0.0000
     36 ****         3.8546  -2.7251  -1.4288 H              1 S1                 0.0000
     37 ****         0.5190   0.9612   1.8607 H              1 S1                 0.0000
     38 ****         0.1942   2.6300   1.3644 H              1 S1                 0.0000
     39 ****         1.4620   2.4147  -0.7866 LP             1 S1                 0.0000
     40 ****         2.9398   1.8505  -1.4920 LP             1 S1                 0.0000
     41 ****         5.9898  -2.9586  -2.3569 LP             1 S1                 0.0000
     42 ****        -2.5814   1.9660   3.6742 LP             1 S1                 0.0000
     43 ****        -0.9305   2.4900   3.6869 LP             1 S1                 0.0000
@<TRIPOS>BOND
    1    1    2 1     
    2    1   21 1     
    3    1   22 1     
    4    1   23 1     
    5    2    4 1     
    6    2    3 1     
    7    2   24 1     
    8    3    4 1     
    9    3   25 1     
   10    3   26 1     
   11    4    5 1     
   12    4   27 1     
   13    5   19 am    
   14    5    6 1     
   15    6    7 1     
   16    6   28 1     
   17    6   29 1     
   18    7    8 1     
   19    7   18 1     
   20    7   30 1     
   21    8    9 am    
   22    8   31 1     
   23    9   10 2     
   24    9   11 am    
   25   11   12 1     
   26   11   32 1     
   27   12   17 ar    
   28   12   13 ar    
   29   13   14 ar    
   30   13   33 1     
   31   14   15 ar    
   32   14   34 1     
   33   15   16 ar    
   34   15   35 1     
   35   16   17 ar    
   36   17   36 1     
   37   18   19 1     
   38   18   37 1     
   39   18   38 1     
   40   19   20 2     
   41   10   39 1     
   42   10   40 1     
   43   16   41 1     
   44   20   42 1     
   45   20   43 1     
@<TRIPOS>SUBSTRUCTURE
      1 S1             1
@<TRIPOS>SET
LONE_PAIRS      STATIC     ATOMS    <user>   **** ""
5 39 40 41 42 43
DONOR_HYDROGENS      STATIC     ATOMS    <user>   **** ""
2 31 32
ATOM$BLUE        STATIC     ATOMS    COLORGROUP SYSTEM
5 39 40 41 42 43
ATOM$RED        STATIC     ATOMS    COLORGROUP SYSTEM
2 31 32
