AV-unprocessed.smi:2976|AV-procd|sdf|11364|dock8
  -GOLD-   2272016283D 1   1.00000     0.00000
 Structure written by MMmdl.
 40 41  0  0  0  0  0  0  0  0  1 V2000
  152.0166  144.2092  159.9449 C   0  0  0  0  0  0  0  0  0  0  0  0
  152.6614  142.8850  159.4942 C   0  0  1  0  0  0  0  0  0  0  0  0
  152.9690  142.0167  160.7307 C   0  0  0  0  0  0  0  0  0  0  0  0
  153.6396  140.6926  160.3487 C   0  0  0  0  0  0  0  0  0  0  0  0
  152.7656  139.9104  159.3639 C   0  0  0  0  0  0  0  0  0  0  0  0
  152.4554  140.7418  158.1066 C   0  0  1  0  0  0  0  0  0  0  0  0
  151.5838  139.9540  157.2346 N   0  0  0  0  0  0  0  0  0  0  0  0
  151.8756  139.5391  155.9918 C   0  0  0  0  0  0  0  0  0  0  0  0
  152.9427  139.7862  155.4278 O   0  0  0  0  0  0  0  0  0  0  0  0
  150.7746  138.7312  155.2877 C   0  0  0  0  0  0  0  0  0  0  0  0
  149.5754  139.5190  154.9643 N   0  0  0  0  0  0  0  0  0  0  0  0
  149.8369  140.8470  154.6750 N   0  0  0  0  0  0  0  0  0  0  0  0
  148.8646  141.6308  154.3583 C   0  0  0  0  0  0  0  0  0  0  0  0
  147.4944  141.1724  154.2960 C   0  0  0  0  0  0  0  0  0  0  0  0
  146.2317  142.2707  153.8637 Cl  0  0  0  0  0  0  0  0  0  0  0  0
  147.2478  139.8704  154.5881 C   0  0  0  0  0  0  0  0  0  0  0  0
  145.6335  139.2491  154.5376 Cl  0  0  0  0  0  0  0  0  0  0  0  0
  148.3315  138.9475  154.9535 C   0  0  0  0  0  0  0  0  0  0  0  0
  148.1490  137.7603  155.2256 O   0  0  0  0  0  0  0  0  0  0  0  0
  151.8000  142.1056  158.4593 C   0  0  2  0  0  0  0  0  0  0  0  0
  151.5331  142.9394  157.1865 C   0  0  0  0  0  0  0  0  0  0  0  0
  151.0142  144.0467  160.3423 H   0  0  0  0  0  0  0  0  0  0  0  0
  151.9437  144.9266  159.1283 H   0  0  0  0  0  0  0  0  0  0  0  0
  152.6084  144.6857  160.7271 H   0  0  0  0  0  0  0  0  0  0  0  0
  153.6139  143.1308  159.0218 H   0  0  0  0  0  0  0  0  0  0  0  0
  153.6191  142.5619  161.4162 H   0  0  0  0  0  0  0  0  0  0  0  0
  152.0472  141.8131  161.2776 H   0  0  0  0  0  0  0  0  0  0  0  0
  154.6158  140.8873  159.9027 H   0  0  0  0  0  0  0  0  0  0  0  0
  153.8193  140.0949  161.2427 H   0  0  0  0  0  0  0  0  0  0  0  0
  153.2696  138.9840  159.0851 H   0  0  0  0  0  0  0  0  0  0  0  0
  151.8361  139.6204  159.8563 H   0  0  0  0  0  0  0  0  0  0  0  0
  153.4027  140.9469  157.6042 H   0  0  0  0  0  0  0  0  0  0  0  0
  150.6800  139.7055  157.6102 H   0  0  0  0  0  0  0  0  0  0  0  0
  151.1883  138.2825  154.3827 H   0  0  0  0  0  0  0  0  0  0  0  0
  150.5050  137.8913  155.9308 H   0  0  0  0  0  0  0  0  0  0  0  0
  149.0233  142.6827  154.1204 H   0  0  0  0  0  0  0  0  0  0  0  0
  150.8336  141.8986  158.9225 H   0  0  0  0  0  0  0  0  0  0  0  0
  152.4657  143.2179  156.6949 H   0  0  0  0  0  0  0  0  0  0  0  0
  150.9843  143.8538  157.4071 H   0  0  0  0  0  0  0  0  0  0  0  0
  150.9298  142.3934  156.4616 H   0  0  0  0  0  0  0  0  0  0  0  0
  1  2  1  0  0  0  0
  1 22  1  0  0  0  0
  1 23  1  0  0  0  0
  1 24  1  0  0  0  0
  2 20  1  0  0  0  0
  2  3  1  0  0  0  0
  2 25  1  0  0  0  0
  3  4  1  0  0  0  0
  3 26  1  0  0  0  0
  3 27  1  0  0  0  0
  4  5  1  0  0  0  0
  4 28  1  0  0  0  0
  4 29  1  0  0  0  0
  5  6  1  0  0  0  0
  5 30  1  0  0  0  0
  5 31  1  0  0  0  0
  6  7  1  0  0  0  0
  6 20  1  0  0  0  0
  6 32  1  0  0  0  0
  7  8  1  0  0  0  0
  7 33  1  0  0  0  0
  8  9  2  0  0  0  0
  8 10  1  0  0  0  0
 10 11  1  0  0  0  0
 10 34  1  0  0  0  0
 10 35  1  0  0  0  0
 11 18  1  0  0  0  0
 11 12  1  0  0  0  0
 12 13  2  0  0  0  0
 13 14  1  0  0  0  0
 13 36  1  0  0  0  0
 14 15  1  0  0  0  0
 14 16  2  0  0  0  0
 16 17  1  0  0  0  0
 16 18  1  0  0  0  0
 18 19  2  0  0  0  0
 20 21  1  0  0  0  0
 20 37  1  0  0  0  0
 21 38  1  0  0  0  0
 21 39  1  0  0  0  0
 21 40  1  0  0  0  0
M  END
> <s_m_source_file>
AV-unprocessed.smi

> <i_m_source_file_index>
2976

> <i_lp_mmshare_version>
43012

> <i_f3d_flags>
0

> <s_epik_input>
W0NIM11bQ0BASF0xW0NIMl1bQ0gyXVtDSDJdW0NASF0oW0NASF0xW0NIM10pW05IXUMoPU8pW0NIMl1uMm5bY0hdYyhDbCljKENsKWMyPU8=

> <s_epik_cmdline>
J2VwaWtfcHl0aG9uJywgJy1waCcsICc3LjAnLCAnLXRuJywgJzgnLCAnLW1hJywgJzIwMCcsICctbWV0YWxfYmluZGluZycsICctaW1hZScsICc8aW5maWxlLm1hZT4nLCAnLW9tYWUnLCAnPG91dGZpbGUubWFlPic=

> <r_lp_tautomer_probability>
1

> <r_epik_Ionization_Penalty>
1.90777e-08

> <r_epik_Ionization_Penalty_Charging>
3.07942e-11

> <r_epik_Ionization_Penalty_Neutral>
1.90469e-08

> <r_epik_State_Penalty>
-0

> <r_epik_Charging_Adjusted_Penalty>
3.07942e-11

> <i_epik_Tot_Q>
0

> <i_epik_Tot_abs_Q>
0

> <r_epik_Metal_State_Penalty>
-0

> <b_epik_Metal_Only>
0

> <s_lp_Force_Field>
OPLS_2005

> <r_lp_Energy>
26.9637

> <b_lp_Chiralities_Consistent>
1

> <s_lp_Variant>
AV-unprocessed.smi:2976-6

> <Gold.Version>
5.8.1

> <Gold.Id.Protein>
6NUR|6NUR_protein|mol2

> <Gold.PLP.Fitness>
45.9112

> <Gold.PLP.PLP>
-38.8723

> <Gold.PLP.part.hbond>
-2.8408

> <Gold.PLP.part.metal>
0.0000

> <Gold.PLP.part.buried>
0.5314

> <Gold.PLP.part.nonpolar>
-34.6779

> <Gold.PLP.part.repulsive>
0.3045

> <Gold.PLP.ligand.clash>
0.0000

> <Gold.PLP.ligand.torsion>
0.4362

> <Gold.PLP.Chemscore.Hbond>
1.6396

> <Gold.PLP.Chemscore.CHOScore>
0.9952

> <Gold.PLP.Chemscore.Metal>
0.0000

> <Gold.Chemscore.Hbonds>
donor molecule, donor type, donor heavy atom, donor atom, acceptor molecule, acceptor atom, score
      P1  H  7989  7998       L1    12  0.53
      P1  H  7997  8008       L1     9  1.00
      L1  C    13    36       P1  8028  1.00

> <Gold.PLP.Chemscore.Internal.Correction>
0.0070

> <Gold.Rescore>
     Score         DG    S(hbond)    S(metal)    S(lipo)     H(rot)  DE(clash)    DE(int)     intcor
     18.56     -20.03       1.56        0.00     112.26       1.49       0.99       0.48       ----

> <Gold.Chemscore.Fitness>
18.5581

> <Gold.Chemscore.DG>
-20.0268

> <Gold.Chemscore.ZeroCoef>
-5.4800

> <Gold.Chemscore.Hbond>
1.5622

> <Gold.Chemscore.Metal>
0.0000

> <Gold.Chemscore.Lipo>
112.2622

> <Gold.Chemscore.Internal_Hbond>
0.0000

> <Gold.Chemscore.DEClash>
0.9878

> <Gold.Chemscore.DEInternal>
0.4809

> <Gold.Chemscore.Rot>
1.4866

> <Gold.Chemscore.Internal.Correction>
   9.000000E+99

> <Gold.Chemscore.Hbonds>
donor molecule, donor type, donor heavy atom, donor atom, acceptor molecule, acceptor atom, score
      P1  H  7989  7998       L1    12  0.30
      P1  H  7997  8008       L1     9  0.99

> <Gold.Chemscore.Hbond.Weighted>
-5.2178

> <Gold.Chemscore.Metal.Weighted>
-0.0000

> <Gold.Chemscore.Lipo.Weighted>
-13.1347

> <Gold.Chemscore.Internal_Hbond.Weighted>
0.0000

> <Gold.Chemscore.DEClash.Weighted>
0.9878

> <Gold.Chemscore.DEInternal.Weighted>
0.4809

> <Gold.Chemscore.Rot.Weighted>
3.8057

> <Gold.Chemscore.Internal.Correction.Weighted>
   9.000000E+99

> <Gold.Protein.RotatedTorsions>
[ 6907 6896 6895 6894 ] final  168.90 input  -60.11 | X-H torsion
[ 7974 7965 7964 7962 ] final -152.27 input  175.53 | X-H torsion
[ 8008 7997 7996 7995 ] final  -27.50 input   59.86 | X-H torsion
[ 10167 10162 10161 10158 ] final  120.11 input  -65.29 | X-H torsion
[ 10718 10713 10712 10709 ] final  -99.46 input   66.30 | X-H torsion
[ 10763 10752 10751 10750 ] final  -56.98 input  -60.55 | X-H torsion
[ 11005 11000 10999 10996 ] final   67.88 input  -57.11 | X-H torsion

> <Gold.Protein.ActiveResidues>
 VAL166  LYS551  ARG553  GLY616  TRP617  ASP618  TYR619  PRO620  LYS621  CYS622 
 ASP623  PHE694  ASN695  SER759  ASP760  ASP761  ALA762  ILE779  LEU786  VAL792 
 PHE793  MET794  SER795  GLU796  ALA797  LYS798  CYS799  TRP800  GLU811  SER814 

> <Gold.Protein.RotatedAtoms>
  151.8404  133.3423  159.3641 H   0  0  0  0  0  0  0  0  0  0  0  0  # atno 6907 bound_to 6896
  150.7236  134.5396  159.5750 H   0  0  0  0  0  0  0  0  0  0  0  0  # atno 6908 bound_to 6896
  152.2869  134.7766  160.0437 H   0  0  0  0  0  0  0  0  0  0  0  0  # atno 6909 bound_to 6896
  144.7803  140.4684  143.5844 H   0  0  0  0  0  0  0  0  0  0  0  0  # atno 7974 bound_to 7965
  154.4374  140.1870  156.0942 H   0  0  0  0  0  0  0  0  0  0  0  0  # atno 8008 bound_to 7997
  156.0342  140.3327  155.7146 H   0  0  0  0  0  0  0  0  0  0  0  0  # atno 8009 bound_to 7997
  155.5795  140.0620  157.2777 H   0  0  0  0  0  0  0  0  0  0  0  0  # atno 8010 bound_to 7997
  139.6003  144.7054  151.3079 H   0  0  0  0  0  0  0  0  0  0  0  0  # atno 10167 bound_to 10162
  156.0135  130.5284  150.6674 H   0  0  0  0  0  0  0  0  0  0  0  0  # atno 10718 bound_to 10713
  154.2151  135.6387  153.5127 H   0  0  0  0  0  0  0  0  0  0  0  0  # atno 10763 bound_to 10752
  152.9981  135.5483  154.6173 H   0  0  0  0  0  0  0  0  0  0  0  0  # atno 10764 bound_to 10752
  154.5620  135.2909  155.0884 H   0  0  0  0  0  0  0  0  0  0  0  0  # atno 10765 bound_to 10752
  139.9744  134.6846  156.0382 H   0  0  0  0  0  0  0  0  0  0  0  0  # atno 11005 bound_to 11000
  145.6069  139.1509  143.3098 LP  0  0  0  0  0  0  0  0  0  0  0  0  # atno 17320 bound_to 7965
  146.2007  140.6187  142.9103 LP  0  0  0  0  0  0  0  0  0  0  0  0  # atno 17321 bound_to 7965
  140.7244  143.7045  150.7818 LP  0  0  0  0  0  0  0  0  0  0  0  0  # atno 17342 bound_to 10162
  140.0620  143.5145  152.2623 LP  0  0  0  0  0  0  0  0  0  0  0  0  # atno 17343 bound_to 10162
  157.4404  131.0860  151.0949 LP  0  0  0  0  0  0  0  0  0  0  0  0  # atno 17370 bound_to 10713
  157.1495  130.6178  149.5578 LP  0  0  0  0  0  0  0  0  0  0  0  0  # atno 17371 bound_to 10713
  141.1422  133.6562  156.3763 LP  0  0  0  0  0  0  0  0  0  0  0  0  # atno 17394 bound_to 11000
  140.5225  134.6290  157.5323 LP  0  0  0  0  0  0  0  0  0  0  0  0  # atno 17395 bound_to 11000

$$$$
