AV-unprocessed.smi:2855|AV-procd|sdf|10984|dock4
  -GOLD-   2272015433D 1   1.00000     0.00000
 Structure written by MMmdl.
 47 48  0  0  0  0  0  0  0  0  1 V2000
  152.8582  141.8236  160.3194 C   0  0  0  0  0  0  0  0  0  0  0  0
  151.9272  141.2324  159.2514 C   0  0  1  0  0  0  0  0  0  0  0  0
  151.8295  142.1460  158.0200 C   0  0  0  0  0  0  0  0  0  0  0  0
  150.9027  141.5562  156.9455 C   0  0  0  0  0  0  0  0  0  0  0  0
  151.3366  140.1375  156.4957 C   0  0  2  0  0  0  0  0  0  0  0  0
  150.4010  139.5630  155.3857 C   0  0  0  0  0  0  0  0  0  0  0  0
  151.1277  138.6011  154.4259 C   0  0  0  0  0  0  0  0  0  0  0  0
  149.7187  140.6687  154.5578 C   0  0  0  0  0  0  0  0  0  0  0  0
  151.4774  139.2112  157.7380 C   0  0  2  0  0  0  0  0  0  0  0  0
  150.1601  138.8761  158.2725 N   0  0  0  0  0  0  0  0  0  0  0  0
  149.7421  137.6650  158.6738 C   0  0  0  0  0  0  0  0  0  0  0  0
  150.4757  136.6778  158.7030 O   0  0  0  0  0  0  0  0  0  0  0  0
  148.2671  137.5259  159.0876 C   0  0  0  0  0  0  0  0  0  0  0  0
  147.9510  136.2566  159.7656 N   0  0  0  0  0  0  0  0  0  0  0  0
  148.1494  135.0459  159.1169 C   0  0  0  0  0  0  0  0  0  0  0  0
  147.9191  133.8438  159.6961 C   0  0  0  0  0  0  0  0  0  0  0  0
  147.4369  133.7658  161.0710 C   0  0  0  0  0  0  0  0  0  0  0  0
  147.2027  132.7261  161.6828 O   0  0  0  0  0  0  0  0  0  0  0  0
  147.2472  135.0048  161.6886 N   0  0  0  0  0  0  0  0  0  0  0  0
  147.4826  136.2469  161.0983 C   0  0  0  0  0  0  0  0  0  0  0  0
  147.2958  137.2804  161.7389 O   0  0  0  0  0  0  0  0  0  0  0  0
  152.3862  139.8281  158.8228 C   0  0  0  0  0  0  0  0  0  0  0  0
  146.9150  135.0012  162.6421 H   0  0  0  0  0  0  0  0  0  0  0  0
  153.8762  141.9298  159.9432 H   0  0  0  0  0  0  0  0  0  0  0  0
  152.8949  141.1861  161.2032 H   0  0  0  0  0  0  0  0  0  0  0  0
  152.5155  142.8083  160.6381 H   0  0  0  0  0  0  0  0  0  0  0  0
  150.9332  141.1502  159.6937 H   0  0  0  0  0  0  0  0  0  0  0  0
  151.4626  143.1295  158.3157 H   0  0  0  0  0  0  0  0  0  0  0  0
  152.8222  142.3034  157.5959 H   0  0  0  0  0  0  0  0  0  0  0  0
  149.8795  141.5290  157.3224 H   0  0  0  0  0  0  0  0  0  0  0  0
  150.8980  142.2439  156.1016 H   0  0  0  0  0  0  0  0  0  0  0  0
  152.3328  140.2302  156.0602 H   0  0  0  0  0  0  0  0  0  0  0  0
  149.6051  138.9927  155.8662 H   0  0  0  0  0  0  0  0  0  0  0  0
  151.9949  139.0770  153.9677 H   0  0  0  0  0  0  0  0  0  0  0  0
  150.4668  138.2734  153.6230 H   0  0  0  0  0  0  0  0  0  0  0  0
  151.4656  137.6975  154.9326 H   0  0  0  0  0  0  0  0  0  0  0  0
  150.4521  141.3449  154.1176 H   0  0  0  0  0  0  0  0  0  0  0  0
  149.0278  141.2616  155.1558 H   0  0  0  0  0  0  0  0  0  0  0  0
  149.1323  140.2433  153.7428 H   0  0  0  0  0  0  0  0  0  0  0  0
  151.9559  138.2835  157.4219 H   0  0  0  0  0  0  0  0  0  0  0  0
  149.4832  139.6250  158.2878 H   0  0  0  0  0  0  0  0  0  0  0  0
  147.9954  138.3716  159.7224 H   0  0  0  0  0  0  0  0  0  0  0  0
  147.6558  137.6343  158.1906 H   0  0  0  0  0  0  0  0  0  0  0  0
  148.5130  135.0552  158.0992 H   0  0  0  0  0  0  0  0  0  0  0  0
  148.0956  132.9346  159.1399 H   0  0  0  0  0  0  0  0  0  0  0  0
  153.4046  139.8867  158.4359 H   0  0  0  0  0  0  0  0  0  0  0  0
  152.4357  139.1704  159.6915 H   0  0  0  0  0  0  0  0  0  0  0  0
  1  2  1  0  0  0  0
  1 24  1  0  0  0  0
  1 25  1  0  0  0  0
  1 26  1  0  0  0  0
  2 22  1  0  0  0  0
  2  3  1  0  0  0  0
  2 27  1  0  0  0  0
  3  4  1  0  0  0  0
  3 28  1  0  0  0  0
  3 29  1  0  0  0  0
  4  5  1  0  0  0  0
  4 30  1  0  0  0  0
  4 31  1  0  0  0  0
  5  6  1  0  0  0  0
  5  9  1  0  0  0  0
  5 32  1  0  0  0  0
  6  7  1  0  0  0  0
  6  8  1  0  0  0  0
  6 33  1  0  0  0  0
  7 34  1  0  0  0  0
  7 35  1  0  0  0  0
  7 36  1  0  0  0  0
  8 37  1  0  0  0  0
  8 38  1  0  0  0  0
  8 39  1  0  0  0  0
  9 10  1  0  0  0  0
  9 22  1  0  0  0  0
  9 40  1  0  0  0  0
 10 11  1  0  0  0  0
 10 41  1  0  0  0  0
 11 12  2  0  0  0  0
 11 13  1  0  0  0  0
 13 14  1  0  0  0  0
 13 42  1  0  0  0  0
 13 43  1  0  0  0  0
 14 20  1  0  0  0  0
 14 15  1  0  0  0  0
 15 16  2  0  0  0  0
 15 44  1  0  0  0  0
 16 17  1  0  0  0  0
 16 45  1  0  0  0  0
 17 18  2  0  0  0  0
 17 19  1  0  0  0  0
 19 23  1  0  0  0  0
 19 20  1  0  0  0  0
 20 21  2  0  0  0  0
 22 46  1  0  0  0  0
 22 47  1  0  0  0  0
M  END
> <s_m_source_file>
AV-unprocessed.smi

> <i_m_source_file_index>
2855

> <i_lp_mmshare_version>
43012

> <i_f3d_flags>
0

> <s_epik_input>
W0NIM11bQ0BASF0xW0NIMl1bQ0gyXVtDQEBIXShbQ0hdKFtDSDNdKVtDSDNdKVtDQEhdKFtDSDJdMSlbTkhdQyg9TylbQ0gyXW4yW2NIXVtjSF1jKD1PKVtuSF1jMj1P

> <s_epik_cmdline>
J2VwaWtfcHl0aG9uJywgJy1waCcsICc3LjAnLCAnLXRuJywgJzgnLCAnLW1hJywgJzIwMCcsICctbWV0YWxfYmluZGluZycsICctaW1hZScsICc8aW5maWxlLm1hZT4nLCAnLW9tYWUnLCAnPG91dGZpbGUubWFlPic=

> <r_lp_tautomer_probability>
0.999537

> <r_epik_Ionization_Penalty>
0.00306256

> <r_epik_Ionization_Penalty_Charging>
0.00306254

> <r_epik_Ionization_Penalty_Neutral>
2.0223e-08

> <r_epik_State_Penalty>
0.0021533

> <r_epik_Charging_Adjusted_Penalty>
0.00521583

> <i_epik_Tot_Q>
0

> <i_epik_Tot_abs_Q>
0

> <r_epik_Metal_State_Penalty>
0.362116

> <b_epik_Metal_Only>
0

> <s_lp_Force_Field>
OPLS_2005

> <r_lp_Energy>
12.2647

> <b_lp_Chiralities_Consistent>
1

> <s_lp_Variant>
AV-unprocessed.smi:2855-8

> <Gold.Version>
5.8.1

> <Gold.Id.Protein>
6NUR|6NUR_protein|mol2

> <Gold.PLP.Fitness>
44.0483

> <Gold.PLP.PLP>
-38.0948

> <Gold.PLP.part.hbond>
-3.0000

> <Gold.PLP.part.metal>
0.0000

> <Gold.PLP.part.buried>
-4.6349

> <Gold.PLP.part.nonpolar>
-30.4571

> <Gold.PLP.part.repulsive>
0.2120

> <Gold.PLP.ligand.clash>
0.0000

> <Gold.PLP.ligand.torsion>
1.1158

> <Gold.PLP.Chemscore.Hbond>
2.7120

> <Gold.PLP.Chemscore.CHOScore>
0.0000

> <Gold.PLP.Chemscore.Metal>
0.0000

> <Gold.Chemscore.Hbonds>
donor molecule, donor type, donor heavy atom, donor atom, acceptor molecule, acceptor atom, score
      P1  H  6896  6907       L1    12  0.94
      P1  H  6931  6943       L1    21  0.85
      P1  H  6934  6947       L1    21  0.83

> <Gold.PLP.Chemscore.Internal.Correction>
0.0491

> <Gold.Rescore>
     Score         DG    S(hbond)    S(metal)    S(lipo)     H(rot)  DE(clash)    DE(int)     intcor
     15.74     -18.07       2.33        0.00      81.78       1.85       0.06       2.27       ----

> <Gold.Chemscore.Fitness>
15.7440

> <Gold.Chemscore.DG>
-18.0700

> <Gold.Chemscore.ZeroCoef>
-5.4800

> <Gold.Chemscore.Hbond>
2.3256

> <Gold.Chemscore.Metal>
0.0000

> <Gold.Chemscore.Lipo>
81.7820

> <Gold.Chemscore.Internal_Hbond>
0.0000

> <Gold.Chemscore.DEClash>
0.0580

> <Gold.Chemscore.DEInternal>
2.2680

> <Gold.Chemscore.Rot>
1.8539

> <Gold.Chemscore.Internal.Correction>
   9.000000E+99

> <Gold.Chemscore.Hbonds>
donor molecule, donor type, donor heavy atom, donor atom, acceptor molecule, acceptor atom, score
      P1  H  6896  6907       L1    12  0.88
      P1  H  6931  6943       L1    21  0.56
      P1  H  6934  6947       L1    21  0.81

> <Gold.Chemscore.Hbond.Weighted>
-7.7675

> <Gold.Chemscore.Metal.Weighted>
-0.0000

> <Gold.Chemscore.Lipo.Weighted>
-9.5685

> <Gold.Chemscore.Internal_Hbond.Weighted>
0.0000

> <Gold.Chemscore.DEClash.Weighted>
0.0580

> <Gold.Chemscore.DEInternal.Weighted>
2.2680

> <Gold.Chemscore.Rot.Weighted>
4.7460

> <Gold.Chemscore.Internal.Correction.Weighted>
   9.000000E+99

> <Gold.Protein.RotatedTorsions>
[ 6907 6896 6895 6894 ] final  -35.63 input  -60.11 | X-H torsion
[ 7974 7965 7964 7962 ] final  102.69 input  175.53 | X-H torsion
[ 8008 7997 7996 7995 ] final -167.74 input   59.86 | X-H torsion
[ 10167 10162 10161 10158 ] final  -98.25 input  -65.29 | X-H torsion
[ 10718 10713 10712 10709 ] final -104.25 input   66.30 | X-H torsion
[ 10763 10752 10751 10750 ] final  -69.36 input  -60.55 | X-H torsion
[ 11005 11000 10999 10996 ] final -125.48 input  -57.11 | X-H torsion

> <Gold.Protein.ActiveResidues>
 VAL166  LYS551  ARG553  GLY616  TRP617  ASP618  TYR619  PRO620  LYS621  CYS622 
 ASP623  PHE694  ASN695  SER759  ASP760  ASP761  ALA762  ILE779  LEU786  VAL792 
 PHE793  MET794  SER795  GLU796  ALA797  LYS798  CYS799  TRP800  GLU811  SER814 

> <Gold.Protein.RotatedAtoms>
  151.0374  134.9583  159.8143 H   0  0  0  0  0  0  0  0  0  0  0  0  # atno 6907 bound_to 6896
  152.5357  134.2702  159.8978 H   0  0  0  0  0  0  0  0  0  0  0  0  # atno 6908 bound_to 6896
  151.2713  133.4211  159.2655 H   0  0  0  0  0  0  0  0  0  0  0  0  # atno 6909 bound_to 6896
  145.3558  139.2429  143.3533 H   0  0  0  0  0  0  0  0  0  0  0  0  # atno 7974 bound_to 7965
  155.8818  140.1010  157.1480 H   0  0  0  0  0  0  0  0  0  0  0  0  # atno 8008 bound_to 7997
  154.4006  140.1327  156.4270 H   0  0  0  0  0  0  0  0  0  0  0  0  # atno 8009 bound_to 7997
  155.7634  140.3462  155.5212 H   0  0  0  0  0  0  0  0  0  0  0  0  # atno 8010 bound_to 7997
  140.2749  143.3319  152.0498 H   0  0  0  0  0  0  0  0  0  0  0  0  # atno 10167 bound_to 10162
  156.0297  130.5506  150.7369 H   0  0  0  0  0  0  0  0  0  0  0  0  # atno 10718 bound_to 10713
  154.4023  135.6028  153.5904 H   0  0  0  0  0  0  0  0  0  0  0  0  # atno 10763 bound_to 10752
  152.9788  135.5909  154.4170 H   0  0  0  0  0  0  0  0  0  0  0  0  # atno 10764 bound_to 10752
  154.3970  135.2842  155.2098 H   0  0  0  0  0  0  0  0  0  0  0  0  # atno 10765 bound_to 10752
  140.9759  134.0741  157.3819 H   0  0  0  0  0  0  0  0  0  0  0  0  # atno 11005 bound_to 11000
  146.2949  140.4182  142.8725 LP  0  0  0  0  0  0  0  0  0  0  0  0  # atno 17320 bound_to 7965
  144.8683  140.7237  143.6063 LP  0  0  0  0  0  0  0  0  0  0  0  0  # atno 17321 bound_to 7965
  139.4978  144.6631  151.6419 LP  0  0  0  0  0  0  0  0  0  0  0  0  # atno 17342 bound_to 10162
  140.5859  143.9865  150.6295 LP  0  0  0  0  0  0  0  0  0  0  0  0  # atno 17343 bound_to 10162
  157.4948  131.0914  151.0385 LP  0  0  0  0  0  0  0  0  0  0  0  0  # atno 17370 bound_to 10713
  157.0782  130.5892  149.5415 LP  0  0  0  0  0  0  0  0  0  0  0  0  # atno 17371 bound_to 10713
  139.8930  135.0128  156.6877 LP  0  0  0  0  0  0  0  0  0  0  0  0  # atno 17394 bound_to 11000
  140.7260  133.9100  155.8178 LP  0  0  0  0  0  0  0  0  0  0  0  0  # atno 17395 bound_to 11000

$$$$
