AV-unprocessed.smi:1047|AV-procd|sdf|4574|dock5
  -GOLD-   22720 3 33D 1   1.00000     0.00000
 Structure written by MMmdl.
 56 58  0  0  0  0  0  0  0  0  2 V2000
  148.1503  132.7516  153.1610 C   0  0  0  0  0  0  0  0  0  0  0  0
  146.8142  132.1103  152.7612 C   0  0  0  0  0  0  0  0  0  0  0  0
  146.5223  132.2637  151.3112 N   0  3  1  0  0  0  0  0  0  0  0  0
  145.3375  131.5069  150.8322 C   0  0  0  0  0  0  0  0  0  0  0  0
  144.0244  132.2198  151.2059 C   0  0  0  0  0  0  0  0  0  0  0  0
  144.0487  133.5547  150.7154 O   0  0  0  0  0  0  0  0  0  0  0  0
  145.1064  134.3255  151.2782 C   0  0  2  0  0  0  0  0  0  0  0  0
  144.9805  135.7606  150.7463 C   0  0  0  0  0  0  0  0  0  0  0  0
  146.0977  136.5830  151.1978 N   0  0  0  0  0  0  0  0  0  0  0  0
  145.8531  137.2476  152.4744 C   0  0  0  0  0  0  0  0  0  0  0  0
  146.6157  138.5844  152.5591 C   0  0  2  0  0  0  0  0  0  0  0  0
  147.9928  138.3309  152.3697 O   0  0  0  0  0  0  0  0  0  0  0  0
  146.4694  139.2940  153.9194 C   0  0  0  0  0  0  0  0  0  0  0  0
  147.5914  140.1622  154.2268 N   0  0  0  0  0  0  0  0  0  0  0  0
  147.9691  141.2654  153.5525 C   0  0  0  0  0  0  0  0  0  0  0  0
  149.0381  141.9170  154.0009 N   0  0  0  0  0  0  0  0  0  0  0  0
  149.4000  141.1427  155.0899 C   0  0  0  0  0  0  0  0  0  0  0  0
  150.4668  141.2882  156.0035 C   0  0  0  0  0  0  0  0  0  0  0  0
  150.6510  140.3636  157.0561 C   0  0  0  0  0  0  0  0  0  0  0  0
  151.8153  140.5548  158.0122 C   0  0  0  0  0  0  0  0  0  0  0  0
  149.7568  139.2737  157.2089 C   0  0  0  0  0  0  0  0  0  0  0  0
  149.9328  138.2695  158.3340 C   0  0  0  0  0  0  0  0  0  0  0  0
  148.6856  139.1134  156.3053 C   0  0  0  0  0  0  0  0  0  0  0  0
  148.5151  140.0377  155.2592 C   0  0  0  0  0  0  0  0  0  0  0  0
  146.4463  133.6782  150.8685 C   0  0  0  0  0  0  0  0  0  0  0  0
  148.2824  132.7168  154.2425 H   0  0  0  0  0  0  0  0  0  0  0  0
  148.1915  133.7984  152.8581 H   0  0  0  0  0  0  0  0  0  0  0  0
  149.0017  132.2375  152.7165 H   0  0  0  0  0  0  0  0  0  0  0  0
  146.7937  131.0610  153.0552 H   0  0  0  0  0  0  0  0  0  0  0  0
  146.0283  132.6036  153.3345 H   0  0  0  0  0  0  0  0  0  0  0  0
  145.4030  131.4299  149.7462 H   0  0  0  0  0  0  0  0  0  0  0  0
  145.3404  130.4843  151.2073 H   0  0  0  0  0  0  0  0  0  0  0  0
  143.1775  131.6988  150.7593 H   0  0  0  0  0  0  0  0  0  0  0  0
  143.8593  132.2173  152.2840 H   0  0  0  0  0  0  0  0  0  0  0  0
  145.0212  134.3385  152.3665 H   0  0  0  0  0  0  0  0  0  0  0  0
  144.9643  135.7448  149.6558 H   0  0  0  0  0  0  0  0  0  0  0  0
  144.0313  136.1925  151.0662 H   0  0  0  0  0  0  0  0  0  0  0  0
  146.9314  136.0087  151.2710 H   0  0  0  0  0  0  0  0  0  0  0  0
  144.7821  137.4256  152.5723 H   0  0  0  0  0  0  0  0  0  0  0  0
  146.1346  136.6014  153.3072 H   0  0  0  0  0  0  0  0  0  0  0  0
  146.2741  139.2585  151.7718 H   0  0  0  0  0  0  0  0  0  0  0  0
  148.3991  139.1158  152.0358 H   0  0  0  0  0  0  0  0  0  0  0  0
  145.5536  139.8860  153.9415 H   0  0  0  0  0  0  0  0  0  0  0  0
  146.3822  138.5592  154.7209 H   0  0  0  0  0  0  0  0  0  0  0  0
  147.4271  141.6096  152.6837 H   0  0  0  0  0  0  0  0  0  0  0  0
  151.1475  142.1187  155.8866 H   0  0  0  0  0  0  0  0  0  0  0  0
  152.4861  139.6959  157.9738 H   0  0  0  0  0  0  0  0  0  0  0  0
  151.4558  140.6693  159.0352 H   0  0  0  0  0  0  0  0  0  0  0  0
  152.3955  141.4432  157.7609 H   0  0  0  0  0  0  0  0  0  0  0  0
  149.1615  137.4993  158.3042 H   0  0  0  0  0  0  0  0  0  0  0  0
  149.8717  138.7665  159.3025 H   0  0  0  0  0  0  0  0  0  0  0  0
  150.9018  137.7760  158.2579 H   0  0  0  0  0  0  0  0  0  0  0  0
  147.9984  138.2871  156.4113 H   0  0  0  0  0  0  0  0  0  0  0  0
  147.2901  134.2456  151.2633 H   0  0  0  0  0  0  0  0  0  0  0  0
  146.5448  133.7019  149.7823 H   0  0  0  0  0  0  0  0  0  0  0  0
  147.3246  131.8707  150.8397 H   0  0  0  0  0  0  0  0  0  0  0  0
  1  2  1  0  0  0  0
  1 26  1  0  0  0  0
  1 27  1  0  0  0  0
  1 28  1  0  0  0  0
  2  3  1  0  0  0  0
  2 29  1  0  0  0  0
  2 30  1  0  0  0  0
  3 25  1  0  0  0  0
  3  4  1  0  0  0  0
  3 56  1  0  0  0  0
  4  5  1  0  0  0  0
  4 31  1  0  0  0  0
  4 32  1  0  0  0  0
  5  6  1  0  0  0  0
  5 33  1  0  0  0  0
  5 34  1  0  0  0  0
  6  7  1  0  0  0  0
  7  8  1  0  0  0  0
  7 25  1  0  0  0  0
  7 35  1  0  0  0  0
  8  9  1  0  0  0  0
  8 36  1  0  0  0  0
  8 37  1  0  0  0  0
  9 10  1  0  0  0  0
  9 38  1  0  0  0  0
 10 11  1  0  0  0  0
 10 39  1  0  0  0  0
 10 40  1  0  0  0  0
 11 12  1  0  0  0  0
 11 13  1  0  0  0  0
 11 41  1  0  0  0  0
 12 42  1  0  0  0  0
 13 14  1  0  0  0  0
 13 43  1  0  0  0  0
 13 44  1  0  0  0  0
 14 24  1  0  0  0  0
 14 15  1  0  0  0  0
 15 16  2  0  0  0  0
 15 45  1  0  0  0  0
 16 17  1  0  0  0  0
 17 24  2  0  0  0  0
 17 18  1  0  0  0  0
 18 19  2  0  0  0  0
 18 46  1  0  0  0  0
 19 20  1  0  0  0  0
 19 21  1  0  0  0  0
 20 47  1  0  0  0  0
 20 48  1  0  0  0  0
 20 49  1  0  0  0  0
 21 22  1  0  0  0  0
 21 23  2  0  0  0  0
 22 50  1  0  0  0  0
 22 51  1  0  0  0  0
 22 52  1  0  0  0  0
 23 24  1  0  0  0  0
 23 53  1  0  0  0  0
 25 54  1  0  0  0  0
 25 55  1  0  0  0  0
M  CHG  1   3   1
M  END
> <s_m_source_file>
AV-unprocessed.smi

> <i_m_source_file_index>
1047

> <i_lp_mmshare_version>
43012

> <i_f3d_flags>
0

> <s_epik_input>
W0NIM11bQ0gyXU4xW0NIMl1bQ0gyXU9bQ0BIXShbQ0gyXTEpW0NIMl1bTkhdW0NIMl1bQ0BIXShbT0hdKVtDSDJdbihbY0hdbjIpYyhjMjMpW2NIXWMoW0NIM10pYyhbY0hdMylbQ0gzXQ==

> <s_epik_cmdline>
J2VwaWtfcHl0aG9uJywgJy1waCcsICc3LjAnLCAnLXRuJywgJzgnLCAnLW1hJywgJzIwMCcsICctbWV0YWxfYmluZGluZycsICctaW1hZScsICc8aW5maWxlLm1hZT4nLCAnLW9tYWUnLCAnPG91dGZpbGUubWFlPic=

> <r_epik_Ionization_Penalty>
1.19246

> <r_epik_Ionization_Penalty_Charging>
0.210041

> <r_epik_Ionization_Penalty_Neutral>
0.982415

> <r_epik_State_Penalty>
1.57595

> <r_epik_Charging_Adjusted_Penalty>
1.78599

> <i_epik_Tot_Q>
1

> <i_epik_Tot_abs_Q>
1

> <r_epik_Metal_State_Penalty>
1.46172

> <b_epik_Metal_Only>
0

> <s_lp_Force_Field>
OPLS_2005

> <r_lp_Energy>
32.9743

> <b_lp_Chiralities_Consistent>
1

> <s_lp_Variant>
AV-unprocessed.smi:1047-15

> <Gold.Version>
5.8.1

> <Gold.Id.Protein>
6NUR|6NUR_protein|mol2

> <Gold.PLP.Fitness>
53.9829

> <Gold.PLP.PLP>
-45.6524

> <Gold.PLP.part.hbond>
-4.6524

> <Gold.PLP.part.metal>
0.0000

> <Gold.PLP.part.buried>
-7.8497

> <Gold.PLP.part.nonpolar>
-33.4097

> <Gold.PLP.part.repulsive>
0.4086

> <Gold.PLP.ligand.clash>
0.0000

> <Gold.PLP.ligand.torsion>
0.7196

> <Gold.PLP.Chemscore.Hbond>
3.2400

> <Gold.PLP.Chemscore.CHOScore>
0.0000

> <Gold.PLP.Chemscore.Metal>
0.0000

> <Gold.Chemscore.Hbonds>
donor molecule, donor type, donor heavy atom, donor atom, acceptor molecule, acceptor atom, score
      L1  H     3    56       P1 10747  1.00
      L1  H     9    38       P1  7948  0.70
      L1  H    12    42       P1  7957  1.00
      P1  H  8011  8017       L1    16  0.44

> <Gold.PLP.Chemscore.Internal.Correction>
0.0498

> <Gold.Rescore>
     Score         DG    S(hbond)    S(metal)    S(lipo)     H(rot)  DE(clash)    DE(int)     intcor
     19.94     -20.78       2.92        0.00     104.87       2.62       0.10       0.75       ----

> <Gold.Chemscore.Fitness>
19.9418

> <Gold.Chemscore.DG>
-20.7826

> <Gold.Chemscore.ZeroCoef>
-5.4800

> <Gold.Chemscore.Hbond>
2.9170

> <Gold.Chemscore.Metal>
0.0000

> <Gold.Chemscore.Lipo>
104.8665

> <Gold.Chemscore.Internal_Hbond>
0.0000

> <Gold.Chemscore.DEClash>
0.0953

> <Gold.Chemscore.DEInternal>
0.7455

> <Gold.Chemscore.Rot>
2.6209

> <Gold.Chemscore.Internal.Correction>
   9.000000E+99

> <Gold.Chemscore.Hbonds>
donor molecule, donor type, donor heavy atom, donor atom, acceptor molecule, acceptor atom, score
      L1  H     3    56       P1 10747  0.94
      L1  H     9    38       P1  7948  0.66
      L1  H    12    42       P1  7957  0.97
      P1  H  8011  8017       L1    16  0.10

> <Gold.Chemscore.Hbond.Weighted>
-9.7429

> <Gold.Chemscore.Metal.Weighted>
-0.0000

> <Gold.Chemscore.Lipo.Weighted>
-12.2694

> <Gold.Chemscore.Internal_Hbond.Weighted>
0.0000

> <Gold.Chemscore.DEClash.Weighted>
0.0953

> <Gold.Chemscore.DEInternal.Weighted>
0.7455

> <Gold.Chemscore.Rot.Weighted>
6.7096

> <Gold.Chemscore.Internal.Correction.Weighted>
   9.000000E+99

> <Gold.Protein.RotatedTorsions>
[ 6907 6896 6895 6894 ] final  -32.33 input  -60.11 | X-H torsion
[ 7974 7965 7964 7962 ] final  -58.44 input  175.53 | X-H torsion
[ 8008 7997 7996 7995 ] final  167.16 input   59.86 | X-H torsion
[ 10167 10162 10161 10158 ] final  -28.03 input  -65.29 | X-H torsion
[ 10718 10713 10712 10709 ] final -132.39 input   66.30 | X-H torsion
[ 10763 10752 10751 10750 ] final   39.83 input  -60.55 | X-H torsion
[ 11005 11000 10999 10996 ] final  131.61 input  -57.11 | X-H torsion

> <Gold.Protein.ActiveResidues>
 VAL166  LYS551  ARG553  GLY616  TRP617  ASP618  TYR619  PRO620  LYS621  CYS622 
 ASP623  PHE694  ASN695  SER759  ASP760  ASP761  ALA762  ILE779  LEU786  VAL792 
 PHE793  MET794  SER795  GLU796  ALA797  LYS798  CYS799  TRP800  GLU811  SER814 

> <Gold.Protein.RotatedAtoms>
  151.0802  134.9853  159.8352 H   0  0  0  0  0  0  0  0  0  0  0  0  # atno 6907 bound_to 6896
  152.5419  134.2191  159.8790 H   0  0  0  0  0  0  0  0  0  0  0  0  # atno 6908 bound_to 6896
  151.2220  133.4453  159.2634 H   0  0  0  0  0  0  0  0  0  0  0  0  # atno 6909 bound_to 6896
  145.8393  140.8428  143.0043 H   0  0  0  0  0  0  0  0  0  0  0  0  # atno 7974 bound_to 7965
  156.1658  140.1624  156.8534 H   0  0  0  0  0  0  0  0  0  0  0  0  # atno 8008 bound_to 7997
  154.5206  140.0779  156.8199 H   0  0  0  0  0  0  0  0  0  0  0  0  # atno 8009 bound_to 7997
  155.3615  140.3395  155.4243 H   0  0  0  0  0  0  0  0  0  0  0  0  # atno 8010 bound_to 7997
  140.7273  143.4044  151.1210 H   0  0  0  0  0  0  0  0  0  0  0  0  # atno 10167 bound_to 10162
  156.2341  130.7055  151.0889 H   0  0  0  0  0  0  0  0  0  0  0  0  # atno 10718 bound_to 10713
  152.9955  135.6209  154.2529 H   0  0  0  0  0  0  0  0  0  0  0  0  # atno 10763 bound_to 10752
  154.2267  135.2793  155.2907 H   0  0  0  0  0  0  0  0  0  0  0  0  # atno 10764 bound_to 10752
  154.5484  135.5740  153.6958 H   0  0  0  0  0  0  0  0  0  0  0  0  # atno 10765 bound_to 10752
  139.9740  134.9569  156.9463 H   0  0  0  0  0  0  0  0  0  0  0  0  # atno 11005 bound_to 11000
  144.6734  140.0788  143.7470 LP  0  0  0  0  0  0  0  0  0  0  0  0  # atno 17320 bound_to 7965
  145.9483  139.2716  143.1227 LP  0  0  0  0  0  0  0  0  0  0  0  0  # atno 17321 bound_to 7965
  139.7668  143.8553  152.3112 LP  0  0  0  0  0  0  0  0  0  0  0  0  # atno 17342 bound_to 10162
  139.8457  144.7188  150.9275 LP  0  0  0  0  0  0  0  0  0  0  0  0  # atno 17343 bound_to 10162
  157.7146  131.0716  150.6374 LP  0  0  0  0  0  0  0  0  0  0  0  0  # atno 17370 bound_to 10713
  156.6443  130.4467  149.5741 LP  0  0  0  0  0  0  0  0  0  0  0  0  # atno 17371 bound_to 10713
  140.5233  134.0886  155.7297 LP  0  0  0  0  0  0  0  0  0  0  0  0  # atno 17394 bound_to 11000
  141.1418  133.9124  157.2307 LP  0  0  0  0  0  0  0  0  0  0  0  0  # atno 17395 bound_to 11000

$$$$
