AV-unprocessed.smi:3345|AV-procd|sdf|12904|dock4
  -GOLD-   2272019313D 1   1.00000     0.00000
 Structure written by MMmdl.
 41 42  0  0  0  0  0  0  0  0  2 V2000
  148.8015  132.5122  154.6661 C   0  0  0  0  0  0  0  0  0  0  0  0
  148.3860  133.9895  154.6565 C   0  0  1  0  0  0  0  0  0  0  0  0
  149.5941  134.9136  154.9357 C   0  0  0  0  0  0  0  0  0  0  0  0
  149.2810  136.3532  154.7513 N   0  3  0  0  0  0  0  0  0  0  0  0
  148.1575  136.8279  155.5952 C   0  0  0  0  0  0  0  0  0  0  0  0
  147.8455  138.3004  155.2819 C   0  0  0  0  0  0  0  0  0  0  0  0
  149.0123  139.0873  155.4899 O   0  0  0  0  0  0  0  0  0  0  0  0
  150.0798  138.6952  154.6357 C   0  0  0  0  0  0  0  0  0  0  0  0
  150.4615  137.2322  154.9198 C   0  0  0  0  0  0  0  0  0  0  0  0
  147.7624  134.2978  153.3691 N   0  0  0  0  0  0  0  0  0  0  0  0
  146.5490  133.8920  152.9597 C   0  0  0  0  0  0  0  0  0  0  0  0
  145.7871  133.2304  153.6656 O   0  0  0  0  0  0  0  0  0  0  0  0
  146.1373  134.3038  151.5386 C   0  0  2  0  0  0  0  0  0  0  0  0
  145.4530  135.6854  151.5032 C   0  0  0  0  0  0  0  0  0  0  0  0
  145.3161  133.2618  150.9349 N   0  0  0  0  0  0  0  0  0  0  0  0
  145.6200  131.9970  150.6352 C   0  0  0  0  0  0  0  0  0  0  0  0
  144.6069  131.3026  150.1367 N   0  0  0  0  0  0  0  0  0  0  0  0
  143.6355  132.2623  150.1673 C   0  0  0  0  0  0  0  0  0  0  0  0
  144.0036  133.4498  150.6476 N   0  0  0  0  0  0  0  0  0  0  0  0
  149.2373  132.2341  155.6261 H   0  0  0  0  0  0  0  0  0  0  0  0
  149.5401  132.2999  153.8921 H   0  0  0  0  0  0  0  0  0  0  0  0
  147.9430  131.8614  154.4951 H   0  0  0  0  0  0  0  0  0  0  0  0
  147.6474  134.1127  155.4499 H   0  0  0  0  0  0  0  0  0  0  0  0
  149.9812  134.7510  155.9428 H   0  0  0  0  0  0  0  0  0  0  0  0
  150.3986  134.6322  154.2543 H   0  0  0  0  0  0  0  0  0  0  0  0
  147.2676  136.2243  155.4196 H   0  0  0  0  0  0  0  0  0  0  0  0
  148.4159  136.7173  156.6495 H   0  0  0  0  0  0  0  0  0  0  0  0
  147.4914  138.4134  154.2558 H   0  0  0  0  0  0  0  0  0  0  0  0
  147.0524  138.6645  155.9350 H   0  0  0  0  0  0  0  0  0  0  0  0
  149.7917  138.8264  153.5913 H   0  0  0  0  0  0  0  0  0  0  0  0
  150.9343  139.3479  154.8150 H   0  0  0  0  0  0  0  0  0  0  0  0
  150.8506  137.1346  155.9346 H   0  0  0  0  0  0  0  0  0  0  0  0
  151.2551  136.9233  154.2386 H   0  0  0  0  0  0  0  0  0  0  0  0
  148.3167  134.8386  152.7208 H   0  0  0  0  0  0  0  0  0  0  0  0
  147.0461  134.3803  150.9390 H   0  0  0  0  0  0  0  0  0  0  0  0
  146.1052  136.4568  151.9140 H   0  0  0  0  0  0  0  0  0  0  0  0
  144.5245  135.7006  152.0752 H   0  0  0  0  0  0  0  0  0  0  0  0
  145.2130  135.9727  150.4791 H   0  0  0  0  0  0  0  0  0  0  0  0
  146.6017  131.5734  150.7888 H   0  0  0  0  0  0  0  0  0  0  0  0
  142.6251  132.0782  149.8331 H   0  0  0  0  0  0  0  0  0  0  0  0
  148.9879  136.4576  153.7901 H   0  0  0  0  0  0  0  0  0  0  0  0
  1  2  1  0  0  0  0
  1 20  1  0  0  0  0
  1 21  1  0  0  0  0
  1 22  1  0  0  0  0
  2  3  1  0  0  0  0
  2 10  1  0  0  0  0
  2 23  1  0  0  0  0
  3  4  1  0  0  0  0
  3 24  1  0  0  0  0
  3 25  1  0  0  0  0
  4  9  1  0  0  0  0
  4  5  1  0  0  0  0
  4 41  1  0  0  0  0
  5  6  1  0  0  0  0
  5 26  1  0  0  0  0
  5 27  1  0  0  0  0
  6  7  1  0  0  0  0
  6 28  1  0  0  0  0
  6 29  1  0  0  0  0
  7  8  1  0  0  0  0
  8  9  1  0  0  0  0
  8 30  1  0  0  0  0
  8 31  1  0  0  0  0
  9 32  1  0  0  0  0
  9 33  1  0  0  0  0
 10 11  1  0  0  0  0
 10 34  1  0  0  0  0
 11 12  2  0  0  0  0
 11 13  1  0  0  0  0
 13 14  1  0  0  0  0
 13 15  1  0  0  0  0
 13 35  1  0  0  0  0
 14 36  1  0  0  0  0
 14 37  1  0  0  0  0
 14 38  1  0  0  0  0
 15 19  1  0  0  0  0
 15 16  1  0  0  0  0
 16 17  2  0  0  0  0
 16 39  1  0  0  0  0
 17 18  1  0  0  0  0
 18 19  2  0  0  0  0
 18 40  1  0  0  0  0
M  CHG  1   4   1
M  END
> <s_m_source_file>
AV-unprocessed.smi

> <i_m_source_file_index>
3345

> <i_lp_mmshare_version>
43012

> <i_f3d_flags>
0

> <s_epik_input>
W0NIMl0xW0NIMl1PW0NIMl1bQ0gyXU4xW0NIMl1bQ0BASF0oW0NIM10pW05IXUMoPU8pW0NASF0oW0NIM10pbjJbY0hdbltjSF1uMg==

> <s_epik_cmdline>
J2VwaWtfcHl0aG9uJywgJy1waCcsICc3LjAnLCAnLXRuJywgJzgnLCAnLW1hJywgJzIwMCcsICctbWV0YWxfYmluZGluZycsICctaW1hZScsICc8aW5maWxlLm1hZT4nLCAnLW9tYWUnLCAnPG91dGZpbGUubWFlPic=

> <r_lp_tautomer_probability>
1

> <r_epik_Ionization_Penalty>
0.71326

> <r_epik_Ionization_Penalty_Charging>
0.713252

> <r_epik_Ionization_Penalty_Neutral>
8.27671e-06

> <r_epik_State_Penalty>
0.737017

> <r_epik_Charging_Adjusted_Penalty>
1.45027

> <i_epik_Tot_Q>
1

> <i_epik_Tot_abs_Q>
1

> <r_epik_Metal_State_Penalty>
0.73702

> <b_epik_Metal_Only>
0

> <s_lp_Force_Field>
OPLS_2005

> <r_lp_Energy>
28.084

> <b_lp_Chiralities_Consistent>
1

> <s_lp_Variant>
AV-unprocessed.smi:3345-6

> <Gold.Version>
5.8.1

> <Gold.Id.Protein>
6NUR|6NUR_protein|mol2

> <Gold.PLP.Fitness>
44.0985

> <Gold.PLP.PLP>
-29.9300

> <Gold.PLP.part.hbond>
-3.0000

> <Gold.PLP.part.metal>
0.0000

> <Gold.PLP.part.buried>
-4.5255

> <Gold.PLP.part.nonpolar>
-24.0683

> <Gold.PLP.part.repulsive>
0.4899

> <Gold.PLP.ligand.clash>
0.0000

> <Gold.PLP.ligand.torsion>
1.0785

> <Gold.PLP.Chemscore.Hbond>
3.1644

> <Gold.PLP.Chemscore.CHOScore>
2.2236

> <Gold.PLP.Chemscore.Metal>
0.0000

> <Gold.Chemscore.Hbonds>
donor molecule, donor type, donor heavy atom, donor atom, acceptor molecule, acceptor atom, score
      L1  H     4    41       P1  7948  2.00
      L1  H    10    34       P1  7948  1.00
      P1  H 10785 10796       L1    17  0.05
      L1  C    16    39       P1 10747  1.00
      L1  C    18    40       P1 10186  0.14
      L1  C    18    40       P1 10952  1.00

> <Gold.PLP.Chemscore.Internal.Correction>
0.1615

> <Gold.Rescore>
     Score         DG    S(hbond)    S(metal)    S(lipo)     H(rot)  DE(clash)    DE(int)     intcor
      8.14      -9.11       1.61        0.00      42.40       2.61       0.03       0.95       ----

> <Gold.Chemscore.Fitness>
8.1367

> <Gold.Chemscore.DG>
-9.1115

> <Gold.Chemscore.ZeroCoef>
-5.4800

> <Gold.Chemscore.Hbond>
1.6054

> <Gold.Chemscore.Metal>
0.0000

> <Gold.Chemscore.Lipo>
42.3990

> <Gold.Chemscore.Internal_Hbond>
0.0000

> <Gold.Chemscore.DEClash>
0.0270

> <Gold.Chemscore.DEInternal>
0.9477

> <Gold.Chemscore.Rot>
2.6138

> <Gold.Chemscore.Internal.Correction>
   9.000000E+99

> <Gold.Chemscore.Hbonds>
donor molecule, donor type, donor heavy atom, donor atom, acceptor molecule, acceptor atom, score
      L1  H     4    41       P1  7948  0.98
      L1  H    10    34       P1  7948  0.55

> <Gold.Chemscore.Hbond.Weighted>
-5.3620

> <Gold.Chemscore.Metal.Weighted>
-0.0000

> <Gold.Chemscore.Lipo.Weighted>
-4.9607

> <Gold.Chemscore.Internal_Hbond.Weighted>
0.0000

> <Gold.Chemscore.DEClash.Weighted>
0.0270

> <Gold.Chemscore.DEInternal.Weighted>
0.9477

> <Gold.Chemscore.Rot.Weighted>
6.6912

> <Gold.Chemscore.Internal.Correction.Weighted>
   9.000000E+99

> <Gold.Protein.RotatedTorsions>
[ 6907 6896 6895 6894 ] final    8.43 input  -60.11 | X-H torsion
[ 7974 7965 7964 7962 ] final  -25.63 input  175.53 | X-H torsion
[ 8008 7997 7996 7995 ] final  137.98 input   59.86 | X-H torsion
[ 10167 10162 10161 10158 ] final   -4.18 input  -65.29 | X-H torsion
[ 10718 10713 10712 10709 ] final   -7.37 input   66.30 | X-H torsion
[ 10763 10752 10751 10750 ] final  -66.39 input  -60.55 | X-H torsion
[ 11005 11000 10999 10996 ] final  100.98 input  -57.11 | X-H torsion

> <Gold.Protein.ActiveResidues>
 VAL166  LYS551  ARG553  GLY616  TRP617  ASP618  TYR619  PRO620  LYS621  CYS622 
 ASP623  PHE694  ASN695  SER759  ASP760  ASP761  ALA762  ILE779  LEU786  VAL792 
 PHE793  MET794  SER795  GLU796  ALA797  LYS798  CYS799  TRP800  GLU811  SER814 

> <Gold.Protein.RotatedAtoms>
  151.7058  135.0922  160.0258 H   0  0  0  0  0  0  0  0  0  0  0  0  # atno 6907 bound_to 6896
  152.3692  133.6392  159.6082 H   0  0  0  0  0  0  0  0  0  0  0  0  # atno 6908 bound_to 6896
  150.7661  133.9214  159.3440 H   0  0  0  0  0  0  0  0  0  0  0  0  # atno 6909 bound_to 6896
  146.1478  140.4912  142.8624 H   0  0  0  0  0  0  0  0  0  0  0  0  # atno 7974 bound_to 7965
  156.3000  140.2405  156.3999 H   0  0  0  0  0  0  0  0  0  0  0  0  # atno 8008 bound_to 7997
  154.8537  140.0423  157.1640 H   0  0  0  0  0  0  0  0  0  0  0  0  # atno 8009 bound_to 7997
  154.8971  140.2971  155.5342 H   0  0  0  0  0  0  0  0  0  0  0  0  # atno 8010 bound_to 7997
  140.6918  143.6454  150.8398 H   0  0  0  0  0  0  0  0  0  0  0  0  # atno 10167 bound_to 10162
  156.7182  130.5142  149.5875 H   0  0  0  0  0  0  0  0  0  0  0  0  # atno 10718 bound_to 10713
  154.3592  135.6120  153.5682 H   0  0  0  0  0  0  0  0  0  0  0  0  # atno 10763 bound_to 10752
  152.9794  135.5811  154.4653 H   0  0  0  0  0  0  0  0  0  0  0  0  # atno 10764 bound_to 10752
  154.4388  135.2849  155.1839 H   0  0  0  0  0  0  0  0  0  0  0  0  # atno 10765 bound_to 10752
  139.8772  134.9163  156.4838 H   0  0  0  0  0  0  0  0  0  0  0  0  # atno 11005 bound_to 11000
  144.7868  140.5952  143.6568 LP  0  0  0  0  0  0  0  0  0  0  0  0  # atno 17320 bound_to 7965
  145.4895  139.1489  143.3718 LP  0  0  0  0  0  0  0  0  0  0  0  0  # atno 17321 bound_to 7965
  140.0167  143.5585  152.2817 LP  0  0  0  0  0  0  0  0  0  0  0  0  # atno 17342 bound_to 10162
  139.6328  144.7646  151.2500 LP  0  0  0  0  0  0  0  0  0  0  0  0  # atno 17343 bound_to 10162
  156.1613  130.6376  151.0722 LP  0  0  0  0  0  0  0  0  0  0  0  0  # atno 17370 bound_to 10713
  157.6909  131.0810  150.7110 LP  0  0  0  0  0  0  0  0  0  0  0  0  # atno 17371 bound_to 10713
  140.8708  133.7990  155.9362 LP  0  0  0  0  0  0  0  0  0  0  0  0  # atno 17394 bound_to 11000
  140.8954  134.2443  157.5071 LP  0  0  0  0  0  0  0  0  0  0  0  0  # atno 17395 bound_to 11000

$$$$
