#       Name:                AV-unprocessed.smi:27
#       Creating user name   scv26
#       Creation time:       Thu Mar 26 15:45:20 2020


#       File generated by GOLD software.
#

@<TRIPOS>MOLECULE
AV-unprocessed.smi:27
    61    64     1
SMALL
NO_CHARGES


@<TRIPOS>ATOM
      1 ****        -0.0518   1.9378  -3.6176 O.2            1 S1                 0.0000
      2 ****         0.4477   1.4714  -2.5948 C.2            1 S1                 0.0000
      3 ****         1.9031   1.8223  -2.2315 C.3            1 S1                 0.0000
      4 ****         2.4156   1.1224  -1.0286 N.am           1 S1                 0.0000
      5 ****         3.0836  -0.1154  -1.1958 C.2            1 S1                 0.0000
      6 ****         3.2680  -0.5965  -2.3145 O.2            1 S1                 0.0000
      7 ****         3.5106  -0.7702   0.0347 C.2            1 S1                 0.0000
      8 ****         4.1726  -1.9379  -0.0296 F              1 S1                 0.0000
      9 ****         3.2474  -0.2269   1.2413 C.2            1 S1                 0.0000
     10 ****         2.5741   0.9736   1.3939 N.am           1 S1                 0.0000
     11 ****         2.1983   1.5493   2.7447 C.3            1 S1                 0.0000
     12 ****         2.7247   0.7878   3.9642 C.3            1 S1                 0.0000
     13 ****         1.7562   1.2835   5.0128 C.3            1 S1                 0.0000
     14 ****         0.4446   1.3103   4.2282 C.3            1 S1                 0.0000
     15 ****         0.8070   1.5154   2.8631 O.3            1 S1                 0.0000
     16 ****         2.1548   1.6815   0.2456 C.2            1 S1                 0.0000
     17 ****         1.5559   2.7541   0.3521 O.2            1 S1                 0.0000
     18 ****        -0.2165   0.6556  -1.7608 N.am           1 S1                 0.0000
     19 ****        -1.5977   0.2013  -1.8818 C.3            1 S1                 0.0000
     20 ****        -2.2295  -0.0193  -0.5108 C.ar           1 S1                 0.0000
     21 ****        -1.4577  -0.4494   0.5952 C.ar           1 S1                 0.0000
     22 ****        -2.0618  -0.6452   1.8519 C.ar           1 S1                 0.0000
     23 ****        -3.4414  -0.4183   2.0140 C.ar           1 S1                 0.0000
     24 ****        -4.2176   0.0007   0.9170 C.ar           1 S1                 0.0000
     25 ****        -3.6140   0.1979  -0.3402 C.ar           1 S1                 0.0000
     26 ****        -1.7225  -1.0494  -2.7453 C.ar           1 S1                 0.0000
     27 ****        -0.7397  -2.0654  -2.7045 C.ar           1 S1                 0.0000
     28 ****        -0.8733  -3.2161  -3.5052 C.ar           1 S1                 0.0000
     29 ****        -1.9912  -3.3627  -4.3484 C.ar           1 S1                 0.0000
     30 ****        -2.9774  -2.3588  -4.3882 C.ar           1 S1                 0.0000
     31 ****        -2.8437  -1.2071  -3.5886 C.ar           1 S1                 0.0000
     32 ****         2.5294   1.6231  -3.1023 H              1 S1                 0.0000
     33 ****         1.9696   2.9038  -2.1036 H              1 S1                 0.0000
     34 ****         3.6044  -0.7710   2.0999 H              1 S1                 0.0000
     35 ****         2.5537   2.5821   2.7323 H              1 S1                 0.0000
     36 ****         2.5854  -0.2871   3.8528 H              1 S1                 0.0000
     37 ****         3.7707   1.0180   4.1678 H              1 S1                 0.0000
     38 ****         1.7121   0.6449   5.8955 H              1 S1                 0.0000
     39 ****         2.0291   2.2907   5.3309 H              1 S1                 0.0000
     40 ****        -0.0721   0.3538   4.3099 H              1 S1                 0.0000
     41 ****        -0.2298   2.0909   4.5809 H              1 S1                 0.0000
     42 ****         0.2835   0.3289  -0.9471 H              1 S1                 0.0000
     43 ****        -2.1645   0.9997  -2.3651 H              1 S1                 0.0000
     44 ****        -0.3986  -0.6357   0.4922 H              1 S1                 0.0000
     45 ****        -1.4659  -0.9717   2.6911 H              1 S1                 0.0000
     46 ****        -3.9046  -0.5687   2.9779 H              1 S1                 0.0000
     47 ****        -5.2772   0.1708   1.0394 H              1 S1                 0.0000
     48 ****        -4.2188   0.5188  -1.1758 H              1 S1                 0.0000
     49 ****         0.1203  -1.9706  -2.0577 H              1 S1                 0.0000
     50 ****        -0.1180  -3.9873  -3.4713 H              1 S1                 0.0000
     51 ****        -2.0933  -4.2454  -4.9622 H              1 S1                 0.0000
     52 ****        -3.8372  -2.4723  -5.0319 H              1 S1                 0.0000
     53 ****        -3.6063  -0.4428  -3.6257 H              1 S1                 0.0000
     54 ****         0.4863   2.5404  -4.2070 LP             1 S1                 0.0000
     55 ****        -0.9960   1.7144  -3.8597 LP             1 S1                 0.0000
     56 ****         2.9437  -0.1118  -3.1269 LP             1 S1                 0.0000
     57 ****         3.7420  -1.4718  -2.4104 LP             1 S1                 0.0000
     58 ****         0.4443   0.7676   2.3070 LP             1 S1                 0.0000
     59 ****         0.4252   2.3831   2.5447 LP             1 S1                 0.0000
     60 ****         1.2487   3.2387  -0.4669 LP             1 S1                 0.0000
     61 ****         1.3774   3.1393   1.2575 LP             1 S1                 0.0000
@<TRIPOS>BOND
    1    1    2 2     
    2    2    3 1     
    3    2   18 am    
    4    3    4 1     
    5    3   32 1     
    6    3   33 1     
    7    4   16 am    
    8    4    5 am    
    9    5    6 2     
   10    5    7 1     
   11    7    8 1     
   12    7    9 2     
   13    9   10 1     
   14    9   34 1     
   15   10   11 1     
   16   10   16 am    
   17   11   15 1     
   18   11   12 1     
   19   11   35 1     
   20   12   13 1     
   21   12   36 1     
   22   12   37 1     
   23   13   14 1     
   24   13   38 1     
   25   13   39 1     
   26   14   15 1     
   27   14   40 1     
   28   14   41 1     
   29   16   17 2     
   30   18   19 1     
   31   18   42 1     
   32   19   20 1     
   33   19   26 1     
   34   19   43 1     
   35   20   25 ar    
   36   20   21 ar    
   37   21   22 ar    
   38   21   44 1     
   39   22   23 ar    
   40   22   45 1     
   41   23   24 ar    
   42   23   46 1     
   43   24   25 ar    
   44   24   47 1     
   45   25   48 1     
   46   26   31 ar    
   47   26   27 ar    
   48   27   28 ar    
   49   27   49 1     
   50   28   29 ar    
   51   28   50 1     
   52   29   30 ar    
   53   29   51 1     
   54   30   31 ar    
   55   30   52 1     
   56   31   53 1     
   57    1   54 1     
   58    1   55 1     
   59    6   56 1     
   60    6   57 1     
   61   15   58 1     
   62   15   59 1     
   63   17   60 1     
   64   17   61 1     
@<TRIPOS>SUBSTRUCTURE
      1 S1             1
@<TRIPOS>SET
LONE_PAIRS      STATIC     ATOMS    <user>   **** ""
8 54 55 56 57 58 59 60 61
DONOR_HYDROGENS      STATIC     ATOMS    <user>   **** ""
1 42
ATOM$BLUE        STATIC     ATOMS    COLORGROUP SYSTEM
8 54 55 56 57 58 59 60 61
ATOM$RED        STATIC     ATOMS    COLORGROUP SYSTEM
1 42
