AV-unprocessed.smi:3158|AV-procd|sdf|12044|dock5
  -GOLD-   2272017473D 1   1.00000     0.00000
 Structure written by MMmdl.
 40 40  0  0  0  0  0  0  0  0  2 V2000
  151.7165  139.2236  157.0003 C   0  0  0  0  0  0  0  0  0  0  0  0
  150.6111  139.5919  155.9998 C   0  0  0  0  0  0  0  0  0  0  0  0
  150.6570  138.7681  154.6995 C   0  0  1  0  0  0  0  0  0  0  0  0
  150.8521  137.2707  154.9792 C   0  0  0  0  0  0  0  0  0  0  0  0
  149.4287  138.9667  153.9332 N   0  0  0  0  0  0  0  0  0  0  0  0
  148.1961  138.6040  154.3210 C   0  0  0  0  0  0  0  0  0  0  0  0
  147.9587  138.0422  155.3912 O   0  0  0  0  0  0  0  0  0  0  0  0
  147.0568  138.9164  153.3399 C   0  0  1  0  0  0  0  0  0  0  0  0
  146.8966  140.4371  153.1888 C   0  0  0  0  0  0  0  0  0  0  0  0
  147.2853  138.3027  152.0110 N   0  3  0  0  0  0  0  0  0  0  0  0
  146.0599  137.9556  151.2600 C   0  0  0  0  0  0  0  0  0  0  0  0
  145.2018  136.9535  152.0442 C   0  0  0  0  0  0  0  0  0  0  0  0
  145.1501  135.6625  151.3868 N   0  0  0  0  0  0  0  0  0  0  0  0
  144.5429  135.3298  150.1940 C   0  0  0  0  0  0  0  0  0  0  0  0
  144.7595  133.9978  149.9865 C   0  0  0  0  0  0  0  0  0  0  0  0
  145.5168  133.5969  151.1224 C   0  0  0  0  0  0  0  0  0  0  0  0
  145.7493  134.5962  151.9589 N   0  0  0  0  0  0  0  0  0  0  0  0
  151.6129  139.7997  157.9201 H   0  0  0  0  0  0  0  0  0  0  0  0
  152.7089  139.4254  156.5963 H   0  0  0  0  0  0  0  0  0  0  0  0
  151.6704  138.1668  157.2644 H   0  0  0  0  0  0  0  0  0  0  0  0
  149.6441  139.4446  156.4822 H   0  0  0  0  0  0  0  0  0  0  0  0
  150.6740  140.6560  155.7677 H   0  0  0  0  0  0  0  0  0  0  0  0
  151.5150  139.1150  154.1207 H   0  0  0  0  0  0  0  0  0  0  0  0
  151.7740  137.0925  155.5333 H   0  0  0  0  0  0  0  0  0  0  0  0
  150.9126  136.7009  154.0513 H   0  0  0  0  0  0  0  0  0  0  0  0
  150.0276  136.8648  155.5666 H   0  0  0  0  0  0  0  0  0  0  0  0
  149.5283  139.4157  153.0342 H   0  0  0  0  0  0  0  0  0  0  0  0
  146.1249  138.5162  153.7428 H   0  0  0  0  0  0  0  0  0  0  0  0
  146.6960  140.9139  154.1492 H   0  0  0  0  0  0  0  0  0  0  0  0
  146.0641  140.6785  152.5274 H   0  0  0  0  0  0  0  0  0  0  0  0
  147.7946  140.8953  152.7715 H   0  0  0  0  0  0  0  0  0  0  0  0
  147.8104  138.9586  151.4508 H   0  0  0  0  0  0  0  0  0  0  0  0
  145.4791  138.8572  151.0613 H   0  0  0  0  0  0  0  0  0  0  0  0
  146.3410  137.5348  150.2936 H   0  0  0  0  0  0  0  0  0  0  0  0
  145.5962  136.8143  153.0519 H   0  0  0  0  0  0  0  0  0  0  0  0
  144.1830  137.3283  152.1507 H   0  0  0  0  0  0  0  0  0  0  0  0
  144.0139  136.0590  149.5979 H   0  0  0  0  0  0  0  0  0  0  0  0
  144.4266  133.4001  149.1508 H   0  0  0  0  0  0  0  0  0  0  0  0
  145.9017  132.6167  151.3618 H   0  0  0  0  0  0  0  0  0  0  0  0
  147.8413  137.4687  152.1381 H   0  0  0  0  0  0  0  0  0  0  0  0
  1  2  1  0  0  0  0
  1 18  1  0  0  0  0
  1 19  1  0  0  0  0
  1 20  1  0  0  0  0
  2  3  1  0  0  0  0
  2 21  1  0  0  0  0
  2 22  1  0  0  0  0
  3  4  1  0  0  0  0
  3  5  1  0  0  0  0
  3 23  1  0  0  0  0
  4 24  1  0  0  0  0
  4 25  1  0  0  0  0
  4 26  1  0  0  0  0
  5  6  1  0  0  0  0
  5 27  1  0  0  0  0
  6  7  2  0  0  0  0
  6  8  1  0  0  0  0
  8  9  1  0  0  0  0
  8 10  1  0  0  0  0
  8 28  1  0  0  0  0
  9 29  1  0  0  0  0
  9 30  1  0  0  0  0
  9 31  1  0  0  0  0
 10 11  1  0  0  0  0
 10 32  1  0  0  0  0
 10 40  1  0  0  0  0
 11 12  1  0  0  0  0
 11 33  1  0  0  0  0
 11 34  1  0  0  0  0
 12 13  1  0  0  0  0
 12 35  1  0  0  0  0
 12 36  1  0  0  0  0
 13 17  1  0  0  0  0
 13 14  1  0  0  0  0
 14 15  2  0  0  0  0
 14 37  1  0  0  0  0
 15 16  1  0  0  0  0
 15 38  1  0  0  0  0
 16 17  2  0  0  0  0
 16 39  1  0  0  0  0
M  CHG  1  10   1
M  END
> <s_m_source_file>
AV-unprocessed.smi

> <i_m_source_file_index>
3158

> <i_lp_mmshare_version>
43012

> <i_f3d_flags>
0

> <s_epik_input>
W0NIM11bQ0gyXVtDQEhdKFtDSDNdKVtOSF1DKD1PKVtDQEhdKFtDSDNdKVtOSF1bQ0gyXVtDSDJdbjFbY0hdW2NIXVtjSF1uMQ==

> <s_epik_cmdline>
J2VwaWtfcHl0aG9uJywgJy1waCcsICc3LjAnLCAnLXRuJywgJzgnLCAnLW1hJywgJzIwMCcsICctbWV0YWxfYmluZGluZycsICctaW1hZScsICc8aW5maWxlLm1hZT4nLCAnLW9tYWUnLCAnPG91dGZpbGUubWFlPic=

> <r_lp_tautomer_probability>
1

> <r_epik_Ionization_Penalty>
0.20724

> <r_epik_Ionization_Penalty_Charging>
0.207237

> <r_epik_Ionization_Penalty_Neutral>
3.33806e-06

> <r_epik_State_Penalty>
0.197234

> <r_epik_Charging_Adjusted_Penalty>
0.404471

> <i_epik_Tot_Q>
1

> <i_epik_Tot_abs_Q>
1

> <r_epik_Metal_State_Penalty>
0.197524

> <b_epik_Metal_Only>
0

> <s_lp_Force_Field>
OPLS_2005

> <r_lp_Energy>
5.19885

> <b_lp_Chiralities_Consistent>
1

> <s_lp_Variant>
AV-unprocessed.smi:3158-4

> <Gold.Version>
5.8.1

> <Gold.Id.Protein>
6NUR|6NUR_protein|mol2

> <Gold.PLP.Fitness>
46.2527

> <Gold.PLP.PLP>
-33.2469

> <Gold.PLP.part.hbond>
-3.0000

> <Gold.PLP.part.metal>
0.0000

> <Gold.PLP.part.buried>
0.4051

> <Gold.PLP.part.nonpolar>
-30.4913

> <Gold.PLP.part.repulsive>
0.3644

> <Gold.PLP.ligand.clash>
0.0000

> <Gold.PLP.ligand.torsion>
0.8945

> <Gold.PLP.Chemscore.Hbond>
3.8800

> <Gold.PLP.Chemscore.CHOScore>
1.0000

> <Gold.PLP.Chemscore.Metal>
0.0000

> <Gold.Chemscore.Hbonds>
donor molecule, donor type, donor heavy atom, donor atom, acceptor molecule, acceptor atom, score
      L1  H     5    27       P1  7957  1.00
      L1  H    10    32       P1  7957  0.89
      L1  H    10    40       P1  7948  2.00
      L1  C    14    37       P1 10171  1.00

> <Gold.PLP.Chemscore.Internal.Correction>
0.1548

> <Gold.Rescore>
     Score         DG    S(hbond)    S(metal)    S(lipo)     H(rot)  DE(clash)    DE(int)     intcor
     15.23     -17.62       2.82        0.00      71.78       2.21       0.28       2.11       ----

> <Gold.Chemscore.Fitness>
15.2291

> <Gold.Chemscore.DG>
-17.6173

> <Gold.Chemscore.ZeroCoef>
-5.4800

> <Gold.Chemscore.Hbond>
2.8157

> <Gold.Chemscore.Metal>
0.0000

> <Gold.Chemscore.Lipo>
71.7841

> <Gold.Chemscore.Internal_Hbond>
0.0000

> <Gold.Chemscore.DEClash>
0.2791

> <Gold.Chemscore.DEInternal>
2.1091

> <Gold.Chemscore.Rot>
2.2132

> <Gold.Chemscore.Internal.Correction>
   9.000000E+99

> <Gold.Chemscore.Hbonds>
donor molecule, donor type, donor heavy atom, donor atom, acceptor molecule, acceptor atom, score
      L1  H     5    27       P1  7957  0.98
      L1  H    10    32       P1  7957  0.64
      L1  H    10    40       P1  7948  0.99

> <Gold.Chemscore.Hbond.Weighted>
-9.4043

> <Gold.Chemscore.Metal.Weighted>
-0.0000

> <Gold.Chemscore.Lipo.Weighted>
-8.3987

> <Gold.Chemscore.Internal_Hbond.Weighted>
0.0000

> <Gold.Chemscore.DEClash.Weighted>
0.2791

> <Gold.Chemscore.DEInternal.Weighted>
2.1091

> <Gold.Chemscore.Rot.Weighted>
5.6658

> <Gold.Chemscore.Internal.Correction.Weighted>
   9.000000E+99

> <Gold.Protein.RotatedTorsions>
[ 6907 6896 6895 6894 ] final  -49.63 input  -60.11 | X-H torsion
[ 7974 7965 7964 7962 ] final  -30.52 input  175.53 | X-H torsion
[ 8008 7997 7996 7995 ] final -108.67 input   59.86 | X-H torsion
[ 10167 10162 10161 10158 ] final  -91.76 input  -65.29 | X-H torsion
[ 10718 10713 10712 10709 ] final  -67.64 input   66.30 | X-H torsion
[ 10763 10752 10751 10750 ] final -132.24 input  -60.55 | X-H torsion
[ 11005 11000 10999 10996 ] final   45.46 input  -57.11 | X-H torsion

> <Gold.Protein.ActiveResidues>
 VAL166  LYS551  ARG553  GLY616  TRP617  ASP618  TYR619  PRO620  LYS621  CYS622 
 ASP623  PHE694  ASN695  SER759  ASP760  ASP761  ALA762  ILE779  LEU786  VAL792 
 PHE793  MET794  SER795  GLU796  ALA797  LYS798  CYS799  TRP800  GLU811  SER814 

> <Gold.Protein.RotatedAtoms>
  150.8786  134.8173  159.7207 H   0  0  0  0  0  0  0  0  0  0  0  0  # atno 6907 bound_to 6896
  152.4763  134.4832  159.9682 H   0  0  0  0  0  0  0  0  0  0  0  0  # atno 6908 bound_to 6896
  151.4910  133.3486  159.2889 H   0  0  0  0  0  0  0  0  0  0  0  0  # atno 6909 bound_to 6896
  146.1136  140.5551  142.8767 H   0  0  0  0  0  0  0  0  0  0  0  0  # atno 7974 bound_to 7965
  154.9477  140.0401  157.2128 H   0  0  0  0  0  0  0  0  0  0  0  0  # atno 8008 bound_to 7997
  154.8008  140.2851  155.5901 H   0  0  0  0  0  0  0  0  0  0  0  0  # atno 8009 bound_to 7997
  156.2961  140.2555  156.2876 H   0  0  0  0  0  0  0  0  0  0  0  0  # atno 8010 bound_to 7997
  140.3416  143.2939  151.9828 H   0  0  0  0  0  0  0  0  0  0  0  0  # atno 10167 bound_to 10162
  156.0547  130.4281  150.1884 H   0  0  0  0  0  0  0  0  0  0  0  0  # atno 10718 bound_to 10713
  154.8745  135.3804  154.4378 H   0  0  0  0  0  0  0  0  0  0  0  0  # atno 10763 bound_to 10752
  153.5066  135.7030  153.5808 H   0  0  0  0  0  0  0  0  0  0  0  0  # atno 10764 bound_to 10752
  153.4116  135.3923  155.2020 H   0  0  0  0  0  0  0  0  0  0  0  0  # atno 10765 bound_to 10752
  140.1458  134.4525  155.8417 H   0  0  0  0  0  0  0  0  0  0  0  0  # atno 11005 bound_to 11000
  144.7533  140.5246  143.6786 LP  0  0  0  0  0  0  0  0  0  0  0  0  # atno 17320 bound_to 7965
  145.5612  139.1479  143.3340 LP  0  0  0  0  0  0  0  0  0  0  0  0  # atno 17321 bound_to 7965
  139.4839  144.6151  151.7360 LP  0  0  0  0  0  0  0  0  0  0  0  0  # atno 17342 bound_to 10162
  140.5303  144.0741  150.6051 LP  0  0  0  0  0  0  0  0  0  0  0  0  # atno 17343 bound_to 10162
  156.9962  130.9908  151.3402 LP  0  0  0  0  0  0  0  0  0  0  0  0  # atno 17370 bound_to 10713
  157.5506  130.8179  149.8140 LP  0  0  0  0  0  0  0  0  0  0  0  0  # atno 17371 bound_to 10713
  141.2192  133.6851  156.7330 LP  0  0  0  0  0  0  0  0  0  0  0  0  # atno 17394 bound_to 11000
  140.2666  134.8425  157.3808 LP  0  0  0  0  0  0  0  0  0  0  0  0  # atno 17395 bound_to 11000

$$$$
