AV-unprocessed.smi:3134|AV-procd|sdf|11942|dock3
  -GOLD-   2272017333D 1   1.00000     0.00000
 Structure written by MMmdl.
 37 37  0  0  0  0  0  0  0  0  2 V2000
  146.1457  142.8512  153.8701 C   0  0  0  0  0  0  0  0  0  0  0  0
  146.8839  141.5769  154.3107 C   0  0  0  0  0  0  0  0  0  0  0  0
  148.3973  141.6915  154.0865 C   0  0  0  0  0  0  0  0  0  0  0  0
  146.3721  140.4158  153.5882 N   0  0  0  0  0  0  0  0  0  0  0  0
  146.9501  139.2050  153.5608 C   0  0  0  0  0  0  0  0  0  0  0  0
  148.0051  138.9460  154.1415 O   0  0  0  0  0  0  0  0  0  0  0  0
  146.2300  138.1188  152.7497 C   0  0  1  0  0  0  0  0  0  0  0  0
  146.3435  138.4215  151.2480 C   0  0  0  0  0  0  0  0  0  0  0  0
  146.7963  136.7829  153.0378 N   0  3  0  0  0  0  0  0  0  0  0  0
  145.8539  135.6553  152.8668 C   0  0  0  0  0  0  0  0  0  0  0  0
  145.2974  135.6085  151.4346 C   0  0  0  0  0  0  0  0  0  0  0  0
  145.1084  134.2467  150.9637 N   0  0  0  0  0  0  0  0  0  0  0  0
  143.9444  133.6375  150.5439 C   0  0  0  0  0  0  0  0  0  0  0  0
  144.2598  132.3559  150.1940 C   0  0  0  0  0  0  0  0  0  0  0  0
  145.6569  132.2689  150.4492 C   0  0  0  0  0  0  0  0  0  0  0  0
  146.1599  133.3999  150.9164 N   0  0  0  0  0  0  0  0  0  0  0  0
  146.5182  143.7236  154.4077 H   0  0  0  0  0  0  0  0  0  0  0  0
  145.0754  142.7792  154.0672 H   0  0  0  0  0  0  0  0  0  0  0  0
  146.2760  143.0378  152.8036 H   0  0  0  0  0  0  0  0  0  0  0  0
  146.7181  141.4323  155.3797 H   0  0  0  0  0  0  0  0  0  0  0  0
  148.8120  142.5333  154.6416 H   0  0  0  0  0  0  0  0  0  0  0  0
  148.6341  141.8402  153.0324 H   0  0  0  0  0  0  0  0  0  0  0  0
  148.9139  140.7913  154.4212 H   0  0  0  0  0  0  0  0  0  0  0  0
  145.5103  140.5441  153.0776 H   0  0  0  0  0  0  0  0  0  0  0  0
  145.1715  138.1086  153.0166 H   0  0  0  0  0  0  0  0  0  0  0  0
  145.9096  139.3928  151.0057 H   0  0  0  0  0  0  0  0  0  0  0  0
  145.8145  137.6732  150.6571 H   0  0  0  0  0  0  0  0  0  0  0  0
  147.3832  138.4299  150.9170 H   0  0  0  0  0  0  0  0  0  0  0  0
  147.5881  136.6239  152.4317 H   0  0  0  0  0  0  0  0  0  0  0  0
  146.3441  134.7089  153.0992 H   0  0  0  0  0  0  0  0  0  0  0  0
  145.0410  135.7667  153.5850 H   0  0  0  0  0  0  0  0  0  0  0  0
  144.3354  136.1204  151.3896 H   0  0  0  0  0  0  0  0  0  0  0  0
  145.9651  136.1310  150.7482 H   0  0  0  0  0  0  0  0  0  0  0  0
  142.9995  134.1604  150.5238 H   0  0  0  0  0  0  0  0  0  0  0  0
  143.5937  131.5946  149.8160 H   0  0  0  0  0  0  0  0  0  0  0  0
  146.3152  131.4238  150.3114 H   0  0  0  0  0  0  0  0  0  0  0  0
  147.1182  136.7923  153.9957 H   0  0  0  0  0  0  0  0  0  0  0  0
  1  2  1  0  0  0  0
  1 17  1  0  0  0  0
  1 18  1  0  0  0  0
  1 19  1  0  0  0  0
  2  3  1  0  0  0  0
  2  4  1  0  0  0  0
  2 20  1  0  0  0  0
  3 21  1  0  0  0  0
  3 22  1  0  0  0  0
  3 23  1  0  0  0  0
  4  5  1  0  0  0  0
  4 24  1  0  0  0  0
  5  6  2  0  0  0  0
  5  7  1  0  0  0  0
  7  8  1  0  0  0  0
  7  9  1  0  0  0  0
  7 25  1  0  0  0  0
  8 26  1  0  0  0  0
  8 27  1  0  0  0  0
  8 28  1  0  0  0  0
  9 10  1  0  0  0  0
  9 29  1  0  0  0  0
  9 37  1  0  0  0  0
 10 11  1  0  0  0  0
 10 30  1  0  0  0  0
 10 31  1  0  0  0  0
 11 12  1  0  0  0  0
 11 32  1  0  0  0  0
 11 33  1  0  0  0  0
 12 16  1  0  0  0  0
 12 13  1  0  0  0  0
 13 14  2  0  0  0  0
 13 34  1  0  0  0  0
 14 15  1  0  0  0  0
 14 35  1  0  0  0  0
 15 16  2  0  0  0  0
 15 36  1  0  0  0  0
M  CHG  1   9   1
M  END
> <s_m_source_file>
AV-unprocessed.smi

> <i_m_source_file_index>
3134

> <i_lp_mmshare_version>
43012

> <i_f3d_flags>
0

> <s_epik_input>
W0NIM11bQ0hdKFtDSDNdKVtOSF1DKD1PKVtDQEhdKFtDSDNdKVtOSF1bQ0gyXVtDSDJdbjFbY0hdW2NIXVtjSF1uMQ==

> <s_epik_cmdline>
J2VwaWtfcHl0aG9uJywgJy1waCcsICc3LjAnLCAnLXRuJywgJzgnLCAnLW1hJywgJzIwMCcsICctbWV0YWxfYmluZGluZycsICctaW1hZScsICc8aW5maWxlLm1hZT4nLCAnLW9tYWUnLCAnPG91dGZpbGUubWFlPic=

> <r_lp_tautomer_probability>
1

> <r_epik_Ionization_Penalty>
0.20398

> <r_epik_Ionization_Penalty_Charging>
0.203977

> <r_epik_Ionization_Penalty_Neutral>
3.23345e-06

> <r_epik_State_Penalty>
0.193898

> <r_epik_Charging_Adjusted_Penalty>
0.397875

> <i_epik_Tot_Q>
1

> <i_epik_Tot_abs_Q>
1

> <r_epik_Metal_State_Penalty>
0.194184

> <b_epik_Metal_Only>
0

> <s_lp_Force_Field>
OPLS_2005

> <r_lp_Energy>
4.47428

> <b_lp_Chiralities_Consistent>
1

> <s_lp_Variant>
AV-unprocessed.smi:3134-2

> <Gold.Version>
5.8.1

> <Gold.Id.Protein>
6NUR|6NUR_protein|mol2

> <Gold.PLP.Fitness>
46.5359

> <Gold.PLP.PLP>
-33.3093

> <Gold.PLP.part.hbond>
-2.0000

> <Gold.PLP.part.metal>
0.0000

> <Gold.PLP.part.buried>
-2.3348

> <Gold.PLP.part.nonpolar>
-30.5271

> <Gold.PLP.part.repulsive>
0.3649

> <Gold.PLP.ligand.clash>
0.0000

> <Gold.PLP.ligand.torsion>
0.9814

> <Gold.PLP.Chemscore.Hbond>
3.0000

> <Gold.PLP.Chemscore.CHOScore>
2.0000

> <Gold.PLP.Chemscore.Metal>
0.0000

> <Gold.Chemscore.Hbonds>
donor molecule, donor type, donor heavy atom, donor atom, acceptor molecule, acceptor atom, score
      L1  H     4    24       P1 10175  1.00
      L1  H     9    29       P1  7948  1.95
      L1  C    13    34       P1 10186  1.00
      L1  C    15    36       P1 10747  0.55

> <Gold.PLP.Chemscore.Internal.Correction>
0.1895

> <Gold.Rescore>
     Score         DG    S(hbond)    S(metal)    S(lipo)     H(rot)  DE(clash)    DE(int)     intcor
     12.17     -14.36       1.92        0.00      67.66       2.13       0.11       2.09       ----

> <Gold.Chemscore.Fitness>
12.1654

> <Gold.Chemscore.DG>
-14.3630

> <Gold.Chemscore.ZeroCoef>
-5.4800

> <Gold.Chemscore.Hbond>
1.9247

> <Gold.Chemscore.Metal>
0.0000

> <Gold.Chemscore.Lipo>
67.6586

> <Gold.Chemscore.Internal_Hbond>
0.0000

> <Gold.Chemscore.DEClash>
0.1119

> <Gold.Chemscore.DEInternal>
2.0857

> <Gold.Chemscore.Rot>
2.1334

> <Gold.Chemscore.Internal.Correction>
   9.000000E+99

> <Gold.Chemscore.Hbonds>
donor molecule, donor type, donor heavy atom, donor atom, acceptor molecule, acceptor atom, score
      L1  H     4    24       P1 10175  0.85
      L1  H     9    29       P1  7948  0.92

> <Gold.Chemscore.Hbond.Weighted>
-6.4284

> <Gold.Chemscore.Metal.Weighted>
-0.0000

> <Gold.Chemscore.Lipo.Weighted>
-7.9161

> <Gold.Chemscore.Internal_Hbond.Weighted>
0.0000

> <Gold.Chemscore.DEClash.Weighted>
0.1119

> <Gold.Chemscore.DEInternal.Weighted>
2.0857

> <Gold.Chemscore.Rot.Weighted>
5.4615

> <Gold.Chemscore.Internal.Correction.Weighted>
   9.000000E+99

> <Gold.Protein.RotatedTorsions>
[ 6907 6896 6895 6894 ] final  128.30 input  -60.11 | X-H torsion
[ 7974 7965 7964 7962 ] final  -51.68 input  175.53 | X-H torsion
[ 8008 7997 7996 7995 ] final   66.43 input   59.86 | X-H torsion
[ 10167 10162 10161 10158 ] final  133.19 input  -65.29 | X-H torsion
[ 10718 10713 10712 10709 ] final   44.05 input   66.30 | X-H torsion
[ 10763 10752 10751 10750 ] final  -20.85 input  -60.55 | X-H torsion
[ 11005 11000 10999 10996 ] final   -4.39 input  -57.11 | X-H torsion

> <Gold.Protein.ActiveResidues>
 VAL166  LYS551  ARG553  GLY616  TRP617  ASP618  TYR619  PRO620  LYS621  CYS622 
 ASP623  PHE694  ASN695  SER759  ASP760  ASP761  ALA762  ILE779  LEU786  VAL792 
 PHE793  MET794  SER795  GLU796  ALA797  LYS798  CYS799  TRP800  GLU811  SER814 

> <Gold.Protein.RotatedAtoms>
  152.3733  133.6447  159.6103 H   0  0  0  0  0  0  0  0  0  0  0  0  # atno 6907 bound_to 6896
  150.7684  133.9235  159.3414 H   0  0  0  0  0  0  0  0  0  0  0  0  # atno 6908 bound_to 6896
  151.7054  135.0923  160.0309 H   0  0  0  0  0  0  0  0  0  0  0  0  # atno 6909 bound_to 6896
  145.9163  140.7872  142.9670 H   0  0  0  0  0  0  0  0  0  0  0  0  # atno 7974 bound_to 7965
  155.6772  140.3497  155.4841 H   0  0  0  0  0  0  0  0  0  0  0  0  # atno 8008 bound_to 7997
  155.9637  140.1142  157.0896 H   0  0  0  0  0  0  0  0  0  0  0  0  # atno 8009 bound_to 7997
  154.4149  140.1170  156.5200 H   0  0  0  0  0  0  0  0  0  0  0  0  # atno 8010 bound_to 7997
  139.5307  144.6627  151.4960 H   0  0  0  0  0  0  0  0  0  0  0  0  # atno 10167 bound_to 10162
  157.4226  130.7978  149.7529 H   0  0  0  0  0  0  0  0  0  0  0  0  # atno 10718 bound_to 10713
  153.6269  135.6990  153.5290 H   0  0  0  0  0  0  0  0  0  0  0  0  # atno 10763 bound_to 10752
  153.2891  135.4162  155.1150 H   0  0  0  0  0  0  0  0  0  0  0  0  # atno 10764 bound_to 10752
  154.8531  135.3621  154.5811 H   0  0  0  0  0  0  0  0  0  0  0  0  # atno 10765 bound_to 10752
  140.6798  133.9164  155.8547 H   0  0  0  0  0  0  0  0  0  0  0  0  # atno 11005 bound_to 11000
  144.6748  140.1905  143.7397 LP  0  0  0  0  0  0  0  0  0  0  0  0  # atno 17320 bound_to 7965
  145.8607  139.2221  143.1718 LP  0  0  0  0  0  0  0  0  0  0  0  0  # atno 17321 bound_to 7965
  140.6483  143.8748  150.6760 LP  0  0  0  0  0  0  0  0  0  0  0  0  # atno 17342 bound_to 10162
  140.2105  143.3887  152.1722 LP  0  0  0  0  0  0  0  0  0  0  0  0  # atno 17343 bound_to 10162
  155.9885  130.3958  150.3113 LP  0  0  0  0  0  0  0  0  0  0  0  0  # atno 17370 bound_to 10713
  157.1262  131.0260  151.2988 LP  0  0  0  0  0  0  0  0  0  0  0  0  # atno 17371 bound_to 10713
  141.0327  134.0734  157.3996 LP  0  0  0  0  0  0  0  0  0  0  0  0  # atno 17394 bound_to 11000
  139.8955  135.0141  156.7006 LP  0  0  0  0  0  0  0  0  0  0  0  0  # atno 17395 bound_to 11000

$$$$
