#       Name:                AV-unprocessed.smi:659
#       Creating user name   scv26
#       Creation time:       Fri Mar 27 00:18:52 2020


#       File generated by GOLD software.
#

@<TRIPOS>MOLECULE
AV-unprocessed.smi:659
    33    34     1
SMALL
NO_CHARGES


@<TRIPOS>ATOM
      1 ****        -2.4831  -1.4921  -0.3383 O.2            1 S1                 0.0000
      2 ****        -1.2731  -1.2727  -0.3213 C.2            1 S1                 0.0000
      3 ****        -0.3835  -2.2873  -0.2704 N.am           1 S1                 0.0000
      4 ****        -0.5631  -3.7012  -0.2262 C.ar           1 S1                 0.0000
      5 ****         0.6320  -4.4454  -0.1247 C.ar           1 S1                 0.0000
      6 ****         0.5465  -5.8474  -0.0746 C.ar           1 S1                 0.0000
      7 ****        -0.7369  -6.4161  -0.1325 C.ar           1 S1                 0.0000
      8 ****        -1.8564  -5.6676  -0.2318 N.ar           1 S1                 0.0000
      9 ****        -1.7653  -4.3343  -0.2780 N.ar           1 S1                 0.0000
     10 ****        -0.7615  -0.0314  -0.3534 N.am           1 S1                 0.0000
     11 ****        -1.5348   1.2049  -0.4264 C.3            1 S1                 0.0000
     12 ****        -0.6446   2.3751  -0.8888 C.3            1 S1                 0.0000
     13 ****        -0.8925   3.5155   0.1006 C.3            1 S1                 0.0000
     14 ****        -1.2613   2.8125   1.4029 C.3            1 S1                 0.0000
     15 ****        -2.0901   1.6094   0.9538 C.3            1 S1                 0.0000
     16 ****         0.5817  -1.9914  -0.2563 H              1 S1                 0.0000
     17 ****         1.5945  -3.9561  -0.0843 H              1 S1                 0.0000
     18 ****         1.4302  -6.4629   0.0047 H              1 S1                 0.0000
     19 ****        -0.8692  -7.4872  -0.0989 H              1 S1                 0.0000
     20 ****         0.2442   0.0623  -0.3328 H              1 S1                 0.0000
     21 ****        -2.3606   1.0752  -1.1285 H              1 S1                 0.0000
     22 ****         0.4098   2.0959  -0.8499 H              1 S1                 0.0000
     23 ****        -0.8588   2.6739  -1.9154 H              1 S1                 0.0000
     24 ****        -0.0303   4.1742   0.2075 H              1 S1                 0.0000
     25 ****        -1.7342   4.1204  -0.2391 H              1 S1                 0.0000
     26 ****        -0.3558   2.4692   1.9056 H              1 S1                 0.0000
     27 ****        -1.8017   3.4608   2.0931 H              1 S1                 0.0000
     28 ****        -3.1316   1.9139   0.8439 H              1 S1                 0.0000
     29 ****        -2.0700   0.8022   1.6874 H              1 S1                 0.0000
     30 ****        -2.8210  -2.4330  -0.3143 LP             1 S1                 0.0000
     31 ****        -3.1290  -0.7297  -0.3761 LP             1 S1                 0.0000
     32 ****        -2.7524  -6.1099  -0.2707 LP             1 S1                 0.0000
     33 ****        -2.6010  -3.7901  -0.3525 LP             1 S1                 0.0000
@<TRIPOS>BOND
    1    1    2 2     
    2    2    3 am    
    3    2   10 am    
    4    3    4 1     
    5    3   16 1     
    6    4    9 ar    
    7    4    5 ar    
    8    5    6 ar    
    9    5   17 1     
   10    6    7 ar    
   11    6   18 1     
   12    7    8 ar    
   13    7   19 1     
   14    8    9 ar    
   15   10   11 1     
   16   10   20 1     
   17   11   15 1     
   18   11   12 1     
   19   11   21 1     
   20   12   13 1     
   21   12   22 1     
   22   12   23 1     
   23   13   14 1     
   24   13   24 1     
   25   13   25 1     
   26   14   15 1     
   27   14   26 1     
   28   14   27 1     
   29   15   28 1     
   30   15   29 1     
   31    1   30 1     
   32    1   31 1     
   33    8   32 1     
   34    9   33 1     
@<TRIPOS>SUBSTRUCTURE
      1 S1             1
@<TRIPOS>SET
LONE_PAIRS      STATIC     ATOMS    <user>   **** ""
4 30 31 32 33
DONOR_HYDROGENS      STATIC     ATOMS    <user>   **** ""
2 16 20
ATOM$BLUE        STATIC     ATOMS    COLORGROUP SYSTEM
4 30 31 32 33
ATOM$RED        STATIC     ATOMS    COLORGROUP SYSTEM
2 16 20
