#       Name:                AV-unprocessed.smi:3134
#       Creating user name   scv26
#       Creation time:       Fri Mar 27 17:33:37 2020


#       File generated by GOLD software.
#

@<TRIPOS>MOLECULE
AV-unprocessed.smi:3134
    40    40     1
SMALL
NO_CHARGES


@<TRIPOS>ATOM
      1 ****        -2.8850   0.8204   0.6125 C.3            1 S1                 0.0000
      2 ****        -2.1954   1.0990   1.9577 C.3            1 S1                 0.0000
      3 ****        -2.3351   2.5696   2.3724 C.3            1 S1                 0.0000
      4 ****        -0.7809   0.7465   1.8860 N.am           1 S1                 0.0000
      5 ****        -0.2779  -0.4891   2.0357 C.2            1 S1                 0.0000
      6 ****        -0.9741  -1.4802   2.2593 O.2            1 S1                 0.0000
      7 ****         1.2445  -0.6342   1.8700 C.3            1 S1                 0.0000
      8 ****         1.8515  -1.4025   3.0548 C.3            1 S1                 0.0000
      9 ****         1.6354  -1.2827   0.6049 N.3            1 S1                 0.0000
     10 ****         1.1610  -0.6014  -0.5946 C.3            1 S1                 0.0000
     11 ****         1.7773  -1.2644  -1.8341 C.3            1 S1                 0.0000
     12 ****         1.3246  -0.6284  -3.0557 N.pl3          1 S1                 0.0000
     13 ****         0.3014  -1.0163  -3.8946 C.2            1 S1                 0.0000
     14 ****         0.2430  -0.1061  -4.9108 C.2            1 S1                 0.0000
     15 ****         1.2837   0.8137  -4.6008 C.2            1 S1                 0.0000
     16 ****         1.9282   0.4994  -3.4887 N.2            1 S1                 0.0000
     17 ****        -3.9440   1.0755   0.6559 H              1 S1                 0.0000
     18 ****        -2.8136  -0.2333   0.3406 H              1 S1                 0.0000
     19 ****        -2.4349   1.4023  -0.1925 H              1 S1                 0.0000
     20 ****        -2.6744   0.4905   2.7269 H              1 S1                 0.0000
     21 ****        -3.3842   2.8532   2.4602 H              1 S1                 0.0000
     22 ****        -1.8707   3.2349   1.6437 H              1 S1                 0.0000
     23 ****        -1.8638   2.7520   3.3388 H              1 S1                 0.0000
     24 ****        -0.1341   1.4980   1.6945 H              1 S1                 0.0000
     25 ****         1.6805   0.3666   1.8779 H              1 S1                 0.0000
     26 ****         1.5991  -0.9296   4.0047 H              1 S1                 0.0000
     27 ****         2.9394  -1.4301   2.9847 H              1 S1                 0.0000
     28 ****         1.4980  -2.4340   3.0915 H              1 S1                 0.0000
     29 ****         1.3550  -2.2529   0.5823 H              1 S1                 0.0000
     30 ****         0.0737  -0.6522  -0.6616 H              1 S1                 0.0000
     31 ****         1.4406   0.4525  -0.5551 H              1 S1                 0.0000
     32 ****         2.8668  -1.2156  -1.7969 H              1 S1                 0.0000
     33 ****         1.5082  -2.3208  -1.8764 H              1 S1                 0.0000
     34 ****        -0.2935  -1.8966  -3.6998 H              1 S1                 0.0000
     35 ****        -0.4391  -0.0979  -5.7479 H              1 S1                 0.0000
     36 ****         1.5873   1.6947  -5.1465 H              1 S1                 0.0000
     37 ****        -1.9666  -1.3867   2.3378 LP             1 S1                 0.0000
     38 ****        -0.5468  -2.3785   2.3624 LP             1 S1                 0.0000
     39 ****         2.6334  -1.2211   0.5895 LP             1 S1                 0.0000
     40 ****         2.6909   0.9874  -3.0642 LP             1 S1                 0.0000
@<TRIPOS>BOND
    1    1    2 1     
    2    1   17 1     
    3    1   18 1     
    4    1   19 1     
    5    2    3 1     
    6    2    4 1     
    7    2   20 1     
    8    3   21 1     
    9    3   22 1     
   10    3   23 1     
   11    4    5 am    
   12    4   24 1     
   13    5    6 2     
   14    5    7 1     
   15    7    8 1     
   16    7    9 1     
   17    7   25 1     
   18    8   26 1     
   19    8   27 1     
   20    8   28 1     
   21    9   10 1     
   22    9   29 1     
   23   10   11 1     
   24   10   30 1     
   25   10   31 1     
   26   11   12 1     
   27   11   32 1     
   28   11   33 1     
   29   12   16 1     
   30   12   13 1     
   31   13   14 2     
   32   13   34 1     
   33   14   15 1     
   34   14   35 1     
   35   15   16 2     
   36   15   36 1     
   37    6   37 1     
   38    6   38 1     
   39    9   39 1     
   40   16   40 1     
@<TRIPOS>SUBSTRUCTURE
      1 S1             1
@<TRIPOS>SET
LONE_PAIRS      STATIC     ATOMS    <user>   **** ""
4 37 38 39 40
DONOR_HYDROGENS      STATIC     ATOMS    <user>   **** ""
2 24 29
ATOM$BLUE        STATIC     ATOMS    COLORGROUP SYSTEM
4 37 38 39 40
ATOM$RED        STATIC     ATOMS    COLORGROUP SYSTEM
2 24 29
