AV-unprocessed.smi:2145|AV-procd|sdf|8737|dock10
  -GOLD-   2272011513D 1   1.00000     0.00000
 Structure written by MMmdl.
 45 47  0  0  0  0  0  0  0  0  2 V2000
  144.4927  134.3336  163.9450 C   0  0  0  0  0  0  0  0  0  0  0  0
  145.3844  133.7922  162.8289 C   0  0  0  0  0  0  0  0  0  0  0  0
  145.2340  132.6260  162.4655 O   0  0  0  0  0  0  0  0  0  0  0  0
  146.3948  134.7143  162.2368 C   0  0  0  0  0  0  0  0  0  0  0  0
  146.9073  135.7756  163.0157 C   0  0  0  0  0  0  0  0  0  0  0  0
  147.8628  136.6601  162.4807 C   0  0  0  0  0  0  0  0  0  0  0  0
  148.3304  136.5073  161.1609 C   0  0  0  0  0  0  0  0  0  0  0  0
  149.2672  137.4167  160.7198 O   0  0  0  0  0  0  0  0  0  0  0  0
  149.6150  137.4136  159.3416 C   0  0  0  0  0  0  0  0  0  0  0  0
  150.6101  138.5559  159.0865 C   0  0  1  0  0  0  0  0  0  0  0  0
  151.9107  138.0894  159.3858 O   0  0  0  0  0  0  0  0  0  0  0  0
  150.5703  139.0416  157.6238 C   0  0  0  0  0  0  0  0  0  0  0  0
  150.4550  140.5048  157.5117 N   0  0  0  0  0  0  0  0  0  0  0  0
  149.6342  141.2573  156.7247 C   0  0  0  0  0  0  0  0  0  0  0  0
  148.6225  140.7505  155.7527 C   0  0  0  0  0  0  0  0  0  0  0  0
  149.9084  142.5659  156.9879 N   0  3  0  0  0  0  0  0  0  0  0  0
  150.9124  142.6529  157.9531 C   0  0  0  0  0  0  0  0  0  0  0  0
  151.5186  143.7602  158.5385 C   0  0  0  0  0  0  0  0  0  0  0  0
  152.5158  143.5006  159.5013 C   0  0  0  0  0  0  0  0  0  0  0  0
  152.8748  142.1822  159.8489 C   0  0  0  0  0  0  0  0  0  0  0  0
  152.2536  141.0674  159.2481 C   0  0  0  0  0  0  0  0  0  0  0  0
  151.2692  141.3320  158.2957 C   0  0  0  0  0  0  0  0  0  0  0  0
  147.8168  135.4452  160.3767 C   0  0  0  0  0  0  0  0  0  0  0  0
  146.8598  134.5598  160.9099 C   0  0  0  0  0  0  0  0  0  0  0  0
  145.0950  134.6477  164.7977 H   0  0  0  0  0  0  0  0  0  0  0  0
  143.7973  133.5653  164.2839 H   0  0  0  0  0  0  0  0  0  0  0  0
  143.9120  135.1855  163.5907 H   0  0  0  0  0  0  0  0  0  0  0  0
  146.5738  135.9235  164.0328 H   0  0  0  0  0  0  0  0  0  0  0  0
  148.2425  137.4653  163.0926 H   0  0  0  0  0  0  0  0  0  0  0  0
  150.0360  136.4551  159.0317 H   0  0  0  0  0  0  0  0  0  0  0  0
  148.7094  137.5861  158.7576 H   0  0  0  0  0  0  0  0  0  0  0  0
  150.3761  139.3939  159.7443 H   0  0  0  0  0  0  0  0  0  0  0  0
  152.4627  138.2440  158.6340 H   0  0  0  0  0  0  0  0  0  0  0  0
  151.4442  138.7016  157.0676 H   0  0  0  0  0  0  0  0  0  0  0  0
  149.7055  138.6146  157.1148 H   0  0  0  0  0  0  0  0  0  0  0  0
  148.0769  141.5783  155.2993 H   0  0  0  0  0  0  0  0  0  0  0  0
  147.9078  140.0998  156.2568 H   0  0  0  0  0  0  0  0  0  0  0  0
  149.1134  140.1836  154.9615 H   0  0  0  0  0  0  0  0  0  0  0  0
  151.2433  144.7711  158.2755 H   0  0  0  0  0  0  0  0  0  0  0  0
  153.0138  144.3289  159.9842 H   0  0  0  0  0  0  0  0  0  0  0  0
  153.6414  142.0219  160.5931 H   0  0  0  0  0  0  0  0  0  0  0  0
  152.5321  140.0624  159.5281 H   0  0  0  0  0  0  0  0  0  0  0  0
  148.1401  135.2876  159.3590 H   0  0  0  0  0  0  0  0  0  0  0  0
  146.4944  133.7646  160.2774 H   0  0  0  0  0  0  0  0  0  0  0  0
  149.4396  143.3421  156.5387 H   0  0  0  0  0  0  0  0  0  0  0  0
  1  2  1  0  0  0  0
  1 25  1  0  0  0  0
  1 26  1  0  0  0  0
  1 27  1  0  0  0  0
  2  3  2  0  0  0  0
  2  4  1  0  0  0  0
  4 24  1  0  0  0  0
  4  5  2  0  0  0  0
  5  6  1  0  0  0  0
  5 28  1  0  0  0  0
  6  7  2  0  0  0  0
  6 29  1  0  0  0  0
  7  8  1  0  0  0  0
  7 23  1  0  0  0  0
  8  9  1  0  0  0  0
  9 10  1  0  0  0  0
  9 30  1  0  0  0  0
  9 31  1  0  0  0  0
 10 11  1  0  0  0  0
 10 12  1  0  0  0  0
 10 32  1  0  0  0  0
 11 33  1  0  0  0  0
 12 13  1  0  0  0  0
 12 34  1  0  0  0  0
 12 35  1  0  0  0  0
 13 22  1  0  0  0  0
 13 14  1  0  0  0  0
 14 15  1  0  0  0  0
 14 16  2  0  0  0  0
 15 36  1  0  0  0  0
 15 37  1  0  0  0  0
 15 38  1  0  0  0  0
 16 17  1  0  0  0  0
 16 45  1  0  0  0  0
 17 22  2  0  0  0  0
 17 18  1  0  0  0  0
 18 19  2  0  0  0  0
 18 39  1  0  0  0  0
 19 20  1  0  0  0  0
 19 40  1  0  0  0  0
 20 21  2  0  0  0  0
 20 41  1  0  0  0  0
 21 22  1  0  0  0  0
 21 42  1  0  0  0  0
 23 24  2  0  0  0  0
 23 43  1  0  0  0  0
 24 44  1  0  0  0  0
M  CHG  1  16   1
M  END
> <s_m_source_file>
AV-unprocessed.smi

> <i_m_source_file_index>
2145

> <i_lp_mmshare_version>
43012

> <i_f3d_flags>
0

> <s_epik_input>
W0NIM11DKD1PKWMxW2NIXVtjSF1jKFtjSF1bY0hdMSlPW0NIMl1bQ0BIXShbT0hdKVtDSDJdbihjKG4yKVtDSDNdKWMoYzIzKVtjSF1bY0hdW2NIXVtjSF0z

> <s_epik_cmdline>
J2VwaWtfcHl0aG9uJywgJy1waCcsICc3LjAnLCAnLXRuJywgJzgnLCAnLW1hJywgJzIwMCcsICctbWV0YWxfYmluZGluZycsICctaW1hZScsICc8aW5maWxlLm1hZT4nLCAnLW9tYWUnLCAnPG91dGZpbGUubWFlPic=

> <r_lp_tautomer_probability>
0.99995

> <r_epik_Ionization_Penalty>
1.05477

> <r_epik_Ionization_Penalty_Charging>
1.05477

> <r_epik_Ionization_Penalty_Neutral>
2.3993e-06

> <r_epik_State_Penalty>
1.10796

> <r_epik_Charging_Adjusted_Penalty>
2.16273

> <i_epik_Tot_Q>
1

> <i_epik_Tot_abs_Q>
1

> <r_epik_Metal_State_Penalty>
5.10164

> <b_epik_Metal_Only>
0

> <s_lp_Force_Field>
OPLS_2005

> <r_lp_Energy>
25.5273

> <b_lp_Chiralities_Consistent>
1

> <s_lp_Variant>
AV-unprocessed.smi:2145-4

> <Gold.Version>
5.8.1

> <Gold.Id.Protein>
6NUR|6NUR_protein|mol2

> <Gold.PLP.Fitness>
52.2609

> <Gold.PLP.PLP>
-48.4088

> <Gold.PLP.part.hbond>
-2.0000

> <Gold.PLP.part.metal>
0.0000

> <Gold.PLP.part.buried>
-6.4232

> <Gold.PLP.part.nonpolar>
-40.7700

> <Gold.PLP.part.repulsive>
0.0852

> <Gold.PLP.ligand.clash>
0.0000

> <Gold.PLP.ligand.torsion>
1.5287

> <Gold.PLP.Chemscore.Hbond>
2.2912

> <Gold.PLP.Chemscore.CHOScore>
0.0000

> <Gold.PLP.Chemscore.Metal>
0.0000

> <Gold.Chemscore.Hbonds>
donor molecule, donor type, donor heavy atom, donor atom, acceptor molecule, acceptor atom, score
      L1  H    16    45       P1  8028  2.00
      P1  H  6931  6943       L1     8  0.23

> <Gold.PLP.Chemscore.Internal.Correction>
0.0359

> <Gold.Rescore>
     Score         DG    S(hbond)    S(metal)    S(lipo)     H(rot)  DE(clash)    DE(int)     intcor
     16.76     -17.82       1.03        0.00     126.38       2.30       0.01       1.05       ----

> <Gold.Chemscore.Fitness>
16.7637

> <Gold.Chemscore.DG>
-17.8228

> <Gold.Chemscore.ZeroCoef>
-5.4800

> <Gold.Chemscore.Hbond>
1.0299

> <Gold.Chemscore.Metal>
0.0000

> <Gold.Chemscore.Lipo>
126.3831

> <Gold.Chemscore.Internal_Hbond>
0.0000

> <Gold.Chemscore.DEClash>
0.0067

> <Gold.Chemscore.DEInternal>
1.0525

> <Gold.Chemscore.Rot>
2.2984

> <Gold.Chemscore.Internal.Correction>
   9.000000E+99

> <Gold.Chemscore.Hbonds>
donor molecule, donor type, donor heavy atom, donor atom, acceptor molecule, acceptor atom, score
      L1  H    16    45       P1  8028  1.00
      P1  H  6931  6943       L1     8  0.02

> <Gold.Chemscore.Hbond.Weighted>
-3.4399

> <Gold.Chemscore.Metal.Weighted>
-0.0000

> <Gold.Chemscore.Lipo.Weighted>
-14.7868

> <Gold.Chemscore.Internal_Hbond.Weighted>
0.0000

> <Gold.Chemscore.DEClash.Weighted>
0.0067

> <Gold.Chemscore.DEInternal.Weighted>
1.0525

> <Gold.Chemscore.Rot.Weighted>
5.8839

> <Gold.Chemscore.Internal.Correction.Weighted>
   9.000000E+99

> <Gold.Protein.RotatedTorsions>
[ 6907 6896 6895 6894 ] final -104.44 input  -60.11 | X-H torsion
[ 7974 7965 7964 7962 ] final   92.14 input  175.53 | X-H torsion
[ 8008 7997 7996 7995 ] final -159.84 input   59.86 | X-H torsion
[ 10167 10162 10161 10158 ] final -141.01 input  -65.29 | X-H torsion
[ 10718 10713 10712 10709 ] final  152.52 input   66.30 | X-H torsion
[ 10763 10752 10751 10750 ] final  122.64 input  -60.55 | X-H torsion
[ 11005 11000 10999 10996 ] final   29.47 input  -57.11 | X-H torsion

> <Gold.Protein.ActiveResidues>
 VAL166  LYS551  ARG553  GLY616  TRP617  ASP618  TYR619  PRO620  LYS621  CYS622 
 ASP623  PHE694  ASN695  SER759  ASP760  ASP761  ALA762  ILE779  LEU786  VAL792 
 PHE793  MET794  SER795  GLU796  ALA797  LYS798  CYS799  TRP800  GLU811  SER814 

> <Gold.Protein.RotatedAtoms>
  150.7287  134.0278  159.3722 H   0  0  0  0  0  0  0  0  0  0  0  0  # atno 6907 bound_to 6896
  151.8246  135.0639  160.0438 H   0  0  0  0  0  0  0  0  0  0  0  0  # atno 6908 bound_to 6896
  152.2979  133.5589  159.5635 H   0  0  0  0  0  0  0  0  0  0  0  0  # atno 6909 bound_to 6896
  145.4962  139.2276  143.2802 H   0  0  0  0  0  0  0  0  0  0  0  0  # atno 7974 bound_to 7965
  155.7686  140.0849  157.2119 H   0  0  0  0  0  0  0  0  0  0  0  0  # atno 8008 bound_to 7997
  154.3998  140.1529  156.2972 H   0  0  0  0  0  0  0  0  0  0  0  0  # atno 8009 bound_to 7997
  155.8769  140.3422  155.5863 H   0  0  0  0  0  0  0  0  0  0  0  0  # atno 8010 bound_to 7997
  139.8226  143.7553  152.2666 H   0  0  0  0  0  0  0  0  0  0  0  0  # atno 10167 bound_to 10162
  157.2567  131.0790  151.1693 H   0  0  0  0  0  0  0  0  0  0  0  0  # atno 10718 bound_to 10713
  153.6329  135.3393  155.3047 H   0  0  0  0  0  0  0  0  0  0  0  0  # atno 10763 bound_to 10752
  154.8576  135.4300  154.2086 H   0  0  0  0  0  0  0  0  0  0  0  0  # atno 10764 bound_to 10752
  153.2986  135.7023  153.7298 H   0  0  0  0  0  0  0  0  0  0  0  0  # atno 10765 bound_to 10752
  140.3046  134.2718  155.7746 H   0  0  0  0  0  0  0  0  0  0  0  0  # atno 11005 bound_to 11000
  146.2254  140.5760  142.8999 LP  0  0  0  0  0  0  0  0  0  0  0  0  # atno 17320 bound_to 7965
  144.7806  140.5831  143.6608 LP  0  0  0  0  0  0  0  0  0  0  0  0  # atno 17321 bound_to 7965
  139.7736  144.7468  151.0189 LP  0  0  0  0  0  0  0  0  0  0  0  0  # atno 17342 bound_to 10162
  140.7812  143.4618  151.0267 LP  0  0  0  0  0  0  0  0  0  0  0  0  # atno 17343 bound_to 10162
  157.3219  130.6941  149.6274 LP  0  0  0  0  0  0  0  0  0  0  0  0  # atno 17370 bound_to 10713
  155.9665  130.4333  150.4999 LP  0  0  0  0  0  0  0  0  0  0  0  0  # atno 17371 bound_to 10713
  141.2121  133.7668  156.9818 LP  0  0  0  0  0  0  0  0  0  0  0  0  # atno 17394 bound_to 11000
  140.1078  134.9495  157.2021 LP  0  0  0  0  0  0  0  0  0  0  0  0  # atno 17395 bound_to 11000

$$$$
