AV-unprocessed.smi:1723|AV-procd|sdf|6948|dock8
  -GOLD-   22720 8163D 1   1.00000     0.00000
 Structure written by MMmdl.
 37 37  0  0  0  0  0  0  0  0  2 V2000
  146.7398  141.5935  154.9947 C   0  0  0  0  0  0  0  0  0  0  0  0
  147.7345  141.4768  153.8349 C   0  0  0  0  0  0  0  0  0  0  0  0
  148.2149  140.0355  153.6143 C   0  0  0  0  0  0  0  0  0  0  0  0
  149.1224  139.5350  154.7439 C   0  0  0  0  0  0  0  0  0  0  0  0
  150.4615  139.5222  154.2723 O   0  0  0  0  0  0  0  0  0  0  0  0
  151.4404  139.2088  155.2560 C   0  0  1  0  0  0  0  0  0  0  0  0
  152.8105  138.9162  154.6114 C   0  0  0  0  0  0  0  0  0  0  0  0
  151.5127  140.3978  156.2219 C   0  0  0  0  0  0  0  0  0  0  0  0
  150.8690  141.4193  155.9802 O   0  0  0  0  0  0  0  0  0  0  0  0
  152.3149  140.2201  157.2904 N   0  0  0  0  0  0  0  0  0  0  0  0
  152.5937  141.0934  158.3557 C   0  0  0  0  0  0  0  0  0  0  0  0
  151.9002  142.2334  158.6289 C   0  0  0  0  0  0  0  0  0  0  0  0
  152.2315  143.0974  159.7550 C   0  0  0  0  0  0  0  0  0  0  0  0
  151.5518  144.4281  160.0249 C   0  0  0  0  0  0  0  0  0  0  0  0
  150.2365  144.2725  160.1759 F   0  0  0  0  0  0  0  0  0  0  0  0
  152.0374  144.9981  161.1279 F   0  0  0  0  0  0  0  0  0  0  0  0
  151.7571  145.2582  159.0034 F   0  0  0  0  0  0  0  0  0  0  0  0
  153.3074  142.6236  160.4802 C   0  0  0  0  0  0  0  0  0  0  0  0
  154.0252  141.4936  160.2975 N   0  5  0  0  0  0  0  0  0  0  0  0
  153.7083  140.6944  159.2399 C   0  0  0  0  0  0  0  0  0  0  0  0
  154.3273  139.6548  159.0099 O   0  0  0  0  0  0  0  0  0  0  0  0
  146.4169  142.6261  155.1272 H   0  0  0  0  0  0  0  0  0  0  0  0
  147.1870  141.2619  155.9322 H   0  0  0  0  0  0  0  0  0  0  0  0
  145.8517  140.9877  154.8139 H   0  0  0  0  0  0  0  0  0  0  0  0
  147.2677  141.8514  152.9233 H   0  0  0  0  0  0  0  0  0  0  0  0
  148.5912  142.1223  154.0303 H   0  0  0  0  0  0  0  0  0  0  0  0
  147.3530  139.3733  153.5258 H   0  0  0  0  0  0  0  0  0  0  0  0
  148.7516  139.9715  152.6671 H   0  0  0  0  0  0  0  0  0  0  0  0
  149.0362  140.1925  155.6102 H   0  0  0  0  0  0  0  0  0  0  0  0
  148.8113  138.5369  155.0523 H   0  0  0  0  0  0  0  0  0  0  0  0
  151.1218  138.3322  155.8239 H   0  0  0  0  0  0  0  0  0  0  0  0
  153.5918  138.8317  155.3677 H   0  0  0  0  0  0  0  0  0  0  0  0
  153.1019  139.7057  153.9178 H   0  0  0  0  0  0  0  0  0  0  0  0
  152.8014  137.9767  154.0599 H   0  0  0  0  0  0  0  0  0  0  0  0
  152.8293  139.3518  157.3211 H   0  0  0  0  0  0  0  0  0  0  0  0
  151.0591  142.5280  158.0236 H   0  0  0  0  0  0  0  0  0  0  0  0
  153.6471  143.2508  161.3318 H   0  0  0  0  0  0  0  0  0  0  0  0
  1  2  1  0  0  0  0
  1 22  1  0  0  0  0
  1 23  1  0  0  0  0
  1 24  1  0  0  0  0
  2  3  1  0  0  0  0
  2 25  1  0  0  0  0
  2 26  1  0  0  0  0
  3  4  1  0  0  0  0
  3 27  1  0  0  0  0
  3 28  1  0  0  0  0
  4  5  1  0  0  0  0
  4 29  1  0  0  0  0
  4 30  1  0  0  0  0
  5  6  1  0  0  0  0
  6  7  1  0  0  0  0
  6  8  1  0  0  0  0
  6 31  1  0  0  0  0
  7 32  1  0  0  0  0
  7 33  1  0  0  0  0
  7 34  1  0  0  0  0
  8  9  2  0  0  0  0
  8 10  1  0  0  0  0
 10 11  1  0  0  0  0
 10 35  1  0  0  0  0
 11 20  1  0  0  0  0
 11 12  2  0  0  0  0
 12 13  1  0  0  0  0
 12 36  1  0  0  0  0
 13 14  1  0  0  0  0
 13 18  2  0  0  0  0
 14 15  1  0  0  0  0
 14 16  1  0  0  0  0
 14 17  1  0  0  0  0
 18 19  1  0  0  0  0
 18 37  1  0  0  0  0
 19 20  1  0  0  0  0
 20 21  2  0  0  0  0
M  CHG  1  19  -1
M  END
> <s_m_source_file>
AV-unprocessed.smi

> <i_m_source_file_index>
1723

> <i_lp_mmshare_version>
43012

> <i_f3d_flags>
0

> <s_epik_input>
W0NIM11bQ0gyXVtDSDJdW0NIMl1PW0NASF0oW0NIM10pQyg9TylbTkhdYzFbY0hdYyhDKEYpKEYpRilbY0hdW25IXWMxPU8=

> <s_epik_cmdline>
J2VwaWtfcHl0aG9uJywgJy1waCcsICc3LjAnLCAnLXRuJywgJzgnLCAnLW1hJywgJzIwMCcsICctbWV0YWxfYmluZGluZycsICctaW1hZScsICc8aW5maWxlLm1hZT4nLCAnLW9tYWUnLCAnPG91dGZpbGUubWFlPic=

> <r_lp_tautomer_probability>
0.999

> <r_epik_Ionization_Penalty>
2.64397

> <r_epik_Ionization_Penalty_Charging>
0.0618254

> <r_epik_Ionization_Penalty_Neutral>
2.58215

> <r_epik_State_Penalty>
2.58023

> <r_epik_Charging_Adjusted_Penalty>
2.64205

> <i_epik_Tot_Q>
-1

> <i_epik_Tot_abs_Q>
1

> <r_epik_Metal_State_Penalty>
0.429101

> <b_epik_Metal_Only>
1

> <s_lp_Force_Field>
OPLS_2005

> <r_lp_Energy>
21.9007

> <b_lp_Chiralities_Consistent>
1

> <s_lp_Variant>
AV-unprocessed.smi:1723-4

> <Gold.Version>
5.8.1

> <Gold.Id.Protein>
6NUR|6NUR_protein|mol2

> <Gold.PLP.Fitness>
48.5758

> <Gold.PLP.PLP>
-44.9724

> <Gold.PLP.part.hbond>
-2.0807

> <Gold.PLP.part.metal>
0.0000

> <Gold.PLP.part.buried>
-3.1390

> <Gold.PLP.part.nonpolar>
-39.2424

> <Gold.PLP.part.repulsive>
0.3265

> <Gold.PLP.ligand.clash>
0.0000

> <Gold.PLP.ligand.torsion>
0.5645

> <Gold.PLP.Chemscore.Hbond>
1.5417

> <Gold.PLP.Chemscore.CHOScore>
0.0000

> <Gold.PLP.Chemscore.Metal>
0.0000

> <Gold.Chemscore.Hbonds>
donor molecule, donor type, donor heavy atom, donor atom, acceptor molecule, acceptor atom, score
      P1  H  7989  7998       L1     5  0.55
      P1  H  7997  8008       L1    21  1.00

> <Gold.PLP.Chemscore.Internal.Correction>
0.1074

> <Gold.Rescore>
     Score         DG    S(hbond)    S(metal)    S(lipo)     H(rot)  DE(clash)    DE(int)     intcor
     10.46     -13.66       0.85        0.00      88.22       1.95       0.32       2.89       ----

> <Gold.Chemscore.Fitness>
10.4574

> <Gold.Chemscore.DG>
-13.6624

> <Gold.Chemscore.ZeroCoef>
-5.4800

> <Gold.Chemscore.Hbond>
0.8545

> <Gold.Chemscore.Metal>
0.0000

> <Gold.Chemscore.Lipo>
88.2230

> <Gold.Chemscore.Internal_Hbond>
0.0000

> <Gold.Chemscore.DEClash>
0.3187

> <Gold.Chemscore.DEInternal>
2.8863

> <Gold.Chemscore.Rot>
1.9507

> <Gold.Chemscore.Internal.Correction>
   9.000000E+99

> <Gold.Chemscore.Hbonds>
donor molecule, donor type, donor heavy atom, donor atom, acceptor molecule, acceptor atom, score
      P1  H  7989  7998       L1     5  0.03
      P1  H  7997  8008       L1    21  0.35

> <Gold.Chemscore.Hbond.Weighted>
-2.8542

> <Gold.Chemscore.Metal.Weighted>
-0.0000

> <Gold.Chemscore.Lipo.Weighted>
-10.3221

> <Gold.Chemscore.Internal_Hbond.Weighted>
0.0000

> <Gold.Chemscore.DEClash.Weighted>
0.3187

> <Gold.Chemscore.DEInternal.Weighted>
2.8863

> <Gold.Chemscore.Rot.Weighted>
4.9939

> <Gold.Chemscore.Internal.Correction.Weighted>
   9.000000E+99

> <Gold.Protein.RotatedTorsions>
[ 6907 6896 6895 6894 ] final  -53.90 input  -60.11 | X-H torsion
[ 7974 7965 7964 7962 ] final   34.23 input  175.53 | X-H torsion
[ 8008 7997 7996 7995 ] final -118.82 input   59.86 | X-H torsion
[ 10167 10162 10161 10158 ] final  148.06 input  -65.29 | X-H torsion
[ 10718 10713 10712 10709 ] final  140.07 input   66.30 | X-H torsion
[ 10763 10752 10751 10750 ] final   68.55 input  -60.55 | X-H torsion
[ 11005 11000 10999 10996 ] final  -52.45 input  -57.11 | X-H torsion

> <Gold.Protein.ActiveResidues>
 VAL166  LYS551  ARG553  GLY616  TRP617  ASP618  TYR619  PRO620  LYS621  CYS622 
 ASP623  PHE694  ASN695  SER759  ASP760  ASP761  ALA762  ILE779  LEU786  VAL792 
 PHE793  MET794  SER795  GLU796  ALA797  LYS798  CYS799  TRP800  GLU811  SER814 

> <Gold.Protein.RotatedAtoms>
  150.8385  134.7668  159.6912 H   0  0  0  0  0  0  0  0  0  0  0  0  # atno 6907 bound_to 6896
  152.4477  134.5456  159.9861 H   0  0  0  0  0  0  0  0  0  0  0  0  # atno 6908 bound_to 6896
  151.5601  133.3367  159.3005 H   0  0  0  0  0  0  0  0  0  0  0  0  # atno 6909 bound_to 6896
  146.1367  139.6295  142.9190 H   0  0  0  0  0  0  0  0  0  0  0  0  # atno 7974 bound_to 7965
  155.1058  140.0396  157.2710 H   0  0  0  0  0  0  0  0  0  0  0  0  # atno 8008 bound_to 7997
  154.6723  140.2615  155.6969 H   0  0  0  0  0  0  0  0  0  0  0  0  # atno 8009 bound_to 7997
  156.2663  140.2795  156.1237 H   0  0  0  0  0  0  0  0  0  0  0  0  # atno 8010 bound_to 7997
  139.4880  144.5708  151.7058 H   0  0  0  0  0  0  0  0  0  0  0  0  # atno 10167 bound_to 10162
  157.4074  131.1024  151.0489 H   0  0  0  0  0  0  0  0  0  0  0  0  # atno 10718 bound_to 10713
  153.0241  135.5243  154.7152 H   0  0  0  0  0  0  0  0  0  0  0  0  # atno 10763 bound_to 10752
  154.6223  135.2890  155.0314 H   0  0  0  0  0  0  0  0  0  0  0  0  # atno 10764 bound_to 10752
  154.1296  135.6595  153.4972 H   0  0  0  0  0  0  0  0  0  0  0  0  # atno 10765 bound_to 10752
  141.0925  133.6630  156.4025 H   0  0  0  0  0  0  0  0  0  0  0  0  # atno 11005 bound_to 11000
  145.5140  141.0434  143.2472 LP  0  0  0  0  0  0  0  0  0  0  0  0  # atno 17320 bound_to 7965
  144.7747  139.6656  143.7180 LP  0  0  0  0  0  0  0  0  0  0  0  0  # atno 17321 bound_to 7965
  140.5295  144.0753  150.6049 LP  0  0  0  0  0  0  0  0  0  0  0  0  # atno 17342 bound_to 10162
  140.3738  143.2840  152.0248 LP  0  0  0  0  0  0  0  0  0  0  0  0  # atno 17343 bound_to 10162
  157.1466  130.6166  149.5570 LP  0  0  0  0  0  0  0  0  0  0  0  0  # atno 17370 bound_to 10713
  155.9840  130.4863  150.6963 LP  0  0  0  0  0  0  0  0  0  0  0  0  # atno 17371 bound_to 10713
  140.5219  134.6296  157.5321 LP  0  0  0  0  0  0  0  0  0  0  0  0  # atno 17394 bound_to 11000
  139.9753  134.7225  155.9961 LP  0  0  0  0  0  0  0  0  0  0  0  0  # atno 17395 bound_to 11000

$$$$
