AV-unprocessed.smi:234|AV-procd|sdf|1799|dock4
  -GOLD-   2262020363D 1   1.00000     0.00000
 Structure written by MMmdl.
 59 62  0  0  0  0  0  0  0  0  1 V2000
  145.9797  133.5455  161.8816 C   0  0  0  0  0  0  0  0  0  0  0  0
  146.7327  134.8005  162.3432 C   0  0  0  0  0  0  0  0  0  0  0  0
  146.7968  135.7864  161.3217 O   0  0  0  0  0  0  0  0  0  0  0  0
  147.7516  135.5298  160.2999 C   0  0  2  0  0  0  0  0  0  0  0  0
  148.7132  136.7026  160.1236 C   0  0  0  0  0  0  0  0  0  0  0  0
  148.6779  136.3697  158.6259 C   0  0  2  0  0  0  0  0  0  0  0  0
  148.7172  137.5425  157.7473 N   0  0  0  0  0  0  0  0  0  0  0  0
  148.4706  137.3453  156.3237 C   0  0  0  0  0  0  0  0  0  0  0  0
  149.6844  138.4675  157.9609 C   0  0  0  0  0  0  0  0  0  0  0  0
  150.6926  138.1190  158.8001 N   0  0  0  0  0  0  0  0  0  0  0  0
  151.6770  138.9826  159.0638 C   0  0  0  0  0  0  0  0  0  0  0  0
  151.8412  140.2252  158.6072 N   0  0  0  0  0  0  0  0  0  0  0  0
  150.8257  140.5860  157.7709 C   0  0  0  0  0  0  0  0  0  0  0  0
  149.7117  139.7792  157.4021 C   0  0  0  0  0  0  0  0  0  0  0  0
  148.8718  140.4995  156.5611 N   0  0  0  0  0  0  0  0  0  0  0  0
  149.4634  141.6543  156.4266 C   0  0  0  0  0  0  0  0  0  0  0  0
  150.6520  141.7902  157.1081 N   0  0  0  0  0  0  0  0  0  0  0  0
  151.5252  142.9574  157.1478 C   0  0  0  0  0  0  0  0  0  0  0  0
  151.3279  143.8594  158.3962 C   0  0  2  0  0  0  0  0  0  0  0  0
  149.9619  144.2342  158.4608 O   0  0  0  0  0  0  0  0  0  0  0  0
  152.1697  145.1237  158.3668 C   0  0  0  0  0  0  0  0  0  0  0  0
  152.2062  145.5544  159.8323 C   0  0  0  0  0  0  0  0  0  0  0  0
  151.9231  144.3884  160.6037 O   0  0  0  0  0  0  0  0  0  0  0  0
  151.7065  143.2553  159.7645 C   0  0  2  0  0  0  0  0  0  0  0  0
  153.0257  142.4609  159.8054 C   0  0  0  0  0  0  0  0  0  0  0  0
  147.2621  135.7608  158.8450 C   0  0  0  0  0  0  0  0  0  0  0  0
  146.9484  134.4900  158.0517 C   0  0  0  0  0  0  0  0  0  0  0  0
  146.0563  136.7050  158.6906 C   0  0  0  0  0  0  0  0  0  0  0  0
  146.0324  132.7654  162.6413 H   0  0  0  0  0  0  0  0  0  0  0  0
  146.4122  133.1458  160.9642 H   0  0  0  0  0  0  0  0  0  0  0  0
  144.9251  133.7480  161.6968 H   0  0  0  0  0  0  0  0  0  0  0  0
  146.2954  135.2050  163.2555 H   0  0  0  0  0  0  0  0  0  0  0  0
  147.7572  134.5230  162.5913 H   0  0  0  0  0  0  0  0  0  0  0  0
  148.2990  134.5939  160.4278 H   0  0  0  0  0  0  0  0  0  0  0  0
  148.2700  137.6677  160.3754 H   0  0  0  0  0  0  0  0  0  0  0  0
  149.6822  136.5665  160.6041 H   0  0  0  0  0  0  0  0  0  0  0  0
  149.4090  135.6022  158.3646 H   0  0  0  0  0  0  0  0  0  0  0  0
  149.4077  137.2436  155.7744 H   0  0  0  0  0  0  0  0  0  0  0  0
  147.9217  138.1932  155.9128 H   0  0  0  0  0  0  0  0  0  0  0  0
  147.8806  136.4492  156.1405 H   0  0  0  0  0  0  0  0  0  0  0  0
  152.4422  138.6273  159.7381 H   0  0  0  0  0  0  0  0  0  0  0  0
  149.0313  142.4396  155.8270 H   0  0  0  0  0  0  0  0  0  0  0  0
  152.5593  142.6243  157.0591 H   0  0  0  0  0  0  0  0  0  0  0  0
  151.3299  143.5429  156.2483 H   0  0  0  0  0  0  0  0  0  0  0  0
  149.6276  144.2967  157.5792 H   0  0  0  0  0  0  0  0  0  0  0  0
  153.1809  144.8925  158.0295 H   0  0  0  0  0  0  0  0  0  0  0  0
  151.7727  145.8957  157.7062 H   0  0  0  0  0  0  0  0  0  0  0  0
  153.1708  145.9823  160.1066 H   0  0  0  0  0  0  0  0  0  0  0  0
  151.4370  146.3001  160.0349 H   0  0  0  0  0  0  0  0  0  0  0  0
  150.9051  142.6334  160.1659 H   0  0  0  0  0  0  0  0  0  0  0  0
  152.9778  141.5494  159.2158 H   0  0  0  0  0  0  0  0  0  0  0  0
  153.2607  142.1665  160.8284 H   0  0  0  0  0  0  0  0  0  0  0  0
  153.8653  143.0496  159.4360 H   0  0  0  0  0  0  0  0  0  0  0  0
  146.7522  134.7035  157.0013 H   0  0  0  0  0  0  0  0  0  0  0  0
  146.0703  133.9772  158.4433 H   0  0  0  0  0  0  0  0  0  0  0  0
  147.7765  133.7816  158.0874 H   0  0  0  0  0  0  0  0  0  0  0  0
  145.8693  136.9530  157.6457 H   0  0  0  0  0  0  0  0  0  0  0  0
  146.2000  137.6458  159.2223 H   0  0  0  0  0  0  0  0  0  0  0  0
  145.1439  136.2546  159.0818 H   0  0  0  0  0  0  0  0  0  0  0  0
  1  2  1  0  0  0  0
  1 29  1  0  0  0  0
  1 30  1  0  0  0  0
  1 31  1  0  0  0  0
  2  3  1  0  0  0  0
  2 32  1  0  0  0  0
  2 33  1  0  0  0  0
  3  4  1  0  0  0  0
  4 26  1  0  0  0  0
  4  5  1  0  0  0  0
  4 34  1  0  0  0  0
  5  6  1  0  0  0  0
  5 35  1  0  0  0  0
  5 36  1  0  0  0  0
  6  7  1  0  0  0  0
  6 26  1  0  0  0  0
  6 37  1  0  0  0  0
  7  8  1  0  0  0  0
  7  9  1  0  0  0  0
  8 38  1  0  0  0  0
  8 39  1  0  0  0  0
  8 40  1  0  0  0  0
  9 14  1  0  0  0  0
  9 10  2  0  0  0  0
 10 11  1  0  0  0  0
 11 12  2  0  0  0  0
 11 41  1  0  0  0  0
 12 13  1  0  0  0  0
 13 17  1  0  0  0  0
 13 14  2  0  0  0  0
 14 15  1  0  0  0  0
 15 16  2  0  0  0  0
 16 17  1  0  0  0  0
 16 42  1  0  0  0  0
 17 18  1  0  0  0  0
 18 19  1  0  0  0  0
 18 43  1  0  0  0  0
 18 44  1  0  0  0  0
 19 24  1  0  0  0  0
 19 20  1  0  0  0  0
 19 21  1  0  0  0  0
 20 45  1  0  0  0  0
 21 22  1  0  0  0  0
 21 46  1  0  0  0  0
 21 47  1  0  0  0  0
 22 23  1  0  0  0  0
 22 48  1  0  0  0  0
 22 49  1  0  0  0  0
 23 24  1  0  0  0  0
 24 25  1  0  0  0  0
 24 50  1  0  0  0  0
 25 51  1  0  0  0  0
 25 52  1  0  0  0  0
 25 53  1  0  0  0  0
 26 27  1  0  0  0  0
 26 28  1  0  0  0  0
 27 54  1  0  0  0  0
 27 55  1  0  0  0  0
 27 56  1  0  0  0  0
 28 57  1  0  0  0  0
 28 58  1  0  0  0  0
 28 59  1  0  0  0  0
M  END
> <s_m_source_file>
AV-unprocessed.smi

> <i_m_source_file_index>
234

> <i_lp_mmshare_version>
43012

> <i_f3d_flags>
0

> <s_epik_input>
W0NIM11bQ0gyXU9bQ0BASF0oQzEoW0NIM10pW0NIM10pW0NIMl1bQ0BIXTFOKFtDSDNdKWMobltjSF1uMiljKGMyMyluW2NIXW4zW0NIMl1bQ0BAXTQoW09IXSlbQ0gyXVtDSDJdT1tDQEhdNFtDSDNd

> <s_epik_cmdline>
J2VwaWtfcHl0aG9uJywgJy1waCcsICc3LjAnLCAnLXRuJywgJzgnLCAnLW1hJywgJzIwMCcsICctbWV0YWxfYmluZGluZycsICctaW1hZScsICc8aW5maWxlLm1hZT4nLCAnLW9tYWUnLCAnPG91dGZpbGUubWFlPic=

> <r_lp_tautomer_probability>
1

> <r_epik_Ionization_Penalty>
0.00349132

> <r_epik_Ionization_Penalty_Charging>
0

> <r_epik_Ionization_Penalty_Neutral>
0.00349132

> <r_epik_State_Penalty>
0.00242418

> <r_epik_Charging_Adjusted_Penalty>
0.00242418

> <i_epik_Tot_Q>
0

> <i_epik_Tot_abs_Q>
0

> <r_epik_Metal_State_Penalty>
-0

> <b_epik_Metal_Only>
0

> <s_lp_Force_Field>
OPLS_2005

> <r_lp_Energy>
51.2497

> <b_lp_Chiralities_Consistent>
1

> <s_lp_Variant>
AV-unprocessed.smi:234-15

> <Gold.Version>
5.8.1

> <Gold.Id.Protein>
6NUR|6NUR_protein|mol2

> <Gold.PLP.Fitness>
48.2088

> <Gold.PLP.PLP>
-44.4409

> <Gold.PLP.part.hbond>
-2.0000

> <Gold.PLP.part.metal>
0.0000

> <Gold.PLP.part.buried>
-7.2868

> <Gold.PLP.part.nonpolar>
-35.4673

> <Gold.PLP.part.repulsive>
0.1302

> <Gold.PLP.ligand.clash>
0.0000

> <Gold.PLP.ligand.torsion>
1.5626

> <Gold.PLP.Chemscore.Hbond>
0.9500

> <Gold.PLP.Chemscore.CHOScore>
1.0000

> <Gold.PLP.Chemscore.Metal>
0.0000

> <Gold.Chemscore.Hbonds>
donor molecule, donor type, donor heavy atom, donor atom, acceptor molecule, acceptor atom, score
      L1  H    20    45       P1  8028  0.73
      L1  C    16    42       P1  8028  1.00

> <Gold.PLP.Chemscore.Internal.Correction>
1.0432

> <Gold.Rescore>
     Score         DG    S(hbond)    S(metal)    S(lipo)     H(rot)  DE(clash)    DE(int)     intcor
      7.45     -12.07       0.01        0.00     113.42       2.62       0.38       4.24       ----

> <Gold.Chemscore.Fitness>
7.4521

> <Gold.Chemscore.DG>
-12.0683

> <Gold.Chemscore.ZeroCoef>
-5.4800

> <Gold.Chemscore.Hbond>
0.0090

> <Gold.Chemscore.Metal>
0.0000

> <Gold.Chemscore.Lipo>
113.4224

> <Gold.Chemscore.Internal_Hbond>
0.0000

> <Gold.Chemscore.DEClash>
0.3784

> <Gold.Chemscore.DEInternal>
4.2378

> <Gold.Chemscore.Rot>
2.6219

> <Gold.Chemscore.Internal.Correction>
   9.000000E+99

> <Gold.Chemscore.Hbonds>
donor molecule, donor type, donor heavy atom, donor atom, acceptor molecule, acceptor atom, score
      L1  H    20    45       P1  8028  0.10

> <Gold.Chemscore.Hbond.Weighted>
-0.0300

> <Gold.Chemscore.Metal.Weighted>
-0.0000

> <Gold.Chemscore.Lipo.Weighted>
-13.2704

> <Gold.Chemscore.Internal_Hbond.Weighted>
0.0000

> <Gold.Chemscore.DEClash.Weighted>
0.3784

> <Gold.Chemscore.DEInternal.Weighted>
4.2378

> <Gold.Chemscore.Rot.Weighted>
6.7121

> <Gold.Chemscore.Internal.Correction.Weighted>
   9.000000E+99

> <Gold.Protein.RotatedTorsions>
[ 6907 6896 6895 6894 ] final   73.86 input  -60.11 | X-H torsion
[ 7974 7965 7964 7962 ] final   31.96 input  175.53 | X-H torsion
[ 8008 7997 7996 7995 ] final  154.90 input   59.86 | X-H torsion
[ 10167 10162 10161 10158 ] final   84.04 input  -65.29 | X-H torsion
[ 10718 10713 10712 10709 ] final -179.56 input   66.30 | X-H torsion
[ 10763 10752 10751 10750 ] final -138.78 input  -60.55 | X-H torsion
[ 11005 11000 10999 10996 ] final -120.86 input  -57.11 | X-H torsion

> <Gold.Protein.ActiveResidues>
 VAL166  LYS551  ARG553  GLY616  TRP617  ASP618  TYR619  PRO620  LYS621  CYS622 
 ASP623  PHE694  ASN695  SER759  ASP760  ASP761  ALA762  ILE779  LEU786  VAL792 
 PHE793  MET794  SER795  GLU796  ALA797  LYS798  CYS799  TRP800  GLU811  SER814 

> <Gold.Protein.RotatedAtoms>
  152.4945  134.4359  159.9527 H   0  0  0  0  0  0  0  0  0  0  0  0  # atno 6907 bound_to 6896
  151.4340  133.3656  159.2780 H   0  0  0  0  0  0  0  0  0  0  0  0  # atno 6908 bound_to 6896
  150.9134  134.8575  159.7501 H   0  0  0  0  0  0  0  0  0  0  0  0  # atno 6909 bound_to 6896
  146.1517  139.6588  142.9094 H   0  0  0  0  0  0  0  0  0  0  0  0  # atno 7974 bound_to 7965
  156.2507  140.1954  156.6718 H   0  0  0  0  0  0  0  0  0  0  0  0  # atno 8008 bound_to 7997
  154.6387  140.0586  156.9845 H   0  0  0  0  0  0  0  0  0  0  0  0  # atno 8009 bound_to 7997
  155.1597  140.3258  155.4416 H   0  0  0  0  0  0  0  0  0  0  0  0  # atno 8010 bound_to 7997
  139.9121  144.6265  150.8527 H   0  0  0  0  0  0  0  0  0  0  0  0  # atno 10167 bound_to 10162
  156.8609  130.9751  151.3083 H   0  0  0  0  0  0  0  0  0  0  0  0  # atno 10718 bound_to 10713
  154.8627  135.3602  154.5440 H   0  0  0  0  0  0  0  0  0  0  0  0  # atno 10763 bound_to 10752
  153.6061  135.7011  153.5370 H   0  0  0  0  0  0  0  0  0  0  0  0  # atno 10764 bound_to 10752
  153.3249  135.4141  155.1408 H   0  0  0  0  0  0  0  0  0  0  0  0  # atno 10765 bound_to 10752
  141.0113  134.0260  157.3410 H   0  0  0  0  0  0  0  0  0  0  0  0  # atno 11005 bound_to 11000
  145.4807  141.0438  143.2647 LP  0  0  0  0  0  0  0  0  0  0  0  0  # atno 17320 bound_to 7965
  144.7912  139.6324  143.7112 LP  0  0  0  0  0  0  0  0  0  0  0  0  # atno 17321 bound_to 7965
  140.7683  143.3358  151.2312 LP  0  0  0  0  0  0  0  0  0  0  0  0  # atno 17342 bound_to 10162
  139.6934  143.9654  152.2870 LP  0  0  0  0  0  0  0  0  0  0  0  0  # atno 17343 bound_to 10162
  157.6250  130.8685  149.9174 LP  0  0  0  0  0  0  0  0  0  0  0  0  # atno 17370 bound_to 10713
  156.0777  130.3677  150.0644 LP  0  0  0  0  0  0  0  0  0  0  0  0  # atno 17371 bound_to 10713
  139.9091  135.0186  156.7616 LP  0  0  0  0  0  0  0  0  0  0  0  0  # atno 17394 bound_to 11000
  140.6729  133.9543  155.7866 LP  0  0  0  0  0  0  0  0  0  0  0  0  # atno 17395 bound_to 11000

$$$$
