#       Name:                AV-unprocessed.smi:2798
#       Creating user name   scv26
#       Creation time:       Fri Mar 27 15:22:12 2020


#       File generated by GOLD software.
#

@<TRIPOS>MOLECULE
AV-unprocessed.smi:2798
    33    35     1
SMALL
NO_CHARGES


@<TRIPOS>ATOM
      1 ****        -6.6127  -1.0654   0.8188 N.1            1 S1                 0.0000
      2 ****        -5.4594  -0.9747   0.7886 C.1            1 S1                 0.0000
      3 ****        -4.0114  -0.8598   0.7508 C.ar           1 S1                 0.0000
      4 ****        -3.4100   0.4073   0.9003 C.ar           1 S1                 0.0000
      5 ****        -2.0055   0.4986   0.8598 C.ar           1 S1                 0.0000
      6 ****        -1.2461  -0.6793   0.6694 C.ar           1 S1                 0.0000
      7 ****         0.1555  -0.6965   0.6106 N.pl3          1 S1                 0.0000
      8 ****         0.9338   0.5355   0.5457 C.3            1 S1                 0.0000
      9 ****         0.7945   1.2986  -0.7766 C.3            1 S1                 0.0000
     10 ****         2.2614   1.4779  -1.1923 C.3            1 S1                 0.0000
     11 ****         2.8534   0.1713  -1.7344 C.3            1 S1                 0.0000
     12 ****         2.9910  -0.6579  -0.4594 C.3            1 S1                 0.0000
     13 ****         2.4551   0.3090   0.6117 C.3            1 S1                 0.0000
     14 ****         2.8986   1.5434   0.0731 O.3            1 S1                 0.0000
     15 ****        -1.9489  -1.8952   0.5343 C.ar           1 S1                 0.0000
     16 ****        -3.2950  -1.9906   0.5714 N.ar           1 S1                 0.0000
     17 ****        -4.0083   1.2957   1.0439 H              1 S1                 0.0000
     18 ****        -1.5378   1.4645   0.9755 H              1 S1                 0.0000
     19 ****         0.6318  -1.5719   0.4453 H              1 S1                 0.0000
     20 ****         0.6514   1.1840   1.3758 H              1 S1                 0.0000
     21 ****         0.2206   0.7643  -1.5353 H              1 S1                 0.0000
     22 ****         0.3154   2.2635  -0.6075 H              1 S1                 0.0000
     23 ****         2.4385   2.3424  -1.8326 H              1 S1                 0.0000
     24 ****         2.2116  -0.2994  -2.4798 H              1 S1                 0.0000
     25 ****         3.8311   0.3453  -2.1852 H              1 S1                 0.0000
     26 ****         2.4413  -1.5983  -0.5030 H              1 S1                 0.0000
     27 ****         4.0399  -0.8914  -0.2732 H              1 S1                 0.0000
     28 ****         2.8262   0.1032   1.6162 H              1 S1                 0.0000
     29 ****        -1.4155  -2.8233   0.3881 H              1 S1                 0.0000
     30 ****        -7.6093  -1.1438   0.8449 LP             1 S1                 0.0000
     31 ****         2.5809   2.3232   0.6125 LP             1 S1                 0.0000
     32 ****         3.8944   1.5794  -0.0104 LP             1 S1                 0.0000
     33 ****        -3.7498  -2.8753   0.4687 LP             1 S1                 0.0000
@<TRIPOS>BOND
    1    1    2 3     
    2    2    3 1     
    3    3   16 ar    
    4    3    4 ar    
    5    4    5 ar    
    6    4   17 1     
    7    5    6 ar    
    8    5   18 1     
    9    6    7 1     
   10    6   15 ar    
   11    7    8 1     
   12    7   19 1     
   13    8   13 1     
   14    8    9 1     
   15    8   20 1     
   16    9   10 1     
   17    9   21 1     
   18    9   22 1     
   19   10   14 1     
   20   10   11 1     
   21   10   23 1     
   22   11   12 1     
   23   11   24 1     
   24   11   25 1     
   25   12   13 1     
   26   12   26 1     
   27   12   27 1     
   28   13   14 1     
   29   13   28 1     
   30   15   16 ar    
   31   15   29 1     
   32    1   30 1     
   33   14   31 1     
   34   14   32 1     
   35   16   33 1     
@<TRIPOS>SUBSTRUCTURE
      1 S1             1
@<TRIPOS>SET
LONE_PAIRS      STATIC     ATOMS    <user>   **** ""
4 30 31 32 33
DONOR_HYDROGENS      STATIC     ATOMS    <user>   **** ""
1 19
ATOM$BLUE        STATIC     ATOMS    COLORGROUP SYSTEM
4 30 31 32 33
ATOM$RED        STATIC     ATOMS    COLORGROUP SYSTEM
1 19
