AV-unprocessed.smi:2140|AV-procd|sdf|8716|dock5
  -GOLD-   2272011483D 1   1.00000     0.00000
 Structure written by MMmdl.
 40 41  0  0  0  0  0  0  0  0  2 V2000
  148.1145  138.7297  154.1369 C   0  0  0  0  0  0  0  0  0  0  0  0
  146.6578  139.0050  153.6900 C   0  0  2  0  0  0  0  0  0  0  0  0
  146.5204  138.7822  152.1594 C   0  0  0  0  0  0  0  0  0  0  0  0
  146.6743  137.3837  151.7684 N   0  0  0  0  0  0  0  0  0  0  0  0
  145.6612  136.5235  151.5920 C   0  0  0  0  0  0  0  0  0  0  0  0
  144.4798  136.8350  151.7392 O   0  0  0  0  0  0  0  0  0  0  0  0
  146.1133  135.3019  151.2610 N   0  0  0  0  0  0  0  0  0  0  0  0
  145.3742  134.1122  151.0163 C   0  0  0  0  0  0  0  0  0  0  0  0
  145.9187  132.9250  150.4677 C   0  0  0  0  0  0  0  0  0  0  0  0
  145.0767  131.8105  150.2885 C   0  0  0  0  0  0  0  0  0  0  0  0
  143.7254  131.9188  150.6702 C   0  0  0  0  0  0  0  0  0  0  0  0
  143.1958  133.0390  151.2046 N   0  0  0  0  0  0  0  0  0  0  0  0
  144.0088  134.1035  151.3732 C   0  0  0  0  0  0  0  0  0  0  0  0
  146.1664  140.3710  154.0675 N   0  3  0  0  0  0  0  0  0  0  0  0
  145.9752  140.5221  155.5365 C   0  0  0  0  0  0  0  0  0  0  0  0
  145.3887  141.9006  155.8804 C   0  0  0  0  0  0  0  0  0  0  0  0
  146.2531  142.9157  155.3930 O   0  0  0  0  0  0  0  0  0  0  0  0
  146.3763  142.8593  153.9798 C   0  0  0  0  0  0  0  0  0  0  0  0
  146.9807  141.5088  153.5571 C   0  0  0  0  0  0  0  0  0  0  0  0
  148.4557  137.7447  153.8196 H   0  0  0  0  0  0  0  0  0  0  0  0
  148.2185  138.7387  155.2219 H   0  0  0  0  0  0  0  0  0  0  0  0
  148.8052  139.4632  153.7199 H   0  0  0  0  0  0  0  0  0  0  0  0
  146.0292  138.2808  154.2107 H   0  0  0  0  0  0  0  0  0  0  0  0
  145.5620  139.1299  151.7767 H   0  0  0  0  0  0  0  0  0  0  0  0
  147.2809  139.3610  151.6345 H   0  0  0  0  0  0  0  0  0  0  0  0
  147.6164  137.0476  151.6301 H   0  0  0  0  0  0  0  0  0  0  0  0
  147.1168  135.1942  151.2368 H   0  0  0  0  0  0  0  0  0  0  0  0
  146.9579  132.8384  150.1931 H   0  0  0  0  0  0  0  0  0  0  0  0
  145.4598  130.8909  149.8716 H   0  0  0  0  0  0  0  0  0  0  0  0
  143.0539  131.0822  150.5474 H   0  0  0  0  0  0  0  0  0  0  0  0
  143.5507  134.9811  151.8056 H   0  0  0  0  0  0  0  0  0  0  0  0
  145.3089  139.7581  155.9312 H   0  0  0  0  0  0  0  0  0  0  0  0
  146.9332  140.3949  156.0435 H   0  0  0  0  0  0  0  0  0  0  0  0
  144.3886  142.0173  155.4596 H   0  0  0  0  0  0  0  0  0  0  0  0
  145.2939  142.0088  156.9612 H   0  0  0  0  0  0  0  0  0  0  0  0
  145.4031  143.0139  153.5111 H   0  0  0  0  0  0  0  0  0  0  0  0
  147.0190  143.6762  153.6512 H   0  0  0  0  0  0  0  0  0  0  0  0
  148.0033  141.4232  153.9287 H   0  0  0  0  0  0  0  0  0  0  0  0
  147.0248  141.4996  152.4684 H   0  0  0  0  0  0  0  0  0  0  0  0
  145.2568  140.4722  153.6404 H   0  0  0  0  0  0  0  0  0  0  0  0
  1  2  1  0  0  0  0
  1 20  1  0  0  0  0
  1 21  1  0  0  0  0
  1 22  1  0  0  0  0
  2  3  1  0  0  0  0
  2 14  1  0  0  0  0
  2 23  1  0  0  0  0
  3  4  1  0  0  0  0
  3 24  1  0  0  0  0
  3 25  1  0  0  0  0
  4  5  1  0  0  0  0
  4 26  1  0  0  0  0
  5  6  2  0  0  0  0
  5  7  1  0  0  0  0
  7  8  1  0  0  0  0
  7 27  1  0  0  0  0
  8 13  1  0  0  0  0
  8  9  2  0  0  0  0
  9 10  1  0  0  0  0
  9 28  1  0  0  0  0
 10 11  2  0  0  0  0
 10 29  1  0  0  0  0
 11 12  1  0  0  0  0
 11 30  1  0  0  0  0
 12 13  2  0  0  0  0
 13 31  1  0  0  0  0
 14 19  1  0  0  0  0
 14 15  1  0  0  0  0
 14 40  1  0  0  0  0
 15 16  1  0  0  0  0
 15 32  1  0  0  0  0
 15 33  1  0  0  0  0
 16 17  1  0  0  0  0
 16 34  1  0  0  0  0
 16 35  1  0  0  0  0
 17 18  1  0  0  0  0
 18 19  1  0  0  0  0
 18 36  1  0  0  0  0
 18 37  1  0  0  0  0
 19 38  1  0  0  0  0
 19 39  1  0  0  0  0
M  CHG  1  14   1
M  END
> <s_m_source_file>
AV-unprocessed.smi

> <i_m_source_file_index>
2140

> <i_lp_mmshare_version>
43012

> <i_f3d_flags>
0

> <s_epik_input>
W0NIMl0xW0NIMl1PW0NIMl1bQ0gyXU4xW0NASF0oW0NIM10pW0NIMl1bTkhdQyg9TylbTkhdYzJbY0hdW2NIXVtjSF1uW2NIXTI=

> <s_epik_cmdline>
J2VwaWtfcHl0aG9uJywgJy1waCcsICc3LjAnLCAnLXRuJywgJzgnLCAnLW1hJywgJzIwMCcsICctbWV0YWxfYmluZGluZycsICctaW1hZScsICc8aW5maWxlLm1hZT4nLCAnLW9tYWUnLCAnPG91dGZpbGUubWFlPic=

> <r_epik_Ionization_Penalty>
0.60672

> <r_epik_Ionization_Penalty_Charging>
0.602531

> <r_epik_Ionization_Penalty_Neutral>
0.00418997

> <r_epik_State_Penalty>
0.607459

> <r_epik_Charging_Adjusted_Penalty>
1.20999

> <i_epik_Tot_Q>
1

> <i_epik_Tot_abs_Q>
1

> <r_epik_Metal_State_Penalty>
0.604586

> <b_epik_Metal_Only>
0

> <s_lp_Force_Field>
OPLS_2005

> <r_lp_Energy>
23.5262

> <b_lp_Chiralities_Consistent>
1

> <s_lp_Variant>
AV-unprocessed.smi:2140-3

> <Gold.Version>
5.8.1

> <Gold.Id.Protein>
6NUR|6NUR_protein|mol2

> <Gold.PLP.Fitness>
44.8972

> <Gold.PLP.PLP>
-32.0856

> <Gold.PLP.part.hbond>
-2.9209

> <Gold.PLP.part.metal>
0.0000

> <Gold.PLP.part.buried>
-7.7946

> <Gold.PLP.part.nonpolar>
-26.0967

> <Gold.PLP.part.repulsive>
3.5063

> <Gold.PLP.ligand.clash>
0.0000

> <Gold.PLP.ligand.torsion>
0.3490

> <Gold.PLP.Chemscore.Hbond>
3.7303

> <Gold.PLP.Chemscore.CHOScore>
0.7555

> <Gold.PLP.Chemscore.Metal>
0.0000

> <Gold.Chemscore.Hbonds>
donor molecule, donor type, donor heavy atom, donor atom, acceptor molecule, acceptor atom, score
      L1  H     4    26       P1  7948  1.00
      L1  H     7    27       P1  7948  0.61
      L1  H    14    40       P1 10175  2.00
      L1  C    11    30       P1 10952  0.96

> <Gold.PLP.Chemscore.Internal.Correction>
0.0520

> <Gold.Rescore>
     Score         DG    S(hbond)    S(metal)    S(lipo)     H(rot)  DE(clash)    DE(int)     intcor
     16.52     -19.65       2.76        0.00      75.48       1.52       1.45       1.69       ----

> <Gold.Chemscore.Fitness>
16.5176

> <Gold.Chemscore.DG>
-19.6512

> <Gold.Chemscore.ZeroCoef>
-5.4800

> <Gold.Chemscore.Hbond>
2.7622

> <Gold.Chemscore.Metal>
0.0000

> <Gold.Chemscore.Lipo>
75.4825

> <Gold.Chemscore.Internal_Hbond>
0.0000

> <Gold.Chemscore.DEClash>
1.4480

> <Gold.Chemscore.DEInternal>
1.6856

> <Gold.Chemscore.Rot>
1.5179

> <Gold.Chemscore.Internal.Correction>
   9.000000E+99

> <Gold.Chemscore.Hbonds>
donor molecule, donor type, donor heavy atom, donor atom, acceptor molecule, acceptor atom, score
      L1  H     4    26       P1  7948  0.95
      L1  H     7    27       P1  7948  0.46
      L1  H    14    40       P1 10175  0.98

> <Gold.Chemscore.Hbond.Weighted>
-9.2256

> <Gold.Chemscore.Metal.Weighted>
-0.0000

> <Gold.Chemscore.Lipo.Weighted>
-8.8314

> <Gold.Chemscore.Internal_Hbond.Weighted>
0.0000

> <Gold.Chemscore.DEClash.Weighted>
1.4480

> <Gold.Chemscore.DEInternal.Weighted>
1.6856

> <Gold.Chemscore.Rot.Weighted>
3.8859

> <Gold.Chemscore.Internal.Correction.Weighted>
   9.000000E+99

> <Gold.Protein.RotatedTorsions>
[ 6907 6896 6895 6894 ] final -141.42 input  -60.11 | X-H torsion
[ 7974 7965 7964 7962 ] final  150.59 input  175.53 | X-H torsion
[ 8008 7997 7996 7995 ] final  -65.53 input   59.86 | X-H torsion
[ 10167 10162 10161 10158 ] final -105.10 input  -65.29 | X-H torsion
[ 10718 10713 10712 10709 ] final -117.11 input   66.30 | X-H torsion
[ 10763 10752 10751 10750 ] final   75.57 input  -60.55 | X-H torsion
[ 11005 11000 10999 10996 ] final   38.04 input  -57.11 | X-H torsion

> <Gold.Protein.ActiveResidues>
 VAL166  LYS551  ARG553  GLY616  TRP617  ASP618  TYR619  PRO620  LYS621  CYS622 
 ASP623  PHE694  ASN695  SER759  ASP760  ASP761  ALA762  ILE779  LEU786  VAL792 
 PHE793  MET794  SER795  GLU796  ALA797  LYS798  CYS799  TRP800  GLU811  SER814 

> <Gold.Protein.RotatedAtoms>
  151.0735  133.5447  159.2625 H   0  0  0  0  0  0  0  0  0  0  0  0  # atno 6907 bound_to 6896
  151.2377  135.0577  159.9022 H   0  0  0  0  0  0  0  0  0  0  0  0  # atno 6908 bound_to 6896
  152.5415  134.0515  159.8165 H   0  0  0  0  0  0  0  0  0  0  0  0  # atno 6909 bound_to 6896
  144.8353  139.6428  143.6041 H   0  0  0  0  0  0  0  0  0  0  0  0  # atno 7974 bound_to 7965
  154.4677  140.0931  156.7064 H   0  0  0  0  0  0  0  0  0  0  0  0  # atno 8008 bound_to 7997
  155.4810  140.3467  155.4321 H   0  0  0  0  0  0  0  0  0  0  0  0  # atno 8009 bound_to 7997
  156.0986  140.1416  156.9487 H   0  0  0  0  0  0  0  0  0  0  0  0  # atno 8010 bound_to 7997
  140.2021  143.3810  152.1121 H   0  0  0  0  0  0  0  0  0  0  0  0  # atno 10167 bound_to 10162
  156.1011  130.6172  150.9122 H   0  0  0  0  0  0  0  0  0  0  0  0  # atno 10718 bound_to 10713
  153.0664  135.4984  154.8209 H   0  0  0  0  0  0  0  0  0  0  0  0  # atno 10763 bound_to 10752
  154.6959  135.2993  154.9414 H   0  0  0  0  0  0  0  0  0  0  0  0  # atno 10764 bound_to 10752
  154.0154  135.6749  153.4821 H   0  0  0  0  0  0  0  0  0  0  0  0  # atno 10765 bound_to 10752
  140.2166  134.3691  155.8024 H   0  0  0  0  0  0  0  0  0  0  0  0  # atno 11005 bound_to 11000
  146.2652  139.6503  142.9334 LP  0  0  0  0  0  0  0  0  0  0  0  0  # atno 17320 bound_to 7965
  145.4808  141.0438  143.2647 LP  0  0  0  0  0  0  0  0  0  0  0  0  # atno 17321 bound_to 7965
  139.5213  144.7044  151.5398 LP  0  0  0  0  0  0  0  0  0  0  0  0  # atno 17342 bound_to 10162
  140.6383  143.8940  150.6668 LP  0  0  0  0  0  0  0  0  0  0  0  0  # atno 17343 bound_to 10162
  157.6181  131.0932  150.8673 LP  0  0  0  0  0  0  0  0  0  0  0  0  # atno 17370 bound_to 10713
  156.8801  130.5176  149.5291 LP  0  0  0  0  0  0  0  0  0  0  0  0  # atno 17371 bound_to 10713
  141.2224  133.7171  156.8506 LP  0  0  0  0  0  0  0  0  0  0  0  0  # atno 17394 bound_to 11000
  140.1894  134.8976  157.3042 LP  0  0  0  0  0  0  0  0  0  0  0  0  # atno 17395 bound_to 11000

$$$$
