#       Name:                AV-unprocessed.smi:1900
#       Creating user name   scv26
#       Creation time:       Fri Mar 27 09:44:47 2020


#       File generated by GOLD software.
#

@<TRIPOS>MOLECULE
AV-unprocessed.smi:1900
    49    50     1
SMALL
NO_CHARGES


@<TRIPOS>ATOM
      1 ****        -3.1970   3.3960   2.0046 C.3            1 S1                 0.0000
      2 ****        -3.8575   2.5135   0.9305 C.3            1 S1                 0.0000
      3 ****        -3.4771   1.0236   1.0382 C.3            1 S1                 0.0000
      4 ****        -2.0882   0.7877   0.5770 N.4            1 S1                 1.0000
      5 ****        -1.6794  -0.6314   0.7262 C.3            1 S1                 0.0000
      6 ****        -0.1516  -0.8067   0.7578 C.3            1 S1                 0.0000
      7 ****         0.2578  -2.2723   0.9819 C.3            1 S1                 0.0000
      8 ****         1.7071  -2.4364   1.0020 N.am           1 S1                 0.0000
      9 ****         2.4910  -2.4637  -0.0855 C.2            1 S1                 0.0000
     10 ****         2.0659  -2.3234  -1.2325 O.2            1 S1                 0.0000
     11 ****         3.7781  -2.6628   0.2426 N.am           1 S1                 0.0000
     12 ****         4.8855  -2.7549  -0.6382 C.2            1 S1                 0.0000
     13 ****         6.2233  -3.0111  -0.2324 C.2            1 S1                 0.0000
     14 ****         7.0466  -3.0411  -1.2706 N.2            1 S1                 0.0000
     15 ****         6.2474  -2.8042  -2.3351 N.pl3          1 S1                 0.0000
     16 ****         4.9241  -2.6238  -1.9980 C.2            1 S1                 0.0000
     17 ****        -1.9080   1.3156  -0.7971 C.3            1 S1                 0.0000
     18 ****        -2.2725   2.8102  -0.8523 C.3            1 S1                 0.0000
     19 ****        -2.1862   3.3689  -2.2770 C.3            1 S1                 0.0000
     20 ****        -3.6087   2.9916  -0.3911 O.3            1 S1                 0.0000
     21 ****         6.6155  -2.7699  -3.2752 H              1 S1                 0.0000
     22 ****        -3.5124   3.0901   3.0024 H              1 S1                 0.0000
     23 ****        -3.4803   4.4411   1.8770 H              1 S1                 0.0000
     24 ****        -2.1094   3.3384   1.9782 H              1 S1                 0.0000
     25 ****        -4.9348   2.5911   1.0799 H              1 S1                 0.0000
     26 ****        -3.5957   0.6847   2.0682 H              1 S1                 0.0000
     27 ****        -4.1581   0.4264   0.4296 H              1 S1                 0.0000
     28 ****        -2.0814  -1.0199   1.6631 H              1 S1                 0.0000
     29 ****        -2.1217  -1.2308  -0.0710 H              1 S1                 0.0000
     30 ****         0.2845  -0.4538  -0.1762 H              1 S1                 0.0000
     31 ****         0.2705  -0.1869   1.5499 H              1 S1                 0.0000
     32 ****        -0.1349  -2.6269   1.9352 H              1 S1                 0.0000
     33 ****        -0.1753  -2.9121   0.2111 H              1 S1                 0.0000
     34 ****         2.1410  -2.5606   1.9053 H              1 S1                 0.0000
     35 ****         3.9879  -2.7706   1.2241 H              1 S1                 0.0000
     36 ****         6.6156  -3.1745   0.7605 H              1 S1                 0.0000
     37 ****         4.1615  -2.4256  -2.7363 H              1 S1                 0.0000
     38 ****        -0.8761   1.1886  -1.1220 H              1 S1                 0.0000
     39 ****        -2.5319   0.7486  -1.4902 H              1 S1                 0.0000
     40 ****        -1.5854   3.3786  -0.2251 H              1 S1                 0.0000
     41 ****        -1.1780   3.2654  -2.6791 H              1 S1                 0.0000
     42 ****        -2.4438   4.4281  -2.2970 H              1 S1                 0.0000
     43 ****        -2.8694   2.8477  -2.9482 H              1 S1                 0.0000
     44 ****        -1.4905   1.3285   1.1856 H              1 S1                 0.0000
     45 ****         1.0888  -2.1801  -1.3896 LP             1 S1                 0.0000
     46 ****         2.6978  -2.3528  -2.0070 LP             1 S1                 0.0000
     47 ****         8.0336  -3.2022  -1.2674 LP             1 S1                 0.0000
     48 ****        -3.8144   3.9700  -0.4115 LP             1 S1                 0.0000
     49 ****        -4.2216   2.5090  -1.0167 LP             1 S1                 0.0000
@<TRIPOS>BOND
    1    1    2 1     
    2    1   22 1     
    3    1   23 1     
    4    1   24 1     
    5    2   20 1     
    6    2    3 1     
    7    2   25 1     
    8    3    4 1     
    9    3   26 1     
   10    3   27 1     
   11    4    5 1     
   12    4   17 1     
   13    4   44 1     
   14    5    6 1     
   15    5   28 1     
   16    5   29 1     
   17    6    7 1     
   18    6   30 1     
   19    6   31 1     
   20    7    8 1     
   21    7   32 1     
   22    7   33 1     
   23    8    9 am    
   24    8   34 1     
   25    9   10 2     
   26    9   11 am    
   27   11   12 1     
   28   11   35 1     
   29   12   16 2     
   30   12   13 1     
   31   13   14 2     
   32   13   36 1     
   33   14   15 1     
   34   15   21 1     
   35   15   16 1     
   36   16   37 1     
   37   17   18 1     
   38   17   38 1     
   39   17   39 1     
   40   18   19 1     
   41   18   20 1     
   42   18   40 1     
   43   19   41 1     
   44   19   42 1     
   45   19   43 1     
   46   10   45 1     
   47   10   46 1     
   48   14   47 1     
   49   20   48 1     
   50   20   49 1     
@<TRIPOS>SUBSTRUCTURE
      1 S1             1
@<TRIPOS>SET
LONE_PAIRS      STATIC     ATOMS    <user>   **** ""
5 45 46 47 48 49
DONOR_HYDROGENS      STATIC     ATOMS    <user>   **** ""
4 44 34 35 21
ATOM$BLUE        STATIC     ATOMS    COLORGROUP SYSTEM
5 45 46 47 48 49
ATOM$RED        STATIC     ATOMS    COLORGROUP SYSTEM
4 44 34 35 21
