AV-unprocessed.smi:3158|AV-procd|sdf|12046|dock2
  -GOLD-   2272017473D 1   1.00000     0.00000
 Structure written by MMmdl.
 39 39  0  0  0  0  0  0  0  0  1 V2000
  152.4088  138.9741  155.8792 C   0  0  0  0  0  0  0  0  0  0  0  0
  151.8375  138.7157  154.4773 C   0  0  0  0  0  0  0  0  0  0  0  0
  150.3531  138.2877  154.4762 C   0  0  1  0  0  0  0  0  0  0  0  0
  150.1511  136.8647  155.0273 C   0  0  0  0  0  0  0  0  0  0  0  0
  149.4801  139.2537  155.1482 N   0  0  0  0  0  0  0  0  0  0  0  0
  149.2702  140.5378  154.8103 C   0  0  0  0  0  0  0  0  0  0  0  0
  149.8084  141.0887  153.8497 O   0  0  0  0  0  0  0  0  0  0  0  0
  148.3237  141.3367  155.7210 C   0  0  2  0  0  0  0  0  0  0  0  0
  147.1787  141.9494  154.8992 C   0  0  0  0  0  0  0  0  0  0  0  0
  149.0113  142.3940  156.4825 N   0  0  0  0  0  0  0  0  0  0  0  0
  150.3034  141.9976  157.0353 C   0  0  0  0  0  0  0  0  0  0  0  0
  151.2087  143.2290  157.1998 C   0  0  0  0  0  0  0  0  0  0  0  0
  151.6546  143.4002  158.5716 N   0  0  0  0  0  0  0  0  0  0  0  0
  152.3816  142.5239  159.3496 C   0  0  0  0  0  0  0  0  0  0  0  0
  152.5732  143.1203  160.5630 C   0  0  0  0  0  0  0  0  0  0  0  0
  151.9163  144.3754  160.4297 C   0  0  0  0  0  0  0  0  0  0  0  0
  151.3675  144.5400  159.2369 N   0  0  0  0  0  0  0  0  0  0  0  0
  153.4378  139.3288  155.8167 H   0  0  0  0  0  0  0  0  0  0  0  0
  152.4113  138.0678  156.4854 H   0  0  0  0  0  0  0  0  0  0  0  0
  151.8282  139.7308  156.4075 H   0  0  0  0  0  0  0  0  0  0  0  0
  151.9405  139.6284  153.8894 H   0  0  0  0  0  0  0  0  0  0  0  0
  152.4493  137.9684  153.9711 H   0  0  0  0  0  0  0  0  0  0  0  0
  150.0212  138.2744  153.4375 H   0  0  0  0  0  0  0  0  0  0  0  0
  150.7050  136.1364  154.4344 H   0  0  0  0  0  0  0  0  0  0  0  0
  149.0993  136.5781  155.0001 H   0  0  0  0  0  0  0  0  0  0  0  0
  150.4946  136.7747  156.0580 H   0  0  0  0  0  0  0  0  0  0  0  0
  148.9881  138.9109  155.9606 H   0  0  0  0  0  0  0  0  0  0  0  0
  147.8755  140.6469  156.4386 H   0  0  0  0  0  0  0  0  0  0  0  0
  146.6423  141.1848  154.3358 H   0  0  0  0  0  0  0  0  0  0  0  0
  147.5449  142.6916  154.1884 H   0  0  0  0  0  0  0  0  0  0  0  0
  146.4546  142.4438  155.5475 H   0  0  0  0  0  0  0  0  0  0  0  0
  149.1183  143.2364  155.9344 H   0  0  0  0  0  0  0  0  0  0  0  0
  150.1455  141.5249  158.0053 H   0  0  0  0  0  0  0  0  0  0  0  0
  150.8048  141.2678  156.3989 H   0  0  0  0  0  0  0  0  0  0  0  0
  152.0750  143.1673  156.5387 H   0  0  0  0  0  0  0  0  0  0  0  0
  150.6620  144.1276  156.9119 H   0  0  0  0  0  0  0  0  0  0  0  0
  152.7014  141.5618  158.9774 H   0  0  0  0  0  0  0  0  0  0  0  0
  153.1023  142.7212  161.4156 H   0  0  0  0  0  0  0  0  0  0  0  0
  151.8228  145.1666  161.1590 H   0  0  0  0  0  0  0  0  0  0  0  0
  1  2  1  0  0  0  0
  1 18  1  0  0  0  0
  1 19  1  0  0  0  0
  1 20  1  0  0  0  0
  2  3  1  0  0  0  0
  2 21  1  0  0  0  0
  2 22  1  0  0  0  0
  3  4  1  0  0  0  0
  3  5  1  0  0  0  0
  3 23  1  0  0  0  0
  4 24  1  0  0  0  0
  4 25  1  0  0  0  0
  4 26  1  0  0  0  0
  5  6  1  0  0  0  0
  5 27  1  0  0  0  0
  6  7  2  0  0  0  0
  6  8  1  0  0  0  0
  8  9  1  0  0  0  0
  8 10  1  0  0  0  0
  8 28  1  0  0  0  0
  9 29  1  0  0  0  0
  9 30  1  0  0  0  0
  9 31  1  0  0  0  0
 10 11  1  0  0  0  0
 10 32  1  0  0  0  0
 11 12  1  0  0  0  0
 11 33  1  0  0  0  0
 11 34  1  0  0  0  0
 12 13  1  0  0  0  0
 12 35  1  0  0  0  0
 12 36  1  0  0  0  0
 13 17  1  0  0  0  0
 13 14  1  0  0  0  0
 14 15  2  0  0  0  0
 14 37  1  0  0  0  0
 15 16  1  0  0  0  0
 15 38  1  0  0  0  0
 16 17  2  0  0  0  0
 16 39  1  0  0  0  0
M  END
> <s_m_source_file>
AV-unprocessed.smi

> <i_m_source_file_index>
3158

> <i_lp_mmshare_version>
43012

> <i_f3d_flags>
0

> <s_epik_input>
W0NIM11bQ0gyXVtDQEhdKFtDSDNdKVtOSF1DKD1PKVtDQEhdKFtDSDNdKVtOSF1bQ0gyXVtDSDJdbjFbY0hdW2NIXVtjSF1uMQ==

> <s_epik_cmdline>
J2VwaWtfcHl0aG9uJywgJy1waCcsICc3LjAnLCAnLXRuJywgJzgnLCAnLW1hJywgJzIwMCcsICctbWV0YWxfYmluZGluZycsICctaW1hZScsICc8aW5maWxlLm1hZT4nLCAnLW9tYWUnLCAnPG91dGZpbGUubWFlPic=

> <r_lp_tautomer_probability>
1

> <r_epik_Ionization_Penalty>
0.724013

> <r_epik_Ionization_Penalty_Charging>
0

> <r_epik_Ionization_Penalty_Neutral>
0.724013

> <r_epik_State_Penalty>
0.74758

> <r_epik_Charging_Adjusted_Penalty>
0.74758

> <i_epik_Tot_Q>
0

> <i_epik_Tot_abs_Q>
0

> <r_epik_Metal_State_Penalty>
0.746846

> <b_epik_Metal_Only>
0

> <s_lp_Force_Field>
OPLS_2005

> <r_lp_Energy>
6.38515

> <b_lp_Chiralities_Consistent>
1

> <s_lp_Variant>
AV-unprocessed.smi:3158-6

> <Gold.Version>
5.8.1

> <Gold.Id.Protein>
6NUR|6NUR_protein|mol2

> <Gold.PLP.Fitness>
41.4523

> <Gold.PLP.PLP>
-36.0168

> <Gold.PLP.part.hbond>
-2.7691

> <Gold.PLP.part.metal>
0.0000

> <Gold.PLP.part.buried>
-3.2449

> <Gold.PLP.part.nonpolar>
-30.7853

> <Gold.PLP.part.repulsive>
1.7759

> <Gold.PLP.ligand.clash>
0.0000

> <Gold.PLP.ligand.torsion>
0.7979

> <Gold.PLP.Chemscore.Hbond>
2.2320

> <Gold.PLP.Chemscore.CHOScore>
0.0000

> <Gold.PLP.Chemscore.Metal>
0.0000

> <Gold.Chemscore.Hbonds>
donor molecule, donor type, donor heavy atom, donor atom, acceptor molecule, acceptor atom, score
      L1  H    10    32       P1  8028  0.99
      P1  H  7989  7998       L1     7  0.35
      P1  H  8011  8017       L1     7  0.86

> <Gold.PLP.Chemscore.Internal.Correction>
0.3354

> <Gold.Rescore>
     Score         DG    S(hbond)    S(metal)    S(lipo)     H(rot)  DE(clash)    DE(int)     intcor
     15.97     -17.40       2.09        0.00      88.62       2.12       0.54       0.89       ----

> <Gold.Chemscore.Fitness>
15.9682

> <Gold.Chemscore.DG>
-17.3974

> <Gold.Chemscore.ZeroCoef>
-5.4800

> <Gold.Chemscore.Hbond>
2.0911

> <Gold.Chemscore.Metal>
0.0000

> <Gold.Chemscore.Lipo>
88.6231

> <Gold.Chemscore.Internal_Hbond>
0.0000

> <Gold.Chemscore.DEClash>
0.5428

> <Gold.Chemscore.DEInternal>
0.8864

> <Gold.Chemscore.Rot>
2.1234

> <Gold.Chemscore.Internal.Correction>
   9.000000E+99

> <Gold.Chemscore.Hbonds>
donor molecule, donor type, donor heavy atom, donor atom, acceptor molecule, acceptor atom, score
      L1  H    10    32       P1  8028  0.90
      P1  H  7989  7998       L1     7  0.36
      P1  H  8011  8017       L1     7  0.81

> <Gold.Chemscore.Hbond.Weighted>
-6.9844

> <Gold.Chemscore.Metal.Weighted>
-0.0000

> <Gold.Chemscore.Lipo.Weighted>
-10.3689

> <Gold.Chemscore.Internal_Hbond.Weighted>
0.0000

> <Gold.Chemscore.DEClash.Weighted>
0.5428

> <Gold.Chemscore.DEInternal.Weighted>
0.8864

> <Gold.Chemscore.Rot.Weighted>
5.4359

> <Gold.Chemscore.Internal.Correction.Weighted>
   9.000000E+99

> <Gold.Protein.RotatedTorsions>
[ 6907 6896 6895 6894 ] final  113.31 input  -60.11 | X-H torsion
[ 7974 7965 7964 7962 ] final   34.29 input  175.53 | X-H torsion
[ 8008 7997 7996 7995 ] final  125.27 input   59.86 | X-H torsion
[ 10167 10162 10161 10158 ] final -146.68 input  -65.29 | X-H torsion
[ 10718 10713 10712 10709 ] final  172.24 input   66.30 | X-H torsion
[ 10763 10752 10751 10750 ] final  -87.59 input  -60.55 | X-H torsion
[ 11005 11000 10999 10996 ] final  -43.26 input  -57.11 | X-H torsion

> <Gold.Protein.ActiveResidues>
 VAL166  LYS551  ARG553  GLY616  TRP617  ASP618  TYR619  PRO620  LYS621  CYS622 
 ASP623  PHE694  ASN695  SER759  ASP760  ASP761  ALA762  ILE779  LEU786  VAL792 
 PHE793  MET794  SER795  GLU796  ALA797  LYS798  CYS799  TRP800  GLU811  SER814 

> <Gold.Protein.RotatedAtoms>
  152.4868  133.8394  159.7144 H   0  0  0  0  0  0  0  0  0  0  0  0  # atno 6907 bound_to 6896
  150.8961  133.7169  159.2898 H   0  0  0  0  0  0  0  0  0  0  0  0  # atno 6908 bound_to 6896
  151.4626  135.1043  159.9781 H   0  0  0  0  0  0  0  0  0  0  0  0  # atno 6909 bound_to 6896
  146.1362  139.6287  142.9193 H   0  0  0  0  0  0  0  0  0  0  0  0  # atno 7974 bound_to 7965
  156.2829  140.2720  156.1922 H   0  0  0  0  0  0  0  0  0  0  0  0  # atno 8008 bound_to 7997
  155.0446  140.0386  157.2540 H   0  0  0  0  0  0  0  0  0  0  0  0  # atno 8009 bound_to 7997
  154.7245  140.2694  155.6516 H   0  0  0  0  0  0  0  0  0  0  0  0  # atno 8010 bound_to 7997
  139.7691  143.8265  152.2621 H   0  0  0  0  0  0  0  0  0  0  0  0  # atno 10167 bound_to 10162
  156.9818  131.0121  151.2879 H   0  0  0  0  0  0  0  0  0  0  0  0  # atno 10718 bound_to 10713
  154.6353  135.5408  153.7727 H   0  0  0  0  0  0  0  0  0  0  0  0  # atno 10763 bound_to 10752
  153.0305  135.6446  154.1241 H   0  0  0  0  0  0  0  0  0  0  0  0  # atno 10764 bound_to 10752
  154.1168  135.2923  155.3197 H   0  0  0  0  0  0  0  0  0  0  0  0  # atno 10765 bound_to 10752
  141.0372  133.6795  156.2709 H   0  0  0  0  0  0  0  0  0  0  0  0  # atno 11005 bound_to 11000
  145.5149  141.0434  143.2467 LP  0  0  0  0  0  0  0  0  0  0  0  0  # atno 17320 bound_to 7965
  144.7743  139.6665  143.7181 LP  0  0  0  0  0  0  0  0  0  0  0  0  # atno 17321 bound_to 7965
  139.8293  144.7261  150.9471 LP  0  0  0  0  0  0  0  0  0  0  0  0  # atno 17342 bound_to 10162
  140.7813  143.4084  151.1032 LP  0  0  0  0  0  0  0  0  0  0  0  0  # atno 17343 bound_to 10162
  157.5521  130.8189  149.8158 LP  0  0  0  0  0  0  0  0  0  0  0  0  # atno 17370 bound_to 10713
  156.0241  130.3785  150.1874 LP  0  0  0  0  0  0  0  0  0  0  0  0  # atno 17371 bound_to 10713
  140.6301  134.5273  157.5558 LP  0  0  0  0  0  0  0  0  0  0  0  0  # atno 17394 bound_to 11000
  139.9249  134.8075  156.1099 LP  0  0  0  0  0  0  0  0  0  0  0  0  # atno 17395 bound_to 11000

$$$$
