AV-unprocessed.smi:2493|AV-procd|sdf|9819|dock5
  -GOLD-   2272013453D 1   1.00000     0.00000
 Structure written by MMmdl.
 41 42  0  0  0  0  0  0  0  0  1 V2000
  152.1321  143.8095  156.8649 C   0  0  0  0  0  0  0  0  0  0  0  0
  151.5867  143.1086  158.1306 C   0  0  0  0  0  0  0  0  0  0  0  0
  150.7029  141.9003  157.7093 C   0  0  0  0  0  0  0  0  0  0  0  0
  149.9884  142.1091  156.4507 N   0  0  0  0  0  0  0  0  0  0  0  0
  150.1200  141.3673  155.3396 C   0  0  0  0  0  0  0  0  0  0  0  0
  150.8858  140.4084  155.2468 O   0  0  0  0  0  0  0  0  0  0  0  0
  149.2604  141.7757  154.1430 C   0  0  0  0  0  0  0  0  0  0  0  0
  147.8081  141.7831  154.4989 C   0  0  0  0  0  0  0  0  0  0  0  0
  146.7473  141.0952  153.9784 C   0  0  0  0  0  0  0  0  0  0  0  0
  145.6328  141.5422  154.7455 C   0  0  0  0  0  0  0  0  0  0  0  0
  145.9676  142.4309  155.6673 N   0  0  0  0  0  0  0  0  0  0  0  0
  147.2973  142.5686  155.5087 N   0  0  0  0  0  0  0  0  0  0  0  0
  152.8064  142.5702  158.9287 C   0  0  0  0  0  0  0  0  0  0  0  0
  152.5670  142.2494  160.4161 C   0  0  0  0  0  0  0  0  0  0  0  0
  152.8173  143.4576  161.3342 C   0  0  0  0  0  0  0  0  0  0  0  0
  151.7445  144.5531  161.2566 C   0  0  0  0  0  0  0  0  0  0  0  0
  151.4933  145.1068  159.8435 C   0  0  0  0  0  0  0  0  0  0  0  0
  150.7279  144.1200  158.9423 C   0  0  0  0  0  0  0  0  0  0  0  0
  147.8373  143.1980  156.0856 H   0  0  0  0  0  0  0  0  0  0  0  0
  152.6974  143.1152  156.2420 H   0  0  0  0  0  0  0  0  0  0  0  0
  152.7973  144.6355  157.1180 H   0  0  0  0  0  0  0  0  0  0  0  0
  151.3346  144.2242  156.2486 H   0  0  0  0  0  0  0  0  0  0  0  0
  151.3016  140.9889  157.6609 H   0  0  0  0  0  0  0  0  0  0  0  0
  149.9472  141.7096  158.4714 H   0  0  0  0  0  0  0  0  0  0  0  0
  149.3334  142.8771  156.4268 H   0  0  0  0  0  0  0  0  0  0  0  0
  149.5685  142.7641  153.8000 H   0  0  0  0  0  0  0  0  0  0  0  0
  149.4399  141.0897  153.3140 H   0  0  0  0  0  0  0  0  0  0  0  0
  146.7632  140.3807  153.1687 H   0  0  0  0  0  0  0  0  0  0  0  0
  144.5970  141.2483  154.6594 H   0  0  0  0  0  0  0  0  0  0  0  0
  153.1752  141.6695  158.4358 H   0  0  0  0  0  0  0  0  0  0  0  0
  153.6390  143.2719  158.8602 H   0  0  0  0  0  0  0  0  0  0  0  0
  151.5746  141.8300  160.5824 H   0  0  0  0  0  0  0  0  0  0  0  0
  153.2694  141.4673  160.7066 H   0  0  0  0  0  0  0  0  0  0  0  0
  152.8723  143.1074  162.3654 H   0  0  0  0  0  0  0  0  0  0  0  0
  153.7961  143.8875  161.1180 H   0  0  0  0  0  0  0  0  0  0  0  0
  150.8099  144.1807  161.6774 H   0  0  0  0  0  0  0  0  0  0  0  0
  152.0503  145.3752  161.9043 H   0  0  0  0  0  0  0  0  0  0  0  0
  150.8830  146.0044  159.9491 H   0  0  0  0  0  0  0  0  0  0  0  0
  152.4225  145.4361  159.3782 H   0  0  0  0  0  0  0  0  0  0  0  0
  150.1175  144.6978  158.2468 H   0  0  0  0  0  0  0  0  0  0  0  0
  150.0044  143.5827  159.5570 H   0  0  0  0  0  0  0  0  0  0  0  0
  1  2  1  0  0  0  0
  1 20  1  0  0  0  0
  1 21  1  0  0  0  0
  1 22  1  0  0  0  0
  2 18  1  0  0  0  0
  2  3  1  0  0  0  0
  2 13  1  0  0  0  0
  3  4  1  0  0  0  0
  3 23  1  0  0  0  0
  3 24  1  0  0  0  0
  4  5  1  0  0  0  0
  4 25  1  0  0  0  0
  5  6  2  0  0  0  0
  5  7  1  0  0  0  0
  7  8  1  0  0  0  0
  7 26  1  0  0  0  0
  7 27  1  0  0  0  0
  8 12  1  0  0  0  0
  8  9  2  0  0  0  0
  9 10  1  0  0  0  0
  9 28  1  0  0  0  0
 10 11  2  0  0  0  0
 10 29  1  0  0  0  0
 11 12  1  0  0  0  0
 12 19  1  0  0  0  0
 13 14  1  0  0  0  0
 13 30  1  0  0  0  0
 13 31  1  0  0  0  0
 14 15  1  0  0  0  0
 14 32  1  0  0  0  0
 14 33  1  0  0  0  0
 15 16  1  0  0  0  0
 15 34  1  0  0  0  0
 15 35  1  0  0  0  0
 16 17  1  0  0  0  0
 16 36  1  0  0  0  0
 16 37  1  0  0  0  0
 17 18  1  0  0  0  0
 17 38  1  0  0  0  0
 17 39  1  0  0  0  0
 18 40  1  0  0  0  0
 18 41  1  0  0  0  0
M  END
> <s_m_source_file>
AV-unprocessed.smi

> <i_m_source_file_index>
2493

> <i_lp_mmshare_version>
43012

> <i_f3d_flags>
0

> <s_epik_input>
W0NIMl0xW0NIMl1bQ0gyXVtDSDJdW0NIMl1bQ0gyXUMxKFtDSDNdKVtDSDJdW05IXUMoPU8pW0NIMl1jMltjSF1bY0hdbltuSF0y

> <s_epik_cmdline>
J2VwaWtfcHl0aG9uJywgJy1waCcsICc3LjAnLCAnLXRuJywgJzgnLCAnLW1hJywgJzIwMCcsICctbWV0YWxfYmluZGluZycsICctaW1hZScsICc8aW5maWxlLm1hZT4nLCAnLW9tYWUnLCAnPG91dGZpbGUubWFlPic=

> <r_lp_tautomer_probability>
0.5

> <r_epik_Ionization_Penalty>
2.55018e-05

> <r_epik_Ionization_Penalty_Charging>
0

> <r_epik_Ionization_Penalty_Neutral>
2.55018e-05

> <r_epik_State_Penalty>
0.41068

> <r_epik_Charging_Adjusted_Penalty>
0.41068

> <i_epik_Tot_Q>
0

> <i_epik_Tot_abs_Q>
0

> <r_epik_Metal_State_Penalty>
0.410675

> <b_epik_Metal_Only>
0

> <s_lp_Force_Field>
OPLS_2005

> <r_lp_Energy>
19.8643

> <b_lp_Chiralities_Consistent>
1

> <s_lp_Variant>
AV-unprocessed.smi:2493-1

> <Gold.Version>
5.8.1

> <Gold.Id.Protein>
6NUR|6NUR_protein|mol2

> <Gold.PLP.Fitness>
43.4971

> <Gold.PLP.PLP>
-34.9871

> <Gold.PLP.part.hbond>
-3.0000

> <Gold.PLP.part.metal>
0.0000

> <Gold.PLP.part.buried>
1.8469

> <Gold.PLP.part.nonpolar>
-31.7994

> <Gold.PLP.part.repulsive>
0.3262

> <Gold.PLP.ligand.clash>
0.0000

> <Gold.PLP.ligand.torsion>
0.5239

> <Gold.PLP.Chemscore.Hbond>
2.4092

> <Gold.PLP.Chemscore.CHOScore>
0.7743

> <Gold.PLP.Chemscore.Metal>
0.0000

> <Gold.Chemscore.Hbonds>
donor molecule, donor type, donor heavy atom, donor atom, acceptor molecule, acceptor atom, score
      L1  H     4    25       P1  8028  0.91
      L1  H    12    19       P1  8028  0.59
      P1  H  7989  7998       L1     6  0.85
      L1  C    10    29       P1 10175  0.82

> <Gold.PLP.Chemscore.Internal.Correction>
0.0074

> <Gold.Rescore>
     Score         DG    S(hbond)    S(metal)    S(lipo)     H(rot)  DE(clash)    DE(int)     intcor
     15.99     -21.00       1.60        0.00     123.33       1.66       3.36       1.66       ----

> <Gold.Chemscore.Fitness>
15.9887

> <Gold.Chemscore.DG>
-21.0019

> <Gold.Chemscore.ZeroCoef>
-5.4800

> <Gold.Chemscore.Hbond>
1.5987

> <Gold.Chemscore.Metal>
0.0000

> <Gold.Chemscore.Lipo>
123.3313

> <Gold.Chemscore.Internal_Hbond>
0.0000

> <Gold.Chemscore.DEClash>
3.3566

> <Gold.Chemscore.DEInternal>
1.6566

> <Gold.Chemscore.Rot>
1.6592

> <Gold.Chemscore.Internal.Correction>
   9.000000E+99

> <Gold.Chemscore.Hbonds>
donor molecule, donor type, donor heavy atom, donor atom, acceptor molecule, acceptor atom, score
      L1  H     4    25       P1  8028  0.83
      L1  H    12    19       P1  8028  0.13
      P1  H  7989  7998       L1     6  0.14

> <Gold.Chemscore.Hbond.Weighted>
-5.3396

> <Gold.Chemscore.Metal.Weighted>
-0.0000

> <Gold.Chemscore.Lipo.Weighted>
-14.4298

> <Gold.Chemscore.Internal_Hbond.Weighted>
0.0000

> <Gold.Chemscore.DEClash.Weighted>
3.3566

> <Gold.Chemscore.DEInternal.Weighted>
1.6566

> <Gold.Chemscore.Rot.Weighted>
4.2475

> <Gold.Chemscore.Internal.Correction.Weighted>
   9.000000E+99

> <Gold.Protein.RotatedTorsions>
[ 6907 6896 6895 6894 ] final -110.30 input  -60.11 | X-H torsion
[ 7974 7965 7964 7962 ] final   78.48 input  175.53 | X-H torsion
[ 8008 7997 7996 7995 ] final  -86.30 input   59.86 | X-H torsion
[ 10167 10162 10161 10158 ] final  121.95 input  -65.29 | X-H torsion
[ 10718 10713 10712 10709 ] final  148.34 input   66.30 | X-H torsion
[ 10763 10752 10751 10750 ] final  130.61 input  -60.55 | X-H torsion
[ 11005 11000 10999 10996 ] final  -93.76 input  -57.11 | X-H torsion

> <Gold.Protein.ActiveResidues>
 VAL166  LYS551  ARG553  GLY616  TRP617  ASP618  TYR619  PRO620  LYS621  CYS622 
 ASP623  PHE694  ASN695  SER759  ASP760  ASP761  ALA762  ILE779  LEU786  VAL792 
 PHE793  MET794  SER795  GLU796  ALA797  LYS798  CYS799  TRP800  GLU811  SER814 

> <Gold.Protein.RotatedAtoms>
  150.7616  133.9403  159.3453 H   0  0  0  0  0  0  0  0  0  0  0  0  # atno 6907 bound_to 6896
  151.7310  135.0873  160.0309 H   0  0  0  0  0  0  0  0  0  0  0  0  # atno 6908 bound_to 6896
  152.3589  133.6235  159.6036 H   0  0  0  0  0  0  0  0  0  0  0  0  # atno 6909 bound_to 6896
  145.6766  139.2512  143.1838 H   0  0  0  0  0  0  0  0  0  0  0  0  # atno 7974 bound_to 7965
  154.6503  140.0580  156.9948 H   0  0  0  0  0  0  0  0  0  0  0  0  # atno 8008 bound_to 7997
  155.1381  140.3263  155.4440 H   0  0  0  0  0  0  0  0  0  0  0  0  # atno 8009 bound_to 7997
  156.2573  140.1969  156.6498 H   0  0  0  0  0  0  0  0  0  0  0  0  # atno 8010 bound_to 7997
  139.5888  144.7017  151.3341 H   0  0  0  0  0  0  0  0  0  0  0  0  # atno 10167 bound_to 10162
  157.3098  131.0886  151.1325 H   0  0  0  0  0  0  0  0  0  0  0  0  # atno 10718 bound_to 10713
  153.7608  135.3196  155.3336 H   0  0  0  0  0  0  0  0  0  0  0  0  # atno 10763 bound_to 10752
  154.8231  135.4589  154.0840 H   0  0  0  0  0  0  0  0  0  0  0  0  # atno 10764 bound_to 10752
  153.2070  135.6930  153.8244 H   0  0  0  0  0  0  0  0  0  0  0  0  # atno 10765 bound_to 10752
  141.1488  133.7910  157.0204 H   0  0  0  0  0  0  0  0  0  0  0  0  # atno 11005 bound_to 11000
  146.1000  140.7555  142.9554 LP  0  0  0  0  0  0  0  0  0  0  0  0  # atno 17320 bound_to 7965
  144.7039  140.3772  143.7133 LP  0  0  0  0  0  0  0  0  0  0  0  0  # atno 17321 bound_to 7965
  140.7155  143.7277  150.7647 LP  0  0  0  0  0  0  0  0  0  0  0  0  # atno 17342 bound_to 10162
  140.0828  143.4952  152.2521 LP  0  0  0  0  0  0  0  0  0  0  0  0  # atno 17343 bound_to 10162
  157.2652  130.6678  149.5993 LP  0  0  0  0  0  0  0  0  0  0  0  0  # atno 17370 bound_to 10713
  155.9677  130.4496  150.5665 LP  0  0  0  0  0  0  0  0  0  0  0  0  # atno 17371 bound_to 10713
  140.0819  134.9643  157.1638 LP  0  0  0  0  0  0  0  0  0  0  0  0  # atno 17394 bound_to 11000
  140.3565  134.2541  155.7192 LP  0  0  0  0  0  0  0  0  0  0  0  0  # atno 17395 bound_to 11000

$$$$
