AV-unprocessed.smi:3091|AV-procd|sdf|11778|dock2
  -GOLD-   2272017163D 1   1.00000     0.00000
 Structure written by MMmdl.
 29 30  0  0  0  0  0  0  0  0  2 V2000
  147.7985  142.3001  155.3608 N   0  3  0  0  0  0  0  0  0  0  0  0
  148.7128  141.3935  154.6485 C   0  0  0  0  0  0  0  0  0  0  0  0
  149.9216  141.0726  155.5029 C   0  0  0  0  0  0  0  0  0  0  0  0
  150.8940  140.1553  155.0564 C   0  0  0  0  0  0  0  0  0  0  0  0
  151.9960  139.8882  155.8919 C   0  0  0  0  0  0  0  0  0  0  0  0
  152.1653  140.4656  157.1001 N   0  0  0  0  0  0  0  0  0  0  0  0
  151.2292  141.3475  157.5305 C   0  0  0  0  0  0  0  0  0  0  0  0
  151.3885  141.9494  158.7632 O   0  0  0  0  0  0  0  0  0  0  0  0
  152.5439  142.7534  159.0120 C   0  0  2  0  0  0  0  0  0  0  0  0
  152.6192  143.1631  160.4774 C   0  0  0  0  0  0  0  0  0  0  0  0
  151.7987  144.4442  160.5034 C   0  0  0  0  0  0  0  0  0  0  0  0
  152.1761  145.0855  159.2973 O   0  0  0  0  0  0  0  0  0  0  0  0
  152.3548  144.0956  158.2888 C   0  0  0  0  0  0  0  0  0  0  0  0
  150.0926  141.6788  156.7643 C   0  0  0  0  0  0  0  0  0  0  0  0
  148.2984  143.1298  155.6468 H   0  0  0  0  0  0  0  0  0  0  0  0
  147.4284  141.8308  156.1750 H   0  0  0  0  0  0  0  0  0  0  0  0
  148.1834  140.4755  154.3909 H   0  0  0  0  0  0  0  0  0  0  0  0
  149.0279  141.8586  153.7139 H   0  0  0  0  0  0  0  0  0  0  0  0
  150.8032  139.6666  154.0972 H   0  0  0  0  0  0  0  0  0  0  0  0
  152.7611  139.1919  155.5820 H   0  0  0  0  0  0  0  0  0  0  0  0
  153.4570  142.2649  158.6683 H   0  0  0  0  0  0  0  0  0  0  0  0
  152.2475  142.4073  161.1696 H   0  0  0  0  0  0  0  0  0  0  0  0
  153.6526  143.3855  160.7457 H   0  0  0  0  0  0  0  0  0  0  0  0
  150.7302  144.2239  160.4837 H   0  0  0  0  0  0  0  0  0  0  0  0
  152.0093  145.0659  161.3738 H   0  0  0  0  0  0  0  0  0  0  0  0
  153.2262  144.3523  157.6857 H   0  0  0  0  0  0  0  0  0  0  0  0
  151.4876  144.0766  157.6275 H   0  0  0  0  0  0  0  0  0  0  0  0
  149.3692  142.3868  157.1421 H   0  0  0  0  0  0  0  0  0  0  0  0
  147.0383  142.5577  154.7479 H   0  0  0  0  0  0  0  0  0  0  0  0
  1  2  1  0  0  0  0
  1 15  1  0  0  0  0
  1 16  1  0  0  0  0
  1 29  1  0  0  0  0
  2  3  1  0  0  0  0
  2 17  1  0  0  0  0
  2 18  1  0  0  0  0
  3 14  1  0  0  0  0
  3  4  2  0  0  0  0
  4  5  1  0  0  0  0
  4 19  1  0  0  0  0
  5  6  2  0  0  0  0
  5 20  1  0  0  0  0
  6  7  1  0  0  0  0
  7  8  1  0  0  0  0
  7 14  2  0  0  0  0
  8  9  1  0  0  0  0
  9 13  1  0  0  0  0
  9 10  1  0  0  0  0
  9 21  1  0  0  0  0
 10 11  1  0  0  0  0
 10 22  1  0  0  0  0
 10 23  1  0  0  0  0
 11 12  1  0  0  0  0
 11 24  1  0  0  0  0
 11 25  1  0  0  0  0
 12 13  1  0  0  0  0
 13 26  1  0  0  0  0
 13 27  1  0  0  0  0
 14 28  1  0  0  0  0
M  CHG  1   1   1
M  END
> <s_m_source_file>
AV-unprocessed.smi

> <i_m_source_file_index>
3091

> <i_lp_mmshare_version>
43012

> <i_f3d_flags>
0

> <s_epik_input>
W05IMl1bQ0gyXWMxW2NIXVtjSF1uYyhbY0hdMSlPW0NAQEhdMltDSDJdW0NIMl1PW0NIMl0y

> <s_epik_cmdline>
J2VwaWtfcHl0aG9uJywgJy1waCcsICc3LjAnLCAnLXRuJywgJzgnLCAnLW1hJywgJzIwMCcsICctbWV0YWxfYmluZGluZycsICctaW1hZScsICc8aW5maWxlLm1hZT4nLCAnLW9tYWUnLCAnPG91dGZpbGUubWFlPic=

> <r_lp_tautomer_probability>
1

> <r_epik_Ionization_Penalty>
0.0773124

> <r_epik_Ionization_Penalty_Charging>
0.0773118

> <r_epik_Ionization_Penalty_Neutral>
5.92883e-07

> <r_epik_State_Penalty>
0.0682686

> <r_epik_Charging_Adjusted_Penalty>
0.14558

> <i_epik_Tot_Q>
1

> <i_epik_Tot_abs_Q>
1

> <r_epik_Metal_State_Penalty>
0.0682821

> <b_epik_Metal_Only>
0

> <s_lp_Force_Field>
OPLS_2005

> <r_lp_Energy>
12.9222

> <b_lp_Chiralities_Consistent>
1

> <s_lp_Variant>
AV-unprocessed.smi:3091-1

> <Gold.Version>
5.8.1

> <Gold.Id.Protein>
6NUR|6NUR_protein|mol2

> <Gold.PLP.Fitness>
39.1463

> <Gold.PLP.PLP>
-33.1441

> <Gold.PLP.part.hbond>
-1.4655

> <Gold.PLP.part.metal>
0.0000

> <Gold.PLP.part.buried>
-2.4799

> <Gold.PLP.part.nonpolar>
-29.9992

> <Gold.PLP.part.repulsive>
0.1566

> <Gold.PLP.ligand.clash>
0.0000

> <Gold.PLP.ligand.torsion>
0.0868

> <Gold.PLP.Chemscore.Hbond>
2.0524

> <Gold.PLP.Chemscore.CHOScore>
0.0000

> <Gold.PLP.Chemscore.Metal>
0.0000

> <Gold.Chemscore.Hbonds>
donor molecule, donor type, donor heavy atom, donor atom, acceptor molecule, acceptor atom, score
      L1  H     1    15       P1  8028  2.00
      P1  H  7997  8009       L1     6  0.08

> <Gold.PLP.Chemscore.Internal.Correction>
0.0186

> <Gold.Rescore>
     Score         DG    S(hbond)    S(metal)    S(lipo)     H(rot)  DE(clash)    DE(int)     intcor
     14.22     -14.35       0.99        0.00      82.39       1.59       0.04       0.09       ----

> <Gold.Chemscore.Fitness>
14.2198

> <Gold.Chemscore.DG>
-14.3528

> <Gold.Chemscore.ZeroCoef>
-5.4800

> <Gold.Chemscore.Hbond>
0.9911

> <Gold.Chemscore.Metal>
0.0000

> <Gold.Chemscore.Lipo>
82.3852

> <Gold.Chemscore.Internal_Hbond>
0.0000

> <Gold.Chemscore.DEClash>
0.0442

> <Gold.Chemscore.DEInternal>
0.0887

> <Gold.Chemscore.Rot>
1.5924

> <Gold.Chemscore.Internal.Correction>
   9.000000E+99

> <Gold.Chemscore.Hbonds>
donor molecule, donor type, donor heavy atom, donor atom, acceptor molecule, acceptor atom, score
      L1  H     1    15       P1  8028  0.94

> <Gold.Chemscore.Hbond.Weighted>
-3.3103

> <Gold.Chemscore.Metal.Weighted>
-0.0000

> <Gold.Chemscore.Lipo.Weighted>
-9.6391

> <Gold.Chemscore.Internal_Hbond.Weighted>
0.0000

> <Gold.Chemscore.DEClash.Weighted>
0.0442

> <Gold.Chemscore.DEInternal.Weighted>
0.0887

> <Gold.Chemscore.Rot.Weighted>
4.0765

> <Gold.Chemscore.Internal.Correction.Weighted>
   9.000000E+99

> <Gold.Protein.RotatedTorsions>
[ 6907 6896 6895 6894 ] final   79.24 input  -60.11 | X-H torsion
[ 7974 7965 7964 7962 ] final    1.46 input  175.53 | X-H torsion
[ 8008 7997 7996 7995 ] final  174.78 input   59.86 | X-H torsion
[ 10167 10162 10161 10158 ] final  -20.41 input  -65.29 | X-H torsion
[ 10718 10713 10712 10709 ] final  -55.35 input   66.30 | X-H torsion
[ 10763 10752 10751 10750 ] final   56.33 input  -60.55 | X-H torsion
[ 11005 11000 10999 10996 ] final -115.24 input  -57.11 | X-H torsion

> <Gold.Protein.ActiveResidues>
 VAL166  LYS551  ARG553  GLY616  TRP617  ASP618  TYR619  PRO620  LYS621  CYS622 
 ASP623  PHE694  ASN695  SER759  ASP760  ASP761  ALA762  ILE779  LEU786  VAL792 
 PHE793  MET794  SER795  GLU796  ALA797  LYS798  CYS799  TRP800  GLU811  SER814 

> <Gold.Protein.RotatedAtoms>
  152.5191  134.3541  159.9261 H   0  0  0  0  0  0  0  0  0  0  0  0  # atno 6907 bound_to 6896
  151.3492  133.3926  159.2686 H   0  0  0  0  0  0  0  0  0  0  0  0  # atno 6908 bound_to 6896
  150.9741  134.9127  159.7863 H   0  0  0  0  0  0  0  0  0  0  0  0  # atno 6909 bound_to 6896
  146.2440  140.0984  142.8349 H   0  0  0  0  0  0  0  0  0  0  0  0  # atno 7974 bound_to 7965
  156.0939  140.1426  156.9556 H   0  0  0  0  0  0  0  0  0  0  0  0  # atno 8008 bound_to 7997
  154.4659  140.0926  156.7065 H   0  0  0  0  0  0  0  0  0  0  0  0  # atno 8009 bound_to 7997
  155.4874  140.3447  155.4351 H   0  0  0  0  0  0  0  0  0  0  0  0  # atno 8010 bound_to 7997
  140.7276  143.4726  151.0227 H   0  0  0  0  0  0  0  0  0  0  0  0  # atno 10167 bound_to 10162
  156.1375  130.4156  150.0160 H   0  0  0  0  0  0  0  0  0  0  0  0  # atno 10718 bound_to 10713
  152.9830  135.5680  154.5211 H   0  0  0  0  0  0  0  0  0  0  0  0  # atno 10763 bound_to 10752
  154.4699  135.2784  155.1652 H   0  0  0  0  0  0  0  0  0  0  0  0  # atno 10764 bound_to 10752
  154.3205  135.6270  153.5559 H   0  0  0  0  0  0  0  0  0  0  0  0  # atno 10765 bound_to 10752
  141.0500  133.9701  157.2852 H   0  0  0  0  0  0  0  0  0  0  0  0  # atno 11005 bound_to 11000
  145.0590  140.9073  143.4950 LP  0  0  0  0  0  0  0  0  0  0  0  0  # atno 17320 bound_to 7965
  145.1096  139.2766  143.5644 LP  0  0  0  0  0  0  0  0  0  0  0  0  # atno 17321 bound_to 7965
  139.8419  143.7553  152.3180 LP  0  0  0  0  0  0  0  0  0  0  0  0  # atno 17342 bound_to 10162
  139.7705  144.7478  151.0232 LP  0  0  0  0  0  0  0  0  0  0  0  0  # atno 17343 bound_to 10162
  156.8054  130.9306  151.3645 LP  0  0  0  0  0  0  0  0  0  0  0  0  # atno 17370 bound_to 10713
  157.6546  130.8913  149.9702 LP  0  0  0  0  0  0  0  0  0  0  0  0  # atno 17371 bound_to 10713
  139.9343  135.0198  156.8504 LP  0  0  0  0  0  0  0  0  0  0  0  0  # atno 17394 bound_to 11000
  140.6073  134.0116  155.7562 LP  0  0  0  0  0  0  0  0  0  0  0  0  # atno 17395 bound_to 11000

$$$$
