AV-unprocessed.smi:2279|AV-procd|sdf|9188|dock3
  -GOLD-   2272012403D 1   1.00000     0.00000
 Structure written by MMmdl.
 57 59  0  0  0  0  0  0  0  0  2 V2000
  155.8408  139.8285  163.3132 C   0  0  0  0  0  0  0  0  0  0  0  0
  154.8270  140.6923  162.5928 C   0  0  0  0  0  0  0  0  0  0  0  0
  154.3045  141.8506  163.1990 C   0  0  0  0  0  0  0  0  0  0  0  0
  153.3637  142.6117  162.4778 C   0  0  0  0  0  0  0  0  0  0  0  0
  152.7616  143.8693  163.0685 C   0  0  0  0  0  0  0  0  0  0  0  0
  152.9403  142.2785  161.2398 N   0  0  0  0  0  0  0  0  0  0  0  0
  153.4354  141.1641  160.6466 C   0  0  0  0  0  0  0  0  0  0  0  0
  153.0590  140.7295  159.3480 N   0  0  0  0  0  0  0  0  0  0  0  0
  152.1851  141.3011  158.5007 C   0  0  0  0  0  0  0  0  0  0  0  0
  151.5275  142.3163  158.7318 O   0  0  0  0  0  0  0  0  0  0  0  0
  152.1065  140.6158  157.3505 N   0  0  0  0  0  0  0  0  0  0  0  0
  151.2459  140.9615  156.2229 C   0  0  0  0  0  0  0  0  0  0  0  0
  149.8748  141.4501  156.7081 C   0  0  0  0  0  0  0  0  0  0  0  0
  148.9223  141.6769  155.5221 C   0  0  0  0  0  0  0  0  0  0  0  0
  148.7202  140.4407  154.7480 N   0  0  0  0  0  0  0  0  0  0  0  0
  147.6865  140.6550  153.7113 C   0  0  2  0  0  0  0  0  0  0  0  0
  146.4423  141.3757  154.2902 C   0  0  0  0  0  0  0  0  0  0  0  0
  145.6102  140.4541  155.2008 C   0  0  0  0  0  0  0  0  0  0  0  0
  145.1879  139.2263  154.4838 N   0  3  2  0  0  0  0  0  0  0  0  0
  144.3073  138.3688  155.3057 C   0  0  0  0  0  0  0  0  0  0  0  0
  146.3426  138.4804  153.9282 C   0  0  0  0  0  0  0  0  0  0  0  0
  147.1806  139.3751  152.9978 C   0  0  0  0  0  0  0  0  0  0  0  0
  150.0244  140.0302  154.2047 C   0  0  0  0  0  0  0  0  0  0  0  0
  151.0342  139.7360  155.3286 C   0  0  0  0  0  0  0  0  0  0  0  0
  154.3856  140.3470  161.2994 C   0  0  0  0  0  0  0  0  0  0  0  0
  156.2216  140.3264  164.2054 H   0  0  0  0  0  0  0  0  0  0  0  0
  156.6859  139.6081  162.6604 H   0  0  0  0  0  0  0  0  0  0  0  0
  155.3841  138.8860  163.6157 H   0  0  0  0  0  0  0  0  0  0  0  0
  154.6158  142.1475  164.1900 H   0  0  0  0  0  0  0  0  0  0  0  0
  153.2899  144.1741  163.9722 H   0  0  0  0  0  0  0  0  0  0  0  0
  151.7151  143.7016  163.3238 H   0  0  0  0  0  0  0  0  0  0  0  0
  152.8135  144.6902  162.3525 H   0  0  0  0  0  0  0  0  0  0  0  0
  153.5118  139.8876  159.0251 H   0  0  0  0  0  0  0  0  0  0  0  0
  152.6833  139.7941  157.2466 H   0  0  0  0  0  0  0  0  0  0  0  0
  151.7188  141.7456  155.6281 H   0  0  0  0  0  0  0  0  0  0  0  0
  149.4361  140.7237  157.3942 H   0  0  0  0  0  0  0  0  0  0  0  0
  149.9860  142.3784  157.2698 H   0  0  0  0  0  0  0  0  0  0  0  0
  147.9861  142.0537  155.9260 H   0  0  0  0  0  0  0  0  0  0  0  0
  149.3165  142.4607  154.8731 H   0  0  0  0  0  0  0  0  0  0  0  0
  148.1306  141.2891  152.9420 H   0  0  0  0  0  0  0  0  0  0  0  0
  146.6897  142.2918  154.8220 H   0  0  0  0  0  0  0  0  0  0  0  0
  145.8123  141.6992  153.4606 H   0  0  0  0  0  0  0  0  0  0  0  0
  146.1842  140.1827  156.0883 H   0  0  0  0  0  0  0  0  0  0  0  0
  144.7269  140.9908  155.5490 H   0  0  0  0  0  0  0  0  0  0  0  0
  144.8361  137.9922  156.1822 H   0  0  0  0  0  0  0  0  0  0  0  0
  143.9515  137.5156  154.7274 H   0  0  0  0  0  0  0  0  0  0  0  0
  143.4340  138.9265  155.6454 H   0  0  0  0  0  0  0  0  0  0  0  0
  146.9589  138.0965  154.7427 H   0  0  0  0  0  0  0  0  0  0  0  0
  145.9806  137.6159  153.3706 H   0  0  0  0  0  0  0  0  0  0  0  0
  146.5473  139.6790  152.1631 H   0  0  0  0  0  0  0  0  0  0  0  0
  147.9844  138.8107  152.5270 H   0  0  0  0  0  0  0  0  0  0  0  0
  149.9303  139.1099  153.6316 H   0  0  0  0  0  0  0  0  0  0  0  0
  150.4106  140.7964  153.5308 H   0  0  0  0  0  0  0  0  0  0  0  0
  151.9849  139.4231  154.8954 H   0  0  0  0  0  0  0  0  0  0  0  0
  150.6741  138.8957  155.9246 H   0  0  0  0  0  0  0  0  0  0  0  0
  154.7725  139.4618  160.8153 H   0  0  0  0  0  0  0  0  0  0  0  0
  144.6359  139.5308  153.6947 H   0  0  0  0  0  0  0  0  0  0  0  0
  1  2  1  0  0  0  0
  1 26  1  0  0  0  0
  1 27  1  0  0  0  0
  1 28  1  0  0  0  0
  2 25  1  0  0  0  0
  2  3  2  0  0  0  0
  3  4  1  0  0  0  0
  3 29  1  0  0  0  0
  4  5  1  0  0  0  0
  4  6  2  0  0  0  0
  5 30  1  0  0  0  0
  5 31  1  0  0  0  0
  5 32  1  0  0  0  0
  6  7  1  0  0  0  0
  7  8  1  0  0  0  0
  7 25  2  0  0  0  0
  8  9  1  0  0  0  0
  8 33  1  0  0  0  0
  9 10  2  0  0  0  0
  9 11  1  0  0  0  0
 11 12  1  0  0  0  0
 11 34  1  0  0  0  0
 12 24  1  0  0  0  0
 12 13  1  0  0  0  0
 12 35  1  0  0  0  0
 13 14  1  0  0  0  0
 13 36  1  0  0  0  0
 13 37  1  0  0  0  0
 14 15  1  0  0  0  0
 14 38  1  0  0  0  0
 14 39  1  0  0  0  0
 15 16  1  0  0  0  0
 15 23  1  0  0  0  0
 16 22  1  0  0  0  0
 16 17  1  0  0  0  0
 16 40  1  0  0  0  0
 17 18  1  0  0  0  0
 17 41  1  0  0  0  0
 17 42  1  0  0  0  0
 18 19  1  0  0  0  0
 18 43  1  0  0  0  0
 18 44  1  0  0  0  0
 19 20  1  0  0  0  0
 19 21  1  0  0  0  0
 19 57  1  0  0  0  0
 20 45  1  0  0  0  0
 20 46  1  0  0  0  0
 20 47  1  0  0  0  0
 21 22  1  0  0  0  0
 21 48  1  0  0  0  0
 21 49  1  0  0  0  0
 22 50  1  0  0  0  0
 22 51  1  0  0  0  0
 23 24  1  0  0  0  0
 23 52  1  0  0  0  0
 23 53  1  0  0  0  0
 24 54  1  0  0  0  0
 24 55  1  0  0  0  0
 25 56  1  0  0  0  0
M  CHG  1  19   1
M  END
> <s_m_source_file>
AV-unprocessed.smi

> <i_m_source_file_index>
2279

> <i_lp_mmshare_version>
43012

> <i_f3d_flags>
0

> <s_epik_input>
W0NIM11jMVtjSF1jKFtDSDNdKW5jKFtjSF0xKVtOSF1DKD1PKVtOSF1bQ0hdMltDSDJdW0NIMl1OKFtDSDJdW0NIMl0yKVtDSF0zW0NIMl1bQ0gyXU4oW0NIM10pW0NIMl1bQ0gyXTM=

> <s_epik_cmdline>
J2VwaWtfcHl0aG9uJywgJy1waCcsICc3LjAnLCAnLXRuJywgJzgnLCAnLW1hJywgJzIwMCcsICctbWV0YWxfYmluZGluZycsICctaW1hZScsICc8aW5maWxlLm1hZT4nLCAnLW9tYWUnLCAnPG91dGZpbGUubWFlPic=

> <r_epik_Ionization_Penalty>
1.01001

> <r_epik_Ionization_Penalty_Charging>
0.000974969

> <r_epik_Ionization_Penalty_Neutral>
1.00904

> <r_epik_State_Penalty>
1.10286

> <r_epik_Charging_Adjusted_Penalty>
1.10383

> <i_epik_Tot_Q>
1

> <i_epik_Tot_abs_Q>
1

> <r_epik_Metal_State_Penalty>
1.10279

> <b_epik_Metal_Only>
0

> <s_lp_Force_Field>
OPLS_2005

> <r_lp_Energy>
36.6633

> <b_lp_Chiralities_Consistent>
1

> <s_lp_Variant>
AV-unprocessed.smi:2279-6

> <Gold.Version>
5.8.1

> <Gold.Id.Protein>
6NUR|6NUR_protein|mol2

> <Gold.PLP.Fitness>
43.5573

> <Gold.PLP.PLP>
-38.4011

> <Gold.PLP.part.hbond>
-1.0000

> <Gold.PLP.part.metal>
0.0000

> <Gold.PLP.part.buried>
1.2428

> <Gold.PLP.part.nonpolar>
-39.0739

> <Gold.PLP.part.repulsive>
0.3440

> <Gold.PLP.ligand.clash>
0.0000

> <Gold.PLP.ligand.torsion>
0.4241

> <Gold.PLP.Chemscore.Hbond>
2.0000

> <Gold.PLP.Chemscore.CHOScore>
0.0000

> <Gold.PLP.Chemscore.Metal>
0.0000

> <Gold.Chemscore.Hbonds>
donor molecule, donor type, donor heavy atom, donor atom, acceptor molecule, acceptor atom, score
      L1  H    19    57       P1 10175  2.00

> <Gold.PLP.Chemscore.Internal.Correction>
0.0045

> <Gold.Rescore>
     Score         DG    S(hbond)    S(metal)    S(lipo)     H(rot)  DE(clash)    DE(int)     intcor
     14.95     -18.63       1.00        0.00     110.08       1.20       0.67       3.02       ----

> <Gold.Chemscore.Fitness>
14.9451

> <Gold.Chemscore.DG>
-18.6309

> <Gold.Chemscore.ZeroCoef>
-5.4800

> <Gold.Chemscore.Hbond>
0.9997

> <Gold.Chemscore.Metal>
0.0000

> <Gold.Chemscore.Lipo>
110.0782

> <Gold.Chemscore.Internal_Hbond>
0.0000

> <Gold.Chemscore.DEClash>
0.6660

> <Gold.Chemscore.DEInternal>
3.0198

> <Gold.Chemscore.Rot>
1.1981

> <Gold.Chemscore.Internal.Correction>
   9.000000E+99

> <Gold.Chemscore.Hbonds>
donor molecule, donor type, donor heavy atom, donor atom, acceptor molecule, acceptor atom, score
      L1  H    19    57       P1 10175  1.00

> <Gold.Chemscore.Hbond.Weighted>
-3.3390

> <Gold.Chemscore.Metal.Weighted>
-0.0000

> <Gold.Chemscore.Lipo.Weighted>
-12.8792

> <Gold.Chemscore.Internal_Hbond.Weighted>
0.0000

> <Gold.Chemscore.DEClash.Weighted>
0.6660

> <Gold.Chemscore.DEInternal.Weighted>
3.0198

> <Gold.Chemscore.Rot.Weighted>
3.0673

> <Gold.Chemscore.Internal.Correction.Weighted>
   9.000000E+99

> <Gold.Protein.RotatedTorsions>
[ 6907 6896 6895 6894 ] final -155.76 input  -60.11 | X-H torsion
[ 7974 7965 7964 7962 ] final   57.49 input  175.53 | X-H torsion
[ 8008 7997 7996 7995 ] final   50.01 input   59.86 | X-H torsion
[ 10167 10162 10161 10158 ] final -138.30 input  -65.29 | X-H torsion
[ 10718 10713 10712 10709 ] final -168.73 input   66.30 | X-H torsion
[ 10763 10752 10751 10750 ] final  -14.72 input  -60.55 | X-H torsion
[ 11005 11000 10999 10996 ] final  147.37 input  -57.11 | X-H torsion

> <Gold.Protein.ActiveResidues>
 VAL166  LYS551  ARG553  GLY616  TRP617  ASP618  TYR619  PRO620  LYS621  CYS622 
 ASP623  PHE694  ASN695  SER759  ASP760  ASP761  ALA762  ILE779  LEU786  VAL792 
 PHE793  MET794  SER795  GLU796  ALA797  LYS798  CYS799  TRP800  GLU811  SER814 

> <Gold.Protein.RotatedAtoms>
  151.2774  133.4226  159.2624 H   0  0  0  0  0  0  0  0  0  0  0  0  # atno 6907 bound_to 6896
  151.0391  134.9595  159.8162 H   0  0  0  0  0  0  0  0  0  0  0  0  # atno 6908 bound_to 6896
  152.5361  134.2732  159.9032 H   0  0  0  0  0  0  0  0  0  0  0  0  # atno 6909 bound_to 6896
  145.9285  139.3788  143.0435 H   0  0  0  0  0  0  0  0  0  0  0  0  # atno 7974 bound_to 7965
  155.4117  140.3442  155.4264 H   0  0  0  0  0  0  0  0  0  0  0  0  # atno 8008 bound_to 7997
  156.1445  140.1552  156.8901 H   0  0  0  0  0  0  0  0  0  0  0  0  # atno 8009 bound_to 7997
  154.4998  140.0817  156.7755 H   0  0  0  0  0  0  0  0  0  0  0  0  # atno 8010 bound_to 7997
  139.8492  143.7220  152.2659 H   0  0  0  0  0  0  0  0  0  0  0  0  # atno 10167 bound_to 10162
  156.7012  130.9197  151.3080 H   0  0  0  0  0  0  0  0  0  0  0  0  # atno 10718 bound_to 10713
  153.5325  135.7014  153.5676 H   0  0  0  0  0  0  0  0  0  0  0  0  # atno 10763 bound_to 10752
  153.3678  135.3953  155.1766 H   0  0  0  0  0  0  0  0  0  0  0  0  # atno 10764 bound_to 10752
  154.8683  135.3804  154.4823 H   0  0  0  0  0  0  0  0  0  0  0  0  # atno 10765 bound_to 10752
  140.0870  134.9063  157.1591 H   0  0  0  0  0  0  0  0  0  0  0  0  # atno 11005 bound_to 11000
  145.8457  140.9556  143.0776 LP  0  0  0  0  0  0  0  0  0  0  0  0  # atno 17320 bound_to 7965
  144.6762  140.0342  143.7482 LP  0  0  0  0  0  0  0  0  0  0  0  0  # atno 17321 bound_to 7965
  139.7482  144.7541  151.0547 LP  0  0  0  0  0  0  0  0  0  0  0  0  # atno 17342 bound_to 10162
  140.7789  143.4891  150.9916 LP  0  0  0  0  0  0  0  0  0  0  0  0  # atno 17343 bound_to 10162
  157.6972  130.9294  150.0679 LP  0  0  0  0  0  0  0  0  0  0  0  0  # atno 17370 bound_to 10713
  156.1727  130.3647  149.9143 LP  0  0  0  0  0  0  0  0  0  0  0  0  # atno 17371 bound_to 10713
  140.3406  134.2708  155.7213 LP  0  0  0  0  0  0  0  0  0  0  0  0  # atno 17394 bound_to 11000
  141.2066  133.7829  157.0169 LP  0  0  0  0  0  0  0  0  0  0  0  0  # atno 17395 bound_to 11000

$$$$
