AV-unprocessed.smi:38|AV-procd|sdf|345|dock9
  -GOLD-   2262016183D 1   1.00000     0.00000
 Structure written by MMmdl.
 27 28  0  0  0  0  0  0  0  0  2 V2000
  152.6254  139.6879  156.1791 O   0  0  0  0  0  0  0  0  0  0  0  0
  151.5022  139.6662  155.6778 C   0  0  0  0  0  0  0  0  0  0  0  0
  150.5522  140.6066  155.9535 N   0  5  0  0  0  0  0  0  0  0  0  0
  149.3046  140.5794  155.3988 C   0  0  0  0  0  0  0  0  0  0  0  0
  148.4502  141.4370  155.6227 O   0  0  0  0  0  0  0  0  0  0  0  0
  148.9715  139.5191  154.5132 N   0  0  0  0  0  0  0  0  0  0  0  0
  147.6015  139.4796  153.8806 C   0  0  1  0  0  0  0  0  0  0  0  0
  147.6907  139.6238  152.3652 C   0  0  0  0  0  0  0  0  0  0  0  0
  146.5043  138.7917  151.8887 C   0  0  1  0  0  0  0  0  0  0  0  0
  146.9118  137.9145  150.8548 O   0  0  0  0  0  0  0  0  0  0  0  0
  145.9813  138.0750  153.1567 C   0  0  1  0  0  0  0  0  0  0  0  0
  145.6335  136.5827  153.0013 C   0  0  0  0  0  0  0  0  0  0  0  0
  146.7950  135.7940  153.1496 O   0  0  0  0  0  0  0  0  0  0  0  0
  147.0273  138.2356  154.1060 O   0  0  0  0  0  0  0  0  0  0  0  0
  149.9212  138.5619  154.1987 C   0  0  0  0  0  0  0  0  0  0  0  0
  151.1548  138.5974  154.7427 C   0  0  0  0  0  0  0  0  0  0  0  0
  152.0573  137.6555  154.4177 F   0  0  0  0  0  0  0  0  0  0  0  0
  146.9903  140.2444  154.3638 H   0  0  0  0  0  0  0  0  0  0  0  0
  145.7234  139.4401  151.4897 H   0  0  0  0  0  0  0  0  0  0  0  0
  145.1090  138.6244  153.5172 H   0  0  0  0  0  0  0  0  0  0  0  0
  147.6392  140.6732  152.0730 H   0  0  0  0  0  0  0  0  0  0  0  0
  148.6372  139.2050  152.0175 H   0  0  0  0  0  0  0  0  0  0  0  0
  147.6062  137.3644  151.1834 H   0  0  0  0  0  0  0  0  0  0  0  0
  144.9386  136.2701  153.7808 H   0  0  0  0  0  0  0  0  0  0  0  0
  145.1592  136.3844  152.0396 H   0  0  0  0  0  0  0  0  0  0  0  0
  147.4141  136.0426  152.4805 H   0  0  0  0  0  0  0  0  0  0  0  0
  149.6809  137.7731  153.5014 H   0  0  0  0  0  0  0  0  0  0  0  0
  1  2  2  0  0  0  0
  2 16  1  0  0  0  0
  2  3  1  0  0  0  0
  3  4  1  0  0  0  0
  4  5  2  0  0  0  0
  4  6  1  0  0  0  0
  6  7  1  0  0  0  0
  6 15  1  0  0  0  0
  7 18  1  0  0  0  0
  7 14  1  0  0  0  0
  7  8  1  0  0  0  0
  8  9  1  0  0  0  0
  8 21  1  0  0  0  0
  8 22  1  0  0  0  0
  9 19  1  0  0  0  0
  9 10  1  0  0  0  0
  9 11  1  0  0  0  0
 10 23  1  0  0  0  0
 11 20  1  0  0  0  0
 11 12  1  0  0  0  0
 11 14  1  0  0  0  0
 12 13  1  0  0  0  0
 12 24  1  0  0  0  0
 12 25  1  0  0  0  0
 13 26  1  0  0  0  0
 15 16  2  0  0  0  0
 15 27  1  0  0  0  0
 16 17  1  0  0  0  0
M  CHG  1   3  -1
M  END
> <s_m_source_file>
AV-unprocessed.smi

> <i_m_source_file_index>
38

> <i_lp_mmshare_version>
43012

> <i_f3d_flags>
0

> <s_epik_input>
Tz1jMVtuSF1jKD1PKW4oW2NIXWMxRilbQ0BIXTJbQ0gyXVtDQEhdKFtPSF0pW0NASF0oTzIpW0NIMl1bT0hd

> <s_epik_cmdline>
J2VwaWtfcHl0aG9uJywgJy1waCcsICc3LjAnLCAnLXRuJywgJzgnLCAnLW1hJywgJzIwMCcsICctbWV0YWxfYmluZGluZycsICctaW1hZScsICc8aW5maWxlLm1hZT4nLCAnLW9tYWUnLCAnPG91dGZpbGUubWFlPic=

> <r_epik_Ionization_Penalty>
1.68146

> <r_epik_Ionization_Penalty_Charging>
3.4211e-08

> <r_epik_Ionization_Penalty_Neutral>
1.68146

> <r_epik_State_Penalty>
1.78593

> <r_epik_Charging_Adjusted_Penalty>
1.78593

> <i_epik_Tot_Q>
-1

> <i_epik_Tot_abs_Q>
1

> <r_epik_Metal_State_Penalty>
0.0113696

> <b_epik_Metal_Only>
0

> <s_epik_Chemistry_Notes>
This compound contains an acetal/aminal-like group ( X-CH(R)-Y where X, Y are N, S, or O) that may be acid/base labile, releasing an aldehyde.

> <s_lp_Force_Field>
OPLS_2005

> <r_lp_Energy>
42.0277

> <b_lp_Chiralities_Consistent>
1

> <s_lp_Variant>
AV-unprocessed.smi:38-11

> <Gold.Version>
5.8.1

> <Gold.Id.Protein>
6NUR|6NUR_protein|mol2

> <Gold.PLP.Fitness>
38.0784

> <Gold.PLP.PLP>
-26.7135

> <Gold.PLP.part.hbond>
-3.7690

> <Gold.PLP.part.metal>
0.0000

> <Gold.PLP.part.buried>
1.8819

> <Gold.PLP.part.nonpolar>
-25.6735

> <Gold.PLP.part.repulsive>
0.2864

> <Gold.PLP.ligand.clash>
0.0000

> <Gold.PLP.ligand.torsion>
0.3283

> <Gold.PLP.Chemscore.Hbond>
3.0000

> <Gold.PLP.Chemscore.CHOScore>
1.0000

> <Gold.PLP.Chemscore.Metal>
0.0000

> <Gold.Chemscore.Hbonds>
donor molecule, donor type, donor heavy atom, donor atom, acceptor molecule, acceptor atom, score
      L1  H    10    23       P1  7948  1.00
      L1  H    13    26       P1  7948  1.00
      P1  H  7997  8009       L1     1  1.00
      L1  C    15    27       P1  7948  1.00

> <Gold.PLP.Chemscore.Internal.Correction>
0.0215

> <Gold.Rescore>
     Score         DG    S(hbond)    S(metal)    S(lipo)     H(rot)  DE(clash)    DE(int)     intcor
     10.90     -12.84       2.99        0.00      40.53       2.88       1.57       0.37       ----

> <Gold.Chemscore.Fitness>
10.9011

> <Gold.Chemscore.DG>
-12.8424

> <Gold.Chemscore.ZeroCoef>
-5.4800

> <Gold.Chemscore.Hbond>
2.9930

> <Gold.Chemscore.Metal>
0.0000

> <Gold.Chemscore.Lipo>
40.5326

> <Gold.Chemscore.Internal_Hbond>
0.0000

> <Gold.Chemscore.DEClash>
1.5692

> <Gold.Chemscore.DEInternal>
0.3722

> <Gold.Chemscore.Rot>
2.8815

> <Gold.Chemscore.Internal.Correction>
   9.000000E+99

> <Gold.Chemscore.Hbonds>
donor molecule, donor type, donor heavy atom, donor atom, acceptor molecule, acceptor atom, score
      L1  H    10    23       P1  7948  1.00
      L1  H    13    26       P1  7948  0.97
      P1  H  7997  8009       L1     1  0.99

> <Gold.Chemscore.Hbond.Weighted>
-9.9967

> <Gold.Chemscore.Metal.Weighted>
-0.0000

> <Gold.Chemscore.Lipo.Weighted>
-4.7423

> <Gold.Chemscore.Internal_Hbond.Weighted>
0.0000

> <Gold.Chemscore.DEClash.Weighted>
1.5692

> <Gold.Chemscore.DEInternal.Weighted>
0.3722

> <Gold.Chemscore.Rot.Weighted>
7.3765

> <Gold.Chemscore.Internal.Correction.Weighted>
   9.000000E+99

> <Gold.Protein.RotatedTorsions>
[ 6907 6896 6895 6894 ] final   54.84 input  -60.11 | X-H torsion
[ 7974 7965 7964 7962 ] final -148.38 input  175.53 | X-H torsion
[ 8008 7997 7996 7995 ] final -176.19 input   59.86 | X-H torsion
[ 10167 10162 10161 10158 ] final  157.51 input  -65.29 | X-H torsion
[ 10718 10713 10712 10709 ] final  -17.17 input   66.30 | X-H torsion
[ 10763 10752 10751 10750 ] final -143.73 input  -60.55 | X-H torsion
[ 11005 11000 10999 10996 ] final -161.30 input  -57.11 | X-H torsion

> <Gold.Protein.ActiveResidues>
 VAL166  LYS551  ARG553  GLY616  TRP617  ASP618  TYR619  PRO620  LYS621  CYS622 
 ASP623  PHE694  ASN695  SER759  ASP760  ASP761  ALA762  ILE779  LEU786  VAL792 
 PHE793  MET794  SER795  GLU796  ALA797  LYS798  CYS799  TRP800  GLU811  SER814 

> <Gold.Protein.RotatedAtoms>
  152.3479  134.7045  160.0244 H   0  0  0  0  0  0  0  0  0  0  0  0  # atno 6907 bound_to 6896
  151.7409  133.3316  159.3373 H   0  0  0  0  0  0  0  0  0  0  0  0  # atno 6908 bound_to 6896
  150.7521  134.6212  159.6181 H   0  0  0  0  0  0  0  0  0  0  0  0  # atno 6909 bound_to 6896
  144.8033  140.5204  143.5692 H   0  0  0  0  0  0  0  0  0  0  0  0  # atno 7974 bound_to 7965
  155.9918  140.1202  157.0631 H   0  0  0  0  0  0  0  0  0  0  0  0  # atno 8008 bound_to 7997
  154.4214  140.1124  156.5645 H   0  0  0  0  0  0  0  0  0  0  0  0  # atno 8009 bound_to 7997
  155.6332  140.3473  155.4692 H   0  0  0  0  0  0  0  0  0  0  0  0  # atno 8010 bound_to 7997
  139.4823  144.4911  151.8307 H   0  0  0  0  0  0  0  0  0  0  0  0  # atno 10167 bound_to 10162
  156.5773  130.4765  149.6336 H   0  0  0  0  0  0  0  0  0  0  0  0  # atno 10718 bound_to 10713
  154.8458  135.3460  154.6233 H   0  0  0  0  0  0  0  0  0  0  0  0  # atno 10763 bound_to 10752
  153.6842  135.6978  153.5113 H   0  0  0  0  0  0  0  0  0  0  0  0  # atno 10764 bound_to 10752
  153.2645  135.4312  155.0882 H   0  0  0  0  0  0  0  0  0  0  0  0  # atno 10765 bound_to 10752
  140.6219  134.4742  157.5224 H   0  0  0  0  0  0  0  0  0  0  0  0  # atno 11005 bound_to 11000
  145.5499  139.1476  143.3400 LP  0  0  0  0  0  0  0  0  0  0  0  0  # atno 17320 bound_to 7965
  146.2319  140.5637  142.8971 LP  0  0  0  0  0  0  0  0  0  0  0  0  # atno 17321 bound_to 7965
  140.4395  144.2006  150.5890 LP  0  0  0  0  0  0  0  0  0  0  0  0  # atno 17342 bound_to 10162
  140.4698  143.2417  151.9105 LP  0  0  0  0  0  0  0  0  0  0  0  0  # atno 17343 bound_to 10162
  156.2662  130.6991  151.1774 LP  0  0  0  0  0  0  0  0  0  0  0  0  # atno 17370 bound_to 10713
  157.7334  131.0591  150.5576 LP  0  0  0  0  0  0  0  0  0  0  0  0  # atno 17371 bound_to 10713
  139.9150  134.8265  156.1397 LP  0  0  0  0  0  0  0  0  0  0  0  0  # atno 17394 bound_to 11000
  141.0736  133.6785  156.2191 LP  0  0  0  0  0  0  0  0  0  0  0  0  # atno 17395 bound_to 11000

$$$$
