AV-unprocessed.smi:743|AV-procd|sdf|3563|dock10
  -GOLD-   22720 0563D 1   1.00000     0.00000
 Structure written by MMmdl.
 29 30  0  0  0  0  0  0  0  0  2 V2000
  152.6427  138.1677  154.3291 C   0  0  0  0  0  0  0  0  0  0  0  0
  151.3323  138.7544  154.5111 N   0  0  0  0  0  0  0  0  0  0  0  0
  150.0964  138.1708  154.3386 C   0  0  0  0  0  0  0  0  0  0  0  0
  149.1474  139.1120  154.6349 C   0  0  0  0  0  0  0  0  0  0  0  0
  147.6359  138.9998  154.6204 C   0  0  1  0  0  0  0  0  0  0  0  0
  147.0502  139.7105  155.7603 N   0  0  0  0  0  0  0  0  0  0  0  0
  146.5301  140.9523  155.7506 C   0  0  0  0  0  0  0  0  0  0  0  0
  146.1706  141.5030  156.7879 O   0  0  0  0  0  0  0  0  0  0  0  0
  146.3345  141.6755  154.4072 C   0  0  0  0  0  0  0  0  0  0  0  0
  147.0790  141.0318  153.2232 C   0  0  0  0  0  0  0  0  0  0  0  0
  147.0133  139.5003  153.2943 C   0  0  1  0  0  0  0  0  0  0  0  0
  147.6230  138.8704  152.1082 N   0  3  0  0  0  0  0  0  0  0  0  0
  149.9256  140.2589  154.9679 C   0  0  0  0  0  0  0  0  0  0  0  0
  151.2277  140.0405  154.9007 N   0  0  0  0  0  0  0  0  0  0  0  0
  145.9609  139.2123  153.2818 H   0  0  0  0  0  0  0  0  0  0  0  0
  152.5472  137.1213  154.0381 H   0  0  0  0  0  0  0  0  0  0  0  0
  153.2067  138.2259  155.2606 H   0  0  0  0  0  0  0  0  0  0  0  0
  153.1824  138.7045  153.5483 H   0  0  0  0  0  0  0  0  0  0  0  0
  149.9946  137.1409  154.0281 H   0  0  0  0  0  0  0  0  0  0  0  0
  147.3557  137.9529  154.7435 H   0  0  0  0  0  0  0  0  0  0  0  0
  147.1190  139.2498  156.6568 H   0  0  0  0  0  0  0  0  0  0  0  0
  145.2643  141.6753  154.1984 H   0  0  0  0  0  0  0  0  0  0  0  0
  146.6277  142.7208  154.5090 H   0  0  0  0  0  0  0  0  0  0  0  0
  146.6393  141.3825  152.2889 H   0  0  0  0  0  0  0  0  0  0  0  0
  148.1170  141.3673  153.2145 H   0  0  0  0  0  0  0  0  0  0  0  0
  146.9063  138.6889  151.4198 H   0  0  0  0  0  0  0  0  0  0  0  0
  148.0608  138.0002  152.3754 H   0  0  0  0  0  0  0  0  0  0  0  0
  149.5816  141.2394  155.2625 H   0  0  0  0  0  0  0  0  0  0  0  0
  148.3175  139.4896  151.7154 H   0  0  0  0  0  0  0  0  0  0  0  0
  1  2  1  0  0  0  0
  1 16  1  0  0  0  0
  1 17  1  0  0  0  0
  1 18  1  0  0  0  0
  2 14  1  0  0  0  0
  2  3  1  0  0  0  0
  3  4  2  0  0  0  0
  3 19  1  0  0  0  0
  4  5  1  0  0  0  0
  4 13  1  0  0  0  0
  5 11  1  0  0  0  0
  5  6  1  0  0  0  0
  5 20  1  0  0  0  0
  6  7  1  0  0  0  0
  6 21  1  0  0  0  0
  7  8  2  0  0  0  0
  7  9  1  0  0  0  0
  9 10  1  0  0  0  0
  9 22  1  0  0  0  0
  9 23  1  0  0  0  0
 10 11  1  0  0  0  0
 10 24  1  0  0  0  0
 10 25  1  0  0  0  0
 11 15  1  0  0  0  0
 11 12  1  0  0  0  0
 12 26  1  0  0  0  0
 12 27  1  0  0  0  0
 12 29  1  0  0  0  0
 13 14  2  0  0  0  0
 13 28  1  0  0  0  0
M  CHG  1  12   1
M  END
> <s_m_source_file>
AV-unprocessed.smi

> <i_m_source_file_index>
743

> <i_lp_mmshare_version>
43012

> <i_f3d_flags>
0

> <s_epik_input>
W0NIM11uMVtjSF1jKFtjSF1uMSlbQ0BASF0yW05IXUMoPU8pW0NIMl1bQ0gyXVtDQEBIXTJbTkgyXQ==

> <s_epik_cmdline>
J2VwaWtfcHl0aG9uJywgJy1waCcsICc3LjAnLCAnLXRuJywgJzgnLCAnLW1hJywgJzIwMCcsICctbWV0YWxfYmluZGluZycsICctaW1hZScsICc8aW5maWxlLm1hZT4nLCAnLW9tYWUnLCAnPG91dGZpbGUubWFlPic=

> <r_lp_tautomer_probability>
1

> <r_epik_Ionization_Penalty>
0.00878543

> <r_epik_Ionization_Penalty_Charging>
0.00874185

> <r_epik_Ionization_Penalty_Neutral>
4.35793e-05

> <r_epik_State_Penalty>
0.00660351

> <r_epik_Charging_Adjusted_Penalty>
0.0153454

> <i_epik_Tot_Q>
1

> <i_epik_Tot_abs_Q>
1

> <r_epik_Metal_State_Penalty>
0.00660727

> <b_epik_Metal_Only>
0

> <s_lp_Force_Field>
OPLS_2005

> <r_lp_Energy>
11.1602

> <b_lp_Chiralities_Consistent>
1

> <s_lp_Variant>
AV-unprocessed.smi:743-4

> <Gold.Version>
5.8.1

> <Gold.Id.Protein>
6NUR|6NUR_protein|mol2

> <Gold.PLP.Fitness>
36.7697

> <Gold.PLP.PLP>
-23.6816

> <Gold.PLP.part.hbond>
-2.7578

> <Gold.PLP.part.metal>
0.0000

> <Gold.PLP.part.buried>
-4.0378

> <Gold.PLP.part.nonpolar>
-17.9228

> <Gold.PLP.part.repulsive>
0.1882

> <Gold.PLP.ligand.clash>
0.0000

> <Gold.PLP.ligand.torsion>
0.6254

> <Gold.PLP.Chemscore.Hbond>
3.8133

> <Gold.PLP.Chemscore.CHOScore>
0.9601

> <Gold.PLP.Chemscore.Metal>
0.0000

> <Gold.Chemscore.Hbonds>
donor molecule, donor type, donor heavy atom, donor atom, acceptor molecule, acceptor atom, score
      L1  H    12    27       P1  7948  1.95
      L1  H    12    29       P1  7957  0.88
      P1  H  7989  7998       L1    14  1.00
      L1  C     3    19       P1  7948  0.96

> <Gold.PLP.Chemscore.Internal.Correction>
0.0187

> <Gold.Rescore>
     Score         DG    S(hbond)    S(metal)    S(lipo)     H(rot)  DE(clash)    DE(int)     intcor
     17.10     -17.32       2.66        0.00      47.19       1.00       0.00       0.22       ----

> <Gold.Chemscore.Fitness>
17.0995

> <Gold.Chemscore.DG>
-17.3219

> <Gold.Chemscore.ZeroCoef>
-5.4800

> <Gold.Chemscore.Hbond>
2.6588

> <Gold.Chemscore.Metal>
0.0000

> <Gold.Chemscore.Lipo>
47.1910

> <Gold.Chemscore.Internal_Hbond>
0.0000

> <Gold.Chemscore.DEClash>
0.0030

> <Gold.Chemscore.DEInternal>
0.2194

> <Gold.Chemscore.Rot>
1.0000

> <Gold.Chemscore.Internal.Correction>
   9.000000E+99

> <Gold.Chemscore.Hbonds>
donor molecule, donor type, donor heavy atom, donor atom, acceptor molecule, acceptor atom, score
      L1  H    12    27       P1  7948  0.87
      L1  H    12    29       P1  7957  0.84
      P1  H  7989  7998       L1    14  0.12

> <Gold.Chemscore.Hbond.Weighted>
-8.8805

> <Gold.Chemscore.Metal.Weighted>
-0.0000

> <Gold.Chemscore.Lipo.Weighted>
-5.5214

> <Gold.Chemscore.Internal_Hbond.Weighted>
0.0000

> <Gold.Chemscore.DEClash.Weighted>
0.0030

> <Gold.Chemscore.DEInternal.Weighted>
0.2194

> <Gold.Chemscore.Rot.Weighted>
2.5600

> <Gold.Chemscore.Internal.Correction.Weighted>
   9.000000E+99

> <Gold.Protein.RotatedTorsions>
[ 6907 6896 6895 6894 ] final    5.56 input  -60.11 | X-H torsion
[ 7974 7965 7964 7962 ] final  151.59 input  175.53 | X-H torsion
[ 8008 7997 7996 7995 ] final   27.18 input   59.86 | X-H torsion
[ 10167 10162 10161 10158 ] final   85.67 input  -65.29 | X-H torsion
[ 10718 10713 10712 10709 ] final  -56.41 input   66.30 | X-H torsion
[ 10763 10752 10751 10750 ] final  -11.63 input  -60.55 | X-H torsion
[ 11005 11000 10999 10996 ] final   36.89 input  -57.11 | X-H torsion

> <Gold.Protein.ActiveResidues>
 VAL166  LYS551  ARG553  GLY616  TRP617  ASP618  TYR619  PRO620  LYS621  CYS622 
 ASP623  PHE694  ASN695  SER759  ASP760  ASP761  ALA762  ILE779  LEU786  VAL792 
 PHE793  MET794  SER795  GLU796  ALA797  LYS798  CYS799  TRP800  GLU811  SER814 

> <Gold.Protein.RotatedAtoms>
  151.6595  135.0991  160.0176 H   0  0  0  0  0  0  0  0  0  0  0  0  # atno 6907 bound_to 6896
  152.3955  133.6736  159.6281 H   0  0  0  0  0  0  0  0  0  0  0  0  # atno 6908 bound_to 6896
  150.7863  133.8799  159.3324 H   0  0  0  0  0  0  0  0  0  0  0  0  # atno 6909 bound_to 6896
  144.8281  139.6558  143.6071 H   0  0  0  0  0  0  0  0  0  0  0  0  # atno 7974 bound_to 7965
  155.0389  140.3167  155.4732 H   0  0  0  0  0  0  0  0  0  0  0  0  # atno 8008 bound_to 7997
  156.2859  140.2167  156.5455 H   0  0  0  0  0  0  0  0  0  0  0  0  # atno 8009 bound_to 7997
  154.7307  140.0481  157.0711 H   0  0  0  0  0  0  0  0  0  0  0  0  # atno 8010 bound_to 7997
  139.8953  144.6361  150.8695 H   0  0  0  0  0  0  0  0  0  0  0  0  # atno 10167 bound_to 10162
  156.1291  130.4160  150.0301 H   0  0  0  0  0  0  0  0  0  0  0  0  # atno 10718 bound_to 10713
  153.4866  135.7017  153.5908 H   0  0  0  0  0  0  0  0  0  0  0  0  # atno 10763 bound_to 10752
  153.4098  135.3851  155.2043 H   0  0  0  0  0  0  0  0  0  0  0  0  # atno 10764 bound_to 10752
  154.8719  135.3902  154.4322 H   0  0  0  0  0  0  0  0  0  0  0  0  # atno 10765 bound_to 10752
  140.2280  134.3562  155.7976 H   0  0  0  0  0  0  0  0  0  0  0  0  # atno 11005 bound_to 11000
  146.2586  139.6358  142.9378 LP  0  0  0  0  0  0  0  0  0  0  0  0  # atno 17320 bound_to 7965
  145.4955  141.0438  143.2569 LP  0  0  0  0  0  0  0  0  0  0  0  0  # atno 17321 bound_to 7965
  140.7718  143.3478  151.2075 LP  0  0  0  0  0  0  0  0  0  0  0  0  # atno 17342 bound_to 10162
  139.7073  143.9434  152.2932 LP  0  0  0  0  0  0  0  0  0  0  0  0  # atno 17343 bound_to 10162
  156.8218  130.9361  151.3641 LP  0  0  0  0  0  0  0  0  0  0  0  0  # atno 17370 bound_to 10713
  157.6470  130.8853  149.9558 LP  0  0  0  0  0  0  0  0  0  0  0  0  # atno 17371 bound_to 10713
  141.2219  133.7229  156.8684 LP  0  0  0  0  0  0  0  0  0  0  0  0  # atno 17394 bound_to 11000
  140.1780  134.9053  157.2914 LP  0  0  0  0  0  0  0  0  0  0  0  0  # atno 17395 bound_to 11000

$$$$
