AV-unprocessed.smi:1859|AV-procd|sdf|7543|dock5
  -GOLD-   22720 9253D 1   1.00000     0.00000
 Structure written by MMmdl.
 45 47  0  0  0  0  0  0  0  0  1 V2000
  150.7887  136.9881  159.7212 O   0  0  0  0  0  0  0  0  0  0  0  0
  150.4110  136.9893  158.5494 C   0  0  0  0  0  0  0  0  0  0  0  0
  150.7100  137.9744  157.6871 N   0  0  0  0  0  0  0  0  0  0  0  0
  151.4845  139.1727  158.0014 C   0  0  0  0  0  0  0  0  0  0  0  0
  150.5997  140.4223  158.1694 C   0  0  0  0  0  0  0  0  0  0  0  0
  151.3785  141.7229  158.2710 C   0  0  0  0  0  0  0  0  0  0  0  0
  152.4270  141.8657  159.2052 C   0  0  0  0  0  0  0  0  0  0  0  0
  153.1238  143.0883  159.2490 C   0  0  0  0  0  0  0  0  0  0  0  0
  152.7439  144.1181  158.3667 C   0  0  0  0  0  0  0  0  0  0  0  0
  151.6793  143.8780  157.4758 C   0  0  0  0  0  0  0  0  0  0  0  0
  151.0112  142.7058  157.4180 N   0  0  0  0  0  0  0  0  0  0  0  0
  149.5461  135.8386  157.9986 C   0  0  2  0  0  0  0  0  0  0  0  0
  148.7418  136.2686  156.7450 C   0  0  0  0  0  0  0  0  0  0  0  0
  147.4644  137.0681  157.0778 C   0  0  0  0  0  0  0  0  0  0  0  0
  146.6427  136.3475  158.1579 C   0  0  0  0  0  0  0  0  0  0  0  0
  147.4820  136.1500  159.3473 N   0  0  0  0  0  0  0  0  0  0  0  0
  147.2887  136.7195  160.5627 C   0  0  0  0  0  0  0  0  0  0  0  0
  146.5329  137.6798  160.7142 O   0  0  0  0  0  0  0  0  0  0  0  0
  147.9910  136.1029  161.7383 C   0  0  0  0  0  0  0  0  0  0  0  0
  147.1536  135.3389  162.7478 C   0  0  0  0  0  0  0  0  0  0  0  0
  147.7062  136.6957  163.1022 C   0  0  0  0  0  0  0  0  0  0  0  0
  148.6008  135.2350  159.0706 C   0  0  0  0  0  0  0  0  0  0  0  0
  150.3612  137.8950  156.7430 H   0  0  0  0  0  0  0  0  0  0  0  0
  152.0246  138.9866  158.9298 H   0  0  0  0  0  0  0  0  0  0  0  0
  152.2473  139.3530  157.2422 H   0  0  0  0  0  0  0  0  0  0  0  0
  149.9015  140.4889  157.3341 H   0  0  0  0  0  0  0  0  0  0  0  0
  149.9859  140.3152  159.0645 H   0  0  0  0  0  0  0  0  0  0  0  0
  152.6923  141.0597  159.8734 H   0  0  0  0  0  0  0  0  0  0  0  0
  153.9303  143.2368  159.9515 H   0  0  0  0  0  0  0  0  0  0  0  0
  153.2502  145.0717  158.3788 H   0  0  0  0  0  0  0  0  0  0  0  0
  151.3585  144.6469  156.7888 H   0  0  0  0  0  0  0  0  0  0  0  0
  150.2311  135.0478  157.6877 H   0  0  0  0  0  0  0  0  0  0  0  0
  149.3700  136.8432  156.0626 H   0  0  0  0  0  0  0  0  0  0  0  0
  148.4547  135.3709  156.1962 H   0  0  0  0  0  0  0  0  0  0  0  0
  147.7215  138.0712  157.4186 H   0  0  0  0  0  0  0  0  0  0  0  0
  146.8646  137.1970  156.1765 H   0  0  0  0  0  0  0  0  0  0  0  0
  145.7135  136.8787  158.3590 H   0  0  0  0  0  0  0  0  0  0  0  0
  146.3283  135.3714  157.7852 H   0  0  0  0  0  0  0  0  0  0  0  0
  148.9798  135.6832  161.5677 H   0  0  0  0  0  0  0  0  0  0  0  0
  146.0786  135.2606  162.5952 H   0  0  0  0  0  0  0  0  0  0  0  0
  147.6132  134.4659  163.2068 H   0  0  0  0  0  0  0  0  0  0  0  0
  148.5378  136.7443  163.8020 H   0  0  0  0  0  0  0  0  0  0  0  0
  146.9993  137.5210  163.1686 H   0  0  0  0  0  0  0  0  0  0  0  0
  148.2000  134.2845  158.7156 H   0  0  0  0  0  0  0  0  0  0  0  0
  149.1759  134.9888  159.9651 H   0  0  0  0  0  0  0  0  0  0  0  0
  1  2  2  0  0  0  0
  2  3  1  0  0  0  0
  2 12  1  0  0  0  0
  3  4  1  0  0  0  0
  3 23  1  0  0  0  0
  4  5  1  0  0  0  0
  4 24  1  0  0  0  0
  4 25  1  0  0  0  0
  5  6  1  0  0  0  0
  5 26  1  0  0  0  0
  5 27  1  0  0  0  0
  6 11  1  0  0  0  0
  6  7  2  0  0  0  0
  7  8  1  0  0  0  0
  7 28  1  0  0  0  0
  8  9  2  0  0  0  0
  8 29  1  0  0  0  0
  9 10  1  0  0  0  0
  9 30  1  0  0  0  0
 10 11  2  0  0  0  0
 10 31  1  0  0  0  0
 12 22  1  0  0  0  0
 12 13  1  0  0  0  0
 12 32  1  0  0  0  0
 13 14  1  0  0  0  0
 13 33  1  0  0  0  0
 13 34  1  0  0  0  0
 14 15  1  0  0  0  0
 14 35  1  0  0  0  0
 14 36  1  0  0  0  0
 15 16  1  0  0  0  0
 15 37  1  0  0  0  0
 15 38  1  0  0  0  0
 16 17  1  0  0  0  0
 16 22  1  0  0  0  0
 17 18  2  0  0  0  0
 17 19  1  0  0  0  0
 19 21  1  0  0  0  0
 19 20  1  0  0  0  0
 19 39  1  0  0  0  0
 20 21  1  0  0  0  0
 20 40  1  0  0  0  0
 20 41  1  0  0  0  0
 21 42  1  0  0  0  0
 21 43  1  0  0  0  0
 22 44  1  0  0  0  0
 22 45  1  0  0  0  0
M  END
> <s_m_source_file>
AV-unprocessed.smi

> <i_m_source_file_index>
1859

> <i_lp_mmshare_version>
43012

> <i_f3d_flags>
0

> <s_epik_input>
W0NIMl0xW0NIMl1bQ0hdMUMoPU8pTihbQ0gyXTIpW0NIMl1bQ0gyXVtDSDJdW0NASF0yQyg9TylbTkhdW0NIMl1bQ0gyXWMzW2NIXVtjSF1bY0hdW2NIXW4z

> <s_epik_cmdline>
J2VwaWtfcHl0aG9uJywgJy1waCcsICc3LjAnLCAnLXRuJywgJzgnLCAnLW1hJywgJzIwMCcsICctbWV0YWxfYmluZGluZycsICctaW1hZScsICc8aW5maWxlLm1hZT4nLCAnLW9tYWUnLCAnPG91dGZpbGUubWFlPic=

> <r_epik_Ionization_Penalty>
0.0268048

> <r_epik_Ionization_Penalty_Charging>
0

> <r_epik_Ionization_Penalty_Neutral>
0.0268048

> <r_epik_State_Penalty>
0.0219025

> <r_epik_Charging_Adjusted_Penalty>
0.0219025

> <i_epik_Tot_Q>
0

> <i_epik_Tot_abs_Q>
0

> <r_epik_Metal_State_Penalty>
0.020951

> <b_epik_Metal_Only>
0

> <s_lp_Force_Field>
OPLS_2005

> <r_lp_Energy>
24.9831

> <b_lp_Chiralities_Consistent>
1

> <s_lp_Variant>
AV-unprocessed.smi:1859-1

> <Gold.Version>
5.8.1

> <Gold.Id.Protein>
6NUR|6NUR_protein|mol2

> <Gold.PLP.Fitness>
46.6465

> <Gold.PLP.PLP>
-39.7838

> <Gold.PLP.part.hbond>
-1.9825

> <Gold.PLP.part.metal>
0.0000

> <Gold.PLP.part.buried>
-4.6332

> <Gold.PLP.part.nonpolar>
-34.8590

> <Gold.PLP.part.repulsive>
0.1692

> <Gold.PLP.ligand.clash>
0.0000

> <Gold.PLP.ligand.torsion>
1.0937

> <Gold.PLP.Chemscore.Hbond>
2.0000

> <Gold.PLP.Chemscore.CHOScore>
0.8945

> <Gold.PLP.Chemscore.Metal>
0.0000

> <Gold.Chemscore.Hbonds>
donor molecule, donor type, donor heavy atom, donor atom, acceptor molecule, acceptor atom, score
      P1  H  6896  6909       L1     1  0.90
      P1  H  6934  6947       L1    18  0.93
      L1  C    10    31       P1  8028  0.56

> <Gold.PLP.Chemscore.Internal.Correction>
0.3665

> <Gold.Rescore>
     Score         DG    S(hbond)    S(metal)    S(lipo)     H(rot)  DE(clash)    DE(int)     intcor
     18.67     -19.79       1.98        0.00     100.80       1.59       0.01       1.12       ----

> <Gold.Chemscore.Fitness>
18.6682

> <Gold.Chemscore.DG>
-19.7928

> <Gold.Chemscore.ZeroCoef>
-5.4800

> <Gold.Chemscore.Hbond>
1.9763

> <Gold.Chemscore.Metal>
0.0000

> <Gold.Chemscore.Lipo>
100.7982

> <Gold.Chemscore.Internal_Hbond>
0.0000

> <Gold.Chemscore.DEClash>
0.0089

> <Gold.Chemscore.DEInternal>
1.1157

> <Gold.Chemscore.Rot>
1.5943

> <Gold.Chemscore.Internal.Correction>
   9.000000E+99

> <Gold.Chemscore.Hbonds>
donor molecule, donor type, donor heavy atom, donor atom, acceptor molecule, acceptor atom, score
      P1  H  6896  6909       L1     1  0.18
      P1  H  6934  6947       L1    18  0.85

> <Gold.Chemscore.Hbond.Weighted>
-6.6008

> <Gold.Chemscore.Metal.Weighted>
-0.0000

> <Gold.Chemscore.Lipo.Weighted>
-11.7934

> <Gold.Chemscore.Internal_Hbond.Weighted>
0.0000

> <Gold.Chemscore.DEClash.Weighted>
0.0089

> <Gold.Chemscore.DEInternal.Weighted>
1.1157

> <Gold.Chemscore.Rot.Weighted>
4.0814

> <Gold.Chemscore.Internal.Correction.Weighted>
   9.000000E+99

> <Gold.Protein.RotatedTorsions>
[ 6907 6896 6895 6894 ] final   96.37 input  -60.11 | X-H torsion
[ 7974 7965 7964 7962 ] final   33.03 input  175.53 | X-H torsion
[ 8008 7997 7996 7995 ] final   76.73 input   59.86 | X-H torsion
[ 10167 10162 10161 10158 ] final  -57.53 input  -65.29 | X-H torsion
[ 10718 10713 10712 10709 ] final -106.35 input   66.30 | X-H torsion
[ 10763 10752 10751 10750 ] final -147.74 input  -60.55 | X-H torsion
[ 11005 11000 10999 10996 ] final  -86.59 input  -57.11 | X-H torsion

> <Gold.Protein.ActiveResidues>
 VAL166  LYS551  ARG553  GLY616  TRP617  ASP618  TYR619  PRO620  LYS621  CYS622 
 ASP623  PHE694  ASN695  SER759  ASP760  ASP761  ALA762  ILE779  LEU786  VAL792 
 PHE793  MET794  SER795  GLU796  ALA797  LYS798  CYS799  TRP800  GLU811  SER814 

> <Gold.Protein.RotatedAtoms>
  152.5435  134.0897  159.8271 H   0  0  0  0  0  0  0  0  0  0  0  0  # atno 6907 bound_to 6896
  151.0988  133.5252  159.2618 H   0  0  0  0  0  0  0  0  0  0  0  0  # atno 6908 bound_to 6896
  151.2015  135.0453  159.8928 H   0  0  0  0  0  0  0  0  0  0  0  0  # atno 6909 bound_to 6896
  146.1447  139.6449  142.9139 H   0  0  0  0  0  0  0  0  0  0  0  0  # atno 7974 bound_to 7965
  155.8315  140.3466  155.5575 H   0  0  0  0  0  0  0  0  0  0  0  0  # atno 8008 bound_to 7997
  155.8237  140.0916  157.1853 H   0  0  0  0  0  0  0  0  0  0  0  0  # atno 8009 bound_to 7997
  154.4004  140.1425  156.3518 H   0  0  0  0  0  0  0  0  0  0  0  0  # atno 8010 bound_to 7997
  140.6252  143.2435  151.5380 H   0  0  0  0  0  0  0  0  0  0  0  0  # atno 10167 bound_to 10162
  156.0386  130.5609  150.7669 H   0  0  0  0  0  0  0  0  0  0  0  0  # atno 10718 bound_to 10713
  154.8270  135.3352  154.6865 H   0  0  0  0  0  0  0  0  0  0  0  0  # atno 10763 bound_to 10752
  153.7490  135.6940  153.4954 H   0  0  0  0  0  0  0  0  0  0  0  0  # atno 10764 bound_to 10752
  153.2190  135.4455  155.0418 H   0  0  0  0  0  0  0  0  0  0  0  0  # atno 10765 bound_to 10752
  141.1628  133.7463  156.9183 H   0  0  0  0  0  0  0  0  0  0  0  0  # atno 11005 bound_to 11000
  145.4964  141.0438  143.2564 LP  0  0  0  0  0  0  0  0  0  0  0  0  # atno 17320 bound_to 7965
  144.7833  139.6480  143.7145 LP  0  0  0  0  0  0  0  0  0  0  0  0  # atno 17321 bound_to 7965
  139.5474  144.2485  152.1467 LP  0  0  0  0  0  0  0  0  0  0  0  0  # atno 17342 bound_to 10162
  140.1715  144.4931  150.6577 LP  0  0  0  0  0  0  0  0  0  0  0  0  # atno 17343 bound_to 10162
  157.5173  131.0929  151.0123 LP  0  0  0  0  0  0  0  0  0  0  0  0  # atno 17370 bound_to 10713
  157.0462  130.5769  149.5363 LP  0  0  0  0  0  0  0  0  0  0  0  0  # atno 17371 bound_to 10713
  140.1469  134.9256  157.2541 LP  0  0  0  0  0  0  0  0  0  0  0  0  # atno 17394 bound_to 11000
  140.2769  134.3395  155.7355 LP  0  0  0  0  0  0  0  0  0  0  0  0  # atno 17395 bound_to 11000

$$$$
