AV-unprocessed.smi:1828|AV-procd|sdf|7426|dock4
  -GOLD-   22720 9103D 1   1.00000     0.00000
 Structure written by MMmdl.
 40 42  0  0  0  0  0  0  0  0  2 V2000
  151.3360  136.5933  153.9244 O   0  0  0  0  0  0  0  0  0  0  0  0
  151.6364  137.8194  154.5538 C   0  0  0  0  0  0  0  0  0  0  0  0
  150.5370  138.8226  154.4076 C   0  0  0  0  0  0  0  0  0  0  0  0
  149.4413  138.6760  153.6101 N   0  3  0  0  0  0  0  0  0  0  0  0
  148.6099  139.7887  153.7350 C   0  0  0  0  0  0  0  0  0  0  0  0
  147.3933  140.0900  153.1308 C   0  0  0  0  0  0  0  0  0  0  0  0
  146.7980  141.3183  153.4852 C   0  0  0  0  0  0  0  0  0  0  0  0
  147.4106  142.1921  154.4069 C   0  0  0  0  0  0  0  0  0  0  0  0
  148.6446  141.8755  155.0125 C   0  0  0  0  0  0  0  0  0  0  0  0
  149.2274  140.6600  154.6549 C   0  0  0  0  0  0  0  0  0  0  0  0
  150.4141  140.0270  155.0422 N   0  0  0  0  0  0  0  0  0  0  0  0
  151.2863  140.6936  156.0243 C   0  0  0  0  0  0  0  0  0  0  0  0
  150.9976  140.2448  157.4710 C   0  0  2  0  0  0  0  0  0  0  0  0
  149.5978  140.2328  157.6594 O   0  0  0  0  0  0  0  0  0  0  0  0
  151.7166  141.1130  158.4945 C   0  0  0  0  0  0  0  0  0  0  0  0
  152.6600  140.5549  159.3843 C   0  0  0  0  0  0  0  0  0  0  0  0
  153.2884  141.3655  160.3484 C   0  0  0  0  0  0  0  0  0  0  0  0
  152.9748  142.7355  160.4333 C   0  0  0  0  0  0  0  0  0  0  0  0
  152.0298  143.3039  159.5512 C   0  0  0  0  0  0  0  0  0  0  0  0
  151.6561  144.7759  159.6330 C   0  0  0  0  0  0  0  0  0  0  0  0
  152.0622  145.4012  158.5283 F   0  0  0  0  0  0  0  0  0  0  0  0
  150.3311  144.8885  159.7279 F   0  0  0  0  0  0  0  0  0  0  0  0
  152.2093  145.3750  160.6880 F   0  0  0  0  0  0  0  0  0  0  0  0
  151.4102  142.4873  158.5823 C   0  0  0  0  0  0  0  0  0  0  0  0
  150.4776  136.6583  153.5340 H   0  0  0  0  0  0  0  0  0  0  0  0
  151.8115  137.6397  155.6148 H   0  0  0  0  0  0  0  0  0  0  0  0
  152.5663  138.2065  154.1401 H   0  0  0  0  0  0  0  0  0  0  0  0
  146.9214  139.4212  152.4257 H   0  0  0  0  0  0  0  0  0  0  0  0
  145.8522  141.5953  153.0422 H   0  0  0  0  0  0  0  0  0  0  0  0
  146.9242  143.1245  154.6550 H   0  0  0  0  0  0  0  0  0  0  0  0
  149.1041  142.5511  155.7190 H   0  0  0  0  0  0  0  0  0  0  0  0
  152.3235  140.4931  155.7559 H   0  0  0  0  0  0  0  0  0  0  0  0
  151.1559  141.7714  155.9186 H   0  0  0  0  0  0  0  0  0  0  0  0
  151.3311  139.2143  157.5986 H   0  0  0  0  0  0  0  0  0  0  0  0
  149.4102  140.5313  158.5364 H   0  0  0  0  0  0  0  0  0  0  0  0
  152.8985  139.5023  159.3379 H   0  0  0  0  0  0  0  0  0  0  0  0
  154.0085  140.9342  161.0283 H   0  0  0  0  0  0  0  0  0  0  0  0
  153.4622  143.3410  161.1829 H   0  0  0  0  0  0  0  0  0  0  0  0
  150.6798  142.9190  157.9135 H   0  0  0  0  0  0  0  0  0  0  0  0
  149.2789  137.8678  153.0230 H   0  0  0  0  0  0  0  0  0  0  0  0
  1  2  1  0  0  0  0
  1 25  1  0  0  0  0
  2  3  1  0  0  0  0
  2 26  1  0  0  0  0
  2 27  1  0  0  0  0
  3 11  1  0  0  0  0
  3  4  2  0  0  0  0
  4  5  1  0  0  0  0
  4 40  1  0  0  0  0
  5 10  2  0  0  0  0
  5  6  1  0  0  0  0
  6  7  2  0  0  0  0
  6 28  1  0  0  0  0
  7  8  1  0  0  0  0
  7 29  1  0  0  0  0
  8  9  2  0  0  0  0
  8 30  1  0  0  0  0
  9 10  1  0  0  0  0
  9 31  1  0  0  0  0
 10 11  1  0  0  0  0
 11 12  1  0  0  0  0
 12 13  1  0  0  0  0
 12 32  1  0  0  0  0
 12 33  1  0  0  0  0
 13 14  1  0  0  0  0
 13 15  1  0  0  0  0
 13 34  1  0  0  0  0
 14 35  1  0  0  0  0
 15 24  1  0  0  0  0
 15 16  2  0  0  0  0
 16 17  1  0  0  0  0
 16 36  1  0  0  0  0
 17 18  2  0  0  0  0
 17 37  1  0  0  0  0
 18 19  1  0  0  0  0
 18 38  1  0  0  0  0
 19 20  1  0  0  0  0
 19 24  2  0  0  0  0
 20 21  1  0  0  0  0
 20 22  1  0  0  0  0
 20 23  1  0  0  0  0
 24 39  1  0  0  0  0
M  CHG  1   4   1
M  END
> <s_m_source_file>
AV-unprocessed.smi

> <i_m_source_file_index>
1828

> <i_lp_mmshare_version>
43012

> <i_f3d_flags>
0

> <s_epik_input>
W2NIXTFbY0hdW2NIXVtjSF1jKGMxMiluKGMobjIpW0NIMl1bT0hdKVtDSDJdW0NASF0oW09IXSljM1tjSF1bY0hdW2NIXWMoQyhGKShGKUYpW2NIXTM=

> <s_epik_cmdline>
J2VwaWtfcHl0aG9uJywgJy1waCcsICc3LjAnLCAnLXRuJywgJzgnLCAnLW1hJywgJzIwMCcsICctbWV0YWxfYmluZGluZycsICctaW1hZScsICc8aW5maWxlLm1hZT4nLCAnLW9tYWUnLCAnPG91dGZpbGUubWFlPic=

> <r_epik_Ionization_Penalty>
1.35643

> <r_epik_Ionization_Penalty_Charging>
1.35557

> <r_epik_Ionization_Penalty_Neutral>
0.000856502

> <r_epik_State_Penalty>
1.43401

> <r_epik_Charging_Adjusted_Penalty>
2.78958

> <i_epik_Tot_Q>
1

> <i_epik_Tot_abs_Q>
1

> <r_epik_Metal_State_Penalty>
5.47166

> <b_epik_Metal_Only>
0

> <s_lp_Force_Field>
OPLS_2005

> <r_lp_Energy>
16.3516

> <b_lp_Chiralities_Consistent>
1

> <s_lp_Variant>
AV-unprocessed.smi:1828-3

> <Gold.Version>
5.8.1

> <Gold.Id.Protein>
6NUR|6NUR_protein|mol2

> <Gold.PLP.Fitness>
66.6514

> <Gold.PLP.PLP>
-58.3514

> <Gold.PLP.part.hbond>
-4.6523

> <Gold.PLP.part.metal>
0.0000

> <Gold.PLP.part.buried>
1.5438

> <Gold.PLP.part.nonpolar>
-54.7038

> <Gold.PLP.part.repulsive>
0.0740

> <Gold.PLP.ligand.clash>
0.0000

> <Gold.PLP.ligand.torsion>
0.6635

> <Gold.PLP.Chemscore.Hbond>
3.1885

> <Gold.PLP.Chemscore.CHOScore>
0.0000

> <Gold.PLP.Chemscore.Metal>
0.0000

> <Gold.Chemscore.Hbonds>
donor molecule, donor type, donor heavy atom, donor atom, acceptor molecule, acceptor atom, score
      L1  H     1    25       P1  7948  0.18
      L1  H     4    40       P1  7948  2.00
      P1  H 10752 10765       L1     1  1.00

> <Gold.PLP.Chemscore.Internal.Correction>
0.0615

> <Gold.Rescore>
     Score         DG    S(hbond)    S(metal)    S(lipo)     H(rot)  DE(clash)    DE(int)     intcor
     16.64     -18.85       1.71        0.00     130.74       2.98       1.70       0.51       ----

> <Gold.Chemscore.Fitness>
16.6377

> <Gold.Chemscore.DG>
-18.8524

> <Gold.Chemscore.ZeroCoef>
-5.4800

> <Gold.Chemscore.Hbond>
1.7098

> <Gold.Chemscore.Metal>
0.0000

> <Gold.Chemscore.Lipo>
130.7361

> <Gold.Chemscore.Internal_Hbond>
0.0000

> <Gold.Chemscore.DEClash>
1.7004

> <Gold.Chemscore.DEInternal>
0.5143

> <Gold.Chemscore.Rot>
2.9822

> <Gold.Chemscore.Internal.Correction>
   9.000000E+99

> <Gold.Chemscore.Hbonds>
donor molecule, donor type, donor heavy atom, donor atom, acceptor molecule, acceptor atom, score
      L1  H     4    40       P1  7948  0.93
      P1  H 10752 10765       L1     1  0.26

> <Gold.Chemscore.Hbond.Weighted>
-5.7106

> <Gold.Chemscore.Metal.Weighted>
-0.0000

> <Gold.Chemscore.Lipo.Weighted>
-15.2961

> <Gold.Chemscore.Internal_Hbond.Weighted>
0.0000

> <Gold.Chemscore.DEClash.Weighted>
1.7004

> <Gold.Chemscore.DEInternal.Weighted>
0.5143

> <Gold.Chemscore.Rot.Weighted>
7.6343

> <Gold.Chemscore.Internal.Correction.Weighted>
   9.000000E+99

> <Gold.Protein.RotatedTorsions>
[ 6907 6896 6895 6894 ] final  109.97 input  -60.11 | X-H torsion
[ 7974 7965 7964 7962 ] final  -77.02 input  175.53 | X-H torsion
[ 8008 7997 7996 7995 ] final   46.77 input   59.86 | X-H torsion
[ 10167 10162 10161 10158 ] final  154.44 input  -65.29 | X-H torsion
[ 10718 10713 10712 10709 ] final  -43.28 input   66.30 | X-H torsion
[ 10763 10752 10751 10750 ] final  163.36 input  -60.55 | X-H torsion
[ 11005 11000 10999 10996 ] final -125.62 input  -57.11 | X-H torsion

> <Gold.Protein.ActiveResidues>
 VAL166  LYS551  ARG553  GLY616  TRP617  ASP618  TYR619  PRO620  LYS621  CYS622 
 ASP623  PHE694  ASN695  SER759  ASP760  ASP761  ALA762  ILE779  LEU786  VAL792 
 PHE793  MET794  SER795  GLU796  ALA797  LYS798  CYS799  TRP800  GLU811  SER814 

> <Gold.Protein.RotatedAtoms>
  152.5042  133.8868  159.7373 H   0  0  0  0  0  0  0  0  0  0  0  0  # atno 6907 bound_to 6896
  150.9316  133.6751  159.2816 H   0  0  0  0  0  0  0  0  0  0  0  0  # atno 6908 bound_to 6896
  151.4093  135.0987  159.9633 H   0  0  0  0  0  0  0  0  0  0  0  0  # atno 6909 bound_to 6896
  145.6052  140.9399  143.1219 H   0  0  0  0  0  0  0  0  0  0  0  0  # atno 7974 bound_to 7965
  155.3579  140.3417  155.4240 H   0  0  0  0  0  0  0  0  0  0  0  0  # atno 8008 bound_to 7997
  156.1729  140.1638  156.8449 H   0  0  0  0  0  0  0  0  0  0  0  0  # atno 8009 bound_to 7997
  154.5252  140.0758  156.8227 H   0  0  0  0  0  0  0  0  0  0  0  0  # atno 8010 bound_to 7997
  139.4823  144.5187  151.7911 H   0  0  0  0  0  0  0  0  0  0  0  0  # atno 10167 bound_to 10162
  156.2507  130.4188  149.8653 H   0  0  0  0  0  0  0  0  0  0  0  0  # atno 10718 bound_to 10713
  154.2926  135.2760  155.2648 H   0  0  0  0  0  0  0  0  0  0  0  0  # atno 10763 bound_to 10752
  154.5120  135.5780  153.6616 H   0  0  0  0  0  0  0  0  0  0  0  0  # atno 10764 bound_to 10752
  152.9912  135.6183  154.3091 H   0  0  0  0  0  0  0  0  0  0  0  0  # atno 10765 bound_to 10752
  140.9747  134.0756  157.3831 H   0  0  0  0  0  0  0  0  0  0  0  0  # atno 11005 bound_to 11000
  144.7293  139.7776  143.7353 LP  0  0  0  0  0  0  0  0  0  0  0  0  # atno 17320 bound_to 7965
  146.1546  139.4640  143.0027 LP  0  0  0  0  0  0  0  0  0  0  0  0  # atno 17321 bound_to 7965
  140.4698  144.1603  150.5916 LP  0  0  0  0  0  0  0  0  0  0  0  0  # atno 17342 bound_to 10162
  140.4394  143.2533  151.9492 LP  0  0  0  0  0  0  0  0  0  0  0  0  # atno 17343 bound_to 10162
  156.6203  130.8623  151.3474 LP  0  0  0  0  0  0  0  0  0  0  0  0  # atno 17370 bound_to 10713
  157.7213  130.9562  150.1450 LP  0  0  0  0  0  0  0  0  0  0  0  0  # atno 17371 bound_to 10713
  139.8926  135.0125  156.6854 LP  0  0  0  0  0  0  0  0  0  0  0  0  # atno 17394 bound_to 11000
  140.7276  133.9086  155.8189 LP  0  0  0  0  0  0  0  0  0  0  0  0  # atno 17395 bound_to 11000

$$$$
