AV-unprocessed.smi:157|AV-procd|sdf|1297|dock4
  -GOLD-   2262018583D 1   1.00000     0.00000
 Structure written by MMmdl.
 35 37  0  0  0  0  0  0  0  0  1 V2000
  151.9272  137.1752  153.9990 O   0  0  0  0  0  0  0  0  0  0  0  0
  151.1818  138.1935  154.6314 C   0  0  0  0  0  0  0  0  0  0  0  0
  151.8630  138.6036  155.9454 C   0  0  1  0  0  0  0  0  0  0  0  0
  150.9232  139.2531  156.7959 O   0  0  0  0  0  0  0  0  0  0  0  0
  151.3122  139.1189  158.1319 C   0  0  2  0  0  0  0  0  0  0  0  0
  151.8460  140.4333  158.6195 N   0  0  0  0  0  0  0  0  0  0  0  0
  153.1083  140.7113  158.9749 C   0  0  0  0  0  0  0  0  0  0  0  0
  153.3046  141.9553  159.3785 N   0  0  0  0  0  0  0  0  0  0  0  0
  152.0475  142.5464  159.2699 C   0  0  0  0  0  0  0  0  0  0  0  0
  151.1291  141.6201  158.7973 C   0  0  0  0  0  0  0  0  0  0  0  0
  149.7780  141.6156  158.5071 N   0  0  0  0  0  0  0  0  0  0  0  0
  149.1893  142.7567  158.3334 C   0  0  0  0  0  0  0  0  0  0  0  0
  149.6758  144.0477  158.4829 N   0  0  0  0  0  0  0  0  0  0  0  0
  150.4207  144.4897  159.6495 C   0  0  0  0  0  0  0  0  0  0  0  0
  151.8664  143.9785  159.6828 C   0  0  2  0  0  0  0  0  0  0  0  0
  152.6589  144.7629  158.8146 O   0  0  0  0  0  0  0  0  0  0  0  0
  152.4169  138.0560  158.1776 C   0  0  0  0  0  0  0  0  0  0  0  0
  152.2999  137.4184  156.8071 C   0  0  2  0  0  0  0  0  0  0  0  0
  153.5368  136.8754  156.3925 O   0  0  0  0  0  0  0  0  0  0  0  0
  152.7142  139.2635  155.7648 H   0  0  0  0  0  0  0  0  0  0  0  0
  150.4484  138.9015  158.7611 H   0  0  0  0  0  0  0  0  0  0  0  0
  152.2608  144.1257  160.6887 H   0  0  0  0  0  0  0  0  0  0  0  0
  151.5309  136.6442  156.8163 H   0  0  0  0  0  0  0  0  0  0  0  0
  151.5731  137.0368  153.1339 H   0  0  0  0  0  0  0  0  0  0  0  0
  151.0589  139.0473  153.9644 H   0  0  0  0  0  0  0  0  0  0  0  0
  150.1874  137.7938  154.8325 H   0  0  0  0  0  0  0  0  0  0  0  0
  153.9074  139.9855  158.9431 H   0  0  0  0  0  0  0  0  0  0  0  0
  148.1422  142.7575  158.0271 H   0  0  0  0  0  0  0  0  0  0  0  0
  149.1546  144.8088  158.0718 H   0  0  0  0  0  0  0  0  0  0  0  0
  150.3919  145.5776  159.7180 H   0  0  0  0  0  0  0  0  0  0  0  0
  149.8953  144.1157  160.5297 H   0  0  0  0  0  0  0  0  0  0  0  0
  152.0984  145.1104  158.1372 H   0  0  0  0  0  0  0  0  0  0  0  0
  153.3891  138.5360  158.3064 H   0  0  0  0  0  0  0  0  0  0  0  0
  152.2563  137.3564  158.9984 H   0  0  0  0  0  0  0  0  0  0  0  0
  154.1860  137.0693  157.0516 H   0  0  0  0  0  0  0  0  0  0  0  0
  1  2  1  0  0  0  0
  1 24  1  0  0  0  0
  2  3  1  0  0  0  0
  2 25  1  0  0  0  0
  2 26  1  0  0  0  0
  3 20  1  0  0  0  0
  3 18  1  0  0  0  0
  3  4  1  0  0  0  0
  4  5  1  0  0  0  0
  5 21  1  0  0  0  0
  5  6  1  0  0  0  0
  5 17  1  0  0  0  0
  6 10  1  0  0  0  0
  6  7  1  0  0  0  0
  7  8  2  0  0  0  0
  7 27  1  0  0  0  0
  8  9  1  0  0  0  0
  9 15  1  0  0  0  0
  9 10  2  0  0  0  0
 10 11  1  0  0  0  0
 11 12  2  0  0  0  0
 12 13  1  0  0  0  0
 12 28  1  0  0  0  0
 13 14  1  0  0  0  0
 13 29  1  0  0  0  0
 14 15  1  0  0  0  0
 14 30  1  0  0  0  0
 14 31  1  0  0  0  0
 15 22  1  0  0  0  0
 15 16  1  0  0  0  0
 16 32  1  0  0  0  0
 17 18  1  0  0  0  0
 17 33  1  0  0  0  0
 17 34  1  0  0  0  0
 18 23  1  0  0  0  0
 18 19  1  0  0  0  0
 19 35  1  0  0  0  0
M  END
> <s_m_source_file>
AV-unprocessed.smi

> <i_m_source_file_index>
157

> <i_lp_mmshare_version>
43012

> <i_f3d_flags>
0

> <s_epik_input>
W09IXVtDSDJdW0NASF0xT1tDQEhdKFtDSDJdW0NAQEhdMVtPSF0pbihbY0hdbjIpYyhjMjMpTj1bQ0hdW05IXVtDSDJdW0NASF0zW09IXQ==

> <s_epik_cmdline>
J2VwaWtfcHl0aG9uJywgJy1waCcsICc3LjAnLCAnLXRuJywgJzgnLCAnLW1hJywgJzIwMCcsICctbWV0YWxfYmluZGluZycsICctaW1hZScsICc8aW5maWxlLm1hZT4nLCAnLW9tYWUnLCAnPG91dGZpbGUubWFlPic=

> <r_lp_tautomer_probability>
1

> <r_epik_Ionization_Penalty>
0.0357149

> <r_epik_Ionization_Penalty_Charging>
0.0355056

> <r_epik_Ionization_Penalty_Neutral>
0.000209255

> <r_epik_State_Penalty>
0.0296046

> <r_epik_Charging_Adjusted_Penalty>
0.0651102

> <i_epik_Tot_Q>
0

> <i_epik_Tot_abs_Q>
0

> <r_epik_Metal_State_Penalty>
3.03559e-05

> <b_epik_Metal_Only>
0

> <s_epik_Chemistry_Notes>
This compound has an imine and may undergo hydrolysis. This compound contains an acetal/aminal-like group ( X-CH(R)-Y where X, Y are N, S, or O) that may be acid/base labile, releasing an aldehyde.

> <s_lp_Force_Field>
OPLS_2005

> <r_lp_Energy>
44.0158

> <b_lp_Chiralities_Consistent>
1

> <s_lp_Variant>
AV-unprocessed.smi:157-7

> <Gold.Version>
5.8.1

> <Gold.Id.Protein>
6NUR|6NUR_protein|mol2

> <Gold.PLP.Fitness>
39.6323

> <Gold.PLP.PLP>
-29.6483

> <Gold.PLP.part.hbond>
-5.0000

> <Gold.PLP.part.metal>
0.0000

> <Gold.PLP.part.buried>
-5.5062

> <Gold.PLP.part.nonpolar>
-19.6941

> <Gold.PLP.part.repulsive>
0.1284

> <Gold.PLP.ligand.clash>
0.0000

> <Gold.PLP.ligand.torsion>
0.2015

> <Gold.PLP.Chemscore.Hbond>
3.4560

> <Gold.PLP.Chemscore.CHOScore>
0.0000

> <Gold.PLP.Chemscore.Metal>
0.0000

> <Gold.Chemscore.Hbonds>
donor molecule, donor type, donor heavy atom, donor atom, acceptor molecule, acceptor atom, score
      L1  H     1    24       P1  7949  1.00
      L1  H    13    29       P1  8029  0.95
      P1  H 10752 10764       L1     1  0.90
      P1  H 10752 10765       L1    19  0.51

> <Gold.PLP.Chemscore.Internal.Correction>
0.0191

> <Gold.Rescore>
     Score         DG    S(hbond)    S(metal)    S(lipo)     H(rot)  DE(clash)    DE(int)     intcor
      9.50      -9.98       2.25        0.00      53.83       3.64       0.14       0.35       ----

> <Gold.Chemscore.Fitness>
9.4980

> <Gold.Chemscore.DG>
-9.9807

> <Gold.Chemscore.ZeroCoef>
-5.4800

> <Gold.Chemscore.Hbond>
2.2490

> <Gold.Chemscore.Metal>
0.0000

> <Gold.Chemscore.Lipo>
53.8263

> <Gold.Chemscore.Internal_Hbond>
0.0000

> <Gold.Chemscore.DEClash>
0.1356

> <Gold.Chemscore.DEInternal>
0.3471

> <Gold.Chemscore.Rot>
3.6362

> <Gold.Chemscore.Internal.Correction>
   9.000000E+99

> <Gold.Chemscore.Hbonds>
donor molecule, donor type, donor heavy atom, donor atom, acceptor molecule, acceptor atom, score
      L1  H     1    24       P1  7949  0.90
      L1  H    13    29       P1  8029  0.22
      P1  H 10752 10764       L1     1  0.17
      P1  H 10752 10765       L1    19  0.39

> <Gold.Chemscore.Hbond.Weighted>
-7.5117

> <Gold.Chemscore.Metal.Weighted>
-0.0000

> <Gold.Chemscore.Lipo.Weighted>
-6.2977

> <Gold.Chemscore.Internal_Hbond.Weighted>
0.0000

> <Gold.Chemscore.DEClash.Weighted>
0.1356

> <Gold.Chemscore.DEInternal.Weighted>
0.3471

> <Gold.Chemscore.Rot.Weighted>
9.3087

> <Gold.Chemscore.Internal.Correction.Weighted>
   9.000000E+99

> <Gold.Protein.RotatedTorsions>
[ 6907 6896 6895 6894 ] final  -73.35 input  -60.11 | X-H torsion
[ 7974 7965 7964 7962 ] final  -34.47 input  175.53 | X-H torsion
[ 8008 7997 7996 7995 ] final  -20.42 input   59.86 | X-H torsion
[ 10167 10162 10161 10158 ] final -126.58 input  -65.29 | X-H torsion
[ 10718 10713 10712 10709 ] final  129.43 input   66.30 | X-H torsion
[ 10763 10752 10751 10750 ] final  -90.22 input  -60.55 | X-H torsion
[ 11005 11000 10999 10996 ] final  -29.91 input  -57.11 | X-H torsion

> <Gold.Protein.ActiveResidues>
 VAL166  LYS551  ARG553  GLY616  TRP617  ASP618  TYR619  PRO620  LYS621  CYS622 
 ASP623  PHE694  ASN695  SER759  ASP760  ASP761  ALA762  ILE779  LEU786  VAL792 
 PHE793  MET794  SER795  GLU796  ALA797  LYS798  CYS799  TRP800  GLU811  SER814 

> <Gold.Protein.RotatedAtoms>
  150.7133  134.5029  159.5569 H   0  0  0  0  0  0  0  0  0  0  0  0  # atno 6907 bound_to 6896
  152.2622  134.8019  160.0438 H   0  0  0  0  0  0  0  0  0  0  0  0  # atno 6908 bound_to 6896
  151.8728  133.3444  159.3777 H   0  0  0  0  0  0  0  0  0  0  0  0  # atno 6909 bound_to 6896
  146.0827  140.6042  142.8901 H   0  0  0  0  0  0  0  0  0  0  0  0  # atno 7974 bound_to 7965
  154.4771  140.2062  155.9852 H   0  0  0  0  0  0  0  0  0  0  0  0  # atno 8008 bound_to 7997
  156.1106  140.3229  155.8037 H   0  0  0  0  0  0  0  0  0  0  0  0  # atno 8009 bound_to 7997
  155.4641  140.0526  157.2978 H   0  0  0  0  0  0  0  0  0  0  0  0  # atno 8010 bound_to 7997
  139.9699  143.5856  152.2416 H   0  0  0  0  0  0  0  0  0  0  0  0  # atno 10167 bound_to 10162
  157.5154  131.1097  150.9231 H   0  0  0  0  0  0  0  0  0  0  0  0  # atno 10718 bound_to 10713
  154.6635  135.5312  153.8048 H   0  0  0  0  0  0  0  0  0  0  0  0  # atno 10763 bound_to 10752
  153.0456  135.6511  154.0835 H   0  0  0  0  0  0  0  0  0  0  0  0  # atno 10764 bound_to 10752
  154.0741  135.2952  155.3282 H   0  0  0  0  0  0  0  0  0  0  0  0  # atno 10765 bound_to 10752
  140.9337  133.7322  156.0973 H   0  0  0  0  0  0  0  0  0  0  0  0  # atno 11005 bound_to 11000
  144.7304  140.4654  143.6942 LP  0  0  0  0  0  0  0  0  0  0  0  0  # atno 17320 bound_to 7965
  145.6188  139.1521  143.3034 LP  0  0  0  0  0  0  0  0  0  0  0  0  # atno 17321 bound_to 7965
  139.6489  144.7659  151.2188 LP  0  0  0  0  0  0  0  0  0  0  0  0  # atno 17342 bound_to 10162
  140.7525  143.6194  150.8528 LP  0  0  0  0  0  0  0  0  0  0  0  0  # atno 17343 bound_to 10162
  156.9859  130.5544  149.5299 LP  0  0  0  0  0  0  0  0  0  0  0  0  # atno 17370 bound_to 10713
  156.0317  130.5408  150.8551 LP  0  0  0  0  0  0  0  0  0  0  0  0  # atno 17371 bound_to 10713
  140.7828  134.3706  157.5483 LP  0  0  0  0  0  0  0  0  0  0  0  0  # atno 17394 bound_to 11000
  139.8802  134.9092  156.2986 LP  0  0  0  0  0  0  0  0  0  0  0  0  # atno 17395 bound_to 11000

$$$$
