#       Name:                AV-unprocessed.smi:3248
#       Creating user name   scv26
#       Creation time:       Fri Mar 27 18:29:52 2020


#       File generated by GOLD software.
#

@<TRIPOS>MOLECULE
AV-unprocessed.smi:3248
    43    44     1
SMALL
NO_CHARGES


@<TRIPOS>ATOM
      1 ****        -2.0117  -2.5816   0.7917 C.3            1 S1                 0.0000
      2 ****        -1.9019  -1.2132   0.1028 C.3            1 S1                 0.0000
      3 ****        -2.5883  -1.2163  -1.2766 C.3            1 S1                 0.0000
      4 ****        -2.5972   0.1008  -1.8897 N.pl3          1 S1                 0.0000
      5 ****        -3.4567   1.1517  -1.6479 C.2            1 S1                 0.0000
      6 ****        -3.0693   2.1861  -2.4508 C.2            1 S1                 0.0000
      7 ****        -1.9484   1.6655  -3.1561 C.2            1 S1                 0.0000
      8 ****        -1.6685   0.4168  -2.8188 N.2            1 S1                 0.0000
      9 ****        -0.4959  -0.8422  -0.0399 N.am           1 S1                 0.0000
     10 ****         0.2322  -0.1590   0.8589 C.2            1 S1                 0.0000
     11 ****        -0.2379   0.2376   1.9252 O.2            1 S1                 0.0000
     12 ****         1.4739   0.1529   0.4126 N.am           1 S1                 0.0000
     13 ****         2.3454  -0.8694  -0.1859 C.3            1 S1                 0.0000
     14 ****         3.2743  -1.4192   0.9146 C.3            1 S1                 0.0000
     15 ****         4.0313  -0.3556   1.4885 O.3            1 S1                 0.0000
     16 ****         3.2235   0.6868   2.0321 C.3            1 S1                 0.0000
     17 ****         2.3123   1.2542   0.9253 C.3            1 S1                 0.0000
     18 ****         1.5506   2.5206   1.3701 C.3            1 S1                 0.0000
     19 ****        -3.0545  -2.8724   0.9210 H              1 S1                 0.0000
     20 ****        -1.5516  -2.5637   1.7803 H              1 S1                 0.0000
     21 ****        -1.5190  -3.3602   0.2085 H              1 S1                 0.0000
     22 ****        -2.4107  -0.4770   0.7280 H              1 S1                 0.0000
     23 ****        -2.0996  -1.9228  -1.9500 H              1 S1                 0.0000
     24 ****        -3.6233  -1.5462  -1.1788 H              1 S1                 0.0000
     25 ****        -4.2609   1.0770  -0.9306 H              1 S1                 0.0000
     26 ****        -3.5173   3.1662  -2.5226 H              1 S1                 0.0000
     27 ****        -1.3341   2.1543  -3.8978 H              1 S1                 0.0000
     28 ****        -0.0509  -1.0879  -0.9124 H              1 S1                 0.0000
     29 ****         1.7949  -1.6939  -0.6405 H              1 S1                 0.0000
     30 ****         2.9335  -0.4283  -0.9919 H              1 S1                 0.0000
     31 ****         2.6995  -1.9258   1.6917 H              1 S1                 0.0000
     32 ****         3.9615  -2.1544   0.4956 H              1 S1                 0.0000
     33 ****         2.6380   0.3104   2.8724 H              1 S1                 0.0000
     34 ****         3.8798   1.4653   2.4219 H              1 S1                 0.0000
     35 ****         2.9512   1.5781   0.1016 H              1 S1                 0.0000
     36 ****         2.2460   3.3448   1.5304 H              1 S1                 0.0000
     37 ****         1.0136   2.3786   2.3074 H              1 S1                 0.0000
     38 ****         0.8368   2.8408   0.6104 H              1 S1                 0.0000
     39 ****        -0.9343  -0.1629  -3.1723 LP             1 S1                 0.0000
     40 ****        -1.1952   0.0542   2.1486 LP             1 S1                 0.0000
     41 ****         0.3375   0.7432   2.5680 LP             1 S1                 0.0000
     42 ****         4.6173   0.0352   0.7786 LP             1 S1                 0.0000
     43 ****         4.5997  -0.7305   2.2208 LP             1 S1                 0.0000
@<TRIPOS>BOND
    1    1    2 1     
    2    1   19 1     
    3    1   20 1     
    4    1   21 1     
    5    2    3 1     
    6    2    9 1     
    7    2   22 1     
    8    3    4 1     
    9    3   23 1     
   10    3   24 1     
   11    4    8 1     
   12    4    5 1     
   13    5    6 2     
   14    5   25 1     
   15    6    7 1     
   16    6   26 1     
   17    7    8 2     
   18    7   27 1     
   19    9   10 am    
   20    9   28 1     
   21   10   11 2     
   22   10   12 am    
   23   12   17 1     
   24   12   13 1     
   25   13   14 1     
   26   13   29 1     
   27   13   30 1     
   28   14   15 1     
   29   14   31 1     
   30   14   32 1     
   31   15   16 1     
   32   16   17 1     
   33   16   33 1     
   34   16   34 1     
   35   17   18 1     
   36   17   35 1     
   37   18   36 1     
   38   18   37 1     
   39   18   38 1     
   40    8   39 1     
   41   11   40 1     
   42   11   41 1     
   43   15   42 1     
   44   15   43 1     
@<TRIPOS>SUBSTRUCTURE
      1 S1             1
@<TRIPOS>SET
LONE_PAIRS      STATIC     ATOMS    <user>   **** ""
5 39 40 41 42 43
DONOR_HYDROGENS      STATIC     ATOMS    <user>   **** ""
1 28
ATOM$BLUE        STATIC     ATOMS    COLORGROUP SYSTEM
5 39 40 41 42 43
ATOM$RED        STATIC     ATOMS    COLORGROUP SYSTEM
1 28
