AV-unprocessed.smi:54|AV-procd|sdf|538|dock6
  -GOLD-   2262016423D 1   1.00000     0.00000
 Structure written by MMmdl.
 44 46  0  0  0  0  0  0  0  0  1 V2000
  152.2851  144.8076  157.8755 C   0  0  0  0  0  0  0  0  0  0  0  0
  151.2148  144.2099  158.8030 C   0  0  0  0  0  0  0  0  0  0  0  0
  151.7306  144.0939  160.2466 C   0  0  0  0  0  0  0  0  0  0  0  0
  150.7528  142.8443  158.2817 C   0  0  0  0  0  0  0  0  0  0  0  0
  150.3062  141.9763  159.0326 O   0  0  0  0  0  0  0  0  0  0  0  0
  150.8855  142.6479  156.8487 N   0  0  0  0  0  0  0  0  0  0  0  0
  150.5611  141.5433  156.1372 C   0  0  0  0  0  0  0  0  0  0  0  0
  151.2247  140.4000  156.2306 N   0  0  0  0  0  0  0  0  0  0  0  0
  150.7512  139.3982  155.4299 C   0  0  0  0  0  0  0  0  0  0  0  0
  149.6692  139.4702  154.5780 C   0  0  0  0  0  0  0  0  0  0  0  0
  149.4788  138.2484  153.9434 N   0  0  0  0  0  0  0  0  0  0  0  0
  150.4278  137.4920  154.4207 C   0  0  0  0  0  0  0  0  0  0  0  0
  151.2656  138.1240  155.3119 N   0  0  0  0  0  0  0  0  0  0  0  0
  152.4359  137.5809  156.0785 C   0  0  1  0  0  0  0  0  0  0  0  0
  152.9067  138.5693  156.9397 O   0  0  0  0  0  0  0  0  0  0  0  0
  152.2150  138.4781  158.1783 C   0  0  2  0  0  0  0  0  0  0  0  0
  153.0149  139.1926  159.2774 C   0  0  0  0  0  0  0  0  0  0  0  0
  153.0786  140.5762  159.0061 O   0  0  0  0  0  0  0  0  0  0  0  0
  152.1085  136.9629  158.3851 C   0  0  1  0  0  0  0  0  0  0  0  0
  150.9484  136.6577  159.1337 O   0  0  0  0  0  0  0  0  0  0  0  0
  152.0030  136.3987  156.9671 C   0  0  2  0  0  0  0  0  0  0  0  0
  152.8659  135.2913  156.8056 O   0  0  0  0  0  0  0  0  0  0  0  0
  148.9335  140.6974  154.4725 C   0  0  0  0  0  0  0  0  0  0  0  0
  147.9535  140.9408  153.7715 O   0  0  0  0  0  0  0  0  0  0  0  0
  149.4562  141.6998  155.3002 N   0  0  0  0  0  0  0  0  0  0  0  0
  153.1663  137.3325  155.3070 H   0  0  0  0  0  0  0  0  0  0  0  0
  151.2174  138.9105  158.0779 H   0  0  0  0  0  0  0  0  0  0  0  0
  152.9968  136.5843  158.8937 H   0  0  0  0  0  0  0  0  0  0  0  0
  150.9836  136.0942  156.7242 H   0  0  0  0  0  0  0  0  0  0  0  0
  151.9183  144.8975  156.8524 H   0  0  0  0  0  0  0  0  0  0  0  0
  153.1859  144.1928  157.8538 H   0  0  0  0  0  0  0  0  0  0  0  0
  152.5746  145.8050  158.2074 H   0  0  0  0  0  0  0  0  0  0  0  0
  150.3559  144.8826  158.8058 H   0  0  0  0  0  0  0  0  0  0  0  0
  150.9740  143.6661  160.9054 H   0  0  0  0  0  0  0  0  0  0  0  0
  151.9950  145.0735  160.6459 H   0  0  0  0  0  0  0  0  0  0  0  0
  152.6189  143.4636  160.3058 H   0  0  0  0  0  0  0  0  0  0  0  0
  151.2888  143.4163  156.3335 H   0  0  0  0  0  0  0  0  0  0  0  0
  150.5362  136.4569  154.1306 H   0  0  0  0  0  0  0  0  0  0  0  0
  152.5183  139.0708  160.2402 H   0  0  0  0  0  0  0  0  0  0  0  0
  154.0179  138.7762  159.3744 H   0  0  0  0  0  0  0  0  0  0  0  0
  152.1982  140.9022  158.8981 H   0  0  0  0  0  0  0  0  0  0  0  0
  150.2770  136.3588  158.5394 H   0  0  0  0  0  0  0  0  0  0  0  0
  153.4485  135.2534  157.5485 H   0  0  0  0  0  0  0  0  0  0  0  0
  148.9888  142.5939  155.2746 H   0  0  0  0  0  0  0  0  0  0  0  0
  1  2  1  0  0  0  0
  1 30  1  0  0  0  0
  1 31  1  0  0  0  0
  1 32  1  0  0  0  0
  2  3  1  0  0  0  0
  2  4  1  0  0  0  0
  2 33  1  0  0  0  0
  3 34  1  0  0  0  0
  3 35  1  0  0  0  0
  3 36  1  0  0  0  0
  4  5  2  0  0  0  0
  4  6  1  0  0  0  0
  6 37  1  0  0  0  0
  6  7  1  0  0  0  0
  7 25  1  0  0  0  0
  7  8  2  0  0  0  0
  8  9  1  0  0  0  0
  9 13  1  0  0  0  0
  9 10  2  0  0  0  0
 10 11  1  0  0  0  0
 10 23  1  0  0  0  0
 11 12  2  0  0  0  0
 12 13  1  0  0  0  0
 12 38  1  0  0  0  0
 13 14  1  0  0  0  0
 14 26  1  0  0  0  0
 14 21  1  0  0  0  0
 14 15  1  0  0  0  0
 15 16  1  0  0  0  0
 16 27  1  0  0  0  0
 16 17  1  0  0  0  0
 16 19  1  0  0  0  0
 17 18  1  0  0  0  0
 17 39  1  0  0  0  0
 17 40  1  0  0  0  0
 18 41  1  0  0  0  0
 19 28  1  0  0  0  0
 19 20  1  0  0  0  0
 19 21  1  0  0  0  0
 20 42  1  0  0  0  0
 21 29  1  0  0  0  0
 21 22  1  0  0  0  0
 22 43  1  0  0  0  0
 23 24  2  0  0  0  0
 23 25  1  0  0  0  0
 25 44  1  0  0  0  0
M  END
> <s_m_source_file>
AV-unprocessed.smi

> <i_m_source_file_index>
54

> <i_lp_mmshare_version>
43012

> <i_f3d_flags>
0

> <s_epik_input>
W0NIM11bQ0hdKFtDSDNdKUMoPU8pW05IXWMobjEpW25IXWMoPU8pYyhjMTIpbltjSF1uMltDQEBIXTNPW0NASF0oW0NIMl1bT0hdKVtDQEBIXShbT0hdKVtDQEhdM1tPSF0=

> <s_epik_cmdline>
J2VwaWtfcHl0aG9uJywgJy1waCcsICc3LjAnLCAnLXRuJywgJzgnLCAnLW1hJywgJzIwMCcsICctbWV0YWxfYmluZGluZycsICctaW1hZScsICc8aW5maWxlLm1hZT4nLCAnLW9tYWUnLCAnPG91dGZpbGUubWFlPic=

> <r_lp_tautomer_probability>
0.85571

> <r_epik_Ionization_Penalty>
0.0316551

> <r_epik_Ionization_Penalty_Charging>
0.0316043

> <r_epik_Ionization_Penalty_Neutral>
5.07097e-05

> <r_epik_State_Penalty>
3.15494e-07

> <r_epik_Charging_Adjusted_Penalty>
0.0316047

> <i_epik_Tot_Q>
0

> <i_epik_Tot_abs_Q>
0

> <r_epik_Metal_State_Penalty>
0.421206

> <b_epik_Metal_Only>
0

> <s_epik_Chemistry_Notes>
This compound contains an acetal/aminal-like group ( X-CH(R)-Y where X, Y are N, S, or O) that may be acid/base labile, releasing an aldehyde.

> <s_lp_Force_Field>
OPLS_2005

> <r_lp_Energy>
36.3126

> <b_lp_Chiralities_Consistent>
1

> <s_lp_Variant>
AV-unprocessed.smi:54-10

> <Gold.Version>
5.8.1

> <Gold.Id.Protein>
6NUR|6NUR_protein|mol2

> <Gold.PLP.Fitness>
54.7892

> <Gold.PLP.PLP>
-43.5821

> <Gold.PLP.part.hbond>
-6.6472

> <Gold.PLP.part.metal>
0.0000

> <Gold.PLP.part.buried>
-7.0561

> <Gold.PLP.part.nonpolar>
-32.3122

> <Gold.PLP.part.repulsive>
2.1202

> <Gold.PLP.ligand.clash>
0.0000

> <Gold.PLP.ligand.torsion>
1.4176

> <Gold.PLP.Chemscore.Hbond>
4.0026

> <Gold.PLP.Chemscore.CHOScore>
0.6592

> <Gold.PLP.Chemscore.Metal>
0.0000

> <Gold.Chemscore.Hbonds>
donor molecule, donor type, donor heavy atom, donor atom, acceptor molecule, acceptor atom, score
      L1  H    25    44       P1  8028  0.68
      P1  H  6896  6907       L1    20  0.55
      P1  H  7997  8009       L1    15  0.76
      P1  H 10752 10764       L1    22  1.00
      L1  C    12    38       P1  7948  0.15
      L1  C    12    38       P1  7949  0.18

> <Gold.PLP.Chemscore.Internal.Correction>
0.0572

> <Gold.Rescore>
     Score         DG    S(hbond)    S(metal)    S(lipo)     H(rot)  DE(clash)    DE(int)     intcor
      8.37     -12.85       3.05        0.00      64.64       4.05       0.28       4.21       ----

> <Gold.Chemscore.Fitness>
8.3684

> <Gold.Chemscore.DG>
-12.8493

> <Gold.Chemscore.ZeroCoef>
-5.4800

> <Gold.Chemscore.Hbond>
3.0458

> <Gold.Chemscore.Metal>
0.0000

> <Gold.Chemscore.Lipo>
64.6377

> <Gold.Chemscore.Internal_Hbond>
0.0000

> <Gold.Chemscore.DEClash>
0.2755

> <Gold.Chemscore.DEInternal>
4.2054

> <Gold.Chemscore.Rot>
4.0493

> <Gold.Chemscore.Internal.Correction>
   9.000000E+99

> <Gold.Chemscore.Hbonds>
donor molecule, donor type, donor heavy atom, donor atom, acceptor molecule, acceptor atom, score
      L1  H    25    44       P1  8028  0.67
      P1  H  6896  6907       L1    20  0.02
      P1  H  7997  8009       L1    15  0.74
      P1  H 10752 10764       L1    22  0.68

> <Gold.Chemscore.Hbond.Weighted>
-10.1729

> <Gold.Chemscore.Metal.Weighted>
-0.0000

> <Gold.Chemscore.Lipo.Weighted>
-7.5626

> <Gold.Chemscore.Internal_Hbond.Weighted>
0.0000

> <Gold.Chemscore.DEClash.Weighted>
0.2755

> <Gold.Chemscore.DEInternal.Weighted>
4.2054

> <Gold.Chemscore.Rot.Weighted>
10.3662

> <Gold.Chemscore.Internal.Correction.Weighted>
   9.000000E+99

> <Gold.Protein.RotatedTorsions>
[ 6907 6896 6895 6894 ] final  -29.99 input  -60.11 | X-H torsion
[ 7974 7965 7964 7962 ] final  -14.82 input  175.53 | X-H torsion
[ 8008 7997 7996 7995 ] final  174.68 input   59.86 | X-H torsion
[ 10167 10162 10161 10158 ] final -136.75 input  -65.29 | X-H torsion
[ 10718 10713 10712 10709 ] final  165.29 input   66.30 | X-H torsion
[ 10763 10752 10751 10750 ] final    4.24 input  -60.55 | X-H torsion
[ 11005 11000 10999 10996 ] final  124.02 input  -57.11 | X-H torsion

> <Gold.Protein.ActiveResidues>
 VAL166  LYS551  ARG553  GLY616  TRP617  ASP618  TYR619  PRO620  LYS621  CYS622 
 ASP623  PHE694  ASN695  SER759  ASP760  ASP761  ALA762  ILE779  LEU786  VAL792 
 PHE793  MET794  SER795  GLU796  ALA797  LYS798  CYS799  TRP800  GLU811  SER814 

> <Gold.Protein.RotatedAtoms>
  151.1116  135.0030  159.8496 H   0  0  0  0  0  0  0  0  0  0  0  0  # atno 6907 bound_to 6896
  152.5443  134.1829  159.8653 H   0  0  0  0  0  0  0  0  0  0  0  0  # atno 6908 bound_to 6896
  151.1880  133.4640  159.2628 H   0  0  0  0  0  0  0  0  0  0  0  0  # atno 6909 bound_to 6896
  146.2058  140.3404  142.8407 H   0  0  0  0  0  0  0  0  0  0  0  0  # atno 7974 bound_to 7965
  156.0949  140.1428  156.9543 H   0  0  0  0  0  0  0  0  0  0  0  0  # atno 8008 bound_to 7997
  154.4665  140.0924  156.7080 H   0  0  0  0  0  0  0  0  0  0  0  0  # atno 8009 bound_to 7997
  155.4857  140.3446  155.4349 H   0  0  0  0  0  0  0  0  0  0  0  0  # atno 8010 bound_to 7997
  139.8646  143.7033  152.2646 H   0  0  0  0  0  0  0  0  0  0  0  0  # atno 10167 bound_to 10162
  157.0822  131.0395  151.2570 H   0  0  0  0  0  0  0  0  0  0  0  0  # atno 10718 bound_to 10713
  153.2737  135.6934  153.7455 H   0  0  0  0  0  0  0  0  0  0  0  0  # atno 10763 bound_to 10752
  153.6469  135.3383  155.3089 H   0  0  0  0  0  0  0  0  0  0  0  0  # atno 10764 bound_to 10752
  154.8472  135.4445  154.1767 H   0  0  0  0  0  0  0  0  0  0  0  0  # atno 10765 bound_to 10752
  139.9339  134.9640  156.8346 H   0  0  0  0  0  0  0  0  0  0  0  0  # atno 11005 bound_to 11000
  144.8789  140.7374  143.5999 LP  0  0  0  0  0  0  0  0  0  0  0  0  # atno 17320 bound_to 7965
  145.3324  139.1756  143.4530 LP  0  0  0  0  0  0  0  0  0  0  0  0  # atno 17321 bound_to 7965
  139.7341  144.7575  151.0756 LP  0  0  0  0  0  0  0  0  0  0  0  0  # atno 17342 bound_to 10162
  140.7770  143.5052  150.9721 LP  0  0  0  0  0  0  0  0  0  0  0  0  # atno 17343 bound_to 10162
  157.4790  130.7754  149.7396 LP  0  0  0  0  0  0  0  0  0  0  0  0  # atno 17370 bound_to 10713
  155.9920  130.3933  150.2959 LP  0  0  0  0  0  0  0  0  0  0  0  0  # atno 17371 bound_to 10713
  140.6127  134.0067  155.7584 LP  0  0  0  0  0  0  0  0  0  0  0  0  # atno 17394 bound_to 11000
  141.0943  133.9868  157.3186 LP  0  0  0  0  0  0  0  0  0  0  0  0  # atno 17395 bound_to 11000

$$$$
