#       Name:                AV-unprocessed.smi:990
#       Creating user name   scv26
#       Creation time:       Fri Mar 27 02:23:10 2020


#       File generated by GOLD software.
#

@<TRIPOS>MOLECULE
AV-unprocessed.smi:990
    48    49     1
SMALL
NO_CHARGES


@<TRIPOS>ATOM
      1 ****        -8.0758   1.3912   1.2920 C.2            1 S1                 0.0000
      2 ****        -6.9251   1.4344   0.6037 C.2            1 S1                 0.0000
      3 ****        -6.6504   0.6420  -0.6594 C.3            1 S1                 0.0000
      4 ****        -5.4477  -0.1718  -0.5282 N.am           1 S1                 0.0000
      5 ****        -4.1924   0.2717  -0.6884 C.2            1 S1                 0.0000
      6 ****        -3.9171   1.4344  -0.9827 O.2            1 S1                 0.0000
      7 ****        -3.3024  -0.7178  -0.4976 N.am           1 S1                 0.0000
      8 ****        -1.8822  -0.6694  -0.5535 C.ar           1 S1                 0.0000
      9 ****        -1.1863  -1.8929  -0.6071 C.ar           1 S1                 0.0000
     10 ****         0.2206  -1.8858  -0.6475 C.ar           1 S1                 0.0000
     11 ****         0.9037  -0.6481  -0.6270 C.ar           1 S1                 0.0000
     12 ****         2.3138  -0.6202  -0.6652 N.3            1 S1                 0.0000
     13 ****         2.9752  -1.3693   0.4005 C.3            1 S1                 0.0000
     14 ****         4.4656  -1.5897   0.0808 C.3            1 S1                 0.0000
     15 ****         5.1399  -0.3193  -0.2495 N.pl3          1 S1                 0.0000
     16 ****         6.0924   0.5002   0.9531 S.o2           1 S1                 0.0000
     17 ****         4.8485   1.2561   2.0779 C.3            1 S1                 0.0000
     18 ****         6.8344  -0.5204   1.7089 O.2            1 S1                 0.0000
     19 ****         6.8235   1.5859   0.2820 O.2            1 S1                 0.0000
     20 ****         4.4511   0.4550  -1.2998 C.3            1 S1                 0.0000
     21 ****         2.9622   0.6562  -0.9625 C.3            1 S1                 0.0000
     22 ****         0.2359   0.5299  -0.5693 N.ar           1 S1                 0.0000
     23 ****        -1.1135   0.5191  -0.5295 C.ar           1 S1                 0.0000
     24 ****        -8.8969   0.7649   0.9752 H              1 S1                 0.0000
     25 ****        -8.2106   1.9844   2.1847 H              1 S1                 0.0000
     26 ****        -6.1286   2.0770   0.9507 H              1 S1                 0.0000
     27 ****        -7.4938  -0.0131  -0.8804 H              1 S1                 0.0000
     28 ****        -6.5560   1.3293  -1.5017 H              1 S1                 0.0000
     29 ****        -5.5821  -1.1438  -0.2909 H              1 S1                 0.0000
     30 ****        -3.6933  -1.6317  -0.3218 H              1 S1                 0.0000
     31 ****        -1.7222  -2.8307  -0.6225 H              1 S1                 0.0000
     32 ****         0.7572  -2.8212  -0.7060 H              1 S1                 0.0000
     33 ****         2.8610  -0.8218   1.3353 H              1 S1                 0.0000
     34 ****         2.5042  -2.3395   0.5542 H              1 S1                 0.0000
     35 ****         4.9659  -2.0808   0.9149 H              1 S1                 0.0000
     36 ****         4.5588  -2.2613  -0.7735 H              1 S1                 0.0000
     37 ****         5.3676   1.7948   2.8703 H              1 S1                 0.0000
     38 ****         4.2313   0.4792   2.5255 H              1 S1                 0.0000
     39 ****         4.2251   1.9568   1.5254 H              1 S1                 0.0000
     40 ****         4.9416   1.4164  -1.4490 H              1 S1                 0.0000
     41 ****         4.5409  -0.0875  -2.2417 H              1 S1                 0.0000
     42 ****         2.4699   1.1336  -1.8108 H              1 S1                 0.0000
     43 ****         2.8479   1.3267  -0.1114 H              1 S1                 0.0000
     44 ****        -1.5628   1.4965  -0.4594 H              1 S1                 0.0000
     45 ****        -4.6486   2.1033  -1.1149 LP             1 S1                 0.0000
     46 ****        -2.9619   1.7104  -1.0896 LP             1 S1                 0.0000
     47 ****         2.4708  -1.1377  -1.5063 LP             1 S1                 0.0000
     48 ****         0.7362   1.3957  -0.5564 LP             1 S1                 0.0000
@<TRIPOS>BOND
    1    1    2 2     
    2    1   24 1     
    3    1   25 1     
    4    2    3 1     
    5    2   26 1     
    6    3    4 1     
    7    3   27 1     
    8    3   28 1     
    9    4    5 am    
   10    4   29 1     
   11    5    6 2     
   12    5    7 am    
   13    7    8 1     
   14    7   30 1     
   15    8   23 ar    
   16    8    9 ar    
   17    9   10 ar    
   18    9   31 1     
   19   10   11 ar    
   20   10   32 1     
   21   11   12 1     
   22   11   22 ar    
   23   12   21 1     
   24   12   13 1     
   25   13   14 1     
   26   13   33 1     
   27   13   34 1     
   28   14   15 1     
   29   14   35 1     
   30   14   36 1     
   31   15   16 1     
   32   15   20 1     
   33   16   17 1     
   34   16   18 2     
   35   16   19 2     
   36   17   37 1     
   37   17   38 1     
   38   17   39 1     
   39   20   21 1     
   40   20   40 1     
   41   20   41 1     
   42   21   42 1     
   43   21   43 1     
   44   22   23 ar    
   45   23   44 1     
   46    6   45 1     
   47    6   46 1     
   48   12   47 1     
   49   22   48 1     
@<TRIPOS>SUBSTRUCTURE
      1 S1             1
@<TRIPOS>SET
LONE_PAIRS      STATIC     ATOMS    <user>   **** ""
6 45 46 47 18 19 48
DONOR_HYDROGENS      STATIC     ATOMS    <user>   **** ""
2 29 30
ATOM$BLUE        STATIC     ATOMS    COLORGROUP SYSTEM
6 45 46 47 18 19 48
ATOM$RED        STATIC     ATOMS    COLORGROUP SYSTEM
2 29 30
