AV-unprocessed.smi:1927|AV-procd|sdf|7796|dock7
  -GOLD-   22720 9543D 1   1.00000     0.00000
 Structure written by MMmdl.
 34 35  0  0  0  0  0  0  0  0  1 V2000
  147.7221  133.2423  152.5779 C   0  0  0  0  0  0  0  0  0  0  0  0
  146.4554  133.2900  151.7386 C   0  0  0  0  0  0  0  0  0  0  0  0
  145.8776  132.0828  151.2911 C   0  0  0  0  0  0  0  0  0  0  0  0
  144.7075  132.1294  150.5139 C   0  0  0  0  0  0  0  0  0  0  0  0
  144.1613  133.3894  150.2157 C   0  0  0  0  0  0  0  0  0  0  0  0
  144.7062  134.5478  150.6397 N   0  0  0  0  0  0  0  0  0  0  0  0
  145.8357  134.5205  151.3909 C   0  0  0  0  0  0  0  0  0  0  0  0
  146.4645  135.7016  151.8767 N   0  0  0  0  0  0  0  0  0  0  0  0
  145.8932  136.8046  152.3920 C   0  0  0  0  0  0  0  0  0  0  0  0
  144.6823  136.9903  152.5156 O   0  0  0  0  0  0  0  0  0  0  0  0
  146.8214  137.7002  152.7593 N   0  0  0  0  0  0  0  0  0  0  0  0
  146.5526  139.0067  153.3516 C   0  0  0  0  0  0  0  0  0  0  0  0
  147.7254  139.4906  154.2238 C   0  0  2  0  0  0  0  0  0  0  0  0
  147.8869  140.9967  154.2496 C   0  0  0  0  0  0  0  0  0  0  0  0
  149.3180  141.1575  154.7550 C   0  0  0  0  0  0  0  0  0  0  0  0
  150.0209  139.9951  154.3238 O   0  0  0  0  0  0  0  0  0  0  0  0
  149.1136  139.0633  153.7440 C   0  0  0  0  0  0  0  0  0  0  0  0
  148.0504  132.2159  152.7445 H   0  0  0  0  0  0  0  0  0  0  0  0
  147.5532  133.7031  153.5516 H   0  0  0  0  0  0  0  0  0  0  0  0
  148.5314  133.7750  152.0775 H   0  0  0  0  0  0  0  0  0  0  0  0
  146.3229  131.1304  151.5390 H   0  0  0  0  0  0  0  0  0  0  0  0
  144.2411  131.2234  150.1564 H   0  0  0  0  0  0  0  0  0  0  0  0
  143.2621  133.4701  149.6230 H   0  0  0  0  0  0  0  0  0  0  0  0
  147.4725  135.7020  151.8321 H   0  0  0  0  0  0  0  0  0  0  0  0
  147.7919  137.4603  152.6191 H   0  0  0  0  0  0  0  0  0  0  0  0
  146.3129  139.7437  152.5829 H   0  0  0  0  0  0  0  0  0  0  0  0
  145.6584  138.9103  153.9677 H   0  0  0  0  0  0  0  0  0  0  0  0
  147.5852  139.1413  155.2483 H   0  0  0  0  0  0  0  0  0  0  0  0
  147.7992  141.4060  153.2419 H   0  0  0  0  0  0  0  0  0  0  0  0
  147.1544  141.4958  154.8846 H   0  0  0  0  0  0  0  0  0  0  0  0
  149.7883  142.0679  154.3828 H   0  0  0  0  0  0  0  0  0  0  0  0
  149.3365  141.1890  155.8451 H   0  0  0  0  0  0  0  0  0  0  0  0
  149.3601  138.0397  154.0267 H   0  0  0  0  0  0  0  0  0  0  0  0
  149.1876  139.1412  152.6584 H   0  0  0  0  0  0  0  0  0  0  0  0
  1  2  1  0  0  0  0
  1 18  1  0  0  0  0
  1 19  1  0  0  0  0
  1 20  1  0  0  0  0
  2  7  1  0  0  0  0
  2  3  2  0  0  0  0
  3  4  1  0  0  0  0
  3 21  1  0  0  0  0
  4  5  2  0  0  0  0
  4 22  1  0  0  0  0
  5  6  1  0  0  0  0
  5 23  1  0  0  0  0
  6  7  2  0  0  0  0
  7  8  1  0  0  0  0
  8  9  1  0  0  0  0
  8 24  1  0  0  0  0
  9 10  2  0  0  0  0
  9 11  1  0  0  0  0
 11 12  1  0  0  0  0
 11 25  1  0  0  0  0
 12 13  1  0  0  0  0
 12 26  1  0  0  0  0
 12 27  1  0  0  0  0
 13 17  1  0  0  0  0
 13 14  1  0  0  0  0
 13 28  1  0  0  0  0
 14 15  1  0  0  0  0
 14 29  1  0  0  0  0
 14 30  1  0  0  0  0
 15 16  1  0  0  0  0
 15 31  1  0  0  0  0
 15 32  1  0  0  0  0
 16 17  1  0  0  0  0
 17 33  1  0  0  0  0
 17 34  1  0  0  0  0
M  END
> <s_m_source_file>
AV-unprocessed.smi

> <i_m_source_file_index>
1927

> <i_lp_mmshare_version>
43012

> <i_f3d_flags>
0

> <s_epik_input>
W0NIM11jMVtjSF1bY0hdW2NIXW5jMVtOSF1DKD1PKVtOSF1bQ0gyXVtDQEBIXTJbQ0gyXVtDSDJdT1tDSDJdMg==

> <s_epik_cmdline>
J2VwaWtfcHl0aG9uJywgJy1waCcsICc3LjAnLCAnLXRuJywgJzgnLCAnLW1hJywgJzIwMCcsICctbWV0YWxfYmluZGluZycsICctaW1hZScsICc8aW5maWxlLm1hZT4nLCAnLW9tYWUnLCAnPG91dGZpbGUubWFlPic=

> <r_lp_tautomer_probability>
1

> <r_epik_Ionization_Penalty>
5.84082e-05

> <r_epik_Ionization_Penalty_Charging>
0

> <r_epik_Ionization_Penalty_Neutral>
5.84082e-05

> <r_epik_State_Penalty>
-0

> <r_epik_Charging_Adjusted_Penalty>
0

> <i_epik_Tot_Q>
0

> <i_epik_Tot_abs_Q>
0

> <r_epik_Metal_State_Penalty>
-0

> <b_epik_Metal_Only>
0

> <s_lp_Force_Field>
OPLS_2005

> <r_lp_Energy>
21.003

> <b_lp_Chiralities_Consistent>
1

> <s_lp_Variant>
AV-unprocessed.smi:1927-1

> <Gold.Version>
5.8.1

> <Gold.Id.Protein>
6NUR|6NUR_protein|mol2

> <Gold.PLP.Fitness>
38.6386

> <Gold.PLP.PLP>
-28.6236

> <Gold.PLP.part.hbond>
-2.9367

> <Gold.PLP.part.metal>
0.0000

> <Gold.PLP.part.buried>
-2.8671

> <Gold.PLP.part.nonpolar>
-24.5032

> <Gold.PLP.part.repulsive>
0.6225

> <Gold.PLP.ligand.clash>
0.0000

> <Gold.PLP.ligand.torsion>
0.8633

> <Gold.PLP.Chemscore.Hbond>
2.9120

> <Gold.PLP.Chemscore.CHOScore>
1.0000

> <Gold.PLP.Chemscore.Metal>
0.0000

> <Gold.Chemscore.Hbonds>
donor molecule, donor type, donor heavy atom, donor atom, acceptor molecule, acceptor atom, score
      L1  H     8    24       P1  7948  1.00
      L1  H    11    25       P1  7948  0.90
      P1  H  7989  7998       L1    16  0.95
      L1  C     5    23       P1 10186  1.00

> <Gold.PLP.Chemscore.Internal.Correction>
0.0057

> <Gold.Rescore>
     Score         DG    S(hbond)    S(metal)    S(lipo)     H(rot)  DE(clash)    DE(int)     intcor
     16.60     -18.85       2.53        0.00      69.04       1.23       1.49       0.76       ----

> <Gold.Chemscore.Fitness>
16.6007

> <Gold.Chemscore.DG>
-18.8512

> <Gold.Chemscore.ZeroCoef>
-5.4800

> <Gold.Chemscore.Hbond>
2.5305

> <Gold.Chemscore.Metal>
0.0000

> <Gold.Chemscore.Lipo>
69.0378

> <Gold.Chemscore.Internal_Hbond>
0.0000

> <Gold.Chemscore.DEClash>
1.4938

> <Gold.Chemscore.DEInternal>
0.7567

> <Gold.Chemscore.Rot>
1.2337

> <Gold.Chemscore.Internal.Correction>
   9.000000E+99

> <Gold.Chemscore.Hbonds>
donor molecule, donor type, donor heavy atom, donor atom, acceptor molecule, acceptor atom, score
      L1  H     8    24       P1  7948  0.94
      L1  H    11    25       P1  7948  0.88
      P1  H  7989  7998       L1    16  0.20

> <Gold.Chemscore.Hbond.Weighted>
-8.4520

> <Gold.Chemscore.Metal.Weighted>
-0.0000

> <Gold.Chemscore.Lipo.Weighted>
-8.0774

> <Gold.Chemscore.Internal_Hbond.Weighted>
0.0000

> <Gold.Chemscore.DEClash.Weighted>
1.4938

> <Gold.Chemscore.DEInternal.Weighted>
0.7567

> <Gold.Chemscore.Rot.Weighted>
3.1582

> <Gold.Chemscore.Internal.Correction.Weighted>
   9.000000E+99

> <Gold.Protein.RotatedTorsions>
[ 6907 6896 6895 6894 ] final  151.17 input  -60.11 | X-H torsion
[ 7974 7965 7964 7962 ] final   54.81 input  175.53 | X-H torsion
[ 8008 7997 7996 7995 ] final -147.31 input   59.86 | X-H torsion
[ 10167 10162 10161 10158 ] final  115.80 input  -65.29 | X-H torsion
[ 10718 10713 10712 10709 ] final  139.00 input   66.30 | X-H torsion
[ 10763 10752 10751 10750 ] final  -90.48 input  -60.55 | X-H torsion
[ 11005 11000 10999 10996 ] final   98.04 input  -57.11 | X-H torsion

> <Gold.Protein.ActiveResidues>
 VAL166  LYS551  ARG553  GLY616  TRP617  ASP618  TYR619  PRO620  LYS621  CYS622 
 ASP623  PHE694  ASN695  SER759  ASP760  ASP761  ALA762  ILE779  LEU786  VAL792 
 PHE793  MET794  SER795  GLU796  ALA797  LYS798  CYS799  TRP800  GLU811  SER814 

> <Gold.Protein.RotatedAtoms>
  152.1043  133.4266  159.4601 H   0  0  0  0  0  0  0  0  0  0  0  0  # atno 6907 bound_to 6896
  150.6865  134.2724  159.4602 H   0  0  0  0  0  0  0  0  0  0  0  0  # atno 6908 bound_to 6896
  152.0587  134.9608  160.0625 H   0  0  0  0  0  0  0  0  0  0  0  0  # atno 6909 bound_to 6896
  145.9570  139.4024  143.0271 H   0  0  0  0  0  0  0  0  0  0  0  0  # atno 7974 bound_to 7965
  155.5735  140.0636  157.2801 H   0  0  0  0  0  0  0  0  0  0  0  0  # atno 8008 bound_to 7997
  154.4354  140.1864  156.0949 H   0  0  0  0  0  0  0  0  0  0  0  0  # atno 8009 bound_to 7997
  156.0358  140.3301  155.7193 H   0  0  0  0  0  0  0  0  0  0  0  0  # atno 8010 bound_to 7997
  139.6291  144.7112  151.2469 H   0  0  0  0  0  0  0  0  0  0  0  0  # atno 10167 bound_to 10162
  157.4192  131.1036  151.0372 H   0  0  0  0  0  0  0  0  0  0  0  0  # atno 10718 bound_to 10713
  154.6662  135.5303  153.8079 H   0  0  0  0  0  0  0  0  0  0  0  0  # atno 10763 bound_to 10752
  153.0472  135.6518  154.0796 H   0  0  0  0  0  0  0  0  0  0  0  0  # atno 10764 bound_to 10752
  154.0700  135.2955  155.3289 H   0  0  0  0  0  0  0  0  0  0  0  0  # atno 10765 bound_to 10752
  139.8773  134.9030  156.4397 H   0  0  0  0  0  0  0  0  0  0  0  0  # atno 11005 bound_to 11000
  145.8093  140.9733  143.0957 LP  0  0  0  0  0  0  0  0  0  0  0  0  # atno 17320 bound_to 7965
  144.6807  139.9900  143.7484 LP  0  0  0  0  0  0  0  0  0  0  0  0  # atno 17321 bound_to 7965
  140.7429  143.6512  150.8246 LP  0  0  0  0  0  0  0  0  0  0  0  0  # atno 17342 bound_to 10162
  140.0135  143.5618  152.2829 LP  0  0  0  0  0  0  0  0  0  0  0  0  # atno 17343 bound_to 10162
  157.1308  130.6101  149.5529 LP  0  0  0  0  0  0  0  0  0  0  0  0  # atno 17370 bound_to 10713
  155.9875  130.4914  150.7127 LP  0  0  0  0  0  0  0  0  0  0  0  0  # atno 17371 bound_to 10713
  140.9008  133.7781  155.9678 LP  0  0  0  0  0  0  0  0  0  0  0  0  # atno 17394 bound_to 11000
  140.8653  134.2792  157.5216 LP  0  0  0  0  0  0  0  0  0  0  0  0  # atno 17395 bound_to 11000

$$$$
