AV-unprocessed.smi:1248|AV-procd|sdf|5252|dock3
  -GOLD-   22720 4363D 1   1.00000     0.00000
 Structure written by MMmdl.
 43 45  0  0  0  0  0  0  0  0  1 V2000
  136.4336  142.0022  153.1202 C   0  0  0  0  0  0  0  0  0  0  0  0
  137.6841  142.1298  153.9986 C   0  0  0  0  0  0  0  0  0  0  0  0
  138.5302  140.9553  153.9089 N   0  0  0  0  0  0  0  0  0  0  0  0
  139.8311  140.8721  153.4536 C   0  0  0  0  0  0  0  0  0  0  0  0
  140.1814  139.5602  153.5663 C   0  0  0  0  0  0  0  0  0  0  0  0
  141.4438  139.0252  153.2072 N   0  0  0  0  0  0  0  0  0  0  0  0
  141.8372  137.7441  153.2933 C   0  0  0  0  0  0  0  0  0  0  0  0
  141.1413  136.8161  153.7051 O   0  0  0  0  0  0  0  0  0  0  0  0
  143.1015  137.5932  152.8735 N   0  0  0  0  0  0  0  0  0  0  0  0
  143.8331  136.3300  152.8443 C   0  0  0  0  0  0  0  0  0  0  0  0
  145.0569  136.4235  151.9152 C   0  0  0  0  0  0  0  0  0  0  0  0
  145.7377  135.0526  151.7574 C   0  0  0  0  0  0  0  0  0  0  0  0
  144.7873  134.0729  151.2306 N   0  0  0  0  0  0  0  0  0  0  0  0
  145.4729  132.8038  151.0486 C   0  0  0  0  0  0  0  0  0  0  0  0
  145.4779  132.2049  149.6605 C   0  0  0  0  0  0  0  0  0  0  0  0
  144.6259  131.5894  150.7440 C   0  0  0  0  0  0  0  0  0  0  0  0
  143.6897  133.8870  152.1797 C   0  0  0  0  0  0  0  0  0  0  0  0
  142.9110  135.2029  152.3531 C   0  0  0  0  0  0  0  0  0  0  0  0
  139.0391  138.8973  154.0977 C   0  0  0  0  0  0  0  0  0  0  0  0
  138.0461  139.7503  154.2994 N   0  0  0  0  0  0  0  0  0  0  0  0
  135.8023  142.8858  153.2144 H   0  0  0  0  0  0  0  0  0  0  0  0
  135.8382  141.1350  153.4066 H   0  0  0  0  0  0  0  0  0  0  0  0
  136.6982  141.8948  152.0681 H   0  0  0  0  0  0  0  0  0  0  0  0
  138.2665  143.0040  153.7052 H   0  0  0  0  0  0  0  0  0  0  0  0
  137.3972  142.2752  155.0406 H   0  0  0  0  0  0  0  0  0  0  0  0
  140.3789  141.7330  153.0994 H   0  0  0  0  0  0  0  0  0  0  0  0
  142.1185  139.6866  152.8526 H   0  0  0  0  0  0  0  0  0  0  0  0
  143.5968  138.4119  152.5525 H   0  0  0  0  0  0  0  0  0  0  0  0
  144.1689  136.0830  153.8533 H   0  0  0  0  0  0  0  0  0  0  0  0
  144.7544  136.7921  150.9337 H   0  0  0  0  0  0  0  0  0  0  0  0
  145.7745  137.1444  152.3082 H   0  0  0  0  0  0  0  0  0  0  0  0
  146.5824  135.1445  151.0736 H   0  0  0  0  0  0  0  0  0  0  0  0
  146.1362  134.7147  152.7154 H   0  0  0  0  0  0  0  0  0  0  0  0
  146.3668  132.6084  151.6386 H   0  0  0  0  0  0  0  0  0  0  0  0
  144.9655  132.7474  148.8681 H   0  0  0  0  0  0  0  0  0  0  0  0
  146.3696  131.6630  149.3523 H   0  0  0  0  0  0  0  0  0  0  0  0
  144.9492  130.6362  151.1569 H   0  0  0  0  0  0  0  0  0  0  0  0
  143.5481  131.7239  150.6709 H   0  0  0  0  0  0  0  0  0  0  0  0
  143.0164  133.1124  151.8107 H   0  0  0  0  0  0  0  0  0  0  0  0
  144.0757  133.5442  153.1413 H   0  0  0  0  0  0  0  0  0  0  0  0
  142.0920  135.0561  153.0580 H   0  0  0  0  0  0  0  0  0  0  0  0
  142.4549  135.4798  151.4012 H   0  0  0  0  0  0  0  0  0  0  0  0
  138.8898  137.8556  154.3394 H   0  0  0  0  0  0  0  0  0  0  0  0
  1  2  1  0  0  0  0
  1 21  1  0  0  0  0
  1 22  1  0  0  0  0
  1 23  1  0  0  0  0
  2  3  1  0  0  0  0
  2 24  1  0  0  0  0
  2 25  1  0  0  0  0
  3 20  1  0  0  0  0
  3  4  1  0  0  0  0
  4  5  2  0  0  0  0
  4 26  1  0  0  0  0
  5  6  1  0  0  0  0
  5 19  1  0  0  0  0
  6  7  1  0  0  0  0
  6 27  1  0  0  0  0
  7  8  2  0  0  0  0
  7  9  1  0  0  0  0
  9 10  1  0  0  0  0
  9 28  1  0  0  0  0
 10 18  1  0  0  0  0
 10 11  1  0  0  0  0
 10 29  1  0  0  0  0
 11 12  1  0  0  0  0
 11 30  1  0  0  0  0
 11 31  1  0  0  0  0
 12 13  1  0  0  0  0
 12 32  1  0  0  0  0
 12 33  1  0  0  0  0
 13 14  1  0  0  0  0
 13 17  1  0  0  0  0
 14 16  1  0  0  0  0
 14 15  1  0  0  0  0
 14 34  1  0  0  0  0
 15 16  1  0  0  0  0
 15 35  1  0  0  0  0
 15 36  1  0  0  0  0
 16 37  1  0  0  0  0
 16 38  1  0  0  0  0
 17 18  1  0  0  0  0
 17 39  1  0  0  0  0
 17 40  1  0  0  0  0
 18 41  1  0  0  0  0
 18 42  1  0  0  0  0
 19 20  2  0  0  0  0
 19 43  1  0  0  0  0
M  END
> <s_m_source_file>
AV-unprocessed.smi

> <i_m_source_file_index>
1248

> <i_lp_mmshare_version>
43012

> <i_f3d_flags>
0

> <s_epik_input>
W0NIM11bQ0gyXW4xW2NIXWMoW2NIXW4xKVtOSF1DKD1PKVtOSF1bQ0hdMltDSDJdW0NIMl1OKFtDSDJdW0NIMl0yKVtDSF0zW0NIMl1bQ0gyXTM=

> <s_epik_cmdline>
J2VwaWtfcHl0aG9uJywgJy1waCcsICc3LjAnLCAnLXRuJywgJzgnLCAnLW1hJywgJzIwMCcsICctbWV0YWxfYmluZGluZycsICctaW1hZScsICc8aW5maWxlLm1hZT4nLCAnLW9tYWUnLCAnPG91dGZpbGUubWFlPic=

> <r_lp_tautomer_probability>
1

> <r_epik_Ionization_Penalty>
1.02552

> <r_epik_Ionization_Penalty_Charging>
0

> <r_epik_Ionization_Penalty_Neutral>
1.02552

> <r_epik_State_Penalty>
1.07599

> <r_epik_Charging_Adjusted_Penalty>
1.07599

> <i_epik_Tot_Q>
0

> <i_epik_Tot_abs_Q>
0

> <r_epik_Metal_State_Penalty>
1.07597

> <b_epik_Metal_Only>
0

> <s_lp_Force_Field>
OPLS_2005

> <r_lp_Energy>
25.1211

> <b_lp_Chiralities_Consistent>
1

> <s_lp_Variant>
AV-unprocessed.smi:1248-3

> <Gold.Version>
5.8.1

> <Gold.Id.Protein>
6NUR|6NUR_protein|mol2

> <Gold.PLP.Fitness>
41.6817

> <Gold.PLP.PLP>
-32.7564

> <Gold.PLP.part.hbond>
-3.1876

> <Gold.PLP.part.metal>
0.0000

> <Gold.PLP.part.buried>
-1.1245

> <Gold.PLP.part.nonpolar>
-29.4563

> <Gold.PLP.part.repulsive>
0.3466

> <Gold.PLP.ligand.clash>
0.0017

> <Gold.PLP.ligand.torsion>
1.0585

> <Gold.PLP.Chemscore.Hbond>
1.9280

> <Gold.PLP.Chemscore.CHOScore>
1.3584

> <Gold.PLP.Chemscore.Metal>
0.0000

> <Gold.Chemscore.Hbonds>
donor molecule, donor type, donor heavy atom, donor atom, acceptor molecule, acceptor atom, score
      L1  H     6    27       P1 10175  1.00
      L1  H     9    28       P1 10175  0.93
      L1  C     4    26       P1 10160  0.13
      L1  C     4    26       P1 10162  0.22
      L1  C     4    26       P1 10174  1.00

> <Gold.PLP.Chemscore.Internal.Correction>
1.1847

> <Gold.Rescore>
     Score         DG    S(hbond)    S(metal)    S(lipo)     H(rot)  DE(clash)    DE(int)     intcor
     13.28     -16.93       1.74        0.00      76.93       1.32       0.00       3.64       ----

> <Gold.Chemscore.Fitness>
13.2845

> <Gold.Chemscore.DG>
-16.9297

> <Gold.Chemscore.ZeroCoef>
-5.4800

> <Gold.Chemscore.Hbond>
1.7425

> <Gold.Chemscore.Metal>
0.0000

> <Gold.Chemscore.Lipo>
76.9313

> <Gold.Chemscore.Internal_Hbond>
0.0000

> <Gold.Chemscore.DEClash>
0.0048

> <Gold.Chemscore.DEInternal>
3.6404

> <Gold.Chemscore.Rot>
1.3169

> <Gold.Chemscore.Internal.Correction>
   9.000000E+99

> <Gold.Chemscore.Hbonds>
donor molecule, donor type, donor heavy atom, donor atom, acceptor molecule, acceptor atom, score
      L1  H     6    27       P1 10175  0.60
      L1  H     9    28       P1 10175  0.85

> <Gold.Chemscore.Hbond.Weighted>
-5.8200

> <Gold.Chemscore.Metal.Weighted>
-0.0000

> <Gold.Chemscore.Lipo.Weighted>
-9.0010

> <Gold.Chemscore.Internal_Hbond.Weighted>
0.0000

> <Gold.Chemscore.DEClash.Weighted>
0.0048

> <Gold.Chemscore.DEInternal.Weighted>
3.6404

> <Gold.Chemscore.Rot.Weighted>
3.3712

> <Gold.Chemscore.Internal.Correction.Weighted>
   9.000000E+99

> <Gold.Protein.RotatedTorsions>
[ 6907 6896 6895 6894 ] final   80.68 input  -60.11 | X-H torsion
[ 7974 7965 7964 7962 ] final   27.36 input  175.53 | X-H torsion
[ 8008 7997 7996 7995 ] final  -75.83 input   59.86 | X-H torsion
[ 10167 10162 10161 10158 ] final   82.68 input  -65.29 | X-H torsion
[ 10718 10713 10712 10709 ] final  -43.90 input   66.30 | X-H torsion
[ 10763 10752 10751 10750 ] final  -36.68 input  -60.55 | X-H torsion
[ 11005 11000 10999 10996 ] final -125.07 input  -57.11 | X-H torsion

> <Gold.Protein.ActiveResidues>
 VAL166  LYS551  ARG553  GLY616  TRP617  ASP618  TYR619  PRO620  LYS621  CYS622 
 ASP623  PHE694  ASN695  SER759  ASP760  ASP761  ALA762  ILE779  LEU786  VAL792 
 PHE793  MET794  SER795  GLU796  ALA797  LYS798  CYS799  TRP800  GLU811  SER814 

> <Gold.Protein.RotatedAtoms>
  152.5243  134.3320  159.9186 H   0  0  0  0  0  0  0  0  0  0  0  0  # atno 6907 bound_to 6896
  151.3269  133.4010  159.2667 H   0  0  0  0  0  0  0  0  0  0  0  0  # atno 6908 bound_to 6896
  150.9912  134.9264  159.7958 H   0  0  0  0  0  0  0  0  0  0  0  0  # atno 6909 bound_to 6896
  146.1788  139.7202  142.8915 H   0  0  0  0  0  0  0  0  0  0  0  0  # atno 7974 bound_to 7965
  154.5451  140.0737  156.8575 H   0  0  0  0  0  0  0  0  0  0  0  0  # atno 8008 bound_to 7997
  155.3103  140.3390  155.4226 H   0  0  0  0  0  0  0  0  0  0  0  0  # atno 8009 bound_to 7997
  156.1910  140.1686  156.8077 H   0  0  0  0  0  0  0  0  0  0  0  0  # atno 8010 bound_to 7997
  139.9262  144.6181  150.8390 H   0  0  0  0  0  0  0  0  0  0  0  0  # atno 10167 bound_to 10162
  156.2441  130.4182  149.8726 H   0  0  0  0  0  0  0  0  0  0  0  0  # atno 10718 bound_to 10713
  153.8837  135.6819  153.4765 H   0  0  0  0  0  0  0  0  0  0  0  0  # atno 10763 bound_to 10752
  153.1219  135.4736  154.9207 H   0  0  0  0  0  0  0  0  0  0  0  0  # atno 10764 bound_to 10752
  154.7656  135.3223  154.8245 H   0  0  0  0  0  0  0  0  0  0  0  0  # atno 10765 bound_to 10752
  140.9791  134.0698  157.3785 H   0  0  0  0  0  0  0  0  0  0  0  0  # atno 11005 bound_to 11000
  145.4134  141.0399  143.3004 LP  0  0  0  0  0  0  0  0  0  0  0  0  # atno 17320 bound_to 7965
  144.8281  139.5675  143.6956 LP  0  0  0  0  0  0  0  0  0  0  0  0  # atno 17321 bound_to 7965
  140.7649  143.3262  151.2511 LP  0  0  0  0  0  0  0  0  0  0  0  0  # atno 17342 bound_to 10162
  139.6820  143.9838  152.2813 LP  0  0  0  0  0  0  0  0  0  0  0  0  # atno 17343 bound_to 10162
  156.6297  130.8660  151.3493 LP  0  0  0  0  0  0  0  0  0  0  0  0  # atno 17370 bound_to 10713
  157.7188  130.9531  150.1356 LP  0  0  0  0  0  0  0  0  0  0  0  0  # atno 17371 bound_to 10713
  139.8943  135.0135  156.6942 LP  0  0  0  0  0  0  0  0  0  0  0  0  # atno 17394 bound_to 11000
  140.7214  133.9138  155.8149 LP  0  0  0  0  0  0  0  0  0  0  0  0  # atno 17395 bound_to 11000

$$$$
