AV-unprocessed.smi:1748|AV-procd|sdf|7041|dock3
  -GOLD-   22720 8263D 1   1.00000     0.00000
 Structure written by MMmdl.
 39 40  0  0  0  0  0  0  0  0  3 V2000
  146.7163  139.8408  153.7737 C   0  0  0  0  0  0  0  0  0  0  0  0
  145.9432  141.0621  154.0846 N   0  3  2  0  0  0  0  0  0  0  0  0
  146.6859  142.3042  153.7536 C   0  0  0  0  0  0  0  0  0  0  0  0
  145.8090  143.5503  153.9691 C   0  0  0  0  0  0  0  0  0  0  0  0
  145.2278  143.5878  155.3935 C   0  0  0  0  0  0  0  0  0  0  0  0
  144.4984  142.2733  155.7264 C   0  0  1  0  0  0  0  0  0  0  0  0
  143.2784  142.1672  154.9264 N   0  0  0  0  0  0  0  0  0  0  0  0
  142.2136  141.4113  155.2281 C   0  0  0  0  0  0  0  0  0  0  0  0
  142.1423  140.7243  156.2467 O   0  0  0  0  0  0  0  0  0  0  0  0
  141.2850  141.4874  154.2589 N   0  0  0  0  0  0  0  0  0  0  0  0
  140.0441  140.8359  154.1715 C   0  0  0  0  0  0  0  0  0  0  0  0
  139.8754  139.4855  154.2096 C   0  0  0  0  0  0  0  0  0  0  0  0
  138.5610  138.8617  154.1230 C   0  0  0  0  0  0  0  0  0  0  0  0
  138.3313  137.3654  154.2445 C   0  0  0  0  0  0  0  0  0  0  0  0
  139.0221  136.6950  153.3219 F   0  0  0  0  0  0  0  0  0  0  0  0
  138.7218  136.9427  155.4461 F   0  0  0  0  0  0  0  0  0  0  0  0
  137.0398  137.0692  154.0998 F   0  0  0  0  0  0  0  0  0  0  0  0
  137.5441  139.7926  154.0309 C   0  0  0  0  0  0  0  0  0  0  0  0
  137.6267  141.1405  153.9783 N   0  5  0  0  0  0  0  0  0  0  0  0
  138.8611  141.7127  154.0561 C   0  0  0  0  0  0  0  0  0  0  0  0
  139.0093  142.9352  154.0288 O   0  0  0  0  0  0  0  0  0  0  0  0
  145.4447  141.0762  155.4828 C   0  0  0  0  0  0  0  0  0  0  0  0
  147.6124  139.7763  154.3921 H   0  0  0  0  0  0  0  0  0  0  0  0
  147.0210  139.8344  152.7267 H   0  0  0  0  0  0  0  0  0  0  0  0
  146.1133  138.9492  153.9496 H   0  0  0  0  0  0  0  0  0  0  0  0
  147.5842  142.3669  154.3699 H   0  0  0  0  0  0  0  0  0  0  0  0
  147.0160  142.2679  152.7146 H   0  0  0  0  0  0  0  0  0  0  0  0
  146.3929  144.4521  153.7830 H   0  0  0  0  0  0  0  0  0  0  0  0
  144.9989  143.5563  153.2388 H   0  0  0  0  0  0  0  0  0  0  0  0
  146.0376  143.7419  156.1081 H   0  0  0  0  0  0  0  0  0  0  0  0
  144.5550  144.4389  155.5060 H   0  0  0  0  0  0  0  0  0  0  0  0
  144.2138  142.2942  156.7798 H   0  0  0  0  0  0  0  0  0  0  0  0
  143.2459  142.7051  154.0724 H   0  0  0  0  0  0  0  0  0  0  0  0
  141.5222  142.0369  153.4458 H   0  0  0  0  0  0  0  0  0  0  0  0
  140.7216  138.8280  154.3244 H   0  0  0  0  0  0  0  0  0  0  0  0
  136.5072  139.3952  154.0015 H   0  0  0  0  0  0  0  0  0  0  0  0
  144.9309  140.1384  155.6983 H   0  0  0  0  0  0  0  0  0  0  0  0
  146.2923  141.1255  156.1683 H   0  0  0  0  0  0  0  0  0  0  0  0
  145.1270  141.0428  153.4896 H   0  0  0  0  0  0  0  0  0  0  0  0
  1  2  1  0  0  0  0
  1 23  1  0  0  0  0
  1 24  1  0  0  0  0
  1 25  1  0  0  0  0
  2 22  1  0  0  0  0
  2  3  1  0  0  0  0
  2 39  1  0  0  0  0
  3  4  1  0  0  0  0
  3 26  1  0  0  0  0
  3 27  1  0  0  0  0
  4  5  1  0  0  0  0
  4 28  1  0  0  0  0
  4 29  1  0  0  0  0
  5  6  1  0  0  0  0
  5 30  1  0  0  0  0
  5 31  1  0  0  0  0
  6  7  1  0  0  0  0
  6 22  1  0  0  0  0
  6 32  1  0  0  0  0
  7  8  1  0  0  0  0
  7 33  1  0  0  0  0
  8  9  2  0  0  0  0
  8 10  1  0  0  0  0
 10 11  1  0  0  0  0
 10 34  1  0  0  0  0
 11 20  1  0  0  0  0
 11 12  2  0  0  0  0
 12 13  1  0  0  0  0
 12 35  1  0  0  0  0
 13 14  1  0  0  0  0
 13 18  2  0  0  0  0
 14 15  1  0  0  0  0
 14 16  1  0  0  0  0
 14 17  1  0  0  0  0
 18 19  1  0  0  0  0
 18 36  1  0  0  0  0
 19 20  1  0  0  0  0
 20 21  2  0  0  0  0
 22 37  1  0  0  0  0
 22 38  1  0  0  0  0
M  CHG  1   2   1
M  CHG  1  19  -1
M  END
> <s_m_source_file>
AV-unprocessed.smi

> <i_m_source_file_index>
1748

> <i_lp_mmshare_version>
43012

> <i_f3d_flags>
0

> <s_epik_input>
W0NIM11OMVtDSDJdW0NIMl1bQ0gyXVtDQEhdKFtDSDJdMSlbTkhdQyg9TylbTkhdYzJbY0hdYyhDKEYpKEYpRilbY0hdW25IXWMyPU8=

> <s_epik_cmdline>
J2VwaWtfcHl0aG9uJywgJy1waCcsICc3LjAnLCAnLXRuJywgJzgnLCAnLW1hJywgJzIwMCcsICctbWV0YWxfYmluZGluZycsICctaW1hZScsICc8aW5maWxlLm1hZT4nLCAnLW9tYWUnLCAnPG91dGZpbGUubWFlPic=

> <r_lp_tautomer_probability>
1

> <r_epik_Ionization_Penalty>
3.00907

> <r_epik_Ionization_Penalty_Charging>
0.148702

> <r_epik_Ionization_Penalty_Neutral>
2.86036

> <r_epik_State_Penalty>
2.85557

> <r_epik_Charging_Adjusted_Penalty>
3.00428

> <i_epik_Tot_Q>
0

> <i_epik_Tot_abs_Q>
2

> <r_epik_Metal_State_Penalty>
0.443779

> <b_epik_Metal_Only>
1

> <s_lp_Force_Field>
OPLS_2005

> <r_lp_Energy>
32.6678

> <b_lp_Chiralities_Consistent>
1

> <s_lp_Variant>
AV-unprocessed.smi:1748-6

> <Gold.Version>
5.8.1

> <Gold.Id.Protein>
6NUR|6NUR_protein|mol2

> <Gold.PLP.Fitness>
47.0096

> <Gold.PLP.PLP>
-34.4778

> <Gold.PLP.part.hbond>
-5.5952

> <Gold.PLP.part.metal>
0.0000

> <Gold.PLP.part.buried>
-5.0538

> <Gold.PLP.part.nonpolar>
-24.4222

> <Gold.PLP.part.repulsive>
0.1761

> <Gold.PLP.ligand.clash>
0.0000

> <Gold.PLP.ligand.torsion>
0.9170

> <Gold.PLP.Chemscore.Hbond>
4.7706

> <Gold.PLP.Chemscore.CHOScore>
0.0000

> <Gold.PLP.Chemscore.Metal>
0.0000

> <Gold.Chemscore.Hbonds>
donor molecule, donor type, donor heavy atom, donor atom, acceptor molecule, acceptor atom, score
      L1  H     2    39       P1 10175  2.00
      L1  H     7    33       P1 10174  0.78
      L1  H    10    34       P1 10174  1.00
      P1  H 10162 10167       L1    21  0.98

> <Gold.PLP.Chemscore.Internal.Correction>
0.0539

> <Gold.Rescore>
     Score         DG    S(hbond)    S(metal)    S(lipo)     H(rot)  DE(clash)    DE(int)     intcor
     18.36     -19.15       2.98        0.00      53.52       1.00       0.01       0.77       ----

> <Gold.Chemscore.Fitness>
18.3638

> <Gold.Chemscore.DG>
-19.1484

> <Gold.Chemscore.ZeroCoef>
-5.4800

> <Gold.Chemscore.Hbond>
2.9840

> <Gold.Chemscore.Metal>
0.0000

> <Gold.Chemscore.Lipo>
53.5187

> <Gold.Chemscore.Internal_Hbond>
0.0000

> <Gold.Chemscore.DEClash>
0.0149

> <Gold.Chemscore.DEInternal>
0.7697

> <Gold.Chemscore.Rot>
1.0000

> <Gold.Chemscore.Internal.Correction>
   9.000000E+99

> <Gold.Chemscore.Hbonds>
donor molecule, donor type, donor heavy atom, donor atom, acceptor molecule, acceptor atom, score
      L1  H     2    39       P1 10175  0.60
      L1  H     7    33       P1 10174  0.25
      L1  H    10    34       P1 10174  0.75
      P1  H 10162 10167       L1    21  0.77

> <Gold.Chemscore.Hbond.Weighted>
-9.9667

> <Gold.Chemscore.Metal.Weighted>
-0.0000

> <Gold.Chemscore.Lipo.Weighted>
-6.2617

> <Gold.Chemscore.Internal_Hbond.Weighted>
0.0000

> <Gold.Chemscore.DEClash.Weighted>
0.0149

> <Gold.Chemscore.DEInternal.Weighted>
0.7697

> <Gold.Chemscore.Rot.Weighted>
2.5600

> <Gold.Chemscore.Internal.Correction.Weighted>
   9.000000E+99

> <Gold.Protein.RotatedTorsions>
[ 6907 6896 6895 6894 ] final    5.83 input  -60.11 | X-H torsion
[ 7974 7965 7964 7962 ] final -140.94 input  175.53 | X-H torsion
[ 8008 7997 7996 7995 ] final -103.75 input   59.86 | X-H torsion
[ 10167 10162 10161 10158 ] final -132.17 input  -65.29 | X-H torsion
[ 10718 10713 10712 10709 ] final    0.57 input   66.30 | X-H torsion
[ 10763 10752 10751 10750 ] final   26.78 input  -60.55 | X-H torsion
[ 11005 11000 10999 10996 ] final  165.16 input  -57.11 | X-H torsion

> <Gold.Protein.ActiveResidues>
 VAL166  LYS551  ARG553  GLY616  TRP617  ASP618  TYR619  PRO620  LYS621  CYS622 
 ASP623  PHE694  ASN695  SER759  ASP760  ASP761  ALA762  ILE779  LEU786  VAL792 
 PHE793  MET794  SER795  GLU796  ALA797  LYS798  CYS799  TRP800  GLU811  SER814 

> <Gold.Protein.RotatedAtoms>
  151.6639  135.0985  160.0184 H   0  0  0  0  0  0  0  0  0  0  0  0  # atno 6907 bound_to 6896
  152.3931  133.6703  159.6262 H   0  0  0  0  0  0  0  0  0  0  0  0  # atno 6908 bound_to 6896
  150.7843  133.8838  159.3334 H   0  0  0  0  0  0  0  0  0  0  0  0  # atno 6909 bound_to 6896
  144.8558  140.6140  143.5360 H   0  0  0  0  0  0  0  0  0  0  0  0  # atno 7974 bound_to 7965
  154.8753  140.0421  157.1750 H   0  0  0  0  0  0  0  0  0  0  0  0  # atno 8008 bound_to 7997
  154.8695  140.2956  155.5469 H   0  0  0  0  0  0  0  0  0  0  0  0  # atno 8009 bound_to 7997
  156.2999  140.2431  156.3682 H   0  0  0  0  0  0  0  0  0  0  0  0  # atno 8010 bound_to 7997
  139.9113  143.6491  152.2574 H   0  0  0  0  0  0  0  0  0  0  0  0  # atno 10167 bound_to 10162
  156.8354  130.5502  149.5683 H   0  0  0  0  0  0  0  0  0  0  0  0  # atno 10718 bound_to 10713
  153.0600  135.6552  154.0486 H   0  0  0  0  0  0  0  0  0  0  0  0  # atno 10763 bound_to 10752
  154.0156  135.2924  155.3388 H   0  0  0  0  0  0  0  0  0  0  0  0  # atno 10764 bound_to 10752
  154.6933  135.5274  153.8491 H   0  0  0  0  0  0  0  0  0  0  0  0  # atno 10765 bound_to 10752
  140.2532  134.7960  157.3521 H   0  0  0  0  0  0  0  0  0  0  0  0  # atno 11005 bound_to 11000
  145.4409  139.1536  143.3970 LP  0  0  0  0  0  0  0  0  0  0  0  0  # atno 17320 bound_to 7965
  146.2822  140.4531  142.8772 LP  0  0  0  0  0  0  0  0  0  0  0  0  # atno 17321 bound_to 7965
  139.6940  144.7643  151.1389 LP  0  0  0  0  0  0  0  0  0  0  0  0  # atno 17342 bound_to 10162
  140.7684  143.5549  150.9163 LP  0  0  0  0  0  0  0  0  0  0  0  0  # atno 17343 bound_to 10162
  156.0911  130.5896  150.9733 LP  0  0  0  0  0  0  0  0  0  0  0  0  # atno 17370 bound_to 10713
  157.6384  131.0913  150.8301 LP  0  0  0  0  0  0  0  0  0  0  0  0  # atno 17371 bound_to 10713
  140.1537  134.4817  155.7943 LP  0  0  0  0  0  0  0  0  0  0  0  0  # atno 17394 bound_to 11000
  141.2199  133.6873  156.7423 LP  0  0  0  0  0  0  0  0  0  0  0  0  # atno 17395 bound_to 11000

$$$$
