AV-unprocessed.smi:1640|AV-procd|sdf|6554|dock10
  -GOLD-   22720 7233D 1   1.00000     0.00000
 Structure written by MMmdl.
 47 48  0  0  0  0  0  0  0  0  1 V2000
  146.9799  135.4126  163.1082 C   0  0  0  0  0  0  0  0  0  0  0  0
  146.1760  134.9449  161.8836 C   0  0  0  0  0  0  0  0  0  0  0  0
  145.6019  133.5405  162.1242 C   0  0  0  0  0  0  0  0  0  0  0  0
  147.0085  134.9781  160.5862 C   0  0  0  0  0  0  0  0  0  0  0  0
  147.9465  136.1898  160.4755 C   0  0  0  0  0  0  0  0  0  0  0  0
  148.9206  136.1203  158.9155 S   0  0  0  0  0  0  0  0  0  0  0  0
  149.7151  134.8824  158.9141 O   0  0  0  0  0  0  0  0  0  0  0  0
  148.0338  136.4220  157.7820 O   0  0  0  0  0  0  0  0  0  0  0  0
  150.0120  137.4410  159.0906 N   0  0  0  0  0  0  0  0  0  0  0  0
  149.9103  138.5582  158.1533 C   0  0  0  0  0  0  0  0  0  0  0  0
  151.1168  138.6583  157.2322 C   0  0  0  0  0  0  0  0  0  0  0  0
  151.3678  137.6293  156.2999 C   0  0  0  0  0  0  0  0  0  0  0  0
  152.4920  137.7238  155.4593 C   0  0  0  0  0  0  0  0  0  0  0  0
  153.3276  138.8483  155.5873 C   0  0  0  0  0  0  0  0  0  0  0  0
  153.1017  139.8395  156.4744 N   0  0  0  0  0  0  0  0  0  0  0  0
  152.0187  139.7537  157.2849 C   0  0  0  0  0  0  0  0  0  0  0  0
  151.7954  140.8125  158.1819 N   0  0  0  0  0  0  0  0  0  0  0  0
  152.7917  140.9742  159.2347 C   0  0  0  0  0  0  0  0  0  0  0  0
  152.3322  142.0564  160.2261 C   0  0  0  0  0  0  0  0  0  0  0  0
  152.0905  143.2720  159.5231 O   0  0  0  0  0  0  0  0  0  0  0  0
  151.0670  143.1303  158.5416 C   0  0  0  0  0  0  0  0  0  0  0  0
  151.4790  142.0659  157.5097 C   0  0  0  0  0  0  0  0  0  0  0  0
  147.8677  134.7975  163.2581 H   0  0  0  0  0  0  0  0  0  0  0  0
  146.3787  135.3540  164.0159 H   0  0  0  0  0  0  0  0  0  0  0  0
  147.3039  136.4478  163.0063 H   0  0  0  0  0  0  0  0  0  0  0  0
  145.3301  135.6223  161.7604 H   0  0  0  0  0  0  0  0  0  0  0  0
  146.3959  132.8039  162.2513 H   0  0  0  0  0  0  0  0  0  0  0  0
  144.9810  133.2194  161.2874 H   0  0  0  0  0  0  0  0  0  0  0  0
  144.9804  133.5171  163.0198 H   0  0  0  0  0  0  0  0  0  0  0  0
  147.5861  134.0576  160.4933 H   0  0  0  0  0  0  0  0  0  0  0  0
  146.3295  134.9940  159.7325 H   0  0  0  0  0  0  0  0  0  0  0  0
  147.3796  137.1208  160.4788 H   0  0  0  0  0  0  0  0  0  0  0  0
  148.6512  136.2232  161.3058 H   0  0  0  0  0  0  0  0  0  0  0  0
  150.0826  137.7594  160.0568 H   0  0  0  0  0  0  0  0  0  0  0  0
  148.9927  138.4490  157.5745 H   0  0  0  0  0  0  0  0  0  0  0  0
  149.8128  139.4905  158.7105 H   0  0  0  0  0  0  0  0  0  0  0  0
  150.7101  136.7755  156.2283 H   0  0  0  0  0  0  0  0  0  0  0  0
  152.7093  136.9523  154.7356 H   0  0  0  0  0  0  0  0  0  0  0  0
  154.1999  138.9558  154.9598 H   0  0  0  0  0  0  0  0  0  0  0  0
  152.9378  140.0262  159.7537 H   0  0  0  0  0  0  0  0  0  0  0  0
  153.7508  141.2595  158.8006 H   0  0  0  0  0  0  0  0  0  0  0  0
  151.4317  141.7431  160.7565 H   0  0  0  0  0  0  0  0  0  0  0  0
  153.1019  142.2283  160.9784 H   0  0  0  0  0  0  0  0  0  0  0  0
  150.1240  142.8641  159.0205 H   0  0  0  0  0  0  0  0  0  0  0  0
  150.9125  144.0905  158.0493 H   0  0  0  0  0  0  0  0  0  0  0  0
  152.3524  142.4064  156.9514 H   0  0  0  0  0  0  0  0  0  0  0  0
  150.6756  141.9147  156.7879 H   0  0  0  0  0  0  0  0  0  0  0  0
  1  2  1  0  0  0  0
  1 23  1  0  0  0  0
  1 24  1  0  0  0  0
  1 25  1  0  0  0  0
  2  3  1  0  0  0  0
  2  4  1  0  0  0  0
  2 26  1  0  0  0  0
  3 27  1  0  0  0  0
  3 28  1  0  0  0  0
  3 29  1  0  0  0  0
  4  5  1  0  0  0  0
  4 30  1  0  0  0  0
  4 31  1  0  0  0  0
  5  6  1  0  0  0  0
  5 32  1  0  0  0  0
  5 33  1  0  0  0  0
  6  7  2  0  0  0  0
  6  8  2  0  0  0  0
  6  9  1  0  0  0  0
  9 10  1  0  0  0  0
  9 34  1  0  0  0  0
 10 11  1  0  0  0  0
 10 35  1  0  0  0  0
 10 36  1  0  0  0  0
 11 16  1  0  0  0  0
 11 12  2  0  0  0  0
 12 13  1  0  0  0  0
 12 37  1  0  0  0  0
 13 14  2  0  0  0  0
 13 38  1  0  0  0  0
 14 15  1  0  0  0  0
 14 39  1  0  0  0  0
 15 16  2  0  0  0  0
 16 17  1  0  0  0  0
 17 22  1  0  0  0  0
 17 18  1  0  0  0  0
 18 19  1  0  0  0  0
 18 40  1  0  0  0  0
 18 41  1  0  0  0  0
 19 20  1  0  0  0  0
 19 42  1  0  0  0  0
 19 43  1  0  0  0  0
 20 21  1  0  0  0  0
 21 22  1  0  0  0  0
 21 44  1  0  0  0  0
 21 45  1  0  0  0  0
 22 46  1  0  0  0  0
 22 47  1  0  0  0  0
M  END
> <s_m_source_file>
AV-unprocessed.smi

> <i_m_source_file_index>
1640

> <i_lp_mmshare_version>
43012

> <i_f3d_flags>
0

> <s_epik_input>
W0NIM11bQ0hdKFtDSDNdKVtDSDJdW0NIMl1TKD1PKSg9TylbTkhdW0NIMl1jMVtjSF1bY0hdW2NIXW5jMU4yW0NIMl1bQ0gyXU9bQ0gyXVtDSDJdMg==

> <s_epik_cmdline>
J2VwaWtfcHl0aG9uJywgJy1waCcsICc3LjAnLCAnLXRuJywgJzgnLCAnLW1hJywgJzIwMCcsICctbWV0YWxfYmluZGluZycsICctaW1hZScsICc8aW5maWxlLm1hZT4nLCAnLW9tYWUnLCAnPG91dGZpbGUubWFlPic=

> <r_lp_tautomer_probability>
1

> <r_epik_Ionization_Penalty>
0.00729723

> <r_epik_Ionization_Penalty_Charging>
0

> <r_epik_Ionization_Penalty_Neutral>
0.00729723

> <r_epik_State_Penalty>
0.00542751

> <r_epik_Charging_Adjusted_Penalty>
0.00542751

> <i_epik_Tot_Q>
0

> <i_epik_Tot_abs_Q>
0

> <r_epik_Metal_State_Penalty>
0.0195039

> <b_epik_Metal_Only>
0

> <s_lp_Force_Field>
OPLS_2005

> <r_lp_Energy>
17.806

> <b_lp_Chiralities_Consistent>
1

> <s_lp_Variant>
AV-unprocessed.smi:1640-1

> <Gold.Version>
5.8.1

> <Gold.Id.Protein>
6NUR|6NUR_protein|mol2

> <Gold.PLP.Fitness>
42.1192

> <Gold.PLP.PLP>
-37.3711

> <Gold.PLP.part.hbond>
-2.0000

> <Gold.PLP.part.metal>
0.0000

> <Gold.PLP.part.buried>
-5.5262

> <Gold.PLP.part.nonpolar>
-29.2364

> <Gold.PLP.part.repulsive>
0.0000

> <Gold.PLP.ligand.clash>
0.0000

> <Gold.PLP.ligand.torsion>
0.7837

> <Gold.PLP.Chemscore.Hbond>
2.0000

> <Gold.PLP.Chemscore.CHOScore>
0.0000

> <Gold.PLP.Chemscore.Metal>
0.0000

> <Gold.Chemscore.Hbonds>
donor molecule, donor type, donor heavy atom, donor atom, acceptor molecule, acceptor atom, score
      P1  H  6896  6909       L1     7  0.13
      P1  H  7997  8009       L1    15  0.07

> <Gold.PLP.Chemscore.Internal.Correction>
0.3154

> <Gold.Rescore>
     Score         DG    S(hbond)    S(metal)    S(lipo)     H(rot)  DE(clash)    DE(int)     intcor
     17.77     -18.44       1.87        0.00     100.77       1.99       0.05       0.62       ----

> <Gold.Chemscore.Fitness>
17.7670

> <Gold.Chemscore.DG>
-18.4375

> <Gold.Chemscore.ZeroCoef>
-5.4800

> <Gold.Chemscore.Hbond>
1.8713

> <Gold.Chemscore.Metal>
0.0000

> <Gold.Chemscore.Lipo>
100.7737

> <Gold.Chemscore.Internal_Hbond>
0.0000

> <Gold.Chemscore.DEClash>
0.0530

> <Gold.Chemscore.DEInternal>
0.6176

> <Gold.Chemscore.Rot>
1.9856

> <Gold.Chemscore.Internal.Correction>
   9.000000E+99

> <Gold.Chemscore.Hbonds>
donor molecule, donor type, donor heavy atom, donor atom, acceptor molecule, acceptor atom, score
      P1  H  6896  6909       L1     7  0.16

> <Gold.Chemscore.Hbond.Weighted>
-6.2500

> <Gold.Chemscore.Metal.Weighted>
-0.0000

> <Gold.Chemscore.Lipo.Weighted>
-11.7905

> <Gold.Chemscore.Internal_Hbond.Weighted>
0.0000

> <Gold.Chemscore.DEClash.Weighted>
0.0530

> <Gold.Chemscore.DEInternal.Weighted>
0.6176

> <Gold.Chemscore.Rot.Weighted>
5.0830

> <Gold.Chemscore.Internal.Correction.Weighted>
   9.000000E+99

> <Gold.Protein.RotatedTorsions>
[ 6907 6896 6895 6894 ] final   34.87 input  -60.11 | X-H torsion
[ 7974 7965 7964 7962 ] final  -30.10 input  175.53 | X-H torsion
[ 8008 7997 7996 7995 ] final -153.87 input   59.86 | X-H torsion
[ 10167 10162 10161 10158 ] final   -7.55 input  -65.29 | X-H torsion
[ 10718 10713 10712 10709 ] final   92.73 input   66.30 | X-H torsion
[ 10763 10752 10751 10750 ] final  169.10 input  -60.55 | X-H torsion
[ 11005 11000 10999 10996 ] final  159.69 input  -57.11 | X-H torsion

> <Gold.Protein.ActiveResidues>
 VAL166  LYS551  ARG553  GLY616  TRP617  ASP618  TYR619  PRO620  LYS621  CYS622 
 ASP623  PHE694  ASN695  SER759  ASP760  ASP761  ALA762  ILE779  LEU786  VAL792 
 PHE793  MET794  SER795  GLU796  ALA797  LYS798  CYS799  TRP800  GLU811  SER814 

> <Gold.Protein.RotatedAtoms>
  152.1084  134.9292  160.0567 H   0  0  0  0  0  0  0  0  0  0  0  0  # atno 6907 bound_to 6896
  152.0479  133.4001  159.4373 H   0  0  0  0  0  0  0  0  0  0  0  0  # atno 6908 bound_to 6896
  150.6842  134.3261  159.4851 H   0  0  0  0  0  0  0  0  0  0  0  0  # atno 6909 bound_to 6896
  146.1168  140.5498  142.8753 H   0  0  0  0  0  0  0  0  0  0  0  0  # atno 7974 bound_to 7965
  155.6776  140.0740  157.2497 H   0  0  0  0  0  0  0  0  0  0  0  0  # atno 8008 bound_to 7997
  154.4111  140.1687  156.1999 H   0  0  0  0  0  0  0  0  0  0  0  0  # atno 8009 bound_to 7997
  155.9563  140.3373  155.6454 H   0  0  0  0  0  0  0  0  0  0  0  0  # atno 8010 bound_to 7997
  140.7032  143.6068  150.8743 H   0  0  0  0  0  0  0  0  0  0  0  0  # atno 10167 bound_to 10162
  157.6957  131.0453  150.3927 H   0  0  0  0  0  0  0  0  0  0  0  0  # atno 10718 bound_to 10713
  154.3783  135.2753  155.2226 H   0  0  0  0  0  0  0  0  0  0  0  0  # atno 10763 bound_to 10752
  154.4344  135.5969  153.6092 H   0  0  0  0  0  0  0  0  0  0  0  0  # atno 10764 bound_to 10752
  152.9835  135.6003  154.4023 H   0  0  0  0  0  0  0  0  0  0  0  0  # atno 10765 bound_to 10752
  140.1986  134.8354  157.2993 H   0  0  0  0  0  0  0  0  0  0  0  0  # atno 11005 bound_to 11000
  144.7560  140.5308  143.6769 LP  0  0  0  0  0  0  0  0  0  0  0  0  # atno 17320 bound_to 7965
  145.5551  139.1477  143.3373 LP  0  0  0  0  0  0  0  0  0  0  0  0  # atno 17321 bound_to 7965
  139.9792  143.5970  152.2948 LP  0  0  0  0  0  0  0  0  0  0  0  0  # atno 17342 bound_to 10162
  139.6585  144.7662  151.2009 LP  0  0  0  0  0  0  0  0  0  0  0  0  # atno 17343 bound_to 10162
  156.4328  130.3975  149.6749 LP  0  0  0  0  0  0  0  0  0  0  0  0  # atno 17370 bound_to 10713
  156.3960  130.7651  151.2655 LP  0  0  0  0  0  0  0  0  0  0  0  0  # atno 17371 bound_to 10713
  140.2079  134.4174  155.7628 LP  0  0  0  0  0  0  0  0  0  0  0  0  # atno 17394 bound_to 11000
  141.2227  133.7104  156.8291 LP  0  0  0  0  0  0  0  0  0  0  0  0  # atno 17395 bound_to 11000

$$$$
