AV-unprocessed.smi:697|AV-procd|sdf|3390|dock1
  -GOLD-   22720 0373D 1   1.00000     0.00000
 Structure written by MMmdl.
 44 45  0  0  0  0  0  0  0  0  1 V2000
  151.0051  130.3214  157.8247 C   0  0  0  0  0  0  0  0  0  0  0  0
  150.9468  131.6697  157.3753 O   0  0  0  0  0  0  0  0  0  0  0  0
  151.1756  131.9109  155.9800 C   0  0  2  0  0  0  0  0  0  0  0  0
  152.3865  131.1086  155.4879 C   0  0  0  0  0  0  0  0  0  0  0  0
  151.0960  133.4198  155.6769 C   0  0  0  0  0  0  0  0  0  0  0  0
  149.5795  133.2500  155.6080 C   0  0  1  0  0  0  0  0  0  0  0  0
  148.9636  134.0623  154.5637 N   0  0  0  0  0  0  0  0  0  0  0  0
  147.7588  133.8186  154.0305 C   0  0  0  0  0  0  0  0  0  0  0  0
  147.0365  132.8897  154.3918 O   0  0  0  0  0  0  0  0  0  0  0  0
  147.4798  134.6957  153.0489 N   0  0  0  0  0  0  0  0  0  0  0  0
  146.3306  134.7858  152.2462 C   0  0  0  0  0  0  0  0  0  0  0  0
  145.7783  133.7469  151.5666 C   0  0  0  0  0  0  0  0  0  0  0  0
  144.5831  133.9047  150.7546 C   0  0  0  0  0  0  0  0  0  0  0  0
  143.9437  132.7236  150.0405 C   0  0  0  0  0  0  0  0  0  0  0  0
  144.6929  131.6258  150.1521 F   0  0  0  0  0  0  0  0  0  0  0  0
  142.7491  132.4666  150.5715 F   0  0  0  0  0  0  0  0  0  0  0  0
  143.7741  132.9839  148.7441 F   0  0  0  0  0  0  0  0  0  0  0  0
  144.0298  135.1314  150.7337 C   0  0  0  0  0  0  0  0  0  0  0  0
  144.5901  136.2038  151.4313 N   0  0  0  0  0  0  0  0  0  0  0  0
  145.7034  136.1166  152.1931 C   0  0  0  0  0  0  0  0  0  0  0  0
  146.1306  137.1076  152.7847 O   0  0  0  0  0  0  0  0  0  0  0  0
  149.8137  131.7661  155.2246 C   0  0  0  0  0  0  0  0  0  0  0  0
  149.9083  131.4462  153.7204 C   0  0  0  0  0  0  0  0  0  0  0  0
  148.8104  130.7602  155.7999 C   0  0  0  0  0  0  0  0  0  0  0  0
  144.1203  137.0948  151.3574 H   0  0  0  0  0  0  0  0  0  0  0  0
  150.9612  130.3086  158.9137 H   0  0  0  0  0  0  0  0  0  0  0  0
  151.9265  129.8229  157.5259 H   0  0  0  0  0  0  0  0  0  0  0  0
  150.1575  129.7391  157.4636 H   0  0  0  0  0  0  0  0  0  0  0  0
  152.5186  131.1937  154.4099 H   0  0  0  0  0  0  0  0  0  0  0  0
  152.2805  130.0492  155.7222 H   0  0  0  0  0  0  0  0  0  0  0  0
  153.3166  131.4599  155.9338 H   0  0  0  0  0  0  0  0  0  0  0  0
  151.4363  134.0874  156.4677 H   0  0  0  0  0  0  0  0  0  0  0  0
  151.5509  133.6838  154.7206 H   0  0  0  0  0  0  0  0  0  0  0  0
  149.1179  133.3676  156.5913 H   0  0  0  0  0  0  0  0  0  0  0  0
  149.4985  134.8423  154.2110 H   0  0  0  0  0  0  0  0  0  0  0  0
  148.2097  135.3520  152.8124 H   0  0  0  0  0  0  0  0  0  0  0  0
  146.2085  132.7598  151.6211 H   0  0  0  0  0  0  0  0  0  0  0  0
  143.1282  135.3835  150.1950 H   0  0  0  0  0  0  0  0  0  0  0  0
  148.9401  131.5392  153.2270 H   0  0  0  0  0  0  0  0  0  0  0  0
  150.2583  130.4274  153.5508 H   0  0  0  0  0  0  0  0  0  0  0  0
  150.5956  132.1126  153.1989 H   0  0  0  0  0  0  0  0  0  0  0  0
  147.8630  130.7864  155.2604 H   0  0  0  0  0  0  0  0  0  0  0  0
  148.5782  130.9658  156.8448 H   0  0  0  0  0  0  0  0  0  0  0  0
  149.1931  129.7408  155.7467 H   0  0  0  0  0  0  0  0  0  0  0  0
  1  2  1  0  0  0  0
  1 26  1  0  0  0  0
  1 27  1  0  0  0  0
  1 28  1  0  0  0  0
  2  3  1  0  0  0  0
  3 22  1  0  0  0  0
  3  4  1  0  0  0  0
  3  5  1  0  0  0  0
  4 29  1  0  0  0  0
  4 30  1  0  0  0  0
  4 31  1  0  0  0  0
  5  6  1  0  0  0  0
  5 32  1  0  0  0  0
  5 33  1  0  0  0  0
  6  7  1  0  0  0  0
  6 22  1  0  0  0  0
  6 34  1  0  0  0  0
  7  8  1  0  0  0  0
  7 35  1  0  0  0  0
  8  9  2  0  0  0  0
  8 10  1  0  0  0  0
 10 11  1  0  0  0  0
 10 36  1  0  0  0  0
 11 20  1  0  0  0  0
 11 12  2  0  0  0  0
 12 13  1  0  0  0  0
 12 37  1  0  0  0  0
 13 14  1  0  0  0  0
 13 18  2  0  0  0  0
 14 15  1  0  0  0  0
 14 16  1  0  0  0  0
 14 17  1  0  0  0  0
 18 19  1  0  0  0  0
 18 38  1  0  0  0  0
 19 25  1  0  0  0  0
 19 20  1  0  0  0  0
 20 21  2  0  0  0  0
 22 23  1  0  0  0  0
 22 24  1  0  0  0  0
 23 39  1  0  0  0  0
 23 40  1  0  0  0  0
 23 41  1  0  0  0  0
 24 42  1  0  0  0  0
 24 43  1  0  0  0  0
 24 44  1  0  0  0  0
M  END
> <s_m_source_file>
AV-unprocessed.smi

> <i_m_source_file_index>
697

> <i_lp_mmshare_version>
43012

> <i_f3d_flags>
0

> <s_epik_input>
W0NIM11PW0NAQF0xKFtDSDNdKVtDSDJdW0NASF0oQzEoW0NIM10pW0NIM10pW05IXUMoPU8pW05IXWMyW2NIXWMoQyhGKShGKUYpW2NIXVtuSF1jMj1P

> <s_epik_cmdline>
J2VwaWtfcHl0aG9uJywgJy1waCcsICc3LjAnLCAnLXRuJywgJzgnLCAnLW1hJywgJzIwMCcsICctbWV0YWxfYmluZGluZycsICctaW1hZScsICc8aW5maWxlLm1hZT4nLCAnLW9tYWUnLCAnPG91dGZpbGUubWFlPic=

> <r_lp_tautomer_probability>
1

> <r_epik_Ionization_Penalty>
0.0036482

> <r_epik_Ionization_Penalty_Charging>
0.00362828

> <r_epik_Ionization_Penalty_Neutral>
1.99208e-05

> <r_epik_State_Penalty>
-0

> <r_epik_Charging_Adjusted_Penalty>
0.00362828

> <i_epik_Tot_Q>
0

> <i_epik_Tot_abs_Q>
0

> <r_epik_Metal_State_Penalty>
0.369362

> <b_epik_Metal_Only>
0

> <s_lp_Force_Field>
OPLS_2005

> <r_lp_Energy>
34.8139

> <b_lp_Chiralities_Consistent>
1

> <s_lp_Variant>
AV-unprocessed.smi:697-2

> <Gold.Version>
5.8.1

> <Gold.Id.Protein>
6NUR|6NUR_protein|mol2

> <Gold.PLP.Fitness>
42.4092

> <Gold.PLP.PLP>
-31.9660

> <Gold.PLP.part.hbond>
-2.6995

> <Gold.PLP.part.metal>
0.0000

> <Gold.PLP.part.buried>
-0.1267

> <Gold.PLP.part.nonpolar>
-31.4764

> <Gold.PLP.part.repulsive>
0.6018

> <Gold.PLP.ligand.clash>
0.0000

> <Gold.PLP.ligand.torsion>
0.8996

> <Gold.PLP.Chemscore.Hbond>
2.9425

> <Gold.PLP.Chemscore.CHOScore>
0.9888

> <Gold.PLP.Chemscore.Metal>
0.0000

> <Gold.Chemscore.Hbonds>
donor molecule, donor type, donor heavy atom, donor atom, acceptor molecule, acceptor atom, score
      L1  H    10    36       P1  7948  0.84
      L1  H    19    25       P1 10171  0.49
      L1  C    18    38       P1 10186  0.71

> <Gold.PLP.Chemscore.Internal.Correction>
0.4485

> <Gold.Rescore>
     Score         DG    S(hbond)    S(metal)    S(lipo)     H(rot)  DE(clash)    DE(int)     intcor
     14.68     -18.06       2.60        0.00      61.97       1.31       1.11       2.27       ----

> <Gold.Chemscore.Fitness>
14.6839

> <Gold.Chemscore.DG>
-18.0645

> <Gold.Chemscore.ZeroCoef>
-5.4800

> <Gold.Chemscore.Hbond>
2.5983

> <Gold.Chemscore.Metal>
0.0000

> <Gold.Chemscore.Lipo>
61.9676

> <Gold.Chemscore.Internal_Hbond>
0.0000

> <Gold.Chemscore.DEClash>
1.1074

> <Gold.Chemscore.DEInternal>
2.2732

> <Gold.Chemscore.Rot>
1.3062

> <Gold.Chemscore.Internal.Correction>
   9.000000E+99

> <Gold.Chemscore.Hbonds>
donor molecule, donor type, donor heavy atom, donor atom, acceptor molecule, acceptor atom, score
      L1  H    10    36       P1  7948  0.80
      L1  H    19    25       P1 10171  0.49
      P1  H  6896  6908       L1     2  0.01

> <Gold.Chemscore.Hbond.Weighted>
-8.6783

> <Gold.Chemscore.Metal.Weighted>
-0.0000

> <Gold.Chemscore.Lipo.Weighted>
-7.2502

> <Gold.Chemscore.Internal_Hbond.Weighted>
0.0000

> <Gold.Chemscore.DEClash.Weighted>
1.1074

> <Gold.Chemscore.DEInternal.Weighted>
2.2732

> <Gold.Chemscore.Rot.Weighted>
3.3440

> <Gold.Chemscore.Internal.Correction.Weighted>
   9.000000E+99

> <Gold.Protein.RotatedTorsions>
[ 6907 6896 6895 6894 ] final   77.42 input  -60.11 | X-H torsion
[ 7974 7965 7964 7962 ] final -129.67 input  175.53 | X-H torsion
[ 8008 7997 7996 7995 ] final  -16.47 input   59.86 | X-H torsion
[ 10167 10162 10161 10158 ] final   31.05 input  -65.29 | X-H torsion
[ 10718 10713 10712 10709 ] final -176.43 input   66.30 | X-H torsion
[ 10763 10752 10751 10750 ] final -114.93 input  -60.55 | X-H torsion
[ 11005 11000 10999 10996 ] final  -49.91 input  -57.11 | X-H torsion

> <Gold.Protein.ActiveResidues>
 VAL166  LYS551  ARG553  GLY616  TRP617  ASP618  TYR619  PRO620  LYS621  CYS622 
 ASP623  PHE694  ASN695  SER759  ASP760  ASP761  ALA762  ILE779  LEU786  VAL792 
 PHE793  MET794  SER795  GLU796  ALA797  LYS798  CYS799  TRP800  GLU811  SER814 

> <Gold.Protein.RotatedAtoms>
  152.5116  134.3820  159.9354 H   0  0  0  0  0  0  0  0  0  0  0  0  # atno 6907 bound_to 6896
  151.3777  133.3826  159.2714 H   0  0  0  0  0  0  0  0  0  0  0  0  # atno 6908 bound_to 6896
  150.9528  134.8946  159.7741 H   0  0  0  0  0  0  0  0  0  0  0  0  # atno 6909 bound_to 6896
  144.9549  140.7385  143.4765 H   0  0  0  0  0  0  0  0  0  0  0  0  # atno 7974 bound_to 7965
  154.5050  140.2168  155.9269 H   0  0  0  0  0  0  0  0  0  0  0  0  # atno 8008 bound_to 7997
  156.1482  140.3166  155.8572 H   0  0  0  0  0  0  0  0  0  0  0  0  # atno 8009 bound_to 7997
  155.3989  140.0483  157.3028 H   0  0  0  0  0  0  0  0  0  0  0  0  # atno 8010 bound_to 7997
  140.4623  144.0887  150.6216 H   0  0  0  0  0  0  0  0  0  0  0  0  # atno 10167 bound_to 10162
  156.8145  130.9598  151.3114 H   0  0  0  0  0  0  0  0  0  0  0  0  # atno 10718 bound_to 10713
  154.8460  135.4400  154.1582 H   0  0  0  0  0  0  0  0  0  0  0  0  # atno 10763 bound_to 10752
  153.2726  135.6946  153.7472 H   0  0  0  0  0  0  0  0  0  0  0  0  # atno 10764 bound_to 10752
  153.6706  135.3419  155.3127 H   0  0  0  0  0  0  0  0  0  0  0  0  # atno 10765 bound_to 10752
  141.0786  133.6659  156.3655 H   0  0  0  0  0  0  0  0  0  0  0  0  # atno 11005 bound_to 11000
  145.2787  139.1926  143.4802 LP  0  0  0  0  0  0  0  0  0  0  0  0  # atno 17320 bound_to 7965
  146.3334  140.2746  142.8607 LP  0  0  0  0  0  0  0  0  0  0  0  0  # atno 17321 bound_to 7965
  140.4078  143.2672  151.9870 LP  0  0  0  0  0  0  0  0  0  0  0  0  # atno 17342 bound_to 10162
  139.4808  144.5942  151.7719 LP  0  0  0  0  0  0  0  0  0  0  0  0  # atno 17343 bound_to 10162
  157.6488  130.8867  149.9592 LP  0  0  0  0  0  0  0  0  0  0  0  0  # atno 17370 bound_to 10713
  156.1025  130.3655  150.0193 LP  0  0  0  0  0  0  0  0  0  0  0  0  # atno 17371 bound_to 10713
  140.5518  134.6020  157.5410 LP  0  0  0  0  0  0  0  0  0  0  0  0  # atno 17394 bound_to 11000
  139.9599  134.7470  156.0259 LP  0  0  0  0  0  0  0  0  0  0  0  0  # atno 17395 bound_to 11000

$$$$
