AV-unprocessed.smi:2010|AV-procd|sdf|8151|dock2
  -GOLD-   2272010393D 1   1.00000     0.00000
 Structure written by MMmdl.
 40 41  0  0  0  0  0  0  0  0  2 V2000
  151.7381  144.9739  160.2864 C   0  0  0  0  0  0  0  0  0  0  0  0
  152.0760  143.9124  159.2300 C   0  0  0  0  0  0  0  0  0  0  0  0
  150.9188  143.7034  158.2437 C   0  0  0  0  0  0  0  0  0  0  0  0
  151.2629  142.6342  157.1945 C   0  0  0  0  0  0  0  0  0  0  0  0
  151.6570  141.3591  157.8306 N   0  0  0  0  0  0  0  0  0  0  0  0
  151.6089  139.9194  156.8507 S   0  0  0  0  0  0  0  0  0  0  0  0
  151.5947  140.4018  155.4611 O   0  0  0  0  0  0  0  0  0  0  0  0
  152.7472  139.0792  157.2621 O   0  0  0  0  0  0  0  0  0  0  0  0
  150.1571  139.3478  157.3272 N   0  5  0  0  0  0  0  0  0  0  0  0
  150.0287  138.1914  158.2148 C   0  0  2  0  0  0  0  0  0  0  0  0
  150.6683  136.9715  157.5329 C   0  0  0  0  0  0  0  0  0  0  0  0
  148.5480  137.9689  158.6313 C   0  0  0  0  0  0  0  0  0  0  0  0
  148.3103  136.8677  159.5618 N   0  0  0  0  0  0  0  0  0  0  0  0
  148.5093  135.5145  159.3632 C   0  0  0  0  0  0  0  0  0  0  0  0
  148.1780  134.8744  160.5227 C   0  0  0  0  0  0  0  0  0  0  0  0
  147.7984  135.9323  161.3944 C   0  0  0  0  0  0  0  0  0  0  0  0
  147.8912  137.1213  160.8236 N   0  0  0  0  0  0  0  0  0  0  0  0
  152.7517  141.4962  158.8103 C   0  0  0  0  0  0  0  0  0  0  0  0
  152.4220  142.5607  159.8703 C   0  0  0  0  0  0  0  0  0  0  0  0
  150.8693  144.6828  160.8775 H   0  0  0  0  0  0  0  0  0  0  0  0
  151.5171  145.9343  159.8198 H   0  0  0  0  0  0  0  0  0  0  0  0
  152.5726  145.1244  160.9718 H   0  0  0  0  0  0  0  0  0  0  0  0
  152.9459  144.2609  158.6715 H   0  0  0  0  0  0  0  0  0  0  0  0
  150.0185  143.4065  158.7834 H   0  0  0  0  0  0  0  0  0  0  0  0
  150.6803  144.6414  157.7416 H   0  0  0  0  0  0  0  0  0  0  0  0
  150.4077  142.4778  156.5384 H   0  0  0  0  0  0  0  0  0  0  0  0
  152.0802  142.9773  156.5594 H   0  0  0  0  0  0  0  0  0  0  0  0
  150.5845  138.3511  159.1389 H   0  0  0  0  0  0  0  0  0  0  0  0
  150.5703  136.0814  158.1546 H   0  0  0  0  0  0  0  0  0  0  0  0
  151.7325  137.1343  157.3598 H   0  0  0  0  0  0  0  0  0  0  0  0
  150.2081  136.7578  156.5675 H   0  0  0  0  0  0  0  0  0  0  0  0
  148.1840  138.8767  159.1134 H   0  0  0  0  0  0  0  0  0  0  0  0
  147.9141  137.8364  157.7545 H   0  0  0  0  0  0  0  0  0  0  0  0
  148.8610  135.1254  158.4191 H   0  0  0  0  0  0  0  0  0  0  0  0
  148.2055  133.8130  160.7191 H   0  0  0  0  0  0  0  0  0  0  0  0
  147.4659  135.8729  162.4202 H   0  0  0  0  0  0  0  0  0  0  0  0
  152.9242  140.5439  159.3107 H   0  0  0  0  0  0  0  0  0  0  0  0
  153.6713  141.7498  158.2817 H   0  0  0  0  0  0  0  0  0  0  0  0
  153.2688  142.6737  160.5480 H   0  0  0  0  0  0  0  0  0  0  0  0
  151.5843  142.2155  160.4782 H   0  0  0  0  0  0  0  0  0  0  0  0
  1  2  1  0  0  0  0
  1 20  1  0  0  0  0
  1 21  1  0  0  0  0
  1 22  1  0  0  0  0
  2 19  1  0  0  0  0
  2  3  1  0  0  0  0
  2 23  1  0  0  0  0
  3  4  1  0  0  0  0
  3 24  1  0  0  0  0
  3 25  1  0  0  0  0
  4  5  1  0  0  0  0
  4 26  1  0  0  0  0
  4 27  1  0  0  0  0
  5  6  1  0  0  0  0
  5 18  1  0  0  0  0
  6  7  2  0  0  0  0
  6  8  2  0  0  0  0
  6  9  1  0  0  0  0
  9 10  1  0  0  0  0
 10 11  1  0  0  0  0
 10 12  1  0  0  0  0
 10 28  1  0  0  0  0
 11 29  1  0  0  0  0
 11 30  1  0  0  0  0
 11 31  1  0  0  0  0
 12 13  1  0  0  0  0
 12 32  1  0  0  0  0
 12 33  1  0  0  0  0
 13 17  1  0  0  0  0
 13 14  1  0  0  0  0
 14 15  2  0  0  0  0
 14 34  1  0  0  0  0
 15 16  1  0  0  0  0
 15 35  1  0  0  0  0
 16 17  2  0  0  0  0
 16 36  1  0  0  0  0
 18 19  1  0  0  0  0
 18 37  1  0  0  0  0
 18 38  1  0  0  0  0
 19 39  1  0  0  0  0
 19 40  1  0  0  0  0
M  CHG  1   9  -1
M  END
> <s_m_source_file>
AV-unprocessed.smi

> <i_m_source_file_index>
2010

> <i_lp_mmshare_version>
43012

> <i_f3d_flags>
0

> <s_epik_input>
W0NIM11bQ0hdMVtDSDJdW0NIMl1OKFtDSDJdW0NIMl0xKVMoPU8pKD1PKVtOSF1bQ0BIXShbQ0gzXSlbQ0gyXW4yW2NIXVtjSF1bY0hdbjI=

> <s_epik_cmdline>
J2VwaWtfcHl0aG9uJywgJy1waCcsICc3LjAnLCAnLXRuJywgJzgnLCAnLW1hJywgJzIwMCcsICctbWV0YWxfYmluZGluZycsICctaW1hZScsICc8aW5maWxlLm1hZT4nLCAnLW9tYWUnLCAnPG91dGZpbGUubWFlPic=

> <r_lp_tautomer_probability>
1

> <r_epik_Ionization_Penalty>
1.75622

> <r_epik_Ionization_Penalty_Charging>
1.7562

> <r_epik_Ionization_Penalty_Neutral>
2.39925e-05

> <r_epik_State_Penalty>
1.86645

> <r_epik_Charging_Adjusted_Penalty>
3.62264

> <i_epik_Tot_Q>
-1

> <i_epik_Tot_abs_Q>
1

> <r_epik_Metal_State_Penalty>
0.460135

> <b_epik_Metal_Only>
0

> <s_lp_Force_Field>
OPLS_2005

> <r_lp_Energy>
7.98706

> <b_lp_Chiralities_Consistent>
1

> <s_lp_Variant>
AV-unprocessed.smi:2010-3

> <Gold.Version>
5.8.1

> <Gold.Id.Protein>
6NUR|6NUR_protein|mol2

> <Gold.PLP.Fitness>
44.3276

> <Gold.PLP.PLP>
-34.0075

> <Gold.PLP.part.hbond>
-3.9255

> <Gold.PLP.part.metal>
0.0000

> <Gold.PLP.part.buried>
-5.3865

> <Gold.PLP.part.nonpolar>
-25.7993

> <Gold.PLP.part.repulsive>
0.0135

> <Gold.PLP.ligand.clash>
0.0000

> <Gold.PLP.ligand.torsion>
1.0031

> <Gold.PLP.Chemscore.Hbond>
3.5350

> <Gold.PLP.Chemscore.CHOScore>
0.0000

> <Gold.PLP.Chemscore.Metal>
0.0000

> <Gold.Chemscore.Hbonds>
donor molecule, donor type, donor heavy atom, donor atom, acceptor molecule, acceptor atom, score
      P1  H  6931  6943       L1    17  0.90
      P1  H  6934  6947       L1    17  0.82
      P1  H  7989  7998       L1     7  0.83
      P1  H  7997  8009       L1     8  1.00

> <Gold.PLP.Chemscore.Internal.Correction>
1.7213

> <Gold.Rescore>
     Score         DG    S(hbond)    S(metal)    S(lipo)     H(rot)  DE(clash)    DE(int)     intcor
     19.78     -20.84       2.76        0.00      86.25       1.54       0.01       1.05       ----

> <Gold.Chemscore.Fitness>
19.7800

> <Gold.Chemscore.DG>
-20.8412

> <Gold.Chemscore.ZeroCoef>
-5.4800

> <Gold.Chemscore.Hbond>
2.7563

> <Gold.Chemscore.Metal>
0.0000

> <Gold.Chemscore.Lipo>
86.2523

> <Gold.Chemscore.Internal_Hbond>
0.0000

> <Gold.Chemscore.DEClash>
0.0106

> <Gold.Chemscore.DEInternal>
1.0506

> <Gold.Chemscore.Rot>
1.5377

> <Gold.Chemscore.Internal.Correction>
   9.000000E+99

> <Gold.Chemscore.Hbonds>
donor molecule, donor type, donor heavy atom, donor atom, acceptor molecule, acceptor atom, score
      P1  H  6931  6943       L1    17  0.57
      P1  H  6934  6947       L1    17  0.53
      P1  H  7989  7998       L1     7  0.79
      P1  H  7997  8009       L1     8  0.53

> <Gold.Chemscore.Hbond.Weighted>
-9.2062

> <Gold.Chemscore.Metal.Weighted>
-0.0000

> <Gold.Chemscore.Lipo.Weighted>
-10.0915

> <Gold.Chemscore.Internal_Hbond.Weighted>
0.0000

> <Gold.Chemscore.DEClash.Weighted>
0.0106

> <Gold.Chemscore.DEInternal.Weighted>
1.0506

> <Gold.Chemscore.Rot.Weighted>
3.9365

> <Gold.Chemscore.Internal.Correction.Weighted>
   9.000000E+99

> <Gold.Protein.RotatedTorsions>
[ 6907 6896 6895 6894 ] final -157.36 input  -60.11 | X-H torsion
[ 7974 7965 7964 7962 ] final -101.39 input  175.53 | X-H torsion
[ 8008 7997 7996 7995 ] final  175.94 input   59.86 | X-H torsion
[ 10167 10162 10161 10158 ] final   64.09 input  -65.29 | X-H torsion
[ 10718 10713 10712 10709 ] final  -48.89 input   66.30 | X-H torsion
[ 10763 10752 10751 10750 ] final  -24.87 input  -60.55 | X-H torsion
[ 11005 11000 10999 10996 ] final  160.04 input  -57.11 | X-H torsion

> <Gold.Protein.ActiveResidues>
 VAL166  LYS551  ARG553  GLY616  TRP617  ASP618  TYR619  PRO620  LYS621  CYS622 
 ASP623  PHE694  ASN695  SER759  ASP760  ASP761  ALA762  ILE779  LEU786  VAL792 
 PHE793  MET794  SER795  GLU796  ALA797  LYS798  CYS799  TRP800  GLU811  SER814 

> <Gold.Protein.RotatedAtoms>
  151.3017  133.4119  159.2639 H   0  0  0  0  0  0  0  0  0  0  0  0  # atno 6907 bound_to 6896
  151.0190  134.9455  159.8059 H   0  0  0  0  0  0  0  0  0  0  0  0  # atno 6908 bound_to 6896
  152.5319  134.2980  159.9120 H   0  0  0  0  0  0  0  0  0  0  0  0  # atno 6909 bound_to 6896
  145.2822  140.9329  143.2925 H   0  0  0  0  0  0  0  0  0  0  0  0  # atno 7974 bound_to 7965
  156.0818  140.1396  156.9703 H   0  0  0  0  0  0  0  0  0  0  0  0  # atno 8008 bound_to 7997
  154.4589  140.0950  156.6887 H   0  0  0  0  0  0  0  0  0  0  0  0  # atno 8009 bound_to 7997
  155.5063  140.3452  155.4382 H   0  0  0  0  0  0  0  0  0  0  0  0  # atno 8010 bound_to 7997
  140.1259  144.4688  150.6893 H   0  0  0  0  0  0  0  0  0  0  0  0  # atno 10167 bound_to 10162
  156.1945  130.4154  149.9326 H   0  0  0  0  0  0  0  0  0  0  0  0  # atno 10718 bound_to 10713
  153.6907  135.6962  153.5091 H   0  0  0  0  0  0  0  0  0  0  0  0  # atno 10763 bound_to 10752
  153.2415  135.4304  155.0702 H   0  0  0  0  0  0  0  0  0  0  0  0  # atno 10764 bound_to 10752
  154.8373  135.3509  154.6449 H   0  0  0  0  0  0  0  0  0  0  0  0  # atno 10765 bound_to 10752
  140.2021  134.8330  157.3029 H   0  0  0  0  0  0  0  0  0  0  0  0  # atno 11005 bound_to 11000
  144.9244  139.4373  143.6526 LP  0  0  0  0  0  0  0  0  0  0  0  0  # atno 17320 bound_to 7965
  146.3212  139.8121  142.8943 LP  0  0  0  0  0  0  0  0  0  0  0  0  # atno 17321 bound_to 7965
  140.6845  143.2343  151.5297 LP  0  0  0  0  0  0  0  0  0  0  0  0  # atno 17342 bound_to 10162
  139.5544  144.2312  152.1587 LP  0  0  0  0  0  0  0  0  0  0  0  0  # atno 17343 bound_to 10162
  156.7056  130.8950  151.3604 LP  0  0  0  0  0  0  0  0  0  0  0  0  # atno 17370 bound_to 10713
  157.6949  130.9271  150.0616 LP  0  0  0  0  0  0  0  0  0  0  0  0  # atno 17371 bound_to 10713
  140.2043  134.4216  155.7646 LP  0  0  0  0  0  0  0  0  0  0  0  0  # atno 17394 bound_to 11000
  141.2227  133.7087  156.8235 LP  0  0  0  0  0  0  0  0  0  0  0  0  # atno 17395 bound_to 11000

$$$$
