AV-unprocessed.smi:3327|AV-procd|sdf|12789|dock5
  -GOLD-   2272019143D 1   1.00000     0.00000
 Structure written by MMmdl.
 40 41  0  0  0  0  0  0  0  0  1 V2000
  153.7003  142.0019  161.3695 C   0  0  0  0  0  0  0  0  0  0  0  0
  152.9890  142.3851  160.0641 C   0  0  2  0  0  0  0  0  0  0  0  0
  152.2885  143.7557  160.1822 C   0  0  0  0  0  0  0  0  0  0  0  0
  151.4705  144.0945  158.9220 C   0  0  0  0  0  0  0  0  0  0  0  0
  150.5358  142.9326  158.5417 C   0  0  0  0  0  0  0  0  0  0  0  0
  151.3431  141.7170  158.3681 N   0  0  0  0  0  0  0  0  0  0  0  0
  151.6072  141.1052  157.1871 C   0  0  0  0  0  0  0  0  0  0  0  0
  152.3932  140.1592  157.1043 O   0  0  0  0  0  0  0  0  0  0  0  0
  150.9268  141.6265  155.9044 C   0  0  0  0  0  0  0  0  0  0  0  0
  149.4638  141.7766  155.9824 N   0  0  0  0  0  0  0  0  0  0  0  0
  148.7407  140.8702  155.0952 C   0  0  0  0  0  0  0  0  0  0  0  0
  148.0237  141.6635  153.9895 C   0  0  0  0  0  0  0  0  0  0  0  0
  146.8256  142.3304  154.4679 N   0  0  0  0  0  0  0  0  0  0  0  0
  145.9874  143.1837  153.7816 C   0  0  0  0  0  0  0  0  0  0  0  0
  144.9947  143.5569  154.6416 C   0  0  0  0  0  0  0  0  0  0  0  0
  145.3156  142.8709  155.8462 C   0  0  0  0  0  0  0  0  0  0  0  0
  146.4105  142.1354  155.7385 N   0  0  0  0  0  0  0  0  0  0  0  0
  151.9745  141.3060  159.6298 C   0  0  0  0  0  0  0  0  0  0  0  0
  152.9917  141.8958  162.1915 H   0  0  0  0  0  0  0  0  0  0  0  0
  154.4312  142.7590  161.6552 H   0  0  0  0  0  0  0  0  0  0  0  0
  154.2312  141.0556  161.2632 H   0  0  0  0  0  0  0  0  0  0  0  0
  153.7500  142.4621  159.2858 H   0  0  0  0  0  0  0  0  0  0  0  0
  151.6202  143.7462  161.0443 H   0  0  0  0  0  0  0  0  0  0  0  0
  153.0220  144.5403  160.3705 H   0  0  0  0  0  0  0  0  0  0  0  0
  150.8921  145.0040  159.0869 H   0  0  0  0  0  0  0  0  0  0  0  0
  152.1466  144.3034  158.0918 H   0  0  0  0  0  0  0  0  0  0  0  0
  149.8047  142.7672  159.3344 H   0  0  0  0  0  0  0  0  0  0  0  0
  149.9548  143.2099  157.6645 H   0  0  0  0  0  0  0  0  0  0  0  0
  151.3557  142.5881  155.6205 H   0  0  0  0  0  0  0  0  0  0  0  0
  151.1522  140.9272  155.0988 H   0  0  0  0  0  0  0  0  0  0  0  0
  149.1784  142.7314  155.8177 H   0  0  0  0  0  0  0  0  0  0  0  0
  149.4279  140.1635  154.6310 H   0  0  0  0  0  0  0  0  0  0  0  0
  148.0193  140.2832  155.6655 H   0  0  0  0  0  0  0  0  0  0  0  0
  148.6925  142.4065  153.5528 H   0  0  0  0  0  0  0  0  0  0  0  0
  147.7372  140.9910  153.1799 H   0  0  0  0  0  0  0  0  0  0  0  0
  146.1661  143.4519  152.7509 H   0  0  0  0  0  0  0  0  0  0  0  0
  144.1658  144.2192  154.4413 H   0  0  0  0  0  0  0  0  0  0  0  0
  144.7880  142.8838  156.7884 H   0  0  0  0  0  0  0  0  0  0  0  0
  152.4685  140.3362  159.5547 H   0  0  0  0  0  0  0  0  0  0  0  0
  151.2041  141.1829  160.3929 H   0  0  0  0  0  0  0  0  0  0  0  0
  1  2  1  0  0  0  0
  1 19  1  0  0  0  0
  1 20  1  0  0  0  0
  1 21  1  0  0  0  0
  2 18  1  0  0  0  0
  2  3  1  0  0  0  0
  2 22  1  0  0  0  0
  3  4  1  0  0  0  0
  3 23  1  0  0  0  0
  3 24  1  0  0  0  0
  4  5  1  0  0  0  0
  4 25  1  0  0  0  0
  4 26  1  0  0  0  0
  5  6  1  0  0  0  0
  5 27  1  0  0  0  0
  5 28  1  0  0  0  0
  6  7  1  0  0  0  0
  6 18  1  0  0  0  0
  7  8  2  0  0  0  0
  7  9  1  0  0  0  0
  9 10  1  0  0  0  0
  9 29  1  0  0  0  0
  9 30  1  0  0  0  0
 10 11  1  0  0  0  0
 10 31  1  0  0  0  0
 11 12  1  0  0  0  0
 11 32  1  0  0  0  0
 11 33  1  0  0  0  0
 12 13  1  0  0  0  0
 12 34  1  0  0  0  0
 12 35  1  0  0  0  0
 13 17  1  0  0  0  0
 13 14  1  0  0  0  0
 14 15  2  0  0  0  0
 14 36  1  0  0  0  0
 15 16  1  0  0  0  0
 15 37  1  0  0  0  0
 16 17  2  0  0  0  0
 16 38  1  0  0  0  0
 18 39  1  0  0  0  0
 18 40  1  0  0  0  0
M  END
> <s_m_source_file>
AV-unprocessed.smi

> <i_m_source_file_index>
3327

> <i_lp_mmshare_version>
43012

> <i_f3d_flags>
0

> <s_epik_input>
W0NIM11bQ0BASF0xW0NIMl1bQ0gyXVtDSDJdTihbQ0gyXTEpQyg9TylbQ0gyXVtOSF1bQ0gyXVtDSDJdbjJbY0hdW2NIXVtjSF1uMg==

> <s_epik_cmdline>
J2VwaWtfcHl0aG9uJywgJy1waCcsICc3LjAnLCAnLXRuJywgJzgnLCAnLW1hJywgJzIwMCcsICctbWV0YWxfYmluZGluZycsICctaW1hZScsICc8aW5maWxlLm1hZT4nLCAnLW9tYWUnLCAnPG91dGZpbGUubWFlPic=

> <r_lp_tautomer_probability>
1

> <r_epik_Ionization_Penalty>
0.752964

> <r_epik_Ionization_Penalty_Charging>
0

> <r_epik_Ionization_Penalty_Neutral>
0.752964

> <r_epik_State_Penalty>
0.778238

> <r_epik_Charging_Adjusted_Penalty>
0.778238

> <i_epik_Tot_Q>
0

> <i_epik_Tot_abs_Q>
0

> <r_epik_Metal_State_Penalty>
0.776974

> <b_epik_Metal_Only>
0

> <s_lp_Force_Field>
OPLS_2005

> <r_lp_Energy>
27.1089

> <b_lp_Chiralities_Consistent>
1

> <s_lp_Variant>
AV-unprocessed.smi:3327-3

> <Gold.Version>
5.8.1

> <Gold.Id.Protein>
6NUR|6NUR_protein|mol2

> <Gold.PLP.Fitness>
47.7967

> <Gold.PLP.PLP>
-43.5418

> <Gold.PLP.part.hbond>
-2.0000

> <Gold.PLP.part.metal>
0.0000

> <Gold.PLP.part.buried>
-5.6622

> <Gold.PLP.part.nonpolar>
-35.4768

> <Gold.PLP.part.repulsive>
0.1330

> <Gold.PLP.ligand.clash>
0.0000

> <Gold.PLP.ligand.torsion>
0.9031

> <Gold.PLP.Chemscore.Hbond>
2.0000

> <Gold.PLP.Chemscore.CHOScore>
0.0000

> <Gold.PLP.Chemscore.Metal>
0.0000

> <Gold.Chemscore.Hbonds>
donor molecule, donor type, donor heavy atom, donor atom, acceptor molecule, acceptor atom, score
      L1  H    10    31       P1  8028  1.00
      P1  H  7997  8009       L1     8  1.00

> <Gold.PLP.Chemscore.Internal.Correction>
0.0612

> <Gold.Rescore>
     Score         DG    S(hbond)    S(metal)    S(lipo)     H(rot)  DE(clash)    DE(int)     intcor
     16.35     -18.92       1.83        0.00     100.39       1.73       0.67       1.90       ----

> <Gold.Chemscore.Fitness>
16.3483

> <Gold.Chemscore.DG>
-18.9206

> <Gold.Chemscore.ZeroCoef>
-5.4800

> <Gold.Chemscore.Hbond>
1.8331

> <Gold.Chemscore.Metal>
0.0000

> <Gold.Chemscore.Lipo>
100.3931

> <Gold.Chemscore.Internal_Hbond>
0.0000

> <Gold.Chemscore.DEClash>
0.6682

> <Gold.Chemscore.DEInternal>
1.9041

> <Gold.Chemscore.Rot>
1.7296

> <Gold.Chemscore.Internal.Correction>
   9.000000E+99

> <Gold.Chemscore.Hbonds>
donor molecule, donor type, donor heavy atom, donor atom, acceptor molecule, acceptor atom, score
      L1  H    10    31       P1  8028  0.94
      P1  H  7997  8009       L1     8  0.91

> <Gold.Chemscore.Hbond.Weighted>
-6.1225

> <Gold.Chemscore.Metal.Weighted>
-0.0000

> <Gold.Chemscore.Lipo.Weighted>
-11.7460

> <Gold.Chemscore.Internal_Hbond.Weighted>
0.0000

> <Gold.Chemscore.DEClash.Weighted>
0.6682

> <Gold.Chemscore.DEInternal.Weighted>
1.9041

> <Gold.Chemscore.Rot.Weighted>
4.4278

> <Gold.Chemscore.Internal.Correction.Weighted>
   9.000000E+99

> <Gold.Protein.RotatedTorsions>
[ 6907 6896 6895 6894 ] final  123.66 input  -60.11 | X-H torsion
[ 7974 7965 7964 7962 ] final   44.04 input  175.53 | X-H torsion
[ 8008 7997 7996 7995 ] final -176.26 input   59.86 | X-H torsion
[ 10167 10162 10161 10158 ] final   43.20 input  -65.29 | X-H torsion
[ 10718 10713 10712 10709 ] final   70.49 input   66.30 | X-H torsion
[ 10763 10752 10751 10750 ] final -112.76 input  -60.55 | X-H torsion
[ 11005 11000 10999 10996 ] final    1.04 input  -57.11 | X-H torsion

> <Gold.Protein.ActiveResidues>
 VAL166  LYS551  ARG553  GLY616  TRP617  ASP618  TYR619  PRO620  LYS621  CYS622 
 ASP623  PHE694  ASN695  SER759  ASP760  ASP761  ALA762  ILE779  LEU786  VAL792 
 PHE793  MET794  SER795  GLU796  ALA797  LYS798  CYS799  TRP800  GLU811  SER814 

> <Gold.Protein.RotatedAtoms>
  152.4143  133.7013  159.6425 H   0  0  0  0  0  0  0  0  0  0  0  0  # atno 6907 bound_to 6896
  150.8021  133.8568  159.3229 H   0  0  0  0  0  0  0  0  0  0  0  0  # atno 6908 bound_to 6896
  151.6302  135.1025  160.0171 H   0  0  0  0  0  0  0  0  0  0  0  0  # atno 6909 bound_to 6896
  146.0603  139.5119  142.9662 H   0  0  0  0  0  0  0  0  0  0  0  0  # atno 7974 bound_to 7965
  155.9927  140.1204  157.0623 H   0  0  0  0  0  0  0  0  0  0  0  0  # atno 8008 bound_to 7997
  154.4216  140.1122  156.5656 H   0  0  0  0  0  0  0  0  0  0  0  0  # atno 8009 bound_to 7997
  155.6321  140.3473  155.4688 H   0  0  0  0  0  0  0  0  0  0  0  0  # atno 8010 bound_to 7997
  140.3468  144.2401  150.6149 H   0  0  0  0  0  0  0  0  0  0  0  0  # atno 10167 bound_to 10162
  157.6403  130.9480  150.0659 H   0  0  0  0  0  0  0  0  0  0  0  0  # atno 10718 bound_to 10713
  154.8365  135.4479  154.1243 H   0  0  0  0  0  0  0  0  0  0  0  0  # atno 10763 bound_to 10752
  153.2471  135.6922  153.7726 H   0  0  0  0  0  0  0  0  0  0  0  0  # atno 10764 bound_to 10752
  153.7052  135.3365  155.3210 H   0  0  0  0  0  0  0  0  0  0  0  0  # atno 10765 bound_to 10752
  140.6199  133.9671  155.8219 H   0  0  0  0  0  0  0  0  0  0  0  0  # atno 11005 bound_to 11000
  145.6571  141.0249  143.1729 LP  0  0  0  0  0  0  0  0  0  0  0  0  # atno 17320 bound_to 7965
  144.7171  139.8158  143.7395 LP  0  0  0  0  0  0  0  0  0  0  0  0  # atno 17321 bound_to 7965
  140.5257  143.2255  151.8319 LP  0  0  0  0  0  0  0  0  0  0  0  0  # atno 17342 bound_to 10162
  139.4832  144.4783  151.9339 LP  0  0  0  0  0  0  0  0  0  0  0  0  # atno 17343 bound_to 10162
  156.1677  130.3645  149.9208 LP  0  0  0  0  0  0  0  0  0  0  0  0  # atno 17370 bound_to 10713
  156.7191  130.9000  151.3616 LP  0  0  0  0  0  0  0  0  0  0  0  0  # atno 17371 bound_to 10713
  141.0750  134.0149  157.3471 LP  0  0  0  0  0  0  0  0  0  0  0  0  # atno 17394 bound_to 11000
  139.9158  135.0196  156.7874 LP  0  0  0  0  0  0  0  0  0  0  0  0  # atno 17395 bound_to 11000

$$$$
