AV-unprocessed.smi:1695|AV-procd|sdf|6790|dock5
  -GOLD-   22720 7553D 1   1.00000     0.00000
 Structure written by MMmdl.
 51 53  0  0  0  0  0  0  0  0  2 V2000
  152.3362  143.3464  160.9985 C   0  0  0  0  0  0  0  0  0  0  0  0
  151.9872  142.5856  159.7316 C   0  0  0  0  0  0  0  0  0  0  0  0
  151.9767  141.1727  159.7596 C   0  0  0  0  0  0  0  0  0  0  0  0
  151.6575  140.4280  158.6032 C   0  0  0  0  0  0  0  0  0  0  0  0
  151.5874  139.0597  158.4055 N   0  0  0  0  0  0  0  0  0  0  0  0
  151.2429  138.9908  157.1232 C   0  0  0  0  0  0  0  0  0  0  0  0
  151.0885  140.1550  156.4631 N   0  0  0  0  0  0  0  0  0  0  0  0
  150.7250  140.3329  155.0690 C   0  0  0  0  0  0  0  0  0  0  0  0
  149.5859  141.3537  154.8857 C   0  0  1  0  0  0  0  0  0  0  0  0
  149.2138  141.3985  153.5212 O   0  0  0  0  0  0  0  0  0  0  0  0
  148.3470  140.9827  155.7239 C   0  0  0  0  0  0  0  0  0  0  0  0
  147.3319  142.0672  155.7550 N   0  3  1  0  0  0  0  0  0  0  0  0
  146.4641  142.0590  154.5497 C   0  0  0  0  0  0  0  0  0  0  0  0
  145.5239  143.2796  154.5283 C   0  0  0  0  0  0  0  0  0  0  0  0
  144.6768  143.4208  155.8107 C   0  0  1  0  0  0  0  0  0  0  0  0
  143.4951  142.4339  155.8568 C   0  0  0  0  0  0  0  0  0  0  0  0
  143.3848  141.5746  154.8406 N   0  0  0  0  0  0  0  0  0  0  0  0
  142.6925  142.4402  156.7875 O   0  0  0  0  0  0  0  0  0  0  0  0
  145.5944  143.3135  157.0476 C   0  0  0  0  0  0  0  0  0  0  0  0
  146.5316  142.0910  157.0079 C   0  0  0  0  0  0  0  0  0  0  0  0
  151.3488  141.1413  157.4081 C   0  0  0  0  0  0  0  0  0  0  0  0
  151.3551  142.5466  157.3676 C   0  0  0  0  0  0  0  0  0  0  0  0
  151.6745  143.2751  158.5326 C   0  0  0  0  0  0  0  0  0  0  0  0
  151.6780  144.7927  158.4803 C   0  0  0  0  0  0  0  0  0  0  0  0
  152.5420  142.6679  161.8268 H   0  0  0  0  0  0  0  0  0  0  0  0
  151.5113  143.9943  161.2953 H   0  0  0  0  0  0  0  0  0  0  0  0
  153.2222  143.9621  160.8422 H   0  0  0  0  0  0  0  0  0  0  0  0
  152.2141  140.6470  160.6727 H   0  0  0  0  0  0  0  0  0  0  0  0
  151.1005  138.0385  156.6333 H   0  0  0  0  0  0  0  0  0  0  0  0
  151.6113  140.6426  154.5130 H   0  0  0  0  0  0  0  0  0  0  0  0
  150.4296  139.3619  154.6695 H   0  0  0  0  0  0  0  0  0  0  0  0
  149.9560  142.3387  155.1685 H   0  0  0  0  0  0  0  0  0  0  0  0
  149.4900  140.5937  153.1086 H   0  0  0  0  0  0  0  0  0  0  0  0
  147.9069  140.0779  155.3013 H   0  0  0  0  0  0  0  0  0  0  0  0
  148.6349  140.7297  156.7456 H   0  0  0  0  0  0  0  0  0  0  0  0
  147.0861  142.0831  153.6540 H   0  0  0  0  0  0  0  0  0  0  0  0
  145.8998  141.1269  154.5078 H   0  0  0  0  0  0  0  0  0  0  0  0
  146.1222  144.1830  154.4012 H   0  0  0  0  0  0  0  0  0  0  0  0
  144.8769  143.2281  153.6513 H   0  0  0  0  0  0  0  0  0  0  0  0
  144.2485  144.4248  155.8083 H   0  0  0  0  0  0  0  0  0  0  0  0
  142.6275  140.9067  154.8213 H   0  0  0  0  0  0  0  0  0  0  0  0
  144.0612  141.5957  154.0909 H   0  0  0  0  0  0  0  0  0  0  0  0
  146.1991  144.2188  157.1161 H   0  0  0  0  0  0  0  0  0  0  0  0
  144.9969  143.2876  157.9601 H   0  0  0  0  0  0  0  0  0  0  0  0
  145.9656  141.1636  157.1008 H   0  0  0  0  0  0  0  0  0  0  0  0
  147.1893  142.1341  157.8750 H   0  0  0  0  0  0  0  0  0  0  0  0
  151.1147  143.0594  156.4480 H   0  0  0  0  0  0  0  0  0  0  0  0
  151.3932  145.1582  157.4932 H   0  0  0  0  0  0  0  0  0  0  0  0
  152.6717  145.1797  158.7076 H   0  0  0  0  0  0  0  0  0  0  0  0
  150.9728  145.2020  159.2038 H   0  0  0  0  0  0  0  0  0  0  0  0
  147.8505  142.9337  155.7193 H   0  0  0  0  0  0  0  0  0  0  0  0
  1  2  1  0  0  0  0
  1 25  1  0  0  0  0
  1 26  1  0  0  0  0
  1 27  1  0  0  0  0
  2 23  1  0  0  0  0
  2  3  2  0  0  0  0
  3  4  1  0  0  0  0
  3 28  1  0  0  0  0
  4 21  2  0  0  0  0
  4  5  1  0  0  0  0
  5  6  2  0  0  0  0
  6  7  1  0  0  0  0
  6 29  1  0  0  0  0
  7  8  1  0  0  0  0
  7 21  1  0  0  0  0
  8  9  1  0  0  0  0
  8 30  1  0  0  0  0
  8 31  1  0  0  0  0
  9 10  1  0  0  0  0
  9 11  1  0  0  0  0
  9 32  1  0  0  0  0
 10 33  1  0  0  0  0
 11 12  1  0  0  0  0
 11 34  1  0  0  0  0
 11 35  1  0  0  0  0
 12 20  1  0  0  0  0
 12 13  1  0  0  0  0
 12 51  1  0  0  0  0
 13 14  1  0  0  0  0
 13 36  1  0  0  0  0
 13 37  1  0  0  0  0
 14 15  1  0  0  0  0
 14 38  1  0  0  0  0
 14 39  1  0  0  0  0
 15 16  1  0  0  0  0
 15 19  1  0  0  0  0
 15 40  1  0  0  0  0
 16 17  1  0  0  0  0
 16 18  2  0  0  0  0
 17 41  1  0  0  0  0
 17 42  1  0  0  0  0
 19 20  1  0  0  0  0
 19 43  1  0  0  0  0
 19 44  1  0  0  0  0
 20 45  1  0  0  0  0
 20 46  1  0  0  0  0
 21 22  1  0  0  0  0
 22 23  2  0  0  0  0
 22 47  1  0  0  0  0
 23 24  1  0  0  0  0
 24 48  1  0  0  0  0
 24 49  1  0  0  0  0
 24 50  1  0  0  0  0
M  CHG  1  12   1
M  END
> <s_m_source_file>
AV-unprocessed.smi

> <i_m_source_file_index>
1695

> <i_lp_mmshare_version>
43012

> <i_f3d_flags>
0

> <s_epik_input>
W0NIM11jKFtjSF0xKWMoW0NIM10pW2NIXWMoYzEyKW4oW2NIXW4yKVtDSDJdW0NASF0oW09IXSlbQ0gyXU4zW0NIMl1bQ0gyXVtDSF0oQyg9TylbTkgyXSlbQ0gyXVtDSDJdMw==

> <s_epik_cmdline>
J2VwaWtfcHl0aG9uJywgJy1waCcsICc3LjAnLCAnLXRuJywgJzgnLCAnLW1hJywgJzIwMCcsICctbWV0YWxfYmluZGluZycsICctaW1hZScsICc8aW5maWxlLm1hZT4nLCAnLW9tYWUnLCAnPG91dGZpbGUubWFlPic=

> <r_epik_Ionization_Penalty>
0.113899

> <r_epik_Ionization_Penalty_Charging>
0.0258844

> <r_epik_Ionization_Penalty_Neutral>
0.0880147

> <r_epik_State_Penalty>
0.0974403

> <r_epik_Charging_Adjusted_Penalty>
0.123325

> <i_epik_Tot_Q>
1

> <i_epik_Tot_abs_Q>
1

> <r_epik_Metal_State_Penalty>
0.0851148

> <b_epik_Metal_Only>
0

> <s_lp_Force_Field>
OPLS_2005

> <r_lp_Energy>
15.764

> <b_lp_Chiralities_Consistent>
1

> <s_lp_Variant>
AV-unprocessed.smi:1695-2

> <Gold.Version>
5.8.1

> <Gold.Id.Protein>
6NUR|6NUR_protein|mol2

> <Gold.PLP.Fitness>
56.2710

> <Gold.PLP.PLP>
-45.5524

> <Gold.PLP.part.hbond>
-5.9474

> <Gold.PLP.part.metal>
0.0000

> <Gold.PLP.part.buried>
-3.3281

> <Gold.PLP.part.nonpolar>
-36.2788

> <Gold.PLP.part.repulsive>
0.0448

> <Gold.PLP.ligand.clash>
0.0000

> <Gold.PLP.ligand.torsion>
0.4890

> <Gold.PLP.Chemscore.Hbond>
3.8690

> <Gold.PLP.Chemscore.CHOScore>
0.0000

> <Gold.PLP.Chemscore.Metal>
0.0000

> <Gold.Chemscore.Hbonds>
donor molecule, donor type, donor heavy atom, donor atom, acceptor molecule, acceptor atom, score
      L1  H    10    33       P1  7957  0.62
      L1  H    12    51       P1  8028  1.95
      L1  H    17    42       P1 10175  0.27
      P1  H  8011  8017       L1    10  0.72

> <Gold.PLP.Chemscore.Internal.Correction>
0.0895

> <Gold.Rescore>
     Score         DG    S(hbond)    S(metal)    S(lipo)     H(rot)  DE(clash)    DE(int)     intcor
     15.15     -17.23       1.88        0.00     109.10       2.85       1.45       0.64       ----

> <Gold.Chemscore.Fitness>
15.1460

> <Gold.Chemscore.DG>
-17.2325

> <Gold.Chemscore.ZeroCoef>
-5.4800

> <Gold.Chemscore.Hbond>
1.8786

> <Gold.Chemscore.Metal>
0.0000

> <Gold.Chemscore.Lipo>
109.0995

> <Gold.Chemscore.Internal_Hbond>
0.0000

> <Gold.Chemscore.DEClash>
1.4498

> <Gold.Chemscore.DEInternal>
0.6367

> <Gold.Chemscore.Rot>
2.8464

> <Gold.Chemscore.Internal.Correction>
   9.000000E+99

> <Gold.Chemscore.Hbonds>
donor molecule, donor type, donor heavy atom, donor atom, acceptor molecule, acceptor atom, score
      L1  H    10    33       P1  7957  0.60
      L1  H    12    51       P1  8028  0.55
      L1  H    17    42       P1 10175  0.04
      P1  H  8011  8017       L1    10  0.10

> <Gold.Chemscore.Hbond.Weighted>
-6.2746

> <Gold.Chemscore.Metal.Weighted>
-0.0000

> <Gold.Chemscore.Lipo.Weighted>
-12.7646

> <Gold.Chemscore.Internal_Hbond.Weighted>
0.0000

> <Gold.Chemscore.DEClash.Weighted>
1.4498

> <Gold.Chemscore.DEInternal.Weighted>
0.6367

> <Gold.Chemscore.Rot.Weighted>
7.2867

> <Gold.Chemscore.Internal.Correction.Weighted>
   9.000000E+99

> <Gold.Protein.RotatedTorsions>
[ 6907 6896 6895 6894 ] final   -2.15 input  -60.11 | X-H torsion
[ 7974 7965 7964 7962 ] final  -85.30 input  175.53 | X-H torsion
[ 8008 7997 7996 7995 ] final  113.60 input   59.86 | X-H torsion
[ 10167 10162 10161 10158 ] final   34.81 input  -65.29 | X-H torsion
[ 10718 10713 10712 10709 ] final  166.22 input   66.30 | X-H torsion
[ 10763 10752 10751 10750 ] final   23.77 input  -60.55 | X-H torsion
[ 11005 11000 10999 10996 ] final  -30.48 input  -57.11 | X-H torsion

> <Gold.Protein.ActiveResidues>
 VAL166  LYS551  ARG553  GLY616  TRP617  ASP618  TYR619  PRO620  LYS621  CYS622 
 ASP623  PHE694  ASN695  SER759  ASP760  ASP761  ALA762  ILE779  LEU786  VAL792 
 PHE793  MET794  SER795  GLU796  ALA797  LYS798  CYS799  TRP800  GLU811  SER814 

> <Gold.Protein.RotatedAtoms>
  151.5345  135.1068  159.9910 H   0  0  0  0  0  0  0  0  0  0  0  0  # atno 6907 bound_to 6896
  152.4563  133.7726  159.6818 H   0  0  0  0  0  0  0  0  0  0  0  0  # atno 6908 bound_to 6896
  150.8508  133.7724  159.3051 H   0  0  0  0  0  0  0  0  0  0  0  0  # atno 6909 bound_to 6896
  145.4950  140.9550  143.1791 H   0  0  0  0  0  0  0  0  0  0  0  0  # atno 7974 bound_to 7965
  156.2268  140.2976  156.0088 H   0  0  0  0  0  0  0  0  0  0  0  0  # atno 8008 bound_to 7997
  155.2334  140.0420  157.2982 H   0  0  0  0  0  0  0  0  0  0  0  0  # atno 8009 bound_to 7997
  154.5929  140.2406  155.7904 H   0  0  0  0  0  0  0  0  0  0  0  0  # atno 8010 bound_to 7997
  140.4280  144.1365  150.6156 H   0  0  0  0  0  0  0  0  0  0  0  0  # atno 10167 bound_to 10162
  157.0690  131.0361  151.2619 H   0  0  0  0  0  0  0  0  0  0  0  0  # atno 10718 bound_to 10713
  153.0813  135.6620  154.0038 H   0  0  0  0  0  0  0  0  0  0  0  0  # atno 10763 bound_to 10752
  153.9659  135.2969  155.3432 H   0  0  0  0  0  0  0  0  0  0  0  0  # atno 10764 bound_to 10752
  154.7213  135.5163  153.8888 H   0  0  0  0  0  0  0  0  0  0  0  0  # atno 10765 bound_to 10752
  140.9387  133.7293  156.1043 H   0  0  0  0  0  0  0  0  0  0  0  0  # atno 11005 bound_to 11000
  144.7812  139.6522  143.7153 LP  0  0  0  0  0  0  0  0  0  0  0  0  # atno 17320 bound_to 7965
  146.2261  139.5725  142.9586 LP  0  0  0  0  0  0  0  0  0  0  0  0  # atno 17321 bound_to 7965
  140.4459  143.2507  151.9412 LP  0  0  0  0  0  0  0  0  0  0  0  0  # atno 17342 bound_to 10162
  139.4784  144.5609  151.8240 LP  0  0  0  0  0  0  0  0  0  0  0  0  # atno 17343 bound_to 10162
  157.4893  130.7812  149.7492 LP  0  0  0  0  0  0  0  0  0  0  0  0  # atno 17370 bound_to 10713
  155.9956  130.3911  150.2812 LP  0  0  0  0  0  0  0  0  0  0  0  0  # atno 17371 bound_to 10713
  140.7764  134.3774  157.5497 LP  0  0  0  0  0  0  0  0  0  0  0  0  # atno 17394 bound_to 11000
  139.8814  134.9054  156.2900 LP  0  0  0  0  0  0  0  0  0  0  0  0  # atno 17395 bound_to 11000

$$$$
