AV-unprocessed.smi:2325|AV-procd|sdf|9295|dock3
  -GOLD-   2272012513D 1   1.00000     0.00000
 Structure written by MMmdl.
 40 41  0  0  0  0  0  0  0  0  1 V2000
  147.1613  133.0004  152.0003 C   0  0  0  0  0  0  0  0  0  0  0  0
  145.9451  133.5402  151.4237 N   0  0  0  0  0  0  0  0  0  0  0  0
  145.0535  132.7363  150.7982 N   0  0  0  0  0  0  0  0  0  0  0  0
  144.1011  133.5904  150.4226 C   0  0  0  0  0  0  0  0  0  0  0  0
  144.3040  134.8989  150.7575 N   0  0  0  0  0  0  0  0  0  0  0  0
  145.4736  134.7898  151.3798 C   0  0  0  0  0  0  0  0  0  0  0  0
  146.2109  135.8510  151.9696 N   0  0  0  0  0  0  0  0  0  0  0  0
  145.7315  136.9721  152.5339 C   0  0  0  0  0  0  0  0  0  0  0  0
  144.5407  137.2745  152.6124 O   0  0  0  0  0  0  0  0  0  0  0  0
  146.7238  137.7351  153.0129 N   0  0  0  0  0  0  0  0  0  0  0  0
  146.5462  139.0060  153.7123 C   0  0  2  0  0  0  0  0  0  0  0  0
  147.4613  140.0785  153.1557 C   0  0  0  0  0  0  0  0  0  0  0  0
  147.5868  141.0681  154.3199 C   0  0  0  0  0  0  0  0  0  0  0  0
  148.9855  141.6983  154.3997 C   0  0  0  0  0  0  0  0  0  0  0  0
  146.4959  142.1518  154.2748 C   0  0  0  0  0  0  0  0  0  0  0  0
  147.3705  140.2958  155.4999 O   0  0  0  0  0  0  0  0  0  0  0  0
  146.9510  138.9646  155.2027 C   0  0  0  0  0  0  0  0  0  0  0  0
  145.7657  138.6307  156.1223 C   0  0  0  0  0  0  0  0  0  0  0  0
  148.1541  138.0485  155.5097 C   0  0  0  0  0  0  0  0  0  0  0  0
  148.0257  133.5220  151.5882 H   0  0  0  0  0  0  0  0  0  0  0  0
  147.2526  131.9364  151.7777 H   0  0  0  0  0  0  0  0  0  0  0  0
  147.1450  133.1369  153.0819 H   0  0  0  0  0  0  0  0  0  0  0  0
  143.2251  133.2569  149.8861 H   0  0  0  0  0  0  0  0  0  0  0  0
  147.2137  135.7379  151.9697 H   0  0  0  0  0  0  0  0  0  0  0  0
  147.6721  137.4078  152.9026 H   0  0  0  0  0  0  0  0  0  0  0  0
  145.5162  139.3542  153.6112 H   0  0  0  0  0  0  0  0  0  0  0  0
  148.4362  139.6496  152.9175 H   0  0  0  0  0  0  0  0  0  0  0  0
  147.0745  140.5349  152.2438 H   0  0  0  0  0  0  0  0  0  0  0  0
  149.2081  142.2794  153.5044 H   0  0  0  0  0  0  0  0  0  0  0  0
  149.7575  140.9350  154.5027 H   0  0  0  0  0  0  0  0  0  0  0  0
  149.0684  142.3649  155.2587 H   0  0  0  0  0  0  0  0  0  0  0  0
  146.5930  142.7730  153.3838 H   0  0  0  0  0  0  0  0  0  0  0  0
  146.5580  142.8077  155.1439 H   0  0  0  0  0  0  0  0  0  0  0  0
  145.4971  141.7149  154.2670 H   0  0  0  0  0  0  0  0  0  0  0  0
  145.4014  137.6184  155.9481 H   0  0  0  0  0  0  0  0  0  0  0  0
  144.9337  139.3167  155.9608 H   0  0  0  0  0  0  0  0  0  0  0  0
  146.0501  138.7028  157.1723 H   0  0  0  0  0  0  0  0  0  0  0  0
  147.9093  136.9974  155.3541 H   0  0  0  0  0  0  0  0  0  0  0  0
  148.4703  138.1567  156.5473 H   0  0  0  0  0  0  0  0  0  0  0  0
  149.0129  138.2877  154.8823 H   0  0  0  0  0  0  0  0  0  0  0  0
  1  2  1  0  0  0  0
  1 20  1  0  0  0  0
  1 21  1  0  0  0  0
  1 22  1  0  0  0  0
  2  6  1  0  0  0  0
  2  3  1  0  0  0  0
  3  4  2  0  0  0  0
  4  5  1  0  0  0  0
  4 23  1  0  0  0  0
  5  6  2  0  0  0  0
  6  7  1  0  0  0  0
  7  8  1  0  0  0  0
  7 24  1  0  0  0  0
  8  9  2  0  0  0  0
  8 10  1  0  0  0  0
 10 11  1  0  0  0  0
 10 25  1  0  0  0  0
 11 17  1  0  0  0  0
 11 12  1  0  0  0  0
 11 26  1  0  0  0  0
 12 13  1  0  0  0  0
 12 27  1  0  0  0  0
 12 28  1  0  0  0  0
 13 14  1  0  0  0  0
 13 15  1  0  0  0  0
 13 16  1  0  0  0  0
 14 29  1  0  0  0  0
 14 30  1  0  0  0  0
 14 31  1  0  0  0  0
 15 32  1  0  0  0  0
 15 33  1  0  0  0  0
 15 34  1  0  0  0  0
 16 17  1  0  0  0  0
 17 18  1  0  0  0  0
 17 19  1  0  0  0  0
 18 35  1  0  0  0  0
 18 36  1  0  0  0  0
 18 37  1  0  0  0  0
 19 38  1  0  0  0  0
 19 39  1  0  0  0  0
 19 40  1  0  0  0  0
M  END
> <s_m_source_file>
AV-unprocessed.smi

> <i_m_source_file_index>
2325

> <i_lp_mmshare_version>
43012

> <i_f3d_flags>
0

> <s_epik_input>
W0NIM11uMW5bY0hdbmMxW05IXUMoPU8pW05IXVtDQEBIXShDKE8yKShbQ0gzXSlbQ0gzXSlbQ0gyXUMyKFtDSDNdKVtDSDNd

> <s_epik_cmdline>
J2VwaWtfcHl0aG9uJywgJy1waCcsICc3LjAnLCAnLXRuJywgJzgnLCAnLW1hJywgJzIwMCcsICctbWV0YWxfYmluZGluZycsICctaW1hZScsICc8aW5maWxlLm1hZT4nLCAnLW9tYWUnLCAnPG91dGZpbGUubWFlPic=

> <r_lp_tautomer_probability>
1

> <r_epik_Ionization_Penalty>
1.97832e-05

> <r_epik_Ionization_Penalty_Charging>
0

> <r_epik_Ionization_Penalty_Neutral>
1.97832e-05

> <r_epik_State_Penalty>
-0

> <r_epik_Charging_Adjusted_Penalty>
0

> <i_epik_Tot_Q>
0

> <i_epik_Tot_abs_Q>
0

> <r_epik_Metal_State_Penalty>
-0

> <b_epik_Metal_Only>
0

> <s_lp_Force_Field>
OPLS_2005

> <r_lp_Energy>
17.1508

> <b_lp_Chiralities_Consistent>
1

> <s_lp_Variant>
AV-unprocessed.smi:2325-1

> <Gold.Version>
5.8.1

> <Gold.Id.Protein>
6NUR|6NUR_protein|mol2

> <Gold.PLP.Fitness>
32.9968

> <Gold.PLP.PLP>
-24.7569

> <Gold.PLP.part.hbond>
-2.0000

> <Gold.PLP.part.metal>
0.0000

> <Gold.PLP.part.buried>
-2.1817

> <Gold.PLP.part.nonpolar>
-21.6743

> <Gold.PLP.part.repulsive>
0.6358

> <Gold.PLP.ligand.clash>
0.0000

> <Gold.PLP.ligand.torsion>
0.2883

> <Gold.PLP.Chemscore.Hbond>
1.9440

> <Gold.PLP.Chemscore.CHOScore>
0.9911

> <Gold.PLP.Chemscore.Metal>
0.0000

> <Gold.Chemscore.Hbonds>
donor molecule, donor type, donor heavy atom, donor atom, acceptor molecule, acceptor atom, score
      L1  H     7    24       P1  7948  1.00
      L1  H    10    25       P1  7948  0.94
      L1  C     4    23       P1 10186  0.99

> <Gold.PLP.Chemscore.Internal.Correction>
0.0111

> <Gold.Rescore>
     Score         DG    S(hbond)    S(metal)    S(lipo)     H(rot)  DE(clash)    DE(int)     intcor
     12.52     -13.91       1.93        0.00      38.81       1.00       0.09       1.31       ----

> <Gold.Chemscore.Fitness>
12.5200

> <Gold.Chemscore.DG>
-13.9135

> <Gold.Chemscore.ZeroCoef>
-5.4800

> <Gold.Chemscore.Hbond>
1.9319

> <Gold.Chemscore.Metal>
0.0000

> <Gold.Chemscore.Lipo>
38.8128

> <Gold.Chemscore.Internal_Hbond>
0.0000

> <Gold.Chemscore.DEClash>
0.0857

> <Gold.Chemscore.DEInternal>
1.3078

> <Gold.Chemscore.Rot>
1.0000

> <Gold.Chemscore.Internal.Correction>
   9.000000E+99

> <Gold.Chemscore.Hbonds>
donor molecule, donor type, donor heavy atom, donor atom, acceptor molecule, acceptor atom, score
      L1  H     7    24       P1  7948  0.99
      L1  H    10    25       P1  7948  0.86

> <Gold.Chemscore.Hbond.Weighted>
-6.4525

> <Gold.Chemscore.Metal.Weighted>
-0.0000

> <Gold.Chemscore.Lipo.Weighted>
-4.5411

> <Gold.Chemscore.Internal_Hbond.Weighted>
0.0000

> <Gold.Chemscore.DEClash.Weighted>
0.0857

> <Gold.Chemscore.DEInternal.Weighted>
1.3078

> <Gold.Chemscore.Rot.Weighted>
2.5600

> <Gold.Chemscore.Internal.Correction.Weighted>
   9.000000E+99

> <Gold.Protein.RotatedTorsions>
[ 6907 6896 6895 6894 ] final -133.43 input  -60.11 | X-H torsion
[ 7974 7965 7964 7962 ] final    6.90 input  175.53 | X-H torsion
[ 8008 7997 7996 7995 ] final   97.06 input   59.86 | X-H torsion
[ 10167 10162 10161 10158 ] final -169.07 input  -65.29 | X-H torsion
[ 10718 10713 10712 10709 ] final   79.94 input   66.30 | X-H torsion
[ 10763 10752 10751 10750 ] final   14.36 input  -60.55 | X-H torsion
[ 11005 11000 10999 10996 ] final   51.18 input  -57.11 | X-H torsion

> <Gold.Protein.ActiveResidues>
 VAL166  LYS551  ARG553  GLY616  TRP617  ASP618  TYR619  PRO620  LYS621  CYS622 
 ASP623  PHE694  ASN695  SER759  ASP760  ASP761  ALA762  ILE779  LEU786  VAL792 
 PHE793  MET794  SER795  GLU796  ALA797  LYS798  CYS799  TRP800  GLU811  SER814 

> <Gold.Protein.RotatedAtoms>
  150.9740  133.6314  159.2733 H   0  0  0  0  0  0  0  0  0  0  0  0  # atno 6907 bound_to 6896
  151.3593  135.0899  159.9439 H   0  0  0  0  0  0  0  0  0  0  0  0  # atno 6908 bound_to 6896
  152.5193  133.9316  159.7638 H   0  0  0  0  0  0  0  0  0  0  0  0  # atno 6909 bound_to 6896
  146.2431  140.0163  142.8402 H   0  0  0  0  0  0  0  0  0  0  0  0  # atno 7974 bound_to 7965
  156.0861  140.3264  155.7756 H   0  0  0  0  0  0  0  0  0  0  0  0  # atno 8008 bound_to 7997
  155.5073  140.0574  157.2946 H   0  0  0  0  0  0  0  0  0  0  0  0  # atno 8009 bound_to 7997
  154.4610  140.1966  156.0261 H   0  0  0  0  0  0  0  0  0  0  0  0  # atno 8010 bound_to 7997
  139.5945  144.1141  152.1674 H   0  0  0  0  0  0  0  0  0  0  0  0  # atno 10167 bound_to 10162
  157.6792  130.9937  150.2006 H   0  0  0  0  0  0  0  0  0  0  0  0  # atno 10718 bound_to 10713
  153.1629  135.6799  153.8716 H   0  0  0  0  0  0  0  0  0  0  0  0  # atno 10763 bound_to 10752
  153.8105  135.3143  155.3401 H   0  0  0  0  0  0  0  0  0  0  0  0  # atno 10764 bound_to 10752
  154.7945  135.4815  154.0219 H   0  0  0  0  0  0  0  0  0  0  0  0  # atno 10765 bound_to 10752
  140.0954  134.5152  155.8812 H   0  0  0  0  0  0  0  0  0  0  0  0  # atno 11005 bound_to 11000
  145.1281  140.9502  143.4560 LP  0  0  0  0  0  0  0  0  0  0  0  0  # atno 17320 bound_to 7965
  145.0414  139.3257  143.5974 LP  0  0  0  0  0  0  0  0  0  0  0  0  # atno 17321 bound_to 7965
  140.0723  144.5769  150.7183 LP  0  0  0  0  0  0  0  0  0  0  0  0  # atno 17342 bound_to 10162
  140.7201  143.2580  151.4307 LP  0  0  0  0  0  0  0  0  0  0  0  0  # atno 17343 bound_to 10162
  156.2698  130.3720  149.8043 LP  0  0  0  0  0  0  0  0  0  0  0  0  # atno 17370 bound_to 10713
  156.5764  130.8447  151.3371 LP  0  0  0  0  0  0  0  0  0  0  0  0  # atno 17371 bound_to 10713
  141.2090  133.6680  156.6412 LP  0  0  0  0  0  0  0  0  0  0  0  0  # atno 17394 bound_to 11000
  140.3293  134.7942  157.4314 LP  0  0  0  0  0  0  0  0  0  0  0  0  # atno 17395 bound_to 11000

$$$$
