AV-unprocessed.smi:544|AV-procd|sdf|2880|dock2
  -GOLD-   2262023373D 1   1.00000     0.00000
 Structure written by MMmdl.
 48 50  0  0  0  0  0  0  0  0  2 V2000
  147.5942  141.7620  154.5306 C   0  0  0  0  0  0  0  0  0  0  0  0
  148.3337  140.4880  154.1161 C   0  0  0  0  0  0  0  0  0  0  0  0
  149.7162  140.6710  154.3623 O   0  0  0  0  0  0  0  0  0  0  0  0
  150.0935  140.3864  155.6978 C   0  0  0  0  0  0  0  0  0  0  0  0
  151.5321  140.8699  155.9789 C   0  0  0  0  0  0  0  0  0  0  0  0
  152.1535  140.1969  157.1202 N   0  0  0  0  0  0  0  0  0  0  0  0
  152.5419  140.7144  158.3263 C   0  0  0  0  0  0  0  0  0  0  0  0
  152.3698  142.0545  158.7177 N   0  0  0  0  0  0  0  0  0  0  0  0
  151.6342  143.1350  158.0556 C   0  0  0  0  0  0  0  0  0  0  0  0
  150.5705  143.7531  158.9802 C   0  0  0  0  0  0  0  0  0  0  0  0
  151.2244  144.3056  160.2524 C   0  0  0  0  0  0  0  0  0  0  0  0
  152.1076  143.2287  160.9034 C   0  0  2  0  0  0  0  0  0  0  0  0
  152.8587  143.7793  162.1230 C   0  0  0  0  0  0  0  0  0  0  0  0
  153.0800  142.6426  159.8589 C   0  0  0  0  0  0  0  0  0  0  0  0
  153.0715  139.8104  159.1550 N   0  0  0  0  0  0  0  0  0  0  0  0
  153.0060  138.6287  158.4409 C   0  0  0  0  0  0  0  0  0  0  0  0
  152.4300  138.8239  157.2261 C   0  0  0  0  0  0  0  0  0  0  0  0
  152.1627  137.7227  156.2673 C   0  0  0  0  0  0  0  0  0  0  0  0
  151.5738  137.9240  155.2075 O   0  0  0  0  0  0  0  0  0  0  0  0
  152.6285  136.5152  156.7182 N   0  5  0  0  0  0  0  0  0  0  0  0
  153.2351  136.2835  157.9328 C   0  0  0  0  0  0  0  0  0  0  0  0
  153.6250  135.1623  158.2618 O   0  0  0  0  0  0  0  0  0  0  0  0
  153.4158  137.3189  158.8102 N   0  0  0  0  0  0  0  0  0  0  0  0
  154.0418  137.0994  160.1174 C   0  0  0  0  0  0  0  0  0  0  0  0
  146.5222  141.6654  154.3579 H   0  0  0  0  0  0  0  0  0  0  0  0
  147.9501  142.6217  153.9615 H   0  0  0  0  0  0  0  0  0  0  0  0
  147.7461  141.9755  155.5891 H   0  0  0  0  0  0  0  0  0  0  0  0
  147.9586  139.6359  154.6848 H   0  0  0  0  0  0  0  0  0  0  0  0
  148.1629  140.2841  153.0581 H   0  0  0  0  0  0  0  0  0  0  0  0
  149.3798  140.8654  156.3659 H   0  0  0  0  0  0  0  0  0  0  0  0
  150.0316  139.3123  155.8771 H   0  0  0  0  0  0  0  0  0  0  0  0
  152.1579  140.7527  155.0985 H   0  0  0  0  0  0  0  0  0  0  0  0
  151.5345  141.9437  156.1581 H   0  0  0  0  0  0  0  0  0  0  0  0
  152.3451  143.9057  157.7536 H   0  0  0  0  0  0  0  0  0  0  0  0
  151.1778  142.8004  157.1327 H   0  0  0  0  0  0  0  0  0  0  0  0
  150.0395  144.5495  158.4587 H   0  0  0  0  0  0  0  0  0  0  0  0
  149.8242  143.0046  159.2471 H   0  0  0  0  0  0  0  0  0  0  0  0
  151.8303  145.1762  159.9984 H   0  0  0  0  0  0  0  0  0  0  0  0
  150.4603  144.6485  160.9506 H   0  0  0  0  0  0  0  0  0  0  0  0
  151.4610  142.4211  161.2505 H   0  0  0  0  0  0  0  0  0  0  0  0
  153.5237  144.5968  161.8432 H   0  0  0  0  0  0  0  0  0  0  0  0
  153.4645  143.0042  162.5927 H   0  0  0  0  0  0  0  0  0  0  0  0
  152.1644  144.1562  162.8743 H   0  0  0  0  0  0  0  0  0  0  0  0
  153.7015  141.8897  160.3440 H   0  0  0  0  0  0  0  0  0  0  0  0
  153.7645  143.4133  159.5013 H   0  0  0  0  0  0  0  0  0  0  0  0
  153.4786  136.3634  160.6926 H   0  0  0  0  0  0  0  0  0  0  0  0
  154.0950  138.0073  160.7177 H   0  0  0  0  0  0  0  0  0  0  0  0
  155.0605  136.7297  159.9943 H   0  0  0  0  0  0  0  0  0  0  0  0
  1  2  1  0  0  0  0
  1 25  1  0  0  0  0
  1 26  1  0  0  0  0
  1 27  1  0  0  0  0
  2  3  1  0  0  0  0
  2 28  1  0  0  0  0
  2 29  1  0  0  0  0
  3  4  1  0  0  0  0
  4  5  1  0  0  0  0
  4 30  1  0  0  0  0
  4 31  1  0  0  0  0
  5  6  1  0  0  0  0
  5 32  1  0  0  0  0
  5 33  1  0  0  0  0
  6 17  1  0  0  0  0
  6  7  1  0  0  0  0
  7  8  1  0  0  0  0
  7 15  2  0  0  0  0
  8 14  1  0  0  0  0
  8  9  1  0  0  0  0
  9 10  1  0  0  0  0
  9 34  1  0  0  0  0
  9 35  1  0  0  0  0
 10 11  1  0  0  0  0
 10 36  1  0  0  0  0
 10 37  1  0  0  0  0
 11 12  1  0  0  0  0
 11 38  1  0  0  0  0
 11 39  1  0  0  0  0
 12 13  1  0  0  0  0
 12 14  1  0  0  0  0
 12 40  1  0  0  0  0
 13 41  1  0  0  0  0
 13 42  1  0  0  0  0
 13 43  1  0  0  0  0
 14 44  1  0  0  0  0
 14 45  1  0  0  0  0
 15 16  1  0  0  0  0
 16 23  1  0  0  0  0
 16 17  2  0  0  0  0
 17 18  1  0  0  0  0
 18 19  2  0  0  0  0
 18 20  1  0  0  0  0
 20 21  1  0  0  0  0
 21 22  2  0  0  0  0
 21 23  1  0  0  0  0
 23 24  1  0  0  0  0
 24 46  1  0  0  0  0
 24 47  1  0  0  0  0
 24 48  1  0  0  0  0
M  CHG  1  20  -1
M  END
> <s_m_source_file>
AV-unprocessed.smi

> <i_m_source_file_index>
544

> <i_lp_mmshare_version>
43012

> <i_f3d_flags>
0

> <s_epik_input>
W0NIM11uMWMoPU8pW25IXWMoPU8pYyhjMTIpbihbQ0gyXVtDSDJdT1tDSDJdW0NIM10pYyhuMilOM1tDSDJdW0NIMl1bQ0gyXVtDQEBIXShbQ0gzXSlbQ0gyXTM=

> <s_epik_cmdline>
J2VwaWtfcHl0aG9uJywgJy1waCcsICc3LjAnLCAnLXRuJywgJzgnLCAnLW1hJywgJzIwMCcsICctbWV0YWxfYmluZGluZycsICctaW1hZScsICc8aW5maWxlLm1hZT4nLCAnLW9tYWUnLCAnPG91dGZpbGUubWFlPic=

> <r_lp_tautomer_probability>
1

> <r_epik_Ionization_Penalty>
5.1213

> <r_epik_Ionization_Penalty_Charging>
0.0741877

> <r_epik_Ionization_Penalty_Neutral>
5.04711

> <r_epik_State_Penalty>
5.04142

> <r_epik_Charging_Adjusted_Penalty>
5.11561

> <i_epik_Tot_Q>
-1

> <i_epik_Tot_abs_Q>
1

> <r_epik_Metal_State_Penalty>
1.14934

> <b_epik_Metal_Only>
1

> <s_lp_Force_Field>
OPLS_2005

> <r_lp_Energy>
42.4298

> <b_lp_Chiralities_Consistent>
1

> <s_lp_Variant>
AV-unprocessed.smi:544-4

> <Gold.Version>
5.8.1

> <Gold.Id.Protein>
6NUR|6NUR_protein|mol2

> <Gold.PLP.Fitness>
50.5881

> <Gold.PLP.PLP>
-41.7313

> <Gold.PLP.part.hbond>
-3.0000

> <Gold.PLP.part.metal>
0.0000

> <Gold.PLP.part.buried>
-4.9050

> <Gold.PLP.part.nonpolar>
-33.0963

> <Gold.PLP.part.repulsive>
0.1954

> <Gold.PLP.ligand.clash>
0.0000

> <Gold.PLP.ligand.torsion>
0.3727

> <Gold.PLP.Chemscore.Hbond>
3.1794

> <Gold.PLP.Chemscore.CHOScore>
0.0000

> <Gold.PLP.Chemscore.Metal>
0.0000

> <Gold.Chemscore.Hbonds>
donor molecule, donor type, donor heavy atom, donor atom, acceptor molecule, acceptor atom, score
      P1  H  6896  6907       L1    22  0.47
      P1  H  7989  7998       L1     3  0.59
      P1  H 10752 10765       L1    20  2.00

> <Gold.PLP.Chemscore.Internal.Correction>
0.0641

> <Gold.Rescore>
     Score         DG    S(hbond)    S(metal)    S(lipo)     H(rot)  DE(clash)    DE(int)     intcor
     16.54     -17.75       1.38        0.00      99.36       1.55       0.11       1.09       ----

> <Gold.Chemscore.Fitness>
16.5450

> <Gold.Chemscore.DG>
-17.7456

> <Gold.Chemscore.ZeroCoef>
-5.4800

> <Gold.Chemscore.Hbond>
1.3824

> <Gold.Chemscore.Metal>
0.0000

> <Gold.Chemscore.Lipo>
99.3608

> <Gold.Chemscore.Internal_Hbond>
0.0000

> <Gold.Chemscore.DEClash>
0.1094

> <Gold.Chemscore.DEInternal>
1.0913

> <Gold.Chemscore.Rot>
1.5534

> <Gold.Chemscore.Internal.Correction>
   9.000000E+99

> <Gold.Chemscore.Hbonds>
donor molecule, donor type, donor heavy atom, donor atom, acceptor molecule, acceptor atom, score
      P1  H  6896  6907       L1    22  0.34
      P1  H  7989  7998       L1     3  0.15
      P1  H 10752 10765       L1    20  0.68

> <Gold.Chemscore.Hbond.Weighted>
-4.6172

> <Gold.Chemscore.Metal.Weighted>
-0.0000

> <Gold.Chemscore.Lipo.Weighted>
-11.6252

> <Gold.Chemscore.Internal_Hbond.Weighted>
0.0000

> <Gold.Chemscore.DEClash.Weighted>
0.1094

> <Gold.Chemscore.DEInternal.Weighted>
1.0913

> <Gold.Chemscore.Rot.Weighted>
3.9768

> <Gold.Chemscore.Internal.Correction.Weighted>
   9.000000E+99

> <Gold.Protein.RotatedTorsions>
[ 6907 6896 6895 6894 ] final   72.39 input  -60.11 | X-H torsion
[ 7974 7965 7964 7962 ] final  -91.97 input  175.53 | X-H torsion
[ 8008 7997 7996 7995 ] final  146.36 input   59.86 | X-H torsion
[ 10167 10162 10161 10158 ] final   83.76 input  -65.29 | X-H torsion
[ 10718 10713 10712 10709 ] final   -0.26 input   66.30 | X-H torsion
[ 10763 10752 10751 10750 ] final -129.61 input  -60.55 | X-H torsion
[ 11005 11000 10999 10996 ] final -169.98 input  -57.11 | X-H torsion

> <Gold.Protein.ActiveResidues>
 VAL166  LYS551  ARG553  GLY616  TRP617  ASP618  TYR619  PRO620  LYS621  CYS622 
 ASP623  PHE694  ASN695  SER759  ASP760  ASP761  ALA762  ILE779  LEU786  VAL792 
 PHE793  MET794  SER795  GLU796  ALA797  LYS798  CYS799  TRP800  GLU811  SER814 

> <Gold.Protein.RotatedAtoms>
  152.4865  134.4578  159.9595 H   0  0  0  0  0  0  0  0  0  0  0  0  # atno 6907 bound_to 6896
  151.4573  133.3596  159.2812 H   0  0  0  0  0  0  0  0  0  0  0  0  # atno 6908 bound_to 6896
  150.8980  134.8415  159.7401 H   0  0  0  0  0  0  0  0  0  0  0  0  # atno 6909 bound_to 6896
  145.4060  140.9541  143.2260 H   0  0  0  0  0  0  0  0  0  0  0  0  # atno 7974 bound_to 7965
  156.2857  140.2184  156.5364 H   0  0  0  0  0  0  0  0  0  0  0  0  # atno 8008 bound_to 7997
  154.7406  140.0488  157.0830 H   0  0  0  0  0  0  0  0  0  0  0  0  # atno 8009 bound_to 7997
  155.0236  140.3127  155.4787 H   0  0  0  0  0  0  0  0  0  0  0  0  # atno 8010 bound_to 7997
  139.9151  144.6248  150.8498 H   0  0  0  0  0  0  0  0  0  0  0  0  # atno 10167 bound_to 10162
  156.8230  130.5463  149.5695 H   0  0  0  0  0  0  0  0  0  0  0  0  # atno 10718 bound_to 10713
  154.8757  135.3889  154.3949 H   0  0  0  0  0  0  0  0  0  0  0  0  # atno 10763 bound_to 10752
  153.4680  135.7029  153.6015 H   0  0  0  0  0  0  0  0  0  0  0  0  # atno 10764 bound_to 10752
  153.4485  135.3839  155.2238 H   0  0  0  0  0  0  0  0  0  0  0  0  # atno 10765 bound_to 10752
  140.5246  134.5676  157.5058 H   0  0  0  0  0  0  0  0  0  0  0  0  # atno 11005 bound_to 11000
  144.8341  139.5579  143.6930 LP  0  0  0  0  0  0  0  0  0  0  0  0  # atno 17320 bound_to 7965
  146.2728  139.6678  142.9284 LP  0  0  0  0  0  0  0  0  0  0  0  0  # atno 17321 bound_to 7965
  140.7676  143.3337  151.2354 LP  0  0  0  0  0  0  0  0  0  0  0  0  # atno 17342 bound_to 10162
  139.6909  143.9693  152.2859 LP  0  0  0  0  0  0  0  0  0  0  0  0  # atno 17343 bound_to 10162
  156.0978  130.5945  150.9842 LP  0  0  0  0  0  0  0  0  0  0  0  0  # atno 17370 bound_to 10713
  157.6447  131.0905  150.8179 LP  0  0  0  0  0  0  0  0  0  0  0  0  # atno 17371 bound_to 10713
  139.9587  134.7490  156.0284 LP  0  0  0  0  0  0  0  0  0  0  0  0  # atno 17394 bound_to 11000
  141.1315  133.6585  156.3478 LP  0  0  0  0  0  0  0  0  0  0  0  0  # atno 17395 bound_to 11000

$$$$
