#       Name:                AV-unprocessed.smi:1103
#       Creating user name   scv26
#       Creation time:       Fri Mar 27 03:31:26 2020


#       File generated by GOLD software.
#

@<TRIPOS>MOLECULE
AV-unprocessed.smi:1103
    47    48     1
SMALL
NO_CHARGES


@<TRIPOS>ATOM
      1 ****        -5.2612  -1.3715  -0.4929 C.3            1 S1                 0.0000
      2 ****        -4.7665  -0.2207  -1.3806 C.3            1 S1                 0.0000
      3 ****        -3.2862  -0.1788  -1.4859 N.4            1 S1                 1.0000
      4 ****        -2.8317   0.5602  -2.6923 C.3            1 S1                 0.0000
      5 ****        -1.3067   0.4691  -2.8604 C.3            1 S1                 0.0000
      6 ****        -0.5849   0.9675  -1.6010 C.3            1 S1                 0.0000
      7 ****        -1.0876   0.2302  -0.3422 C.3            1 S1                 0.0000
      8 ****        -0.5994  -1.2346  -0.2353 C.3            1 S1                 0.0000
      9 ****         0.8559  -1.3403  -0.2143 N.am           1 S1                 0.0000
     10 ****         1.6263  -1.1187   0.8615 C.2            1 S1                 0.0000
     11 ****         1.1681  -0.8060   1.9615 O.2            1 S1                 0.0000
     12 ****         3.1367  -1.2780   0.6514 C.3            1 S1                 0.0000
     13 ****         3.9150  -0.5080   1.6079 N.pl3          1 S1                 0.0000
     14 ****         4.1320   0.8540   1.6390 C.2            1 S1                 0.0000
     15 ****         4.9215   1.1204   2.7214 C.2            1 S1                 0.0000
     16 ****         5.4390   2.4459   3.2012 C.3            1 S1                 0.0000
     17 ****         5.1403  -0.1645   3.2952 C.2            1 S1                 0.0000
     18 ****         4.5402  -1.1356   2.6268 N.2            1 S1                 0.0000
     19 ****        -2.6248   0.3282  -0.2526 C.3            1 S1                 0.0000
     20 ****        -6.3495  -1.4322  -0.5182 H              1 S1                 0.0000
     21 ****        -4.9711  -1.2408   0.5493 H              1 S1                 0.0000
     22 ****        -4.8699  -2.3298  -0.8355 H              1 S1                 0.0000
     23 ****        -5.1928  -0.3641  -2.3741 H              1 S1                 0.0000
     24 ****        -5.1447   0.7363  -1.0184 H              1 S1                 0.0000
     25 ****        -3.3123   0.1501  -3.5814 H              1 S1                 0.0000
     26 ****        -3.1406   1.6042  -2.6179 H              1 S1                 0.0000
     27 ****        -1.0184  -0.5605  -3.0746 H              1 S1                 0.0000
     28 ****        -0.9941   1.0583  -3.7228 H              1 S1                 0.0000
     29 ****         0.4944   0.8646  -1.7156 H              1 S1                 0.0000
     30 ****        -0.7728   2.0359  -1.4863 H              1 S1                 0.0000
     31 ****        -0.6881   0.7608   0.5233 H              1 S1                 0.0000
     32 ****        -1.0086  -1.7038   0.6611 H              1 S1                 0.0000
     33 ****        -0.9662  -1.8250  -1.0748 H              1 S1                 0.0000
     34 ****         1.3103  -1.5983  -1.0786 H              1 S1                 0.0000
     35 ****         3.4016  -2.3334   0.7318 H              1 S1                 0.0000
     36 ****         3.4110  -0.9519  -0.3527 H              1 S1                 0.0000
     37 ****         3.7068   1.5142   0.8972 H              1 S1                 0.0000
     38 ****         5.9741   2.3543   4.1467 H              1 S1                 0.0000
     39 ****         4.6303   3.1599   3.3582 H              1 S1                 0.0000
     40 ****         6.1282   2.8916   2.4839 H              1 S1                 0.0000
     41 ****         5.7149  -0.4189   4.1736 H              1 S1                 0.0000
     42 ****        -2.9186   1.3674  -0.0952 H              1 S1                 0.0000
     43 ****        -2.9680  -0.2232   0.6223 H              1 S1                 0.0000
     44 ****        -2.9830  -1.1341  -1.6108 H              1 S1                 0.0000
     45 ****         0.1804  -0.7070   2.0819 LP             1 S1                 0.0000
     46 ****         1.7840  -0.6512   2.7340 LP             1 S1                 0.0000
     47 ****         4.5477  -2.1146   2.8305 LP             1 S1                 0.0000
@<TRIPOS>BOND
    1    1    2 1     
    2    1   20 1     
    3    1   21 1     
    4    1   22 1     
    5    2    3 1     
    6    2   23 1     
    7    2   24 1     
    8    3   19 1     
    9    3    4 1     
   10    3   44 1     
   11    4    5 1     
   12    4   25 1     
   13    4   26 1     
   14    5    6 1     
   15    5   27 1     
   16    5   28 1     
   17    6    7 1     
   18    6   29 1     
   19    6   30 1     
   20    7    8 1     
   21    7   19 1     
   22    7   31 1     
   23    8    9 1     
   24    8   32 1     
   25    8   33 1     
   26    9   10 am    
   27    9   34 1     
   28   10   11 2     
   29   10   12 1     
   30   12   13 1     
   31   12   35 1     
   32   12   36 1     
   33   13   18 1     
   34   13   14 1     
   35   14   15 2     
   36   14   37 1     
   37   15   16 1     
   38   15   17 1     
   39   16   38 1     
   40   16   39 1     
   41   16   40 1     
   42   17   18 2     
   43   17   41 1     
   44   19   42 1     
   45   19   43 1     
   46   11   45 1     
   47   11   46 1     
   48   18   47 1     
@<TRIPOS>SUBSTRUCTURE
      1 S1             1
@<TRIPOS>SET
LONE_PAIRS      STATIC     ATOMS    <user>   **** ""
3 45 46 47
DONOR_HYDROGENS      STATIC     ATOMS    <user>   **** ""
2 44 34
ATOM$BLUE        STATIC     ATOMS    COLORGROUP SYSTEM
3 45 46 47
ATOM$RED        STATIC     ATOMS    COLORGROUP SYSTEM
2 44 34
