AV-unprocessed.smi:901|AV-procd|sdf|4093|dock9
  -GOLD-   22720 1583D 1   1.00000     0.00000
 Structure written by MMmdl.
 43 44  0  0  0  0  0  0  0  0  1 V2000
  151.4160  145.5856  160.5260 C   0  0  0  0  0  0  0  0  0  0  0  0
  151.4150  144.3078  159.7105 C   0  0  0  0  0  0  0  0  0  0  0  0
  150.8664  144.4540  158.3021 C   0  0  0  0  0  0  0  0  0  0  0  0
  151.8687  143.1452  160.2168 C   0  0  0  0  0  0  0  0  0  0  0  0
  151.9173  141.8319  159.5213 C   0  0  1  0  0  0  0  0  0  0  0  0
  152.3812  141.7381  158.0789 C   0  0  2  0  0  0  0  0  0  0  0  0
  151.6686  140.8036  157.1498 C   0  0  0  0  0  0  0  0  0  0  0  0
  151.9165  139.5983  157.0910 O   0  0  0  0  0  0  0  0  0  0  0  0
  150.7330  141.4175  156.4027 N   0  0  0  0  0  0  0  0  0  0  0  0
  149.8770  140.8382  155.4314 C   0  0  0  0  0  0  0  0  0  0  0  0
  150.3698  139.8622  154.5221 C   0  0  0  0  0  0  0  0  0  0  0  0
  149.2750  139.5580  153.7639 C   0  0  0  0  0  0  0  0  0  0  0  0
  148.2234  140.3267  154.2238 N   0  0  0  0  0  0  0  0  0  0  0  0
  146.8528  140.3633  153.7404 C   0  0  0  0  0  0  0  0  0  0  0  0
  146.5617  139.2398  152.7387 C   0  0  0  0  0  0  0  0  0  0  0  0
  146.1068  139.6072  151.5380 N   0  0  0  0  0  0  0  0  0  0  0  0
  146.7448  138.0598  153.0336 O   0  0  0  0  0  0  0  0  0  0  0  0
  148.5917  141.1143  155.2581 N   0  0  0  0  0  0  0  0  0  0  0  0
  153.2407  141.1581  159.1971 C   0  0  0  0  0  0  0  0  0  0  0  0
  154.5694  141.8416  159.4846 C   0  0  0  0  0  0  0  0  0  0  0  0
  153.3793  139.6614  159.4507 C   0  0  0  0  0  0  0  0  0  0  0  0
  152.0301  146.3438  160.0392 H   0  0  0  0  0  0  0  0  0  0  0  0
  151.8112  145.4221  161.5292 H   0  0  0  0  0  0  0  0  0  0  0  0
  150.4018  145.9745  160.6204 H   0  0  0  0  0  0  0  0  0  0  0  0
  149.8255  144.7756  158.3382 H   0  0  0  0  0  0  0  0  0  0  0  0
  150.9103  143.5233  157.7374 H   0  0  0  0  0  0  0  0  0  0  0  0
  151.4361  145.2044  157.7536 H   0  0  0  0  0  0  0  0  0  0  0  0
  152.2461  143.1389  161.2291 H   0  0  0  0  0  0  0  0  0  0  0  0
  151.0907  141.1913  159.8236 H   0  0  0  0  0  0  0  0  0  0  0  0
  152.7548  142.6532  157.6210 H   0  0  0  0  0  0  0  0  0  0  0  0
  150.6232  142.4106  156.5463 H   0  0  0  0  0  0  0  0  0  0  0  0
  151.3650  139.4518  154.4369 H   0  0  0  0  0  0  0  0  0  0  0  0
  149.1576  138.8683  152.9410 H   0  0  0  0  0  0  0  0  0  0  0  0
  146.1852  140.2869  154.5998 H   0  0  0  0  0  0  0  0  0  0  0  0
  146.6584  141.3270  153.2663 H   0  0  0  0  0  0  0  0  0  0  0  0
  145.8946  138.9079  150.8413 H   0  0  0  0  0  0  0  0  0  0  0  0
  145.9725  140.5868  151.3333 H   0  0  0  0  0  0  0  0  0  0  0  0
  155.3575  141.4120  158.8655 H   0  0  0  0  0  0  0  0  0  0  0  0
  154.8426  141.7167  160.5326 H   0  0  0  0  0  0  0  0  0  0  0  0
  154.5169  142.9097  159.2722 H   0  0  0  0  0  0  0  0  0  0  0  0
  153.9950  139.2021  158.6769 H   0  0  0  0  0  0  0  0  0  0  0  0
  152.4099  139.1643  159.4645 H   0  0  0  0  0  0  0  0  0  0  0  0
  153.8491  139.4821  160.4182 H   0  0  0  0  0  0  0  0  0  0  0  0
  1  2  1  0  0  0  0
  1 22  1  0  0  0  0
  1 23  1  0  0  0  0
  1 24  1  0  0  0  0
  2  3  1  0  0  0  0
  2  4  2  0  0  0  0
  3 25  1  0  0  0  0
  3 26  1  0  0  0  0
  3 27  1  0  0  0  0
  4  5  1  0  0  0  0
  4 28  1  0  0  0  0
  5 19  1  0  0  0  0
  5  6  1  0  0  0  0
  5 29  1  0  0  0  0
  6  7  1  0  0  0  0
  6 19  1  0  0  0  0
  6 30  1  0  0  0  0
  7  8  2  0  0  0  0
  7  9  1  0  0  0  0
  9 10  1  0  0  0  0
  9 31  1  0  0  0  0
 10 18  2  0  0  0  0
 10 11  1  0  0  0  0
 11 12  2  0  0  0  0
 11 32  1  0  0  0  0
 12 13  1  0  0  0  0
 12 33  1  0  0  0  0
 13 14  1  0  0  0  0
 13 18  1  0  0  0  0
 14 15  1  0  0  0  0
 14 34  1  0  0  0  0
 14 35  1  0  0  0  0
 15 16  1  0  0  0  0
 15 17  2  0  0  0  0
 16 36  1  0  0  0  0
 16 37  1  0  0  0  0
 19 20  1  0  0  0  0
 19 21  1  0  0  0  0
 20 38  1  0  0  0  0
 20 39  1  0  0  0  0
 20 40  1  0  0  0  0
 21 41  1  0  0  0  0
 21 42  1  0  0  0  0
 21 43  1  0  0  0  0
M  END
> <s_m_source_file>
AV-unprocessed.smi

> <i_m_source_file_index>
901

> <i_lp_mmshare_version>
43012

> <i_f3d_flags>
0

> <s_epik_input>
W0NIM11DKFtDSDNdKT1bQ0hdW0NAQEhdKEMxKFtDSDNdKVtDSDNdKVtDQEhdMUMoPU8pW05IXWMyW2NIXVtjSF1uKG4yKVtDSDJdQyg9TylbTkgyXQ==

> <s_epik_cmdline>
J2VwaWtfcHl0aG9uJywgJy1waCcsICc3LjAnLCAnLXRuJywgJzgnLCAnLW1hJywgJzIwMCcsICctbWV0YWxfYmluZGluZycsICctaW1hZScsICc8aW5maWxlLm1hZT4nLCAnLW9tYWUnLCAnPG91dGZpbGUubWFlPic=

> <r_lp_tautomer_probability>
1

> <r_epik_Ionization_Penalty>
1.01454e-05

> <r_epik_Ionization_Penalty_Charging>
0

> <r_epik_Ionization_Penalty_Neutral>
1.01454e-05

> <r_epik_State_Penalty>
-0

> <r_epik_Charging_Adjusted_Penalty>
0

> <i_epik_Tot_Q>
0

> <i_epik_Tot_abs_Q>
0

> <r_epik_Metal_State_Penalty>
-0

> <b_epik_Metal_Only>
0

> <s_lp_Force_Field>
OPLS_2005

> <r_lp_Energy>
18.0241

> <b_lp_Chiralities_Consistent>
1

> <s_lp_Variant>
AV-unprocessed.smi:901-4

> <Gold.Version>
5.8.1

> <Gold.Id.Protein>
6NUR|6NUR_protein|mol2

> <Gold.PLP.Fitness>
44.9575

> <Gold.PLP.PLP>
-43.2187

> <Gold.PLP.part.hbond>
-1.8145

> <Gold.PLP.part.metal>
0.0000

> <Gold.PLP.part.buried>
-3.2397

> <Gold.PLP.part.nonpolar>
-38.0494

> <Gold.PLP.part.repulsive>
0.5725

> <Gold.PLP.ligand.clash>
0.0000

> <Gold.PLP.ligand.torsion>
1.0336

> <Gold.PLP.Chemscore.Hbond>
0.0000

> <Gold.PLP.Chemscore.CHOScore>
1.2110

> <Gold.PLP.Chemscore.Metal>
0.0000

> <Gold.Chemscore.Hbonds>
donor molecule, donor type, donor heavy atom, donor atom, acceptor molecule, acceptor atom, score
      L1  H    16    36       P1 10171  0.21
      L1  C    12    33       P1  7948  0.28
      L1  C    12    33       P1  7957  0.52

> <Gold.PLP.Chemscore.Internal.Correction>
0.1731

> <Gold.Rescore>
     Score         DG    S(hbond)    S(metal)    S(lipo)     H(rot)  DE(clash)    DE(int)     intcor
      8.94     -12.70       0.00        0.00     108.30       2.13       0.06       3.70       ----

> <Gold.Chemscore.Fitness>
8.9362

> <Gold.Chemscore.DG>
-12.6958

> <Gold.Chemscore.ZeroCoef>
-5.4800

> <Gold.Chemscore.Hbond>
0.0000

> <Gold.Chemscore.Metal>
0.0000

> <Gold.Chemscore.Lipo>
108.2987

> <Gold.Chemscore.Internal_Hbond>
0.0000

> <Gold.Chemscore.DEClash>
0.0637

> <Gold.Chemscore.DEInternal>
3.6959

> <Gold.Chemscore.Rot>
2.1309

> <Gold.Chemscore.Internal.Correction>
   9.000000E+99

> <Gold.Chemscore.Hbonds>
donor molecule, donor type, donor heavy atom, donor atom, acceptor molecule, acceptor atom, score
      L1  H    16    36       P1 10171  0.20

> <Gold.Chemscore.Hbond.Weighted>
-0.0000

> <Gold.Chemscore.Metal.Weighted>
-0.0000

> <Gold.Chemscore.Lipo.Weighted>
-12.6709

> <Gold.Chemscore.Internal_Hbond.Weighted>
0.0000

> <Gold.Chemscore.DEClash.Weighted>
0.0637

> <Gold.Chemscore.DEInternal.Weighted>
3.6959

> <Gold.Chemscore.Rot.Weighted>
5.4552

> <Gold.Chemscore.Internal.Correction.Weighted>
   9.000000E+99

> <Gold.Protein.RotatedTorsions>
[ 6907 6896 6895 6894 ] final -148.12 input  -60.11 | X-H torsion
[ 7974 7965 7964 7962 ] final   45.56 input  175.53 | X-H torsion
[ 8008 7997 7996 7995 ] final  -58.31 input   59.86 | X-H torsion
[ 10167 10162 10161 10158 ] final  155.47 input  -65.29 | X-H torsion
[ 10718 10713 10712 10709 ] final  -31.33 input   66.30 | X-H torsion
[ 10763 10752 10751 10750 ] final  110.55 input  -60.55 | X-H torsion
[ 11005 11000 10999 10996 ] final  -95.41 input  -57.11 | X-H torsion

> <Gold.Protein.ActiveResidues>
 VAL166  LYS551  ARG553  GLY616  TRP617  ASP618  TYR619  PRO620  LYS621  CYS622 
 ASP623  PHE694  ASN695  SER759  ASP760  ASP761  ALA762  ILE779  LEU786  VAL792 
 PHE793  MET794  SER795  GLU796  ALA797  LYS798  CYS799  TRP800  GLU811  SER814 

> <Gold.Protein.RotatedAtoms>
  151.1654  133.4818  159.2593 H   0  0  0  0  0  0  0  0  0  0  0  0  # atno 6907 bound_to 6896
  151.1411  135.0180  159.8636 H   0  0  0  0  0  0  0  0  0  0  0  0  # atno 6908 bound_to 6896
  152.5462  134.1547  159.8586 H   0  0  0  0  0  0  0  0  0  0  0  0  # atno 6909 bound_to 6896
  146.0469  139.4951  142.9743 H   0  0  0  0  0  0  0  0  0  0  0  0  # atno 7974 bound_to 7965
  154.4304  140.1087  156.5937 H   0  0  0  0  0  0  0  0  0  0  0  0  # atno 8008 bound_to 7997
  155.5984  140.3493  155.4568 H   0  0  0  0  0  0  0  0  0  0  0  0  # atno 8009 bound_to 7997
  156.0192  140.1236  157.0364 H   0  0  0  0  0  0  0  0  0  0  0  0  # atno 8010 bound_to 7997
  139.4821  144.5096  151.8045 H   0  0  0  0  0  0  0  0  0  0  0  0  # atno 10167 bound_to 10162
  156.3886  130.4369  149.7412 H   0  0  0  0  0  0  0  0  0  0  0  0  # atno 10718 bound_to 10713
  153.4506  135.3745  155.2281 H   0  0  0  0  0  0  0  0  0  0  0  0  # atno 10763 bound_to 10752
  154.8756  135.3885  154.4043 H   0  0  0  0  0  0  0  0  0  0  0  0  # atno 10764 bound_to 10752
  153.4602  135.7086  153.6119 H   0  0  0  0  0  0  0  0  0  0  0  0  # atno 10765 bound_to 10752
  141.1443  133.8024  157.0431 H   0  0  0  0  0  0  0  0  0  0  0  0  # atno 11005 bound_to 11000
  145.6790  141.0196  143.1616 LP  0  0  0  0  0  0  0  0  0  0  0  0  # atno 17320 bound_to 7965
  144.7102  139.8399  143.7417 LP  0  0  0  0  0  0  0  0  0  0  0  0  # atno 17321 bound_to 7965
  140.4597  144.1739  150.5905 LP  0  0  0  0  0  0  0  0  0  0  0  0  # atno 17342 bound_to 10162
  140.4497  143.2492  151.9364 LP  0  0  0  0  0  0  0  0  0  0  0  0  # atno 17343 bound_to 10162
  156.4474  130.7890  151.2912 LP  0  0  0  0  0  0  0  0  0  0  0  0  # atno 17370 bound_to 10713
  157.7497  131.0106  150.3312 LP  0  0  0  0  0  0  0  0  0  0  0  0  # atno 17371 bound_to 10713
  140.0680  134.9718  157.1419 LP  0  0  0  0  0  0  0  0  0  0  0  0  # atno 17394 bound_to 11000
  140.3752  134.2347  155.7175 LP  0  0  0  0  0  0  0  0  0  0  0  0  # atno 17395 bound_to 11000

$$$$
