AV-unprocessed.smi:3287|AV-procd|sdf|12596|dock3
  -GOLD-   2272018523D 1   1.00000     0.00000
 Structure written by MMmdl.
 43 44  0  0  0  0  0  0  0  0  2 V2000
  152.3772  143.5466  161.8885 C   0  0  0  0  0  0  0  0  0  0  0  0
  152.5895  143.5401  160.3642 C   0  0  2  0  0  0  0  0  0  0  0  0
  151.7608  144.6682  159.7171 C   0  0  0  0  0  0  0  0  0  0  0  0
  151.9442  144.7181  158.1930 C   0  0  0  0  0  0  0  0  0  0  0  0
  151.5998  143.3705  157.5292 C   0  0  2  0  0  0  0  0  0  0  0  0
  150.1524  143.0621  157.5925 N   0  3  0  0  0  0  0  0  0  0  0  0
  149.7600  141.7288  157.0872 C   0  0  0  0  0  0  0  0  0  0  0  0
  150.1321  141.5625  155.6037 C   0  0  1  0  0  0  0  0  0  0  0  0
  151.3386  140.8287  155.5183 O   0  0  0  0  0  0  0  0  0  0  0  0
  149.0092  140.8934  154.8271 C   0  0  0  0  0  0  0  0  0  0  0  0
  149.1200  139.5566  154.3864 C   0  0  0  0  0  0  0  0  0  0  0  0
  148.0434  138.9900  153.6752 C   0  0  0  0  0  0  0  0  0  0  0  0
  146.9059  139.6608  153.3942 N   0  0  0  0  0  0  0  0  0  0  0  0
  146.8040  140.9378  153.8199 C   0  0  0  0  0  0  0  0  0  0  0  0
  147.8214  141.5976  154.5381 C   0  0  0  0  0  0  0  0  0  0  0  0
  152.4182  142.2386  158.1772 C   0  0  0  0  0  0  0  0  0  0  0  0
  152.2573  142.1714  159.7128 C   0  0  1  0  0  0  0  0  0  0  0  0
  153.1104  141.0195  160.2736 C   0  0  0  0  0  0  0  0  0  0  0  0
  151.3570  143.2626  162.1489 H   0  0  0  0  0  0  0  0  0  0  0  0
  152.5603  144.5377  162.3044 H   0  0  0  0  0  0  0  0  0  0  0  0
  153.0567  142.8623  162.3955 H   0  0  0  0  0  0  0  0  0  0  0  0
  153.6429  143.7573  160.1795 H   0  0  0  0  0  0  0  0  0  0  0  0
  150.7045  144.5358  159.9553 H   0  0  0  0  0  0  0  0  0  0  0  0
  152.0492  145.6299  160.1430 H   0  0  0  0  0  0  0  0  0  0  0  0
  151.3544  145.5309  157.7708 H   0  0  0  0  0  0  0  0  0  0  0  0
  152.9835  144.9655  157.9727 H   0  0  0  0  0  0  0  0  0  0  0  0
  151.8772  143.4169  156.4751 H   0  0  0  0  0  0  0  0  0  0  0  0
  149.8695  143.1118  158.5607 H   0  0  0  0  0  0  0  0  0  0  0  0
  150.2327  140.9445  157.6784 H   0  0  0  0  0  0  0  0  0  0  0  0
  148.6819  141.6154  157.2090 H   0  0  0  0  0  0  0  0  0  0  0  0
  150.3170  142.5445  155.1655 H   0  0  0  0  0  0  0  0  0  0  0  0
  151.1587  139.9286  155.7462 H   0  0  0  0  0  0  0  0  0  0  0  0
  150.0076  138.9741  154.5864 H   0  0  0  0  0  0  0  0  0  0  0  0
  148.0970  137.9701  153.3243 H   0  0  0  0  0  0  0  0  0  0  0  0
  145.8834  141.4500  153.5818 H   0  0  0  0  0  0  0  0  0  0  0  0
  147.6868  142.6209  154.8564 H   0  0  0  0  0  0  0  0  0  0  0  0
  152.1415  141.2833  157.7289 H   0  0  0  0  0  0  0  0  0  0  0  0
  153.4724  142.3860  157.9371 H   0  0  0  0  0  0  0  0  0  0  0  0
  151.2147  141.9367  159.9315 H   0  0  0  0  0  0  0  0  0  0  0  0
  154.1757  141.2222  160.1591 H   0  0  0  0  0  0  0  0  0  0  0  0
  152.8945  140.0843  159.7562 H   0  0  0  0  0  0  0  0  0  0  0  0
  152.9135  140.8463  161.3313 H   0  0  0  0  0  0  0  0  0  0  0  0
  149.6469  143.7688  157.0770 H   0  0  0  0  0  0  0  0  0  0  0  0
  1  2  1  0  0  0  0
  1 19  1  0  0  0  0
  1 20  1  0  0  0  0
  1 21  1  0  0  0  0
  2 17  1  0  0  0  0
  2  3  1  0  0  0  0
  2 22  1  0  0  0  0
  3  4  1  0  0  0  0
  3 23  1  0  0  0  0
  3 24  1  0  0  0  0
  4  5  1  0  0  0  0
  4 25  1  0  0  0  0
  4 26  1  0  0  0  0
  5  6  1  0  0  0  0
  5 16  1  0  0  0  0
  5 27  1  0  0  0  0
  6  7  1  0  0  0  0
  6 28  1  0  0  0  0
  6 43  1  0  0  0  0
  7  8  1  0  0  0  0
  7 29  1  0  0  0  0
  7 30  1  0  0  0  0
  8  9  1  0  0  0  0
  8 10  1  0  0  0  0
  8 31  1  0  0  0  0
  9 32  1  0  0  0  0
 10 15  1  0  0  0  0
 10 11  2  0  0  0  0
 11 12  1  0  0  0  0
 11 33  1  0  0  0  0
 12 13  2  0  0  0  0
 12 34  1  0  0  0  0
 13 14  1  0  0  0  0
 14 15  2  0  0  0  0
 14 35  1  0  0  0  0
 15 36  1  0  0  0  0
 16 17  1  0  0  0  0
 16 37  1  0  0  0  0
 16 38  1  0  0  0  0
 17 18  1  0  0  0  0
 17 39  1  0  0  0  0
 18 40  1  0  0  0  0
 18 41  1  0  0  0  0
 18 42  1  0  0  0  0
M  CHG  1   6   1
M  END
> <s_m_source_file>
AV-unprocessed.smi

> <i_m_source_file_index>
3287

> <i_lp_mmshare_version>
43012

> <i_f3d_flags>
0

> <s_epik_input>
W0NIM11bQ0BASF0xW0NIMl1bQ0gyXVtDQEhdKFtDSDJdW0NASF0xW0NIM10pW05IXVtDSDJdW0NASF0oW09IXSljMltjSF1bY0hdbltjSF1bY0hdMg==

> <s_epik_cmdline>
J2VwaWtfcHl0aG9uJywgJy1waCcsICc3LjAnLCAnLXRuJywgJzgnLCAnLW1hJywgJzIwMCcsICctbWV0YWxfYmluZGluZycsICctaW1hZScsICc8aW5maWxlLm1hZT4nLCAnLW9tYWUnLCAnPG91dGZpbGUubWFlPic=

> <r_lp_tautomer_probability>
1

> <r_epik_Ionization_Penalty>
0.00537262

> <r_epik_Ionization_Penalty_Charging>
0.00321624

> <r_epik_Ionization_Penalty_Neutral>
0.00215638

> <r_epik_State_Penalty>
-0

> <r_epik_Charging_Adjusted_Penalty>
0.00321624

> <i_epik_Tot_Q>
1

> <i_epik_Tot_abs_Q>
1

> <r_epik_Metal_State_Penalty>
-0

> <b_epik_Metal_Only>
0

> <s_lp_Force_Field>
OPLS_2005

> <r_lp_Energy>
19.2096

> <b_lp_Chiralities_Consistent>
1

> <s_lp_Variant>
AV-unprocessed.smi:3287-7

> <Gold.Version>
5.8.1

> <Gold.Id.Protein>
6NUR|6NUR_protein|mol2

> <Gold.PLP.Fitness>
54.4345

> <Gold.PLP.PLP>
-42.8915

> <Gold.PLP.part.hbond>
-2.0000

> <Gold.PLP.part.metal>
0.0000

> <Gold.PLP.part.buried>
-5.0195

> <Gold.PLP.part.nonpolar>
-36.0825

> <Gold.PLP.part.repulsive>
0.2278

> <Gold.PLP.ligand.clash>
0.0000

> <Gold.PLP.ligand.torsion>
0.9225

> <Gold.PLP.Chemscore.Hbond>
2.7137

> <Gold.PLP.Chemscore.CHOScore>
1.7447

> <Gold.PLP.Chemscore.Metal>
0.0000

> <Gold.Chemscore.Hbonds>
donor molecule, donor type, donor heavy atom, donor atom, acceptor molecule, acceptor atom, score
      L1  H     6    43       P1  8028  2.00
      P1  H  7989  7998       L1     9  0.70
      L1  C    12    34       P1  7948  1.00
      L1  C    14    35       P1 10175  0.74

> <Gold.PLP.Chemscore.Internal.Correction>
0.0129

> <Gold.Rescore>
     Score         DG    S(hbond)    S(metal)    S(lipo)     H(rot)  DE(clash)    DE(int)     intcor
     19.16     -21.03       1.40        0.00     134.72       1.90       0.90       0.98       ----

> <Gold.Chemscore.Fitness>
19.1620

> <Gold.Chemscore.DG>
-21.0349

> <Gold.Chemscore.ZeroCoef>
-5.4800

> <Gold.Chemscore.Hbond>
1.3969

> <Gold.Chemscore.Metal>
0.0000

> <Gold.Chemscore.Lipo>
134.7180

> <Gold.Chemscore.Internal_Hbond>
0.0000

> <Gold.Chemscore.DEClash>
0.8976

> <Gold.Chemscore.DEInternal>
0.9753

> <Gold.Chemscore.Rot>
1.9035

> <Gold.Chemscore.Internal.Correction>
   9.000000E+99

> <Gold.Chemscore.Hbonds>
donor molecule, donor type, donor heavy atom, donor atom, acceptor molecule, acceptor atom, score
      L1  H     6    43       P1  8028  0.88
      P1  H  7989  7998       L1     9  0.11

> <Gold.Chemscore.Hbond.Weighted>
-4.6658

> <Gold.Chemscore.Metal.Weighted>
-0.0000

> <Gold.Chemscore.Lipo.Weighted>
-15.7620

> <Gold.Chemscore.Internal_Hbond.Weighted>
0.0000

> <Gold.Chemscore.DEClash.Weighted>
0.8976

> <Gold.Chemscore.DEInternal.Weighted>
0.9753

> <Gold.Chemscore.Rot.Weighted>
4.8729

> <Gold.Chemscore.Internal.Correction.Weighted>
   9.000000E+99

> <Gold.Protein.RotatedTorsions>
[ 6907 6896 6895 6894 ] final  -47.50 input  -60.11 | X-H torsion
[ 7974 7965 7964 7962 ] final  119.67 input  175.53 | X-H torsion
[ 8008 7997 7996 7995 ] final  -71.03 input   59.86 | X-H torsion
[ 10167 10162 10161 10158 ] final -174.73 input  -65.29 | X-H torsion
[ 10718 10713 10712 10709 ] final -127.32 input   66.30 | X-H torsion
[ 10763 10752 10751 10750 ] final  139.89 input  -60.55 | X-H torsion
[ 11005 11000 10999 10996 ] final   41.07 input  -57.11 | X-H torsion

> <Gold.Protein.ActiveResidues>
 VAL166  LYS551  ARG553  GLY616  TRP617  ASP618  TYR619  PRO620  LYS621  CYS622 
 ASP623  PHE694  ASN695  SER759  ASP760  ASP761  ALA762  ILE779  LEU786  VAL792 
 PHE793  MET794  SER795  GLU796  ALA797  LYS798  CYS799  TRP800  GLU811  SER814 

> <Gold.Protein.RotatedAtoms>
  150.9002  134.8413  159.7354 H   0  0  0  0  0  0  0  0  0  0  0  0  # atno 6907 bound_to 6896
  152.4888  134.4515  159.9586 H   0  0  0  0  0  0  0  0  0  0  0  0  # atno 6908 bound_to 6896
  151.4567  133.3564  159.2838 H   0  0  0  0  0  0  0  0  0  0  0  0  # atno 6909 bound_to 6896
  145.1403  139.3272  143.4619 H   0  0  0  0  0  0  0  0  0  0  0  0  # atno 7974 bound_to 7965
  154.5057  140.0823  156.7889 H   0  0  0  0  0  0  0  0  0  0  0  0  # atno 8008 bound_to 7997
  155.3900  140.3432  155.4233 H   0  0  0  0  0  0  0  0  0  0  0  0  # atno 8009 bound_to 7997
  156.1512  140.1559  156.8754 H   0  0  0  0  0  0  0  0  0  0  0  0  # atno 8010 bound_to 7997
  139.5618  144.1851  152.1251 H   0  0  0  0  0  0  0  0  0  0  0  0  # atno 10167 bound_to 10162
  156.1846  130.6755  151.0348 H   0  0  0  0  0  0  0  0  0  0  0  0  # atno 10718 bound_to 10713
  153.9137  135.3008  155.3448 H   0  0  0  0  0  0  0  0  0  0  0  0  # atno 10763 bound_to 10752
  154.7610  135.4934  153.9468 H   0  0  0  0  0  0  0  0  0  0  0  0  # atno 10764 bound_to 10752
  153.1179  135.6775  153.9488 H   0  0  0  0  0  0  0  0  0  0  0  0  # atno 10765 bound_to 10752
  140.1869  134.4034  155.8168 H   0  0  0  0  0  0  0  0  0  0  0  0  # atno 11005 bound_to 11000
  146.3506  140.1437  142.8594 LP  0  0  0  0  0  0  0  0  0  0  0  0  # atno 17320 bound_to 7965
  145.0539  140.9038  143.4979 LP  0  0  0  0  0  0  0  0  0  0  0  0  # atno 17321 bound_to 7965
  140.1366  144.5240  150.6770 LP  0  0  0  0  0  0  0  0  0  0  0  0  # atno 17342 bound_to 10162
  140.6899  143.2370  151.5160 LP  0  0  0  0  0  0  0  0  0  0  0  0  # atno 17343 bound_to 10162
  157.6890  131.0816  150.7161 LP  0  0  0  0  0  0  0  0  0  0  0  0  # atno 17370 bound_to 10713
  156.7218  130.4683  149.5521 LP  0  0  0  0  0  0  0  0  0  0  0  0  # atno 17371 bound_to 10713
  141.2225  133.7027  156.8029 LP  0  0  0  0  0  0  0  0  0  0  0  0  # atno 17394 bound_to 11000
  140.2203  134.8762  157.3370 LP  0  0  0  0  0  0  0  0  0  0  0  0  # atno 17395 bound_to 11000

$$$$
