AV-unprocessed.smi:2110|AV-procd|sdf|8610|dock8
  -GOLD-   2272011353D 1   1.00000     0.00000
 Structure written by MMmdl.
 45 46  0  0  0  0  0  0  0  0  2 V2000
  153.3193  137.7484  160.9063 C   0  0  0  0  0  0  0  0  0  0  0  0
  153.2973  138.5384  159.5874 C   0  0  0  0  0  0  0  0  0  0  0  0
  154.1648  137.9507  158.5462 N   0  0  0  0  0  0  0  0  0  0  0  0
  155.5976  137.8062  158.8738 C   0  0  0  0  0  0  0  0  0  0  0  0
  156.0236  136.3448  159.0809 C   0  0  0  0  0  0  0  0  0  0  0  0
  153.4771  137.0783  157.2044 S   0  0  0  0  0  0  0  0  0  0  0  0
  154.4926  136.0968  156.7874 O   0  0  0  0  0  0  0  0  0  0  0  0
  152.1763  136.5667  157.6659 O   0  0  0  0  0  0  0  0  0  0  0  0
  153.3380  138.3339  156.1905 N   0  5  0  0  0  0  0  0  0  0  0  0
  152.0989  138.5185  155.4593 C   0  0  0  0  0  0  0  0  0  0  0  0
  151.3930  139.8055  155.8659 C   0  0  0  0  0  0  0  0  0  0  0  0
  150.1960  140.2027  155.2299 C   0  0  0  0  0  0  0  0  0  0  0  0
  149.5861  141.4018  155.6404 C   0  0  0  0  0  0  0  0  0  0  0  0
  150.0800  142.1884  156.6187 N   0  0  0  0  0  0  0  0  0  0  0  0
  151.2234  141.8151  157.2448 C   0  0  0  0  0  0  0  0  0  0  0  0
  151.7213  142.6431  158.2749 N   0  0  0  0  0  0  0  0  0  0  0  0
  152.0755  141.9603  159.5169 C   0  0  0  0  0  0  0  0  0  0  0  0
  152.8799  142.8983  160.4332 C   0  0  0  0  0  0  0  0  0  0  0  0
  152.1499  144.1007  160.6542 O   0  0  0  0  0  0  0  0  0  0  0  0
  151.9123  144.8052  159.4400 C   0  0  0  0  0  0  0  0  0  0  0  0
  151.0711  143.9343  158.4916 C   0  0  0  0  0  0  0  0  0  0  0  0
  151.9140  140.6314  156.8888 C   0  0  0  0  0  0  0  0  0  0  0  0
  152.7310  138.2591  161.6682 H   0  0  0  0  0  0  0  0  0  0  0  0
  154.3301  137.6297  161.2948 H   0  0  0  0  0  0  0  0  0  0  0  0
  152.8921  136.7533  160.7826 H   0  0  0  0  0  0  0  0  0  0  0  0
  152.2765  138.5806  159.2075 H   0  0  0  0  0  0  0  0  0  0  0  0
  153.5936  139.5717  159.7703 H   0  0  0  0  0  0  0  0  0  0  0  0
  156.1979  138.2487  158.0796 H   0  0  0  0  0  0  0  0  0  0  0  0
  155.8130  138.3826  159.7738 H   0  0  0  0  0  0  0  0  0  0  0  0
  157.0968  136.2832  159.2599 H   0  0  0  0  0  0  0  0  0  0  0  0
  155.8035  135.7332  158.2064 H   0  0  0  0  0  0  0  0  0  0  0  0
  155.5268  135.8979  159.9414 H   0  0  0  0  0  0  0  0  0  0  0  0
  152.2693  138.5704  154.3835 H   0  0  0  0  0  0  0  0  0  0  0  0
  151.4186  137.6789  155.6069 H   0  0  0  0  0  0  0  0  0  0  0  0
  149.7496  139.6168  154.4381 H   0  0  0  0  0  0  0  0  0  0  0  0
  148.6737  141.7385  155.1711 H   0  0  0  0  0  0  0  0  0  0  0  0
  151.1590  141.6461  160.0179 H   0  0  0  0  0  0  0  0  0  0  0  0
  152.6592  141.0595  159.3328 H   0  0  0  0  0  0  0  0  0  0  0  0
  153.0663  142.4156  161.3927 H   0  0  0  0  0  0  0  0  0  0  0  0
  153.8542  143.1256  159.9973 H   0  0  0  0  0  0  0  0  0  0  0  0
  151.3850  145.7324  159.6645 H   0  0  0  0  0  0  0  0  0  0  0  0
  152.8602  145.0818  158.9755 H   0  0  0  0  0  0  0  0  0  0  0  0
  150.9407  144.4557  157.5425 H   0  0  0  0  0  0  0  0  0  0  0  0
  150.0789  143.7732  158.9153 H   0  0  0  0  0  0  0  0  0  0  0  0
  152.8376  140.3713  157.3874 H   0  0  0  0  0  0  0  0  0  0  0  0
  1  2  1  0  0  0  0
  1 23  1  0  0  0  0
  1 24  1  0  0  0  0
  1 25  1  0  0  0  0
  2  3  1  0  0  0  0
  2 26  1  0  0  0  0
  2 27  1  0  0  0  0
  3  4  1  0  0  0  0
  3  6  1  0  0  0  0
  4  5  1  0  0  0  0
  4 28  1  0  0  0  0
  4 29  1  0  0  0  0
  5 30  1  0  0  0  0
  5 31  1  0  0  0  0
  5 32  1  0  0  0  0
  6  7  2  0  0  0  0
  6  8  2  0  0  0  0
  6  9  1  0  0  0  0
  9 10  1  0  0  0  0
 10 11  1  0  0  0  0
 10 33  1  0  0  0  0
 10 34  1  0  0  0  0
 11 22  1  0  0  0  0
 11 12  2  0  0  0  0
 12 13  1  0  0  0  0
 12 35  1  0  0  0  0
 13 14  2  0  0  0  0
 13 36  1  0  0  0  0
 14 15  1  0  0  0  0
 15 16  1  0  0  0  0
 15 22  2  0  0  0  0
 16 21  1  0  0  0  0
 16 17  1  0  0  0  0
 17 18  1  0  0  0  0
 17 37  1  0  0  0  0
 17 38  1  0  0  0  0
 18 19  1  0  0  0  0
 18 39  1  0  0  0  0
 18 40  1  0  0  0  0
 19 20  1  0  0  0  0
 20 21  1  0  0  0  0
 20 41  1  0  0  0  0
 20 42  1  0  0  0  0
 21 43  1  0  0  0  0
 21 44  1  0  0  0  0
 22 45  1  0  0  0  0
M  CHG  1   9  -1
M  END
> <s_m_source_file>
AV-unprocessed.smi

> <i_m_source_file_index>
2110

> <i_lp_mmshare_version>
43012

> <i_f3d_flags>
0

> <s_epik_input>
W0NIM11bQ0gyXU4oW0NIMl1bQ0gzXSlTKD1PKSg9TylbTkhdW0NIMl1jMVtjSF1bY0hdbmMoW2NIXTEpTjJbQ0gyXVtDSDJdT1tDSDJdW0NIMl0y

> <s_epik_cmdline>
J2VwaWtfcHl0aG9uJywgJy1waCcsICc3LjAnLCAnLXRuJywgJzgnLCAnLW1hJywgJzIwMCcsICctbWV0YWxfYmluZGluZycsICctaW1hZScsICc8aW5maWxlLm1hZT4nLCAnLW9tYWUnLCAnPG91dGZpbGUubWFlPic=

> <r_lp_tautomer_probability>
1

> <r_epik_Ionization_Penalty>
2.67693

> <r_epik_Ionization_Penalty_Charging>
2.41478

> <r_epik_Ionization_Penalty_Neutral>
0.262148

> <r_epik_State_Penalty>
2.66454

> <r_epik_Charging_Adjusted_Penalty>
5.07933

> <i_epik_Tot_Q>
-1

> <i_epik_Tot_abs_Q>
1

> <r_epik_Metal_State_Penalty>
0.588443

> <b_epik_Metal_Only>
0

> <s_lp_Force_Field>
OPLS_2005

> <r_lp_Energy>
11.2641

> <b_lp_Chiralities_Consistent>
1

> <s_lp_Variant>
AV-unprocessed.smi:2110-3

> <Gold.Version>
5.8.1

> <Gold.Id.Protein>
6NUR|6NUR_protein|mol2

> <Gold.PLP.Fitness>
43.2017

> <Gold.PLP.PLP>
-35.3348

> <Gold.PLP.part.hbond>
-2.0000

> <Gold.PLP.part.metal>
0.0000

> <Gold.PLP.part.buried>
-6.6812

> <Gold.PLP.part.nonpolar>
-28.6940

> <Gold.PLP.part.repulsive>
1.3000

> <Gold.PLP.ligand.clash>
0.0000

> <Gold.PLP.ligand.torsion>
1.9650

> <Gold.PLP.Chemscore.Hbond>
2.6960

> <Gold.PLP.Chemscore.CHOScore>
0.0000

> <Gold.PLP.Chemscore.Metal>
0.0000

> <Gold.Chemscore.Hbonds>
donor molecule, donor type, donor heavy atom, donor atom, acceptor molecule, acceptor atom, score
      P1  H  7997  8008       L1     9  1.65
      P1  H 10752 10763       L1     7  1.00

> <Gold.PLP.Chemscore.Internal.Correction>
3.7089

> <Gold.Rescore>
     Score         DG    S(hbond)    S(metal)    S(lipo)     H(rot)  DE(clash)    DE(int)     intcor
     13.88     -17.13       1.53        0.00      92.38       1.66       0.02       3.23       ----

> <Gold.Chemscore.Fitness>
13.8798

> <Gold.Chemscore.DG>
-17.1284

> <Gold.Chemscore.ZeroCoef>
-5.4800

> <Gold.Chemscore.Hbond>
1.5271

> <Gold.Chemscore.Metal>
0.0000

> <Gold.Chemscore.Lipo>
92.3793

> <Gold.Chemscore.Internal_Hbond>
0.0000

> <Gold.Chemscore.DEClash>
0.0153

> <Gold.Chemscore.DEInternal>
3.2334

> <Gold.Chemscore.Rot>
1.6642

> <Gold.Chemscore.Internal.Correction>
   9.000000E+99

> <Gold.Chemscore.Hbonds>
donor molecule, donor type, donor heavy atom, donor atom, acceptor molecule, acceptor atom, score
      P1  H  7997  8008       L1     9  0.60
      P1  H 10752 10763       L1     7  0.93

> <Gold.Chemscore.Hbond.Weighted>
-5.1004

> <Gold.Chemscore.Metal.Weighted>
-0.0000

> <Gold.Chemscore.Lipo.Weighted>
-10.8084

> <Gold.Chemscore.Internal_Hbond.Weighted>
0.0000

> <Gold.Chemscore.DEClash.Weighted>
0.0153

> <Gold.Chemscore.DEInternal.Weighted>
3.2334

> <Gold.Chemscore.Rot.Weighted>
4.2604

> <Gold.Chemscore.Internal.Correction.Weighted>
   9.000000E+99

> <Gold.Protein.RotatedTorsions>
[ 6907 6896 6895 6894 ] final  -25.01 input  -60.11 | X-H torsion
[ 7974 7965 7964 7962 ] final   24.99 input  175.53 | X-H torsion
[ 8008 7997 7996 7995 ] final  -41.64 input   59.86 | X-H torsion
[ 10167 10162 10161 10158 ] final  172.55 input  -65.29 | X-H torsion
[ 10718 10713 10712 10709 ] final   70.59 input   66.30 | X-H torsion
[ 10763 10752 10751 10750 ] final  166.49 input  -60.55 | X-H torsion
[ 11005 11000 10999 10996 ] final -123.98 input  -57.11 | X-H torsion

> <Gold.Protein.ActiveResidues>
 VAL166  LYS551  ARG553  GLY616  TRP617  ASP618  TYR619  PRO620  LYS621  CYS622 
 ASP623  PHE694  ASN695  SER759  ASP760  ASP761  ALA762  ILE779  LEU786  VAL792 
 PHE793  MET794  SER795  GLU796  ALA797  LYS798  CYS799  TRP800  GLU811  SER814 

> <Gold.Protein.RotatedAtoms>
  151.1813  135.0362  159.8793 H   0  0  0  0  0  0  0  0  0  0  0  0  # atno 6907 bound_to 6896
  152.5444  134.1060  159.8348 H   0  0  0  0  0  0  0  0  0  0  0  0  # atno 6908 bound_to 6896
  151.1177  133.5080  159.2635 H   0  0  0  0  0  0  0  0  0  0  0  0  # atno 6909 bound_to 6896
  146.1911  139.7528  142.8831 H   0  0  0  0  0  0  0  0  0  0  0  0  # atno 7974 bound_to 7965
  154.4003  140.1494  156.3224 H   0  0  0  0  0  0  0  0  0  0  0  0  # atno 8008 bound_to 7997
  155.8518  140.3457  155.5677 H   0  0  0  0  0  0  0  0  0  0  0  0  # atno 8009 bound_to 7997
  155.7976  140.0865  157.1965 H   0  0  0  0  0  0  0  0  0  0  0  0  # atno 8010 bound_to 7997
  139.5080  144.3361  152.0063 H   0  0  0  0  0  0  0  0  0  0  0  0  # atno 10167 bound_to 10162
  157.6408  130.9485  150.0672 H   0  0  0  0  0  0  0  0  0  0  0  0  # atno 10718 bound_to 10713
  154.3398  135.2754  155.2428 H   0  0  0  0  0  0  0  0  0  0  0  0  # atno 10763 bound_to 10752
  154.4704  135.5884  153.6321 H   0  0  0  0  0  0  0  0  0  0  0  0  # atno 10764 bound_to 10752
  152.9858  135.6087  154.3598 H   0  0  0  0  0  0  0  0  0  0  0  0  # atno 10765 bound_to 10752
  140.9877  134.0584  157.3692 H   0  0  0  0  0  0  0  0  0  0  0  0  # atno 11005 bound_to 11000
  145.3790  141.0355  143.3188 LP  0  0  0  0  0  0  0  0  0  0  0  0  # atno 17320 bound_to 7965
  144.8488  139.5354  143.6866 LP  0  0  0  0  0  0  0  0  0  0  0  0  # atno 17321 bound_to 7965
  140.2800  144.3870  150.6122 LP  0  0  0  0  0  0  0  0  0  0  0  0  # atno 17342 bound_to 10162
  140.6025  143.2167  151.7045 LP  0  0  0  0  0  0  0  0  0  0  0  0  # atno 17343 bound_to 10162
  156.1687  130.3646  149.9196 LP  0  0  0  0  0  0  0  0  0  0  0  0  # atno 17370 bound_to 10713
  156.7176  130.8994  151.3615 LP  0  0  0  0  0  0  0  0  0  0  0  0  # atno 17371 bound_to 10713
  139.8978  135.0152  156.7117 LP  0  0  0  0  0  0  0  0  0  0  0  0  # atno 17394 bound_to 11000
  140.7089  133.9240  155.8072 LP  0  0  0  0  0  0  0  0  0  0  0  0  # atno 17395 bound_to 11000

$$$$
