AV-unprocessed.smi:2706|AV-procd|sdf|10449|dock4
  -GOLD-   2272014493D 1   1.00000     0.00000
 Structure written by MMmdl.
 44 47  0  0  0  0  0  0  0  0  2 V2000
  151.4551  139.4052  155.2786 C   0  0  0  0  0  0  0  0  0  0  0  0
  150.5270  140.5206  155.4300 N   0  0  0  0  0  0  0  0  0  0  0  0
  150.9052  141.6870  156.2177 C   0  0  0  0  0  0  0  0  0  0  0  0
  149.3102  140.5238  154.7154 C   0  0  0  0  0  0  0  0  0  0  0  0
  148.5249  141.6858  154.5275 C   0  0  0  0  0  0  0  0  0  0  0  0
  147.3241  141.6026  153.7969 C   0  0  0  0  0  0  0  0  0  0  0  0
  146.9182  140.3638  153.2640 C   0  0  0  0  0  0  0  0  0  0  0  0
  147.7241  139.2172  153.4756 C   0  0  0  0  0  0  0  0  0  0  0  0
  147.4361  137.9110  152.9898 N   0  0  0  0  0  0  0  0  0  0  0  0
  146.2580  137.2663  152.9095 C   0  0  0  0  0  0  0  0  0  0  0  0
  145.1722  137.7114  153.2797 O   0  0  0  0  0  0  0  0  0  0  0  0
  146.4110  136.0490  152.3695 N   0  0  0  0  0  0  0  0  0  0  0  0
  145.3619  135.1115  152.1282 C   0  0  2  0  0  0  0  0  0  0  0  0
  145.7626  133.6596  151.9156 C   0  0  1  0  0  0  0  0  0  0  0  0
  144.8136  132.4646  151.9061 C   0  0  2  0  0  0  0  0  0  0  0  0
  145.1909  131.5706  150.7066 C   0  0  0  0  0  0  0  0  0  0  0  0
  144.7222  132.4175  149.4977 C   0  0  0  0  0  0  0  0  0  0  0  0
  144.1421  133.6756  150.1768 C   0  0  1  0  0  0  0  0  0  0  0  0
  143.4875  133.0384  151.4037 C   0  0  0  0  0  0  0  0  0  0  0  0
  145.3079  134.4790  150.7458 C   0  0  1  0  0  0  0  0  0  0  0  0
  148.8696  139.3581  154.1820 N   0  3  0  0  0  0  0  0  0  0  0  0
  151.7870  139.3204  154.2432 H   0  0  0  0  0  0  0  0  0  0  0  0
  150.9808  138.4676  155.5711 H   0  0  0  0  0  0  0  0  0  0  0  0
  152.3386  139.5375  155.9032 H   0  0  0  0  0  0  0  0  0  0  0  0
  150.9571  142.5758  155.5875 H   0  0  0  0  0  0  0  0  0  0  0  0
  151.8818  141.5517  156.6833 H   0  0  0  0  0  0  0  0  0  0  0  0
  150.1802  141.8642  157.0128 H   0  0  0  0  0  0  0  0  0  0  0  0
  148.8240  142.6417  154.9309 H   0  0  0  0  0  0  0  0  0  0  0  0
  146.7189  142.4843  153.6447 H   0  0  0  0  0  0  0  0  0  0  0  0
  145.9986  140.3302  152.7020 H   0  0  0  0  0  0  0  0  0  0  0  0
  148.2381  137.3906  152.6664 H   0  0  0  0  0  0  0  0  0  0  0  0
  147.3400  135.7612  152.0985 H   0  0  0  0  0  0  0  0  0  0  0  0
  144.4153  135.3041  152.6285 H   0  0  0  0  0  0  0  0  0  0  0  0
  146.8223  133.4191  151.9846 H   0  0  0  0  0  0  0  0  0  0  0  0
  144.7702  131.9502  152.8664 H   0  0  0  0  0  0  0  0  0  0  0  0
  146.2589  131.3522  150.6724 H   0  0  0  0  0  0  0  0  0  0  0  0
  144.6556  130.6208  150.7428 H   0  0  0  0  0  0  0  0  0  0  0  0
  145.5385  132.6554  148.8146 H   0  0  0  0  0  0  0  0  0  0  0  0
  143.9544  131.8888  148.9311 H   0  0  0  0  0  0  0  0  0  0  0  0
  143.4821  134.2741  149.5484 H   0  0  0  0  0  0  0  0  0  0  0  0
  142.7492  132.2737  151.1541 H   0  0  0  0  0  0  0  0  0  0  0  0
  143.0184  133.7489  152.0834 H   0  0  0  0  0  0  0  0  0  0  0  0
  146.0606  134.7920  150.0241 H   0  0  0  0  0  0  0  0  0  0  0  0
  149.4467  138.5300  154.3272 H   0  0  0  0  0  0  0  0  0  0  0  0
  1  2  1  0  0  0  0
  1 22  1  0  0  0  0
  1 23  1  0  0  0  0
  1 24  1  0  0  0  0
  2  3  1  0  0  0  0
  2  4  1  0  0  0  0
  3 25  1  0  0  0  0
  3 26  1  0  0  0  0
  3 27  1  0  0  0  0
  4 21  1  0  0  0  0
  4  5  2  0  0  0  0
  5  6  1  0  0  0  0
  5 28  1  0  0  0  0
  6  7  2  0  0  0  0
  6 29  1  0  0  0  0
  7  8  1  0  0  0  0
  7 30  1  0  0  0  0
  8  9  1  0  0  0  0
  8 21  2  0  0  0  0
  9 10  1  0  0  0  0
  9 31  1  0  0  0  0
 10 11  2  0  0  0  0
 10 12  1  0  0  0  0
 12 13  1  0  0  0  0
 12 32  1  0  0  0  0
 13 20  1  0  0  0  0
 13 14  1  0  0  0  0
 13 33  1  0  0  0  0
 14 20  1  0  0  0  0
 14 15  1  0  0  0  0
 14 34  1  0  0  0  0
 15 19  1  0  0  0  0
 15 16  1  0  0  0  0
 15 35  1  0  0  0  0
 16 17  1  0  0  0  0
 16 36  1  0  0  0  0
 16 37  1  0  0  0  0
 17 18  1  0  0  0  0
 17 38  1  0  0  0  0
 17 39  1  0  0  0  0
 18 19  1  0  0  0  0
 18 20  1  0  0  0  0
 18 40  1  0  0  0  0
 19 41  1  0  0  0  0
 19 42  1  0  0  0  0
 20 43  1  0  0  0  0
 21 44  1  0  0  0  0
M  CHG  1  21   1
M  END
> <s_m_source_file>
AV-unprocessed.smi

> <i_m_source_file_index>
2706

> <i_lp_mmshare_version>
43012

> <i_f3d_flags>
0

> <s_epik_input>
W0NIM11OKFtDSDNdKWMxW2NIXVtjSF1bY0hdYyhuMSlbTkhdQyg9TylbTkhdW0NASF0yW0NAQEhdM1tDQEBIXShbQ0gyXTQpW0NIMl1bQ0gyXVtDQEBIXTRbQ0BIXTIz

> <s_epik_cmdline>
J2VwaWtfcHl0aG9uJywgJy1waCcsICc3LjAnLCAnLXRuJywgJzgnLCAnLW1hJywgJzIwMCcsICctbWV0YWxfYmluZGluZycsICctaW1hZScsICc8aW5maWxlLm1hZT4nLCAnLW9tYWUnLCAnPG91dGZpbGUubWFlPic=

> <r_lp_tautomer_probability>
0.999994

> <r_epik_Ionization_Penalty>
1.8105

> <r_epik_Ionization_Penalty_Charging>
1.79227

> <r_epik_Ionization_Penalty_Neutral>
0.0182286

> <r_epik_State_Penalty>
1.90588

> <r_epik_Charging_Adjusted_Penalty>
3.69815

> <i_epik_Tot_Q>
1

> <i_epik_Tot_abs_Q>
1

> <r_epik_Metal_State_Penalty>
1.93501

> <b_epik_Metal_Only>
0

> <s_lp_Force_Field>
OPLS_2005

> <r_lp_Energy>
85.2099

> <b_lp_Chiralities_Consistent>
1

> <s_lp_Variant>
AV-unprocessed.smi:2706-6

> <Gold.Version>
5.8.1

> <Gold.Id.Protein>
6NUR|6NUR_protein|mol2

> <Gold.PLP.Fitness>
47.6703

> <Gold.PLP.PLP>
-42.8947

> <Gold.PLP.part.hbond>
-2.4519

> <Gold.PLP.part.metal>
0.0000

> <Gold.PLP.part.buried>
-3.2976

> <Gold.PLP.part.nonpolar>
-37.7482

> <Gold.PLP.part.repulsive>
0.3272

> <Gold.PLP.ligand.clash>
0.0000

> <Gold.PLP.ligand.torsion>
0.5698

> <Gold.PLP.Chemscore.Hbond>
1.9600

> <Gold.PLP.Chemscore.CHOScore>
0.0000

> <Gold.PLP.Chemscore.Metal>
0.0000

> <Gold.Chemscore.Hbonds>
donor molecule, donor type, donor heavy atom, donor atom, acceptor molecule, acceptor atom, score
      L1  H     9    31       P1  7948  1.00
      L1  H    12    32       P1  7948  0.96

> <Gold.PLP.Chemscore.Internal.Correction>
0.0352

> <Gold.Rescore>
     Score         DG    S(hbond)    S(metal)    S(lipo)     H(rot)  DE(clash)    DE(int)     intcor
     19.79     -20.46       1.93        0.00      94.95       1.00       0.15       0.53       ----

> <Gold.Chemscore.Fitness>
19.7887

> <Gold.Chemscore.DG>
-20.4646

> <Gold.Chemscore.ZeroCoef>
-5.4800

> <Gold.Chemscore.Hbond>
1.9267

> <Gold.Chemscore.Metal>
0.0000

> <Gold.Chemscore.Lipo>
94.9524

> <Gold.Chemscore.Internal_Hbond>
0.0000

> <Gold.Chemscore.DEClash>
0.1461

> <Gold.Chemscore.DEInternal>
0.5298

> <Gold.Chemscore.Rot>
1.0000

> <Gold.Chemscore.Internal.Correction>
   9.000000E+99

> <Gold.Chemscore.Hbonds>
donor molecule, donor type, donor heavy atom, donor atom, acceptor molecule, acceptor atom, score
      L1  H     9    31       P1  7948  0.95
      L1  H    12    32       P1  7948  0.92

> <Gold.Chemscore.Hbond.Weighted>
-6.4352

> <Gold.Chemscore.Metal.Weighted>
-0.0000

> <Gold.Chemscore.Lipo.Weighted>
-11.1094

> <Gold.Chemscore.Internal_Hbond.Weighted>
0.0000

> <Gold.Chemscore.DEClash.Weighted>
0.1461

> <Gold.Chemscore.DEInternal.Weighted>
0.5298

> <Gold.Chemscore.Rot.Weighted>
2.5600

> <Gold.Chemscore.Internal.Correction.Weighted>
   9.000000E+99

> <Gold.Protein.RotatedTorsions>
[ 6907 6896 6895 6894 ] final -107.86 input  -60.11 | X-H torsion
[ 7974 7965 7964 7962 ] final -131.64 input  175.53 | X-H torsion
[ 8008 7997 7996 7995 ] final -102.62 input   59.86 | X-H torsion
[ 10167 10162 10161 10158 ] final   17.71 input  -65.29 | X-H torsion
[ 10718 10713 10712 10709 ] final   54.82 input   66.30 | X-H torsion
[ 10763 10752 10751 10750 ] final  -23.16 input  -60.55 | X-H torsion
[ 11005 11000 10999 10996 ] final -145.16 input  -57.11 | X-H torsion

> <Gold.Protein.ActiveResidues>
 VAL166  LYS551  ARG553  GLY616  TRP617  ASP618  TYR619  PRO620  LYS621  CYS622 
 ASP623  PHE694  ASN695  SER759  ASP760  ASP761  ALA762  ILE779  LEU786  VAL792 
 PHE793  MET794  SER795  GLU796  ALA797  LYS798  CYS799  TRP800  GLU811  SER814 

> <Gold.Protein.RotatedAtoms>
  150.7468  133.9764  159.3561 H   0  0  0  0  0  0  0  0  0  0  0  0  # atno 6907 bound_to 6896
  151.7702  135.0786  160.0368 H   0  0  0  0  0  0  0  0  0  0  0  0  # atno 6908 bound_to 6896
  152.3344  133.5958  159.5868 H   0  0  0  0  0  0  0  0  0  0  0  0  # atno 6909 bound_to 6896
  144.9360  140.7184  143.4876 H   0  0  0  0  0  0  0  0  0  0  0  0  # atno 7974 bound_to 7965
  154.8592  140.0427  157.1654 H   0  0  0  0  0  0  0  0  0  0  0  0  # atno 8008 bound_to 7997
  154.8858  140.2979  155.5378 H   0  0  0  0  0  0  0  0  0  0  0  0  # atno 8009 bound_to 7997
  156.2998  140.2402  156.3867 H   0  0  0  0  0  0  0  0  0  0  0  0  # atno 8010 bound_to 7997
  140.5706  143.9168  150.6710 H   0  0  0  0  0  0  0  0  0  0  0  0  # atno 10167 bound_to 10162
  157.5291  130.8618  149.8662 H   0  0  0  0  0  0  0  0  0  0  0  0  # atno 10718 bound_to 10713
  153.6635  135.6975  153.5170 H   0  0  0  0  0  0  0  0  0  0  0  0  # atno 10763 bound_to 10752
  153.2613  135.4244  155.0896 H   0  0  0  0  0  0  0  0  0  0  0  0  # atno 10764 bound_to 10752
  154.8446  135.3555  154.6179 H   0  0  0  0  0  0  0  0  0  0  0  0  # atno 10765 bound_to 10752
  140.7951  134.2923  157.4999 H   0  0  0  0  0  0  0  0  0  0  0  0  # atno 11005 bound_to 11000
  145.3066  139.1832  143.4661 LP  0  0  0  0  0  0  0  0  0  0  0  0  # atno 17320 bound_to 7965
  146.3266  140.3065  142.8624 LP  0  0  0  0  0  0  0  0  0  0  0  0  # atno 17321 bound_to 7965
  140.2642  143.3502  152.1296 LP  0  0  0  0  0  0  0  0  0  0  0  0  # atno 17342 bound_to 10162
  139.5116  144.6903  151.5779 LP  0  0  0  0  0  0  0  0  0  0  0  0  # atno 17343 bound_to 10162
  156.0409  130.3739  150.1438 LP  0  0  0  0  0  0  0  0  0  0  0  0  # atno 17370 bound_to 10713
  156.9624  130.9809  151.3476 LP  0  0  0  0  0  0  0  0  0  0  0  0  # atno 17371 bound_to 10713
  139.8727  134.9397  156.3749 LP  0  0  0  0  0  0  0  0  0  0  0  0  # atno 17394 bound_to 11000
  140.9351  133.7553  156.0074 LP  0  0  0  0  0  0  0  0  0  0  0  0  # atno 17395 bound_to 11000

$$$$
