AV-unprocessed.smi:2847|AV-procd|sdf|10954|dock9
  -GOLD-   2272015413D 1   1.00000     0.00000
 Structure written by MMmdl.
 45 46  0  0  0  0  0  0  0  0  1 V2000
  144.5708  131.5711  151.3583 C   0  0  0  0  0  0  0  0  0  0  0  0
  145.0252  132.8429  150.6035 C   0  0  0  0  0  0  0  0  0  0  0  0
  146.5634  132.9037  150.5791 C   0  0  0  0  0  0  0  0  0  0  0  0
  144.4896  132.6969  149.1595 C   0  0  0  0  0  0  0  0  0  0  0  0
  144.4717  134.1130  151.2729 C   0  0  0  0  0  0  0  0  0  0  0  0
  145.0134  135.2819  150.9058 N   0  0  0  0  0  0  0  0  0  0  0  0
  144.4558  136.4106  151.3913 C   0  0  0  0  0  0  0  0  0  0  0  0
  143.3267  136.3829  152.2337 C   0  0  0  0  0  0  0  0  0  0  0  0
  142.7813  137.6101  152.6960 N   0  0  0  0  0  0  0  0  0  0  0  0
  141.6200  137.8163  153.3394 C   0  0  0  0  0  0  0  0  0  0  0  0
  140.8260  136.9342  153.6636 O   0  0  0  0  0  0  0  0  0  0  0  0
  141.4450  139.1221  153.6001 N   0  0  0  0  0  0  0  0  0  0  0  0
  140.3225  139.7828  154.2804 C   0  0  2  0  0  0  0  0  0  0  0  0
  139.0159  139.5620  153.4812 C   0  0  0  0  0  0  0  0  0  0  0  0
  140.6645  141.2998  154.2881 C   0  0  0  0  0  0  0  0  0  0  0  0
  140.4875  141.8986  153.0179 O   0  0  0  0  0  0  0  0  0  0  0  0
  140.1116  139.2303  155.7017 C   0  0  0  0  0  0  0  0  0  0  0  0
  139.4112  137.9268  156.0117 C   0  0  0  0  0  0  0  0  0  0  0  0
  138.7885  139.2445  156.4322 C   0  0  0  0  0  0  0  0  0  0  0  0
  142.8010  135.0994  152.5151 C   0  0  0  0  0  0  0  0  0  0  0  0
  143.3688  133.9781  152.0212 N   0  0  0  0  0  0  0  0  0  0  0  0
  144.9198  130.6669  150.8583 H   0  0  0  0  0  0  0  0  0  0  0  0
  143.4834  131.5124  151.4190 H   0  0  0  0  0  0  0  0  0  0  0  0
  144.9620  131.5376  152.3757 H   0  0  0  0  0  0  0  0  0  0  0  0
  146.9731  132.9734  151.5873 H   0  0  0  0  0  0  0  0  0  0  0  0
  146.9168  133.7713  150.0205 H   0  0  0  0  0  0  0  0  0  0  0  0
  146.9891  132.0154  150.1113 H   0  0  0  0  0  0  0  0  0  0  0  0
  144.8420  131.7740  148.6975 H   0  0  0  0  0  0  0  0  0  0  0  0
  144.8172  133.5146  148.5166 H   0  0  0  0  0  0  0  0  0  0  0  0
  143.3991  132.6771  149.1400 H   0  0  0  0  0  0  0  0  0  0  0  0
  144.9151  137.3442  151.1006 H   0  0  0  0  0  0  0  0  0  0  0  0
  143.3650  138.4227  152.5611 H   0  0  0  0  0  0  0  0  0  0  0  0
  142.1706  139.7453  153.2772 H   0  0  0  0  0  0  0  0  0  0  0  0
  138.2023  140.1631  153.8884 H   0  0  0  0  0  0  0  0  0  0  0  0
  138.6885  138.5227  153.5131 H   0  0  0  0  0  0  0  0  0  0  0  0
  139.1289  139.8314  152.4305 H   0  0  0  0  0  0  0  0  0  0  0  0
  140.0306  141.8467  154.9844 H   0  0  0  0  0  0  0  0  0  0  0  0
  141.6974  141.4718  154.5899 H   0  0  0  0  0  0  0  0  0  0  0  0
  140.5447  141.2246  152.3576 H   0  0  0  0  0  0  0  0  0  0  0  0
  140.9742  139.4080  156.3405 H   0  0  0  0  0  0  0  0  0  0  0  0
  138.9273  137.3777  155.2085 H   0  0  0  0  0  0  0  0  0  0  0  0
  139.8412  137.3059  156.7950 H   0  0  0  0  0  0  0  0  0  0  0  0
  138.8094  139.4935  157.4913 H   0  0  0  0  0  0  0  0  0  0  0  0
  137.8920  139.5609  155.9058 H   0  0  0  0  0  0  0  0  0  0  0  0
  141.9134  134.9484  153.1094 H   0  0  0  0  0  0  0  0  0  0  0  0
  1  2  1  0  0  0  0
  1 22  1  0  0  0  0
  1 23  1  0  0  0  0
  1 24  1  0  0  0  0
  2  3  1  0  0  0  0
  2  4  1  0  0  0  0
  2  5  1  0  0  0  0
  3 25  1  0  0  0  0
  3 26  1  0  0  0  0
  3 27  1  0  0  0  0
  4 28  1  0  0  0  0
  4 29  1  0  0  0  0
  4 30  1  0  0  0  0
  5 21  1  0  0  0  0
  5  6  2  0  0  0  0
  6  7  1  0  0  0  0
  7  8  2  0  0  0  0
  7 31  1  0  0  0  0
  8  9  1  0  0  0  0
  8 20  1  0  0  0  0
  9 10  1  0  0  0  0
  9 32  1  0  0  0  0
 10 11  2  0  0  0  0
 10 12  1  0  0  0  0
 12 13  1  0  0  0  0
 12 33  1  0  0  0  0
 13 14  1  0  0  0  0
 13 15  1  0  0  0  0
 13 17  1  0  0  0  0
 14 34  1  0  0  0  0
 14 35  1  0  0  0  0
 14 36  1  0  0  0  0
 15 16  1  0  0  0  0
 15 37  1  0  0  0  0
 15 38  1  0  0  0  0
 16 39  1  0  0  0  0
 17 19  1  0  0  0  0
 17 18  1  0  0  0  0
 17 40  1  0  0  0  0
 18 19  1  0  0  0  0
 18 41  1  0  0  0  0
 18 42  1  0  0  0  0
 19 43  1  0  0  0  0
 19 44  1  0  0  0  0
 20 21  2  0  0  0  0
 20 45  1  0  0  0  0
M  END
> <s_m_source_file>
AV-unprocessed.smi

> <i_m_source_file_index>
2847

> <i_lp_mmshare_version>
43012

> <i_f3d_flags>
0

> <s_epik_input>
W0NIM11DKFtDSDNdKShbQ0gzXSljMW5bY0hdYyhbY0hdbjEpW05IXUMoPU8pW05IXVtDQEBdKFtDSDNdKShbQ0gyXVtPSF0pW0NIXTJbQ0gyXVtDSDJdMg==

> <s_epik_cmdline>
J2VwaWtfcHl0aG9uJywgJy1waCcsICc3LjAnLCAnLXRuJywgJzgnLCAnLW1hJywgJzIwMCcsICctbWV0YWxfYmluZGluZycsICctaW1hZScsICc8aW5maWxlLm1hZT4nLCAnLW9tYWUnLCAnPG91dGZpbGUubWFlPic=

> <r_lp_tautomer_probability>
1

> <r_epik_Ionization_Penalty>
2.57177e-05

> <r_epik_Ionization_Penalty_Charging>
0

> <r_epik_Ionization_Penalty_Neutral>
2.57177e-05

> <r_epik_State_Penalty>
-0

> <r_epik_Charging_Adjusted_Penalty>
0

> <i_epik_Tot_Q>
0

> <i_epik_Tot_abs_Q>
0

> <r_epik_Metal_State_Penalty>
-0

> <b_epik_Metal_Only>
0

> <s_lp_Force_Field>
OPLS_2005

> <r_lp_Energy>
20.8954

> <b_lp_Chiralities_Consistent>
1

> <s_lp_Variant>
AV-unprocessed.smi:2847-2

> <Gold.Version>
5.8.1

> <Gold.Id.Protein>
6NUR|6NUR_protein|mol2

> <Gold.PLP.Fitness>
42.5777

> <Gold.PLP.PLP>
-30.0396

> <Gold.PLP.part.hbond>
-4.8545

> <Gold.PLP.part.metal>
0.0000

> <Gold.PLP.part.buried>
-0.4417

> <Gold.PLP.part.nonpolar>
-23.5907

> <Gold.PLP.part.repulsive>
0.5223

> <Gold.PLP.ligand.clash>
0.0000

> <Gold.PLP.ligand.torsion>
1.7218

> <Gold.PLP.Chemscore.Hbond>
3.9750

> <Gold.PLP.Chemscore.CHOScore>
0.8359

> <Gold.PLP.Chemscore.Metal>
0.0000

> <Gold.Chemscore.Hbonds>
donor molecule, donor type, donor heavy atom, donor atom, acceptor molecule, acceptor atom, score
      L1  H     9    32       P1 10175  1.00
      L1  H    12    33       P1 10175  1.00
      L1  H    16    39       P1 10160  1.00
      P1  H 10162 10167       L1    16  0.98
      L1  C     7    31       P1 10171  0.76

> <Gold.PLP.Chemscore.Internal.Correction>
1.5492

> <Gold.Rescore>
     Score         DG    S(hbond)    S(metal)    S(lipo)     H(rot)  DE(clash)    DE(int)     intcor
     14.60     -19.02       3.21        0.00      71.60       2.17       1.46       2.96       ----

> <Gold.Chemscore.Fitness>
14.6001

> <Gold.Chemscore.DG>
-19.0242

> <Gold.Chemscore.ZeroCoef>
-5.4800

> <Gold.Chemscore.Hbond>
3.2088

> <Gold.Chemscore.Metal>
0.0000

> <Gold.Chemscore.Lipo>
71.5952

> <Gold.Chemscore.Internal_Hbond>
0.0000

> <Gold.Chemscore.DEClash>
1.4640

> <Gold.Chemscore.DEInternal>
2.9601

> <Gold.Chemscore.Rot>
2.1679

> <Gold.Chemscore.Internal.Correction>
   9.000000E+99

> <Gold.Chemscore.Hbonds>
donor molecule, donor type, donor heavy atom, donor atom, acceptor molecule, acceptor atom, score
      L1  H     9    32       P1 10175  0.89
      L1  H    12    33       P1 10175  0.85
      L1  H    16    39       P1 10160  0.91
      P1  H 10162 10167       L1    16  0.42

> <Gold.Chemscore.Hbond.Weighted>
-10.7175

> <Gold.Chemscore.Metal.Weighted>
-0.0000

> <Gold.Chemscore.Lipo.Weighted>
-8.3766

> <Gold.Chemscore.Internal_Hbond.Weighted>
0.0000

> <Gold.Chemscore.DEClash.Weighted>
1.4640

> <Gold.Chemscore.DEInternal.Weighted>
2.9601

> <Gold.Chemscore.Rot.Weighted>
5.5499

> <Gold.Chemscore.Internal.Correction.Weighted>
   9.000000E+99

> <Gold.Protein.RotatedTorsions>
[ 6907 6896 6895 6894 ] final  -49.95 input  -60.11 | X-H torsion
[ 7974 7965 7964 7962 ] final   55.29 input  175.53 | X-H torsion
[ 8008 7997 7996 7995 ] final  102.05 input   59.86 | X-H torsion
[ 10167 10162 10161 10158 ] final -104.87 input  -65.29 | X-H torsion
[ 10718 10713 10712 10709 ] final  100.19 input   66.30 | X-H torsion
[ 10763 10752 10751 10750 ] final   22.18 input  -60.55 | X-H torsion
[ 11005 11000 10999 10996 ] final  -83.84 input  -57.11 | X-H torsion

> <Gold.Protein.ActiveResidues>
 VAL166  LYS551  ARG553  GLY616  TRP617  ASP618  TYR619  PRO620  LYS621  CYS622 
 ASP623  PHE694  ASN695  SER759  ASP760  ASP761  ALA762  ILE779  LEU786  VAL792 
 PHE793  MET794  SER795  GLU796  ALA797  LYS798  CYS799  TRP800  GLU811  SER814 

> <Gold.Protein.RotatedAtoms>
  150.8755  134.8137  159.7185 H   0  0  0  0  0  0  0  0  0  0  0  0  # atno 6907 bound_to 6896
  152.4743  134.4879  159.9696 H   0  0  0  0  0  0  0  0  0  0  0  0  # atno 6908 bound_to 6896
  151.4961  133.3475  159.2897 H   0  0  0  0  0  0  0  0  0  0  0  0  # atno 6909 bound_to 6896
  145.9519  139.3980  143.0301 H   0  0  0  0  0  0  0  0  0  0  0  0  # atno 7974 bound_to 7965
  156.1356  140.3187  155.8416 H   0  0  0  0  0  0  0  0  0  0  0  0  # atno 8008 bound_to 7997
  155.4250  140.0515  157.3040 H   0  0  0  0  0  0  0  0  0  0  0  0  # atno 8009 bound_to 7997
  154.4934  140.2101  155.9511 H   0  0  0  0  0  0  0  0  0  0  0  0  # atno 8010 bound_to 7997
  140.2047  143.3792  152.1100 H   0  0  0  0  0  0  0  0  0  0  0  0  # atno 10167 bound_to 10162
  157.6859  131.0691  150.5062 H   0  0  0  0  0  0  0  0  0  0  0  0  # atno 10718 bound_to 10713
  153.0936  135.6653  153.9807 H   0  0  0  0  0  0  0  0  0  0  0  0  # atno 10763 bound_to 10752
  153.9397  135.2995  155.3444 H   0  0  0  0  0  0  0  0  0  0  0  0  # atno 10764 bound_to 10752
  154.7352  135.5104  153.9104 H   0  0  0  0  0  0  0  0  0  0  0  0  # atno 10765 bound_to 10752
  141.1655  133.7315  156.8780 H   0  0  0  0  0  0  0  0  0  0  0  0  # atno 11005 bound_to 11000
  145.8159  140.9703  143.0924 LP  0  0  0  0  0  0  0  0  0  0  0  0  # atno 17320 bound_to 7965
  144.6797  139.9980  143.7484 LP  0  0  0  0  0  0  0  0  0  0  0  0  # atno 17321 bound_to 7965
  139.5203  144.7031  151.5434 LP  0  0  0  0  0  0  0  0  0  0  0  0  # atno 17342 bound_to 10162
  140.6366  143.8972  150.6653 LP  0  0  0  0  0  0  0  0  0  0  0  0  # atno 17343 bound_to 10162
  156.5381  130.4201  149.6167 LP  0  0  0  0  0  0  0  0  0  0  0  0  # atno 17370 bound_to 10713
  156.3009  130.7176  151.2048 LP  0  0  0  0  0  0  0  0  0  0  0  0  # atno 17371 bound_to 10713
  140.1735  134.9083  157.2862 LP  0  0  0  0  0  0  0  0  0  0  0  0  # atno 17394 bound_to 11000
  140.2475  134.3722  155.7455 LP  0  0  0  0  0  0  0  0  0  0  0  0  # atno 17395 bound_to 11000

$$$$
