AV-unprocessed.smi:202|AV-procd|sdf|1581|dock10
  -GOLD-   2262019473D 1   1.00000     0.00000
 Structure written by MMmdl.
 49 52  0  0  0  0  0  0  0  0  1 V2000
  156.4752  137.5234  165.5893 C   0  0  0  0  0  0  0  0  0  0  0  0
  155.4586  137.2898  164.4624 C   0  0  0  0  0  0  0  0  0  0  0  0
  154.4461  136.2236  164.9265 C   0  0  0  0  0  0  0  0  0  0  0  0
  154.8984  134.7510  164.8221 C   0  0  0  0  0  0  0  0  0  0  0  0
  154.0053  133.9912  165.4550 F   0  0  0  0  0  0  0  0  0  0  0  0
  154.9567  134.3535  163.5517 F   0  0  0  0  0  0  0  0  0  0  0  0
  156.0835  134.5557  165.3981 F   0  0  0  0  0  0  0  0  0  0  0  0
  154.8330  138.5707  163.8841 C   0  0  0  0  0  0  0  0  0  0  0  0
  155.8514  138.5320  162.8468 N   0  0  0  0  0  0  0  0  0  0  0  0
  155.3833  138.9237  161.5630 C   0  0  0  0  0  0  0  0  0  0  0  0
  155.4761  138.0937  160.4880 N   0  0  0  0  0  0  0  0  0  0  0  0
  155.0263  138.4732  159.2883 C   0  0  0  0  0  0  0  0  0  0  0  0
  154.4496  139.6241  158.9407 N   0  0  0  0  0  0  0  0  0  0  0  0
  154.3431  140.4616  160.0105 C   0  0  0  0  0  0  0  0  0  0  0  0
  154.7810  140.1910  161.3378 C   0  0  0  0  0  0  0  0  0  0  0  0
  154.5083  141.2782  162.1578 N   0  0  0  0  0  0  0  0  0  0  0  0
  153.9401  142.1422  161.3614 C   0  0  0  0  0  0  0  0  0  0  0  0
  153.7934  141.7312  160.0554 N   0  0  0  0  0  0  0  0  0  0  0  0
  153.1990  142.4904  158.9649 C   0  0  0  0  0  0  0  0  0  0  0  0
  151.7206  142.9005  159.2079 C   0  0  0  0  0  0  0  0  0  0  0  0
  151.0120  141.7363  159.5921 O   0  0  0  0  0  0  0  0  0  0  0  0
  151.5929  143.9145  160.3623 C   0  0  0  0  0  0  0  0  0  0  0  0
  152.0502  145.3212  159.9352 C   0  0  0  0  0  0  0  0  0  0  0  0
  151.3127  145.7474  158.7949 O   0  0  0  0  0  0  0  0  0  0  0  0
  151.5092  144.9119  157.6594 C   0  0  0  0  0  0  0  0  0  0  0  0
  151.0160  143.4864  157.9651 C   0  0  0  0  0  0  0  0  0  0  0  0
  156.0547  137.1047  163.0562 C   0  0  0  0  0  0  0  0  0  0  0  0
  155.9924  137.6237  166.5620 H   0  0  0  0  0  0  0  0  0  0  0  0
  157.0499  138.4355  165.4249 H   0  0  0  0  0  0  0  0  0  0  0  0
  157.1994  136.7121  165.6556 H   0  0  0  0  0  0  0  0  0  0  0  0
  154.1378  136.4264  165.9530 H   0  0  0  0  0  0  0  0  0  0  0  0
  153.5342  136.3255  164.3366 H   0  0  0  0  0  0  0  0  0  0  0  0
  153.8194  138.4295  163.5043 H   0  0  0  0  0  0  0  0  0  0  0  0
  154.9052  139.4433  164.5336 H   0  0  0  0  0  0  0  0  0  0  0  0
  155.1440  137.7508  158.4941 H   0  0  0  0  0  0  0  0  0  0  0  0
  153.6058  143.1093  161.7082 H   0  0  0  0  0  0  0  0  0  0  0  0
  153.8112  143.3786  158.8037 H   0  0  0  0  0  0  0  0  0  0  0  0
  153.2922  141.8984  158.0548 H   0  0  0  0  0  0  0  0  0  0  0  0
  151.4725  141.3276  160.3090 H   0  0  0  0  0  0  0  0  0  0  0  0
  150.5514  143.9782  160.6818 H   0  0  0  0  0  0  0  0  0  0  0  0
  152.1593  143.5815  161.2330 H   0  0  0  0  0  0  0  0  0  0  0  0
  151.8781  146.0295  160.7457 H   0  0  0  0  0  0  0  0  0  0  0  0
  153.1193  145.3462  159.7216 H   0  0  0  0  0  0  0  0  0  0  0  0
  150.9504  145.3264  156.8201 H   0  0  0  0  0  0  0  0  0  0  0  0
  152.5601  144.9175  157.3698 H   0  0  0  0  0  0  0  0  0  0  0  0
  151.1430  142.8444  157.0934 H   0  0  0  0  0  0  0  0  0  0  0  0
  149.9408  143.5332  158.1448 H   0  0  0  0  0  0  0  0  0  0  0  0
  157.1043  136.8100  163.0502 H   0  0  0  0  0  0  0  0  0  0  0  0
  155.4503  136.4600  162.4170 H   0  0  0  0  0  0  0  0  0  0  0  0
  1  2  1  0  0  0  0
  1 28  1  0  0  0  0
  1 29  1  0  0  0  0
  1 30  1  0  0  0  0
  2 27  1  0  0  0  0
  2  3  1  0  0  0  0
  2  8  1  0  0  0  0
  3  4  1  0  0  0  0
  3 31  1  0  0  0  0
  3 32  1  0  0  0  0
  4  5  1  0  0  0  0
  4  6  1  0  0  0  0
  4  7  1  0  0  0  0
  8  9  1  0  0  0  0
  8 33  1  0  0  0  0
  8 34  1  0  0  0  0
  9 10  1  0  0  0  0
  9 27  1  0  0  0  0
 10 15  1  0  0  0  0
 10 11  2  0  0  0  0
 11 12  1  0  0  0  0
 12 13  2  0  0  0  0
 12 35  1  0  0  0  0
 13 14  1  0  0  0  0
 14 18  1  0  0  0  0
 14 15  2  0  0  0  0
 15 16  1  0  0  0  0
 16 17  2  0  0  0  0
 17 18  1  0  0  0  0
 17 36  1  0  0  0  0
 18 19  1  0  0  0  0
 19 20  1  0  0  0  0
 19 37  1  0  0  0  0
 19 38  1  0  0  0  0
 20 26  1  0  0  0  0
 20 21  1  0  0  0  0
 20 22  1  0  0  0  0
 21 39  1  0  0  0  0
 22 23  1  0  0  0  0
 22 40  1  0  0  0  0
 22 41  1  0  0  0  0
 23 24  1  0  0  0  0
 23 42  1  0  0  0  0
 23 43  1  0  0  0  0
 24 25  1  0  0  0  0
 25 26  1  0  0  0  0
 25 44  1  0  0  0  0
 25 45  1  0  0  0  0
 26 46  1  0  0  0  0
 26 47  1  0  0  0  0
 27 48  1  0  0  0  0
 27 49  1  0  0  0  0
M  END
> <s_m_source_file>
AV-unprocessed.smi

> <i_m_source_file_index>
202

> <i_lp_mmshare_version>
43012

> <i_f3d_flags>
0

> <s_epik_input>
RkMoRikoRilbQ0gyXUMxKFtDSDNdKVtDSDJdTihbQ0gyXTEpYyhuW2NIXW4yKWMoYzIzKW5bY0hdbjNbQ0gyXUM0KFtPSF0pW0NIMl1bQ0gyXU9bQ0gyXVtDSDJdNA==

> <s_epik_cmdline>
J2VwaWtfcHl0aG9uJywgJy1waCcsICc3LjAnLCAnLXRuJywgJzgnLCAnLW1hJywgJzIwMCcsICctbWV0YWxfYmluZGluZycsICctaW1hZScsICc8aW5maWxlLm1hZT4nLCAnLW9tYWUnLCAnPG91dGZpbGUubWFlPic=

> <r_lp_tautomer_probability>
1

> <r_epik_Ionization_Penalty>
0.00132063

> <r_epik_Ionization_Penalty_Charging>
0

> <r_epik_Ionization_Penalty_Neutral>
0.00132063

> <r_epik_State_Penalty>
0.000845314

> <r_epik_Charging_Adjusted_Penalty>
0.000845314

> <i_epik_Tot_Q>
0

> <i_epik_Tot_abs_Q>
0

> <r_epik_Metal_State_Penalty>
-0

> <b_epik_Metal_Only>
0

> <s_lp_Force_Field>
OPLS_2005

> <r_lp_Energy>
42.0456

> <b_lp_Chiralities_Consistent>
1

> <s_lp_Variant>
AV-unprocessed.smi:202-1

> <Gold.Version>
5.8.1

> <Gold.Id.Protein>
6NUR|6NUR_protein|mol2

> <Gold.PLP.Fitness>
47.5391

> <Gold.PLP.PLP>
-44.8368

> <Gold.PLP.part.hbond>
-4.2205

> <Gold.PLP.part.metal>
0.0000

> <Gold.PLP.part.buried>
-2.6508

> <Gold.PLP.part.nonpolar>
-37.6213

> <Gold.PLP.part.repulsive>
0.1806

> <Gold.PLP.ligand.clash>
0.0173

> <Gold.PLP.ligand.torsion>
0.6937

> <Gold.PLP.Chemscore.Hbond>
1.0000

> <Gold.PLP.Chemscore.CHOScore>
0.0000

> <Gold.PLP.Chemscore.Metal>
0.0000

> <Gold.Chemscore.Hbonds>
donor molecule, donor type, donor heavy atom, donor atom, acceptor molecule, acceptor atom, score
      P1  H  7997  8010       L1    13  1.00

> <Gold.PLP.Chemscore.Internal.Correction>
1.1070

> <Gold.Rescore>
     Score         DG    S(hbond)    S(metal)    S(lipo)     H(rot)  DE(clash)    DE(int)     intcor
     11.32     -14.52       0.79        0.00     111.10       2.58       0.22       2.97       ----

> <Gold.Chemscore.Fitness>
11.3206

> <Gold.Chemscore.DG>
-14.5153

> <Gold.Chemscore.ZeroCoef>
-5.4800

> <Gold.Chemscore.Hbond>
0.7941

> <Gold.Chemscore.Metal>
0.0000

> <Gold.Chemscore.Lipo>
111.1041

> <Gold.Chemscore.Internal_Hbond>
0.0000

> <Gold.Chemscore.DEClash>
0.2224

> <Gold.Chemscore.DEInternal>
2.9724

> <Gold.Chemscore.Rot>
2.5845

> <Gold.Chemscore.Internal.Correction>
   9.000000E+99

> <Gold.Chemscore.Hbonds>
donor molecule, donor type, donor heavy atom, donor atom, acceptor molecule, acceptor atom, score
      P1  H  7997  8010       L1    13  0.70

> <Gold.Chemscore.Hbond.Weighted>
-2.6524

> <Gold.Chemscore.Metal.Weighted>
-0.0000

> <Gold.Chemscore.Lipo.Weighted>
-12.9992

> <Gold.Chemscore.Internal_Hbond.Weighted>
0.0000

> <Gold.Chemscore.DEClash.Weighted>
0.2224

> <Gold.Chemscore.DEInternal.Weighted>
2.9724

> <Gold.Chemscore.Rot.Weighted>
6.6163

> <Gold.Chemscore.Internal.Correction.Weighted>
   9.000000E+99

> <Gold.Protein.RotatedTorsions>
[ 6907 6896 6895 6894 ] final   24.93 input  -60.11 | X-H torsion
[ 7974 7965 7964 7962 ] final  -98.40 input  175.53 | X-H torsion
[ 8008 7997 7996 7995 ] final   14.28 input   59.86 | X-H torsion
[ 10167 10162 10161 10158 ] final -102.83 input  -65.29 | X-H torsion
[ 10718 10713 10712 10709 ] final -119.83 input   66.30 | X-H torsion
[ 10763 10752 10751 10750 ] final  -65.30 input  -60.55 | X-H torsion
[ 11005 11000 10999 10996 ] final  -84.92 input  -57.11 | X-H torsion

> <Gold.Protein.ActiveResidues>
 VAL166  LYS551  ARG553  GLY616  TRP617  ASP618  TYR619  PRO620  LYS621  CYS622 
 ASP623  PHE694  ASN695  SER759  ASP760  ASP761  ALA762  ILE779  LEU786  VAL792 
 PHE793  MET794  SER795  GLU796  ALA797  LYS798  CYS799  TRP800  GLU811  SER814 

> <Gold.Protein.RotatedAtoms>
  151.9649  135.0105  160.0549 H   0  0  0  0  0  0  0  0  0  0  0  0  # atno 6907 bound_to 6896
  152.1835  133.4719  159.4979 H   0  0  0  0  0  0  0  0  0  0  0  0  # atno 6908 bound_to 6896
  150.6922  134.1720  159.4259 H   0  0  0  0  0  0  0  0  0  0  0  0  # atno 6909 bound_to 6896
  145.3212  140.9422  143.2715 H   0  0  0  0  0  0  0  0  0  0  0  0  # atno 7974 bound_to 7965
  154.8462  140.2922  155.5627 H   0  0  0  0  0  0  0  0  0  0  0  0  # atno 8008 bound_to 7997
  156.3014  140.2504  156.3345 H   0  0  0  0  0  0  0  0  0  0  0  0  # atno 8009 bound_to 7997
  154.9071  140.0389  157.1915 H   0  0  0  0  0  0  0  0  0  0  0  0  # atno 8010 bound_to 7997
  140.2264  143.3638  152.0925 H   0  0  0  0  0  0  0  0  0  0  0  0  # atno 10167 bound_to 10162
  156.1211  130.6324  150.9465 H   0  0  0  0  0  0  0  0  0  0  0  0  # atno 10718 bound_to 10713
  154.3430  135.6153  153.5605 H   0  0  0  0  0  0  0  0  0  0  0  0  # atno 10763 bound_to 10752
  152.9803  135.5774  154.4831 H   0  0  0  0  0  0  0  0  0  0  0  0  # atno 10764 bound_to 10752
  154.4539  135.2853  155.1739 H   0  0  0  0  0  0  0  0  0  0  0  0  # atno 10765 bound_to 10752
  141.1646  133.7372  156.8940 H   0  0  0  0  0  0  0  0  0  0  0  0  # atno 11005 bound_to 11000
  144.8938  139.4739  143.6665 LP  0  0  0  0  0  0  0  0  0  0  0  0  # atno 17320 bound_to 7965
  146.3082  139.7652  142.9040 LP  0  0  0  0  0  0  0  0  0  0  0  0  # atno 17321 bound_to 7965
  139.5125  144.6918  151.5738 LP  0  0  0  0  0  0  0  0  0  0  0  0  # atno 17342 bound_to 10162
  140.6217  143.9245  150.6531 LP  0  0  0  0  0  0  0  0  0  0  0  0  # atno 17343 bound_to 10162
  157.6394  131.0912  150.8281 LP  0  0  0  0  0  0  0  0  0  0  0  0  # atno 17370 bound_to 10713
  156.8378  130.5037  149.5324 LP  0  0  0  0  0  0  0  0  0  0  0  0  # atno 17371 bound_to 10713
  140.1629  134.9153  157.2737 LP  0  0  0  0  0  0  0  0  0  0  0  0  # atno 17394 bound_to 11000
  140.2590  134.3593  155.7413 LP  0  0  0  0  0  0  0  0  0  0  0  0  # atno 17395 bound_to 11000

$$$$
