#       Name:                AV-unprocessed.smi:1854
#       Creating user name   scv26
#       Creation time:       Fri Mar 27 09:24:12 2020


#       File generated by GOLD software.
#

@<TRIPOS>MOLECULE
AV-unprocessed.smi:1854
    44    46     1
SMALL
NO_CHARGES


@<TRIPOS>ATOM
      1 ****        -2.9404   3.4104  -3.5020 O.2            1 S1                 0.0000
      2 ****        -2.9902   3.8790  -2.3661 C.2            1 S1                 0.0000
      3 ****        -2.1969   3.4952  -1.3556 N.am           1 S1                 0.0000
      4 ****        -1.1254   2.5093  -1.4630 C.3            1 S1                 0.0000
      5 ****        -1.5838   1.0834  -1.3802 C.2            1 S1                 0.0000
      6 ****        -2.8678   0.6254  -1.4542 N.pl3          1 S1                 1.0000
      7 ****        -2.8854  -0.7642  -1.3302 C.ar           1 S1                 0.0000
      8 ****        -3.9431  -1.6684  -1.3414 C.ar           1 S1                 0.0000
      9 ****        -3.6125  -3.0306  -1.1842 C.ar           1 S1                 0.0000
     10 ****        -2.2749  -3.4480  -1.0242 C.ar           1 S1                 0.0000
     11 ****        -1.2110  -2.5219  -1.0170 C.ar           1 S1                 0.0000
     12 ****        -1.5473  -1.1777  -1.1743 C.ar           1 S1                 0.0000
     13 ****        -0.7817  -0.0077  -1.2182 N.pl3          1 S1                 0.0000
     14 ****         0.6779  -0.1016  -1.0902 C.3            1 S1                 0.0000
     15 ****         1.1222  -0.1642   0.3759 C.3            1 S1                 0.0000
     16 ****         2.5398  -0.2317   0.4087 O.3            1 S1                 0.0000
     17 ****         3.1664  -0.2935   1.6360 C.ar           1 S1                 0.0000
     18 ****         2.4774  -0.2967   2.8760 C.ar           1 S1                 0.0000
     19 ****         3.1895  -0.3623   4.0893 C.ar           1 S1                 0.0000
     20 ****         4.5946  -0.4247   4.0814 C.ar           1 S1                 0.0000
     21 ****         5.2879  -0.4220   2.8574 C.ar           1 S1                 0.0000
     22 ****         4.5781  -0.3573   1.6423 C.ar           1 S1                 0.0000
     23 ****         5.4544  -0.3566   0.1537 Cl             1 S1                 0.0000
     24 ****        -3.6906   4.6638  -2.0412 H              1 S1                 0.0000
     25 ****        -2.3209   3.9406  -0.4577 H              1 S1                 0.0000
     26 ****        -0.5727   2.6521  -2.3931 H              1 S1                 0.0000
     27 ****        -0.4193   2.6946  -0.6531 H              1 S1                 0.0000
     28 ****        -4.9682  -1.3506  -1.4631 H              1 S1                 0.0000
     29 ****        -4.4004  -3.7700  -1.1854 H              1 S1                 0.0000
     30 ****        -2.0598  -4.5000  -0.9046 H              1 S1                 0.0000
     31 ****        -0.1898  -2.8508  -0.8929 H              1 S1                 0.0000
     32 ****         1.0262  -0.9732  -1.6454 H              1 S1                 0.0000
     33 ****         1.1138   0.7706  -1.5783 H              1 S1                 0.0000
     34 ****         0.7734   0.7241   0.9050 H              1 S1                 0.0000
     35 ****         0.6911  -1.0426   0.8588 H              1 S1                 0.0000
     36 ****         1.4004  -0.2495   2.9251 H              1 S1                 0.0000
     37 ****         2.6555  -0.3642   5.0282 H              1 S1                 0.0000
     38 ****         5.1398  -0.4741   5.0124 H              1 S1                 0.0000
     39 ****         6.3669  -0.4698   2.8509 H              1 S1                 0.0000
     40 ****        -3.6717   1.2259  -1.5853 H              1 S1                 0.0000
     41 ****        -2.2763   2.6950  -3.7191 LP             1 S1                 0.0000
     42 ****        -3.5641   3.7447  -4.2086 LP             1 S1                 0.0000
     43 ****         2.8852   0.5820  -0.0587 LP             1 S1                 0.0000
     44 ****         2.8085  -1.0486  -0.1017 LP             1 S1                 0.0000
@<TRIPOS>BOND
    1    1    2 2     
    2    2    3 am    
    3    2   24 1     
    4    3    4 1     
    5    3   25 1     
    6    4    5 1     
    7    4   26 1     
    8    4   27 1     
    9    5   13 1     
   10    5    6 2     
   11    6    7 1     
   12    6   40 1     
   13    7   12 ar    
   14    7    8 ar    
   15    8    9 ar    
   16    8   28 1     
   17    9   10 ar    
   18    9   29 1     
   19   10   11 ar    
   20   10   30 1     
   21   11   12 ar    
   22   11   31 1     
   23   12   13 1     
   24   13   14 1     
   25   14   15 1     
   26   14   32 1     
   27   14   33 1     
   28   15   16 1     
   29   15   34 1     
   30   15   35 1     
   31   16   17 1     
   32   17   22 ar    
   33   17   18 ar    
   34   18   19 ar    
   35   18   36 1     
   36   19   20 ar    
   37   19   37 1     
   38   20   21 ar    
   39   20   38 1     
   40   21   22 ar    
   41   21   39 1     
   42   22   23 1     
   43    1   41 1     
   44    1   42 1     
   45   16   43 1     
   46   16   44 1     
@<TRIPOS>SUBSTRUCTURE
      1 S1             1
@<TRIPOS>SET
LONE_PAIRS      STATIC     ATOMS    <user>   **** ""
4 41 42 43 44
DONOR_HYDROGENS      STATIC     ATOMS    <user>   **** ""
2 25 40
ATOM$BLUE        STATIC     ATOMS    COLORGROUP SYSTEM
4 41 42 43 44
ATOM$RED        STATIC     ATOMS    COLORGROUP SYSTEM
2 25 40
