#       Name:                AV-unprocessed.smi:876
#       Creating user name   scv26
#       Creation time:       Fri Mar 27 01:51:30 2020


#       File generated by GOLD software.
#

@<TRIPOS>MOLECULE
AV-unprocessed.smi:876
    45    46     1
SMALL
NO_CHARGES


@<TRIPOS>ATOM
      1 ****        -6.6354   0.1680   0.3922 C.3            1 S1                 0.0000
      2 ****        -5.6881   1.2748   0.3449 N.pl3          1 S1                 0.0000
      3 ****        -6.1765   2.6461   0.2408 C.3            1 S1                 0.0000
      4 ****        -4.2990   1.0276   0.4341 C.ar           1 S1                 0.0000
      5 ****        -3.7864  -0.2897   0.5352 C.ar           1 S1                 0.0000
      6 ****        -2.3943  -0.4856   0.6198 C.ar           1 S1                 0.0000
      7 ****        -1.5400   0.6406   0.5939 C.ar           1 S1                 0.0000
      8 ****        -0.1232   0.5807   0.6892 N.am           1 S1                 0.0000
      9 ****         0.6925  -0.4618   0.4560 C.2            1 S1                 0.0000
     10 ****         0.3354  -1.5803   0.0869 O.2            1 S1                 0.0000
     11 ****         1.9741  -0.1266   0.6595 N.am           1 S1                 0.0000
     12 ****         3.1096  -1.0250   0.4831 C.3            1 S1                 0.0000
     13 ****         4.3522  -0.4284   1.0843 C.2            1 S1                 0.0000
     14 ****         5.3348  -0.2852   0.1982 C.2            1 S1                 0.0000
     15 ****         4.9455  -0.7356  -1.1868 C.3            1 S1                 0.0000
     16 ****         5.8885  -1.8133  -1.7493 C.3            1 S1                 0.0000
     17 ****         7.1839  -1.2866  -1.9488 O.3            1 S1                 0.0000
     18 ****         3.4883  -1.2334  -1.0072 C.3            1 S1                 0.0000
     19 ****        -2.1413   1.9110   0.5047 C.ar           1 S1                 0.0000
     20 ****        -3.4739   2.1030   0.4228 N.ar           1 S1                 0.0000
     21 ****         2.9138  -1.9809   0.9723 H              1 S1                 0.0000
     22 ****         4.9531   0.1375  -1.8411 H              1 S1                 0.0000
     23 ****        -6.5270  -0.3906   1.3222 H              1 S1                 0.0000
     24 ****        -6.4739  -0.5114  -0.4454 H              1 S1                 0.0000
     25 ****        -7.6644   0.5236   0.3376 H              1 S1                 0.0000
     26 ****        -5.7563   3.1379  -0.6369 H              1 S1                 0.0000
     27 ****        -5.8986   3.2194   1.1257 H              1 S1                 0.0000
     28 ****        -7.2622   2.6766   0.1503 H              1 S1                 0.0000
     29 ****        -4.4318  -1.1548   0.5531 H              1 S1                 0.0000
     30 ****        -2.0172  -1.4916   0.7159 H              1 S1                 0.0000
     31 ****         0.3298   1.4544   0.9140 H              1 S1                 0.0000
     32 ****         2.1808   0.8163   0.9551 H              1 S1                 0.0000
     33 ****         4.4162  -0.1655   2.1300 H              1 S1                 0.0000
     34 ****         6.3117   0.1208   0.4161 H              1 S1                 0.0000
     35 ****         5.9485  -2.6683  -1.0746 H              1 S1                 0.0000
     36 ****         5.5151  -2.1810  -2.7055 H              1 S1                 0.0000
     37 ****         7.7370  -1.9709  -2.2936 H              1 S1                 0.0000
     38 ****         3.3950  -2.2884  -1.2683 H              1 S1                 0.0000
     39 ****         2.8200  -0.6890  -1.6761 H              1 S1                 0.0000
     40 ****        -1.5352   2.8052   0.4946 H              1 S1                 0.0000
     41 ****        -0.6346  -1.7711  -0.0637 LP             1 S1                 0.0000
     42 ****         1.0152  -2.2983  -0.0623 LP             1 S1                 0.0000
     43 ****         7.5532  -0.9612  -1.0783 LP             1 S1                 0.0000
     44 ****         7.1427  -0.5272  -2.5981 LP             1 S1                 0.0000
     45 ****        -3.8487   3.0276   0.3546 LP             1 S1                 0.0000
@<TRIPOS>BOND
    1    1    2 1     
    2    1   23 1     
    3    1   24 1     
    4    1   25 1     
    5    2    3 1     
    6    2    4 1     
    7    3   26 1     
    8    3   27 1     
    9    3   28 1     
   10    4   20 ar    
   11    4    5 ar    
   12    5    6 ar    
   13    5   29 1     
   14    6    7 ar    
   15    6   30 1     
   16    7    8 1     
   17    7   19 ar    
   18    8    9 am    
   19    8   31 1     
   20    9   10 2     
   21    9   11 am    
   22   11   12 1     
   23   11   32 1     
   24   12   21 1     
   25   12   18 1     
   26   12   13 1     
   27   13   14 2     
   28   13   33 1     
   29   14   15 1     
   30   14   34 1     
   31   15   22 1     
   32   15   16 1     
   33   15   18 1     
   34   16   17 1     
   35   16   35 1     
   36   16   36 1     
   37   17   37 1     
   38   18   38 1     
   39   18   39 1     
   40   19   20 ar    
   41   19   40 1     
   42   10   41 1     
   43   10   42 1     
   44   17   43 1     
   45   17   44 1     
   46   20   45 1     
@<TRIPOS>SUBSTRUCTURE
      1 S1             1
@<TRIPOS>SET
LONE_PAIRS      STATIC     ATOMS    <user>   **** ""
5 41 42 43 44 45
DONOR_HYDROGENS      STATIC     ATOMS    <user>   **** ""
3 31 32 37
ATOM$BLUE        STATIC     ATOMS    COLORGROUP SYSTEM
5 41 42 43 44 45
ATOM$RED        STATIC     ATOMS    COLORGROUP SYSTEM
3 31 32 37
