AV-unprocessed.smi:1355|AV-procd|sdf|5536|dock1
  -GOLD-   22720 5123D 1   1.00000     0.00000
 Structure written by MMmdl.
 32 33  0  0  0  0  0  0  0  0  1 V2000
  152.0517  139.0824  155.1020 C   0  0  0  0  0  0  0  0  0  0  0  0
  151.1624  140.1865  155.0453 O   0  0  0  0  0  0  0  0  0  0  0  0
  151.3013  141.1010  156.1234 C   0  0  0  0  0  0  0  0  0  0  0  0
  151.1158  140.4113  157.4858 C   0  0  0  0  0  0  0  0  0  0  0  0
  151.7758  141.1498  158.5510 N   0  0  0  0  0  0  0  0  0  0  0  0
  152.6851  140.7003  159.4543 C   0  0  0  0  0  0  0  0  0  0  0  0
  153.1538  139.2707  159.4776 C   0  0  2  0  0  0  0  0  0  0  0  0
  154.0726  138.9884  160.6741 C   0  0  0  0  0  0  0  0  0  0  0  0
  153.8478  138.9123  158.2994 O   0  0  0  0  0  0  0  0  0  0  0  0
  153.1104  141.6048  160.3397 N   0  0  0  0  0  0  0  0  0  0  0  0
  152.4351  142.7480  159.9613 C   0  0  0  0  0  0  0  0  0  0  0  0
  152.4652  144.0540  160.5005 C   0  0  0  0  0  0  0  0  0  0  0  0
  151.6766  145.0775  159.9355 C   0  0  0  0  0  0  0  0  0  0  0  0
  150.8483  144.8104  158.8262 C   0  0  0  0  0  0  0  0  0  0  0  0
  150.8030  143.5157  158.2744 C   0  0  0  0  0  0  0  0  0  0  0  0
  151.5922  142.4975  158.8424 C   0  0  0  0  0  0  0  0  0  0  0  0
  151.8425  138.4075  154.2722 H   0  0  0  0  0  0  0  0  0  0  0  0
  151.9276  138.5210  156.0288 H   0  0  0  0  0  0  0  0  0  0  0  0
  153.0926  139.3941  155.0176 H   0  0  0  0  0  0  0  0  0  0  0  0
  152.3083  141.5149  156.0645 H   0  0  0  0  0  0  0  0  0  0  0  0
  150.6155  141.9424  156.0099 H   0  0  0  0  0  0  0  0  0  0  0  0
  150.0588  140.3255  157.7366 H   0  0  0  0  0  0  0  0  0  0  0  0
  151.5027  139.3929  157.4570 H   0  0  0  0  0  0  0  0  0  0  0  0
  152.2884  138.6107  159.5267 H   0  0  0  0  0  0  0  0  0  0  0  0
  153.5657  139.1961  161.6167 H   0  0  0  0  0  0  0  0  0  0  0  0
  154.9710  139.6055  160.6383 H   0  0  0  0  0  0  0  0  0  0  0  0
  154.3852  137.9439  160.6921 H   0  0  0  0  0  0  0  0  0  0  0  0
  154.1108  138.0076  158.3718 H   0  0  0  0  0  0  0  0  0  0  0  0
  153.0969  144.2687  161.3497 H   0  0  0  0  0  0  0  0  0  0  0  0
  151.7068  146.0722  160.3555 H   0  0  0  0  0  0  0  0  0  0  0  0
  150.2477  145.6004  158.3993 H   0  0  0  0  0  0  0  0  0  0  0  0
  150.1696  143.3085  157.4247 H   0  0  0  0  0  0  0  0  0  0  0  0
  1  2  1  0  0  0  0
  1 17  1  0  0  0  0
  1 18  1  0  0  0  0
  1 19  1  0  0  0  0
  2  3  1  0  0  0  0
  3  4  1  0  0  0  0
  3 20  1  0  0  0  0
  3 21  1  0  0  0  0
  4  5  1  0  0  0  0
  4 22  1  0  0  0  0
  4 23  1  0  0  0  0
  5 16  1  0  0  0  0
  5  6  1  0  0  0  0
  6  7  1  0  0  0  0
  6 10  2  0  0  0  0
  7  8  1  0  0  0  0
  7  9  1  0  0  0  0
  7 24  1  0  0  0  0
  8 25  1  0  0  0  0
  8 26  1  0  0  0  0
  8 27  1  0  0  0  0
  9 28  1  0  0  0  0
 10 11  1  0  0  0  0
 11 16  2  0  0  0  0
 11 12  1  0  0  0  0
 12 13  2  0  0  0  0
 12 29  1  0  0  0  0
 13 14  1  0  0  0  0
 13 30  1  0  0  0  0
 14 15  2  0  0  0  0
 14 31  1  0  0  0  0
 15 16  1  0  0  0  0
 15 32  1  0  0  0  0
M  END
> <s_m_source_file>
AV-unprocessed.smi

> <i_m_source_file_index>
1355

> <i_lp_mmshare_version>
43012

> <i_f3d_flags>
0

> <s_epik_input>
W0NIM11PW0NIMl1bQ0gyXW4oYyhuMSlbQ0BIXShbQ0gzXSlbT0hdKWMoYzEyKVtjSF1bY0hdW2NIXVtjSF0y

> <s_epik_cmdline>
J2VwaWtfcHl0aG9uJywgJy1waCcsICc3LjAnLCAnLXRuJywgJzgnLCAnLW1hJywgJzIwMCcsICctbWV0YWxfYmluZGluZycsICctaW1hZScsICc8aW5maWxlLm1hZT4nLCAnLW9tYWUnLCAnPG91dGZpbGUubWFlPic=

> <r_epik_Ionization_Penalty>
0.055138

> <r_epik_Ionization_Penalty_Charging>
0

> <r_epik_Ionization_Penalty_Neutral>
0.055138

> <r_epik_State_Penalty>
0.0474756

> <r_epik_Charging_Adjusted_Penalty>
0.0474756

> <i_epik_Tot_Q>
0

> <i_epik_Tot_abs_Q>
0

> <r_epik_Metal_State_Penalty>
4.94275e-05

> <b_epik_Metal_Only>
0

> <s_lp_Force_Field>
OPLS_2005

> <r_lp_Energy>
9.14497

> <b_lp_Chiralities_Consistent>
1

> <s_lp_Variant>
AV-unprocessed.smi:1355-1

> <Gold.Version>
5.8.1

> <Gold.Id.Protein>
6NUR|6NUR_protein|mol2

> <Gold.PLP.Fitness>
42.7982

> <Gold.PLP.PLP>
-37.1824

> <Gold.PLP.part.hbond>
-2.0000

> <Gold.PLP.part.metal>
0.0000

> <Gold.PLP.part.buried>
-6.6668

> <Gold.PLP.part.nonpolar>
-28.3926

> <Gold.PLP.part.repulsive>
0.0451

> <Gold.PLP.ligand.clash>
0.0000

> <Gold.PLP.ligand.torsion>
0.1995

> <Gold.PLP.Chemscore.Hbond>
2.0000

> <Gold.PLP.Chemscore.CHOScore>
0.0000

> <Gold.PLP.Chemscore.Metal>
0.0000

> <Gold.Chemscore.Hbonds>
donor molecule, donor type, donor heavy atom, donor atom, acceptor molecule, acceptor atom, score
      P1  H  7989  7998       L1     2  1.00
      P1  H  7997  8009       L1     9  1.00

> <Gold.PLP.Chemscore.Internal.Correction>
0.0147

> <Gold.Rescore>
     Score         DG    S(hbond)    S(metal)    S(lipo)     H(rot)  DE(clash)    DE(int)     intcor
     16.92     -17.29       1.84        0.00      92.92       2.04       0.02       0.36       ----

> <Gold.Chemscore.Fitness>
16.9195

> <Gold.Chemscore.DG>
-17.2908

> <Gold.Chemscore.ZeroCoef>
-5.4800

> <Gold.Chemscore.Hbond>
1.8442

> <Gold.Chemscore.Metal>
0.0000

> <Gold.Chemscore.Lipo>
92.9162

> <Gold.Chemscore.Internal_Hbond>
0.0000

> <Gold.Chemscore.DEClash>
0.0153

> <Gold.Chemscore.DEInternal>
0.3560

> <Gold.Chemscore.Rot>
2.0390

> <Gold.Chemscore.Internal.Correction>
   9.000000E+99

> <Gold.Chemscore.Hbonds>
donor molecule, donor type, donor heavy atom, donor atom, acceptor molecule, acceptor atom, score
      P1  H  7989  7998       L1     2  0.22
      P1  H  7997  8009       L1     9  0.98

> <Gold.Chemscore.Hbond.Weighted>
-6.1595

> <Gold.Chemscore.Metal.Weighted>
-0.0000

> <Gold.Chemscore.Lipo.Weighted>
-10.8712

> <Gold.Chemscore.Internal_Hbond.Weighted>
0.0000

> <Gold.Chemscore.DEClash.Weighted>
0.0153

> <Gold.Chemscore.DEInternal.Weighted>
0.3560

> <Gold.Chemscore.Rot.Weighted>
5.2199

> <Gold.Chemscore.Internal.Correction.Weighted>
   9.000000E+99

> <Gold.Protein.RotatedTorsions>
[ 6907 6896 6895 6894 ] final   70.23 input  -60.11 | X-H torsion
[ 7974 7965 7964 7962 ] final  128.67 input  175.53 | X-H torsion
[ 8008 7997 7996 7995 ] final  152.79 input   59.86 | X-H torsion
[ 10167 10162 10161 10158 ] final  -27.54 input  -65.29 | X-H torsion
[ 10718 10713 10712 10709 ] final   38.89 input   66.30 | X-H torsion
[ 10763 10752 10751 10750 ] final   87.69 input  -60.55 | X-H torsion
[ 11005 11000 10999 10996 ] final  135.27 input  -57.11 | X-H torsion

> <Gold.Protein.ActiveResidues>
 VAL166  LYS551  ARG553  GLY616  TRP617  ASP618  TYR619  PRO620  LYS621  CYS622 
 ASP623  PHE694  ASN695  SER759  ASP760  ASP761  ALA762  ILE779  LEU786  VAL792 
 PHE793  MET794  SER795  GLU796  ALA797  LYS798  CYS799  TRP800  GLU811  SER814 

> <Gold.Protein.RotatedAtoms>
  152.4736  134.4900  159.9691 H   0  0  0  0  0  0  0  0  0  0  0  0  # atno 6907 bound_to 6896
  151.4921  133.3517  159.2863 H   0  0  0  0  0  0  0  0  0  0  0  0  # atno 6908 bound_to 6896
  150.8761  134.8171  159.7252 H   0  0  0  0  0  0  0  0  0  0  0  0  # atno 6909 bound_to 6896
  145.0370  139.3996  143.5121 H   0  0  0  0  0  0  0  0  0  0  0  0  # atno 7974 bound_to 7965
  156.2612  140.2011  156.6389 H   0  0  0  0  0  0  0  0  0  0  0  0  # atno 8008 bound_to 7997
  154.6625  140.0559  157.0102 H   0  0  0  0  0  0  0  0  0  0  0  0  # atno 8009 bound_to 7997
  155.1255  140.3229  155.4489 H   0  0  0  0  0  0  0  0  0  0  0  0  # atno 8010 bound_to 7997
  140.7276  143.4084  151.1146 H   0  0  0  0  0  0  0  0  0  0  0  0  # atno 10167 bound_to 10162
  157.3641  130.7666  149.7070 H   0  0  0  0  0  0  0  0  0  0  0  0  # atno 10718 bound_to 10713
  153.1694  135.4534  154.9881 H   0  0  0  0  0  0  0  0  0  0  0  0  # atno 10763 bound_to 10752
  154.7955  135.3236  154.7680 H   0  0  0  0  0  0  0  0  0  0  0  0  # atno 10764 bound_to 10752
  153.8158  135.6951  153.4889 H   0  0  0  0  0  0  0  0  0  0  0  0  # atno 10765 bound_to 10752
  139.9969  134.9494  156.9984 H   0  0  0  0  0  0  0  0  0  0  0  0  # atno 11005 bound_to 11000
  146.3505  139.9950  142.8682 LP  0  0  0  0  0  0  0  0  0  0  0  0  # atno 17320 bound_to 7965
  145.1697  140.9714  143.4329 LP  0  0  0  0  0  0  0  0  0  0  0  0  # atno 17321 bound_to 7965
  139.7714  143.8488  152.3121 LP  0  0  0  0  0  0  0  0  0  0  0  0  # atno 17342 bound_to 10162
  139.8408  144.7211  150.9333 LP  0  0  0  0  0  0  0  0  0  0  0  0  # atno 17343 bound_to 10162
  155.9743  130.4105  150.3935 LP  0  0  0  0  0  0  0  0  0  0  0  0  # atno 17370 bound_to 10713
  157.2017  131.0439  151.2647 LP  0  0  0  0  0  0  0  0  0  0  0  0  # atno 17371 bound_to 10713
  140.4802  134.1298  155.7216 LP  0  0  0  0  0  0  0  0  0  0  0  0  # atno 17394 bound_to 11000
  141.1611  133.8791  157.1845 LP  0  0  0  0  0  0  0  0  0  0  0  0  # atno 17395 bound_to 11000

$$$$
