AV-unprocessed.smi:51|AV-procd|sdf|504|dock9
  -GOLD-   2262016373D 1   1.00000     0.00000
 Structure written by MMmdl.
 26 27  0  0  0  0  0  0  0  0  3 V2000
  155.5349  141.0643  159.9664 O   0  0  0  0  0  0  0  0  0  0  0  0
  154.3846  140.5994  159.8148 C   0  0  0  0  0  0  0  0  0  0  0  0
  154.0503  139.7531  158.9558 O   0  5  0  0  0  0  0  0  0  0  0  0
  153.3038  141.1013  160.7835 C   0  0  1  0  0  0  0  0  0  0  0  0
  153.7905  141.1077  162.2430 C   0  0  0  0  0  0  0  0  0  0  0  0
  153.0115  142.2676  162.8628 C   0  0  1  0  0  0  0  0  0  0  0  0
  153.6390  142.7970  164.0113 O   0  0  0  0  0  0  0  0  0  0  0  0
  152.9207  143.2871  161.7255 C   0  0  0  0  0  0  0  0  0  0  0  0
  152.9128  142.4846  160.5113 N   0  0  0  0  0  0  0  0  0  0  0  0
  152.1734  142.8740  159.3771 C   0  0  0  0  0  0  0  0  0  0  0  0
  151.6157  141.9157  158.5050 C   0  0  0  0  0  0  0  0  0  0  0  0
  150.8830  142.3964  157.4040 C   0  0  0  0  0  0  0  0  0  0  0  0
  150.7353  143.7285  157.2070 N   0  3  0  0  0  0  0  0  0  0  0  0
  151.2921  144.5887  158.0718 C   0  0  0  0  0  0  0  0  0  0  0  0
  152.0005  144.1935  159.1348 N   0  0  0  0  0  0  0  0  0  0  0  0
  152.4175  140.4701  160.7040 H   0  0  0  0  0  0  0  0  0  0  0  0
  153.6051  140.1605  162.7503 H   0  0  0  0  0  0  0  0  0  0  0  0
  154.8619  141.3112  162.2990 H   0  0  0  0  0  0  0  0  0  0  0  0
  152.0094  141.9263  163.1267 H   0  0  0  0  0  0  0  0  0  0  0  0
  153.5869  143.7398  163.9730 H   0  0  0  0  0  0  0  0  0  0  0  0
  152.0324  143.9109  161.8321 H   0  0  0  0  0  0  0  0  0  0  0  0
  153.7971  143.9364  161.7021 H   0  0  0  0  0  0  0  0  0  0  0  0
  151.7253  140.8546  158.6739 H   0  0  0  0  0  0  0  0  0  0  0  0
  150.4064  141.7569  156.6755 H   0  0  0  0  0  0  0  0  0  0  0  0
  151.1465  145.6406  157.8753 H   0  0  0  0  0  0  0  0  0  0  0  0
  150.2000  144.0664  156.4071 H   0  0  0  0  0  0  0  0  0  0  0  0
  1  2  2  0  0  0  0
  2  3  1  0  0  0  0
  2  4  1  0  0  0  0
  4  9  1  0  0  0  0
  4  5  1  0  0  0  0
  4 16  1  0  0  0  0
  5  6  1  0  0  0  0
  5 17  1  0  0  0  0
  5 18  1  0  0  0  0
  6  7  1  0  0  0  0
  6  8  1  0  0  0  0
  6 19  1  0  0  0  0
  7 20  1  0  0  0  0
  8  9  1  0  0  0  0
  8 21  1  0  0  0  0
  8 22  1  0  0  0  0
  9 10  1  0  0  0  0
 10 15  1  0  0  0  0
 10 11  2  0  0  0  0
 11 12  1  0  0  0  0
 11 23  1  0  0  0  0
 12 13  2  0  0  0  0
 12 24  1  0  0  0  0
 13 14  1  0  0  0  0
 13 26  1  0  0  0  0
 14 15  2  0  0  0  0
 14 25  1  0  0  0  0
M  CHG  1   3  -1
M  CHG  1  13   1
M  END
> <s_m_source_file>
AV-unprocessed.smi

> <i_m_source_file_index>
51

> <i_lp_mmshare_version>
43012

> <i_f3d_flags>
0

> <s_epik_input>
Tz1DKFtPSF0pW0NAQEhdMVtDSDJdW0NAQEhdKFtPSF0pW0NIMl1OMWMyW2NIXVtjSF1uW2NIXW4y

> <s_epik_cmdline>
J2VwaWtfcHl0aG9uJywgJy1waCcsICc3LjAnLCAnLXRuJywgJzgnLCAnLW1hJywgJzIwMCcsICctbWV0YWxfYmluZGluZycsICctaW1hZScsICc8aW5maWxlLm1hZT4nLCAnLW9tYWUnLCAnPG91dGZpbGUubWFlPic=

> <r_lp_tautomer_probability>
0.999336

> <r_epik_Ionization_Penalty>
0.688427

> <r_epik_Ionization_Penalty_Charging>
0.688427

> <r_epik_Ionization_Penalty_Neutral>
1.98379e-07

> <r_epik_State_Penalty>
0.709817

> <r_epik_Charging_Adjusted_Penalty>
1.39824

> <i_epik_Tot_Q>
0

> <i_epik_Tot_abs_Q>
2

> <r_epik_Metal_State_Penalty>
0.873261

> <b_epik_Metal_Only>
0

> <s_lp_Force_Field>
OPLS_2005

> <r_lp_Energy>
15.7

> <b_lp_Chiralities_Consistent>
1

> <s_lp_Variant>
AV-unprocessed.smi:51-6

> <Gold.Version>
5.8.1

> <Gold.Id.Protein>
6NUR|6NUR_protein|mol2

> <Gold.PLP.Fitness>
46.2722

> <Gold.PLP.PLP>
-35.1528

> <Gold.PLP.part.hbond>
-2.8593

> <Gold.PLP.part.metal>
0.0000

> <Gold.PLP.part.buried>
-5.5563

> <Gold.PLP.part.nonpolar>
-26.5379

> <Gold.PLP.part.repulsive>
0.0124

> <Gold.PLP.ligand.clash>
0.0000

> <Gold.PLP.ligand.torsion>
0.5053

> <Gold.PLP.Chemscore.Hbond>
4.0000

> <Gold.PLP.Chemscore.CHOScore>
0.0000

> <Gold.PLP.Chemscore.Metal>
0.0000

> <Gold.Chemscore.Hbonds>
donor molecule, donor type, donor heavy atom, donor atom, acceptor molecule, acceptor atom, score
      L1  H    13    26       P1  8028  2.00
      P1  H  7997  8010       L1     3  2.00

> <Gold.PLP.Chemscore.Internal.Correction>
0.1300

> <Gold.Rescore>
     Score         DG    S(hbond)    S(metal)    S(lipo)     H(rot)  DE(clash)    DE(int)     intcor
     13.20     -14.30       1.86        0.00      59.53       1.70       0.64       0.46       ----

> <Gold.Chemscore.Fitness>
13.1967

> <Gold.Chemscore.DG>
-14.3030

> <Gold.Chemscore.ZeroCoef>
-5.4800

> <Gold.Chemscore.Hbond>
1.8609

> <Gold.Chemscore.Metal>
0.0000

> <Gold.Chemscore.Lipo>
59.5281

> <Gold.Chemscore.Internal_Hbond>
0.0000

> <Gold.Chemscore.DEClash>
0.6433

> <Gold.Chemscore.DEInternal>
0.4630

> <Gold.Chemscore.Rot>
1.7020

> <Gold.Chemscore.Internal.Correction>
   9.000000E+99

> <Gold.Chemscore.Hbonds>
donor molecule, donor type, donor heavy atom, donor atom, acceptor molecule, acceptor atom, score
      L1  H    13    26       P1  8028  0.97
      P1  H  7997  8010       L1     3  0.67

> <Gold.Chemscore.Hbond.Weighted>
-6.2154

> <Gold.Chemscore.Metal.Weighted>
-0.0000

> <Gold.Chemscore.Lipo.Weighted>
-6.9648

> <Gold.Chemscore.Internal_Hbond.Weighted>
0.0000

> <Gold.Chemscore.DEClash.Weighted>
0.6433

> <Gold.Chemscore.DEInternal.Weighted>
0.4630

> <Gold.Chemscore.Rot.Weighted>
4.3571

> <Gold.Chemscore.Internal.Correction.Weighted>
   9.000000E+99

> <Gold.Protein.RotatedTorsions>
[ 6907 6896 6895 6894 ] final  -13.08 input  -60.11 | X-H torsion
[ 7974 7965 7964 7962 ] final -157.89 input  175.53 | X-H torsion
[ 8008 7997 7996 7995 ] final   -0.04 input   59.86 | X-H torsion
[ 10167 10162 10161 10158 ] final  -49.23 input  -65.29 | X-H torsion
[ 10718 10713 10712 10709 ] final  108.54 input   66.30 | X-H torsion
[ 10763 10752 10751 10750 ] final  -80.41 input  -60.55 | X-H torsion
[ 11005 11000 10999 10996 ] final  154.46 input  -57.11 | X-H torsion

> <Gold.Protein.ActiveResidues>
 VAL166  LYS551  ARG553  GLY616  TRP617  ASP618  TYR619  PRO620  LYS621  CYS622 
 ASP623  PHE694  ASN695  SER759  ASP760  ASP761  ALA762  ILE779  LEU786  VAL792 
 PHE793  MET794  SER795  GLU796  ALA797  LYS798  CYS799  TRP800  GLU811  SER814 

> <Gold.Protein.RotatedAtoms>
  151.3605  135.0903  159.9432 H   0  0  0  0  0  0  0  0  0  0  0  0  # atno 6907 bound_to 6896
  152.5163  133.9263  159.7569 H   0  0  0  0  0  0  0  0  0  0  0  0  # atno 6908 bound_to 6896
  150.9656  133.6344  159.2776 H   0  0  0  0  0  0  0  0  0  0  0  0  # atno 6909 bound_to 6896
  144.7529  140.3905  143.6034 H   0  0  0  0  0  0  0  0  0  0  0  0  # atno 7974 bound_to 7965
  154.6626  140.2594  155.7092 H   0  0  0  0  0  0  0  0  0  0  0  0  # atno 8008 bound_to 7997
  156.2625  140.2845  156.1026 H   0  0  0  0  0  0  0  0  0  0  0  0  # atno 8009 bound_to 7997
  155.1286  140.0378  157.2759 H   0  0  0  0  0  0  0  0  0  0  0  0  # atno 8010 bound_to 7997
  140.6695  143.2706  151.4185 H   0  0  0  0  0  0  0  0  0  0  0  0  # atno 10167 bound_to 10162
  157.6582  131.0895  150.6320 H   0  0  0  0  0  0  0  0  0  0  0  0  # atno 10718 bound_to 10713
  154.5508  135.5662  153.6920 H   0  0  0  0  0  0  0  0  0  0  0  0  # atno 10763 bound_to 10752
  152.9989  135.6250  154.2377 H   0  0  0  0  0  0  0  0  0  0  0  0  # atno 10764 bound_to 10752
  154.2311  135.2866  155.2869 H   0  0  0  0  0  0  0  0  0  0  0  0  # atno 10765 bound_to 10752
  140.1491  134.8687  157.2432 H   0  0  0  0  0  0  0  0  0  0  0  0  # atno 11005 bound_to 11000
  145.6881  139.1633  143.2662 LP  0  0  0  0  0  0  0  0  0  0  0  0  # atno 17320 bound_to 7965
  146.1502  140.6936  142.9325 LP  0  0  0  0  0  0  0  0  0  0  0  0  # atno 17321 bound_to 7965
  139.5957  144.1403  152.2140 LP  0  0  0  0  0  0  0  0  0  0  0  0  # atno 17342 bound_to 10162
  140.0771  144.5731  150.7149 LP  0  0  0  0  0  0  0  0  0  0  0  0  # atno 17343 bound_to 10162
  156.6625  130.4516  149.5683 LP  0  0  0  0  0  0  0  0  0  0  0  0  # atno 17370 bound_to 10713
  156.2057  130.6647  151.1215 LP  0  0  0  0  0  0  0  0  0  0  0  0  # atno 17371 bound_to 10713
  140.2626  134.3553  155.7401 LP  0  0  0  0  0  0  0  0  0  0  0  0  # atno 17394 bound_to 11000
  141.2196  133.7378  156.9103 LP  0  0  0  0  0  0  0  0  0  0  0  0  # atno 17395 bound_to 11000

$$$$
