AV-unprocessed.smi:2467|AV-procd|sdf|9725|dock2
  -GOLD-   2272013363D 1   1.00000     0.00000
 Structure written by MMmdl.
 46 47  0  0  0  0  0  0  0  0  1 V2000
  149.3133  141.0725  156.7803 C   0  0  0  0  0  0  0  0  0  0  0  0
  149.7330  141.4422  155.3489 C   0  0  0  0  0  0  0  0  0  0  0  0
  149.1905  140.4973  154.2471 C   0  0  0  0  0  0  0  0  0  0  0  0
  147.6414  140.5197  154.2019 C   0  0  0  0  0  0  0  0  0  0  0  0
  147.0296  141.9169  154.0170 C   0  0  0  0  0  0  0  0  0  0  0  0
  149.7520  139.0598  154.4054 C   0  0  2  0  0  0  0  0  0  0  0  0
  149.1831  138.2760  155.6120 C   0  0  0  0  0  0  0  0  0  0  0  0
  149.7861  136.8641  155.6890 C   0  0  1  0  0  0  0  0  0  0  0  0
  149.2661  136.0400  154.6011 N   0  0  0  0  0  0  0  0  0  0  0  0
  148.7315  134.8144  154.7131 C   0  0  0  0  0  0  0  0  0  0  0  0
  148.6027  134.2408  155.7934 O   0  0  0  0  0  0  0  0  0  0  0  0
  148.3412  134.2300  153.5596 N   0  0  0  0  0  0  0  0  0  0  0  0
  147.7448  132.9600  153.2966 C   0  0  0  0  0  0  0  0  0  0  0  0
  146.7932  132.9672  152.2516 C   0  0  0  0  0  0  0  0  0  0  0  0
  146.1368  131.7723  151.8981 C   0  0  0  0  0  0  0  0  0  0  0  0
  146.4491  130.5943  152.5993 C   0  0  0  0  0  0  0  0  0  0  0  0
  147.4073  130.6695  153.6262 C   0  0  0  0  0  0  0  0  0  0  0  0
  148.0361  131.8145  153.9660 N   0  0  0  0  0  0  0  0  0  0  0  0
  151.3215  136.9657  155.6372 C   0  0  0  0  0  0  0  0  0  0  0  0
  151.7873  137.8227  154.4469 C   0  0  0  0  0  0  0  0  0  0  0  0
  151.1746  139.1076  154.4941 O   0  0  0  0  0  0  0  0  0  0  0  0
  149.8461  141.6888  157.5047 H   0  0  0  0  0  0  0  0  0  0  0  0
  149.5417  140.0300  157.0034 H   0  0  0  0  0  0  0  0  0  0  0  0
  148.2492  141.2310  156.9505 H   0  0  0  0  0  0  0  0  0  0  0  0
  149.4378  142.4704  155.1368 H   0  0  0  0  0  0  0  0  0  0  0  0
  150.8216  141.4378  155.3308 H   0  0  0  0  0  0  0  0  0  0  0  0
  149.5500  140.8774  153.2896 H   0  0  0  0  0  0  0  0  0  0  0  0
  147.2813  139.9096  153.3762 H   0  0  0  0  0  0  0  0  0  0  0  0
  147.2364  140.0620  155.1051 H   0  0  0  0  0  0  0  0  0  0  0  0
  145.9491  141.8470  153.8902 H   0  0  0  0  0  0  0  0  0  0  0  0
  147.4331  142.4099  153.1323 H   0  0  0  0  0  0  0  0  0  0  0  0
  147.2097  142.5623  154.8758 H   0  0  0  0  0  0  0  0  0  0  0  0
  149.4875  138.4968  153.5116 H   0  0  0  0  0  0  0  0  0  0  0  0
  149.4094  138.7913  156.5440 H   0  0  0  0  0  0  0  0  0  0  0  0
  148.0955  138.2189  155.5495 H   0  0  0  0  0  0  0  0  0  0  0  0
  149.4870  136.4099  156.6351 H   0  0  0  0  0  0  0  0  0  0  0  0
  149.3298  136.4310  153.6714 H   0  0  0  0  0  0  0  0  0  0  0  0
  148.4856  134.7980  152.7376 H   0  0  0  0  0  0  0  0  0  0  0  0
  146.5638  133.8801  151.7209 H   0  0  0  0  0  0  0  0  0  0  0  0
  145.4071  131.7615  151.1019 H   0  0  0  0  0  0  0  0  0  0  0  0
  145.9677  129.6585  152.3566 H   0  0  0  0  0  0  0  0  0  0  0  0
  147.6772  129.7882  154.1890 H   0  0  0  0  0  0  0  0  0  0  0  0
  151.6799  137.4217  156.5610 H   0  0  0  0  0  0  0  0  0  0  0  0
  151.7753  135.9752  155.5916 H   0  0  0  0  0  0  0  0  0  0  0  0
  152.8694  137.9498  154.4804 H   0  0  0  0  0  0  0  0  0  0  0  0
  151.5573  137.3335  153.4991 H   0  0  0  0  0  0  0  0  0  0  0  0
  1  2  1  0  0  0  0
  1 22  1  0  0  0  0
  1 23  1  0  0  0  0
  1 24  1  0  0  0  0
  2  3  1  0  0  0  0
  2 25  1  0  0  0  0
  2 26  1  0  0  0  0
  3  4  1  0  0  0  0
  3  6  1  0  0  0  0
  3 27  1  0  0  0  0
  4  5  1  0  0  0  0
  4 28  1  0  0  0  0
  4 29  1  0  0  0  0
  5 30  1  0  0  0  0
  5 31  1  0  0  0  0
  5 32  1  0  0  0  0
  6 21  1  0  0  0  0
  6  7  1  0  0  0  0
  6 33  1  0  0  0  0
  7  8  1  0  0  0  0
  7 34  1  0  0  0  0
  7 35  1  0  0  0  0
  8  9  1  0  0  0  0
  8 19  1  0  0  0  0
  8 36  1  0  0  0  0
  9 10  1  0  0  0  0
  9 37  1  0  0  0  0
 10 11  2  0  0  0  0
 10 12  1  0  0  0  0
 12 13  1  0  0  0  0
 12 38  1  0  0  0  0
 13 18  1  0  0  0  0
 13 14  2  0  0  0  0
 14 15  1  0  0  0  0
 14 39  1  0  0  0  0
 15 16  2  0  0  0  0
 15 40  1  0  0  0  0
 16 17  1  0  0  0  0
 16 41  1  0  0  0  0
 17 18  2  0  0  0  0
 17 42  1  0  0  0  0
 19 20  1  0  0  0  0
 19 43  1  0  0  0  0
 19 44  1  0  0  0  0
 20 21  1  0  0  0  0
 20 45  1  0  0  0  0
 20 46  1  0  0  0  0
M  END
> <s_m_source_file>
AV-unprocessed.smi

> <i_m_source_file_index>
2467

> <i_lp_mmshare_version>
43012

> <i_f3d_flags>
0

> <s_epik_input>
W0NIM11bQ0gyXVtDSF0oW0NIMl1bQ0gzXSlbQ0BASF0xW0NIMl1bQ0BIXShbQ0gyXVtDSDJdTzEpW05IXUMoPU8pW05IXWMyW2NIXVtjSF1bY0hdW2NIXW4y

> <s_epik_cmdline>
J2VwaWtfcHl0aG9uJywgJy1waCcsICc3LjAnLCAnLXRuJywgJzgnLCAnLW1hJywgJzIwMCcsICctbWV0YWxfYmluZGluZycsICctaW1hZScsICc8aW5maWxlLm1hZT4nLCAnLW9tYWUnLCAnPG91dGZpbGUubWFlPic=

> <r_lp_tautomer_probability>
1

> <r_epik_Ionization_Penalty>
4.80427e-05

> <r_epik_Ionization_Penalty_Charging>
0

> <r_epik_Ionization_Penalty_Neutral>
4.80427e-05

> <r_epik_State_Penalty>
-0

> <r_epik_Charging_Adjusted_Penalty>
0

> <i_epik_Tot_Q>
0

> <i_epik_Tot_abs_Q>
0

> <r_epik_Metal_State_Penalty>
-0

> <b_epik_Metal_Only>
0

> <s_lp_Force_Field>
OPLS_2005

> <r_lp_Energy>
18.1019

> <b_lp_Chiralities_Consistent>
1

> <s_lp_Variant>
AV-unprocessed.smi:2467-1

> <Gold.Version>
5.8.1

> <Gold.Id.Protein>
6NUR|6NUR_protein|mol2

> <Gold.PLP.Fitness>
42.2105

> <Gold.PLP.PLP>
-33.9791

> <Gold.PLP.part.hbond>
-3.0000

> <Gold.PLP.part.metal>
0.0000

> <Gold.PLP.part.buried>
-3.4959

> <Gold.PLP.part.nonpolar>
-28.8782

> <Gold.PLP.part.repulsive>
0.2404

> <Gold.PLP.ligand.clash>
0.0000

> <Gold.PLP.ligand.torsion>
0.4349

> <Gold.PLP.Chemscore.Hbond>
2.9600

> <Gold.PLP.Chemscore.CHOScore>
0.0000

> <Gold.PLP.Chemscore.Metal>
0.0000

> <Gold.Chemscore.Hbonds>
donor molecule, donor type, donor heavy atom, donor atom, acceptor molecule, acceptor atom, score
      L1  H     9    37       P1  7948  0.96
      L1  H    12    38       P1  7948  1.00
      P1  H  7989  7998       L1    21  0.91

> <Gold.PLP.Chemscore.Internal.Correction>
0.2212

> <Gold.Rescore>
     Score         DG    S(hbond)    S(metal)    S(lipo)     H(rot)  DE(clash)    DE(int)     intcor
     18.25     -19.46       2.62        0.00      77.33       1.49       0.13       1.09       ----

> <Gold.Chemscore.Fitness>
18.2514

> <Gold.Chemscore.DG>
-19.4622

> <Gold.Chemscore.ZeroCoef>
-5.4800

> <Gold.Chemscore.Hbond>
2.6162

> <Gold.Chemscore.Metal>
0.0000

> <Gold.Chemscore.Lipo>
77.3269

> <Gold.Chemscore.Internal_Hbond>
0.0000

> <Gold.Chemscore.DEClash>
0.1254

> <Gold.Chemscore.DEInternal>
1.0853

> <Gold.Chemscore.Rot>
1.4856

> <Gold.Chemscore.Internal.Correction>
   9.000000E+99

> <Gold.Chemscore.Hbonds>
donor molecule, donor type, donor heavy atom, donor atom, acceptor molecule, acceptor atom, score
      L1  H     9    37       P1  7948  0.81
      L1  H    12    38       P1  7948  0.34
      P1  H  7989  7998       L1    21  0.35

> <Gold.Chemscore.Hbond.Weighted>
-8.7380

> <Gold.Chemscore.Metal.Weighted>
-0.0000

> <Gold.Chemscore.Lipo.Weighted>
-9.0472

> <Gold.Chemscore.Internal_Hbond.Weighted>
0.0000

> <Gold.Chemscore.DEClash.Weighted>
0.1254

> <Gold.Chemscore.DEInternal.Weighted>
1.0853

> <Gold.Chemscore.Rot.Weighted>
3.8031

> <Gold.Chemscore.Internal.Correction.Weighted>
   9.000000E+99

> <Gold.Protein.RotatedTorsions>
[ 6907 6896 6895 6894 ] final  -69.76 input  -60.11 | X-H torsion
[ 7974 7965 7964 7962 ] final  108.29 input  175.53 | X-H torsion
[ 8008 7997 7996 7995 ] final  -81.24 input   59.86 | X-H torsion
[ 10167 10162 10161 10158 ] final -150.07 input  -65.29 | X-H torsion
[ 10718 10713 10712 10709 ] final  -97.56 input   66.30 | X-H torsion
[ 10763 10752 10751 10750 ] final  -93.03 input  -60.55 | X-H torsion
[ 11005 11000 10999 10996 ] final -160.41 input  -57.11 | X-H torsion

> <Gold.Protein.ActiveResidues>
 VAL166  LYS551  ARG553  GLY616  TRP617  ASP618  TYR619  PRO620  LYS621  CYS622 
 ASP623  PHE694  ASN695  SER759  ASP760  ASP761  ALA762  ILE779  LEU786  VAL792 
 PHE793  MET794  SER795  GLU796  ALA797  LYS798  CYS799  TRP800  GLU811  SER814 

> <Gold.Protein.RotatedAtoms>
  150.7290  134.5550  159.5813 H   0  0  0  0  0  0  0  0  0  0  0  0  # atno 6907 bound_to 6896
  152.3028  134.7588  160.0363 H   0  0  0  0  0  0  0  0  0  0  0  0  # atno 6908 bound_to 6896
  151.8163  133.3353  159.3607 H   0  0  0  0  0  0  0  0  0  0  0  0  # atno 6909 bound_to 6896
  145.2825  139.2627  143.3908 H   0  0  0  0  0  0  0  0  0  0  0  0  # atno 7974 bound_to 7965
  154.5964  140.0651  156.9309 H   0  0  0  0  0  0  0  0  0  0  0  0  # atno 8008 bound_to 7997
  155.2207  140.3330  155.4298 H   0  0  0  0  0  0  0  0  0  0  0  0  # atno 8009 bound_to 7997
  156.2290  140.1832  156.7275 H   0  0  0  0  0  0  0  0  0  0  0  0  # atno 8010 bound_to 7997
  139.7386  143.8696  152.2556 H   0  0  0  0  0  0  0  0  0  0  0  0  # atno 10167 bound_to 10162
  156.0086  130.5200  150.6393 H   0  0  0  0  0  0  0  0  0  0  0  0  # atno 10718 bound_to 10713
  154.6919  135.5209  153.8404 H   0  0  0  0  0  0  0  0  0  0  0  0  # atno 10763 bound_to 10752
  153.0638  135.6578  154.0410 H   0  0  0  0  0  0  0  0  0  0  0  0  # atno 10764 bound_to 10752
  154.0282  135.2987  155.3351 H   0  0  0  0  0  0  0  0  0  0  0  0  # atno 10765 bound_to 10752
  140.6318  134.4643  157.5230 H   0  0  0  0  0  0  0  0  0  0  0  0  # atno 11005 bound_to 11000
  146.3211  140.3296  142.8639 LP  0  0  0  0  0  0  0  0  0  0  0  0  # atno 17320 bound_to 7965
  144.9241  140.7901  143.5730 LP  0  0  0  0  0  0  0  0  0  0  0  0  # atno 17321 bound_to 7965
  139.8640  144.7102  150.9065 LP  0  0  0  0  0  0  0  0  0  0  0  0  # atno 17342 bound_to 10162
  140.7782  143.3793  151.1505 LP  0  0  0  0  0  0  0  0  0  0  0  0  # atno 17343 bound_to 10162
  157.4176  131.0832  151.1162 LP  0  0  0  0  0  0  0  0  0  0  0  0  # atno 17370 bound_to 10713
  157.1774  130.6294  149.5660 LP  0  0  0  0  0  0  0  0  0  0  0  0  # atno 17371 bound_to 10713
  139.9113  134.8339  156.1519 LP  0  0  0  0  0  0  0  0  0  0  0  0  # atno 17394 bound_to 11000
  141.0669  133.6815  156.2063 LP  0  0  0  0  0  0  0  0  0  0  0  0  # atno 17395 bound_to 11000

$$$$
