#       Name:                AV-unprocessed.smi:72
#       Creating user name   scv26
#       Creation time:       Thu Mar 26 17:00:57 2020


#       File generated by GOLD software.
#

@<TRIPOS>MOLECULE
AV-unprocessed.smi:72
    41    42     1
SMALL
NO_CHARGES


@<TRIPOS>ATOM
      1 ****        -2.2918   4.4803   1.0545 N.2            1 S1                 0.0000
      2 ****        -1.7991   3.3531   0.6841 C.2            1 S1                 0.0000
      3 ****        -0.4422   3.0009   0.7438 N.2            1 S1                 0.0000
      4 ****        -0.0864   1.8266   0.3217 C.2            1 S1                 0.0000
      5 ****        -1.0444   0.8738  -0.2178 N.am           1 S1                 0.0000
      6 ****        -0.6087  -0.4930  -0.6934 C.3            1 S1                 0.0000
      7 ****         0.6783  -0.4007  -1.2311 O.3            1 S1                 0.0000
      8 ****         1.4826  -1.4718  -0.7479 C.3            1 S1                 0.0000
      9 ****         2.9640  -1.0659  -0.7809 C.3            1 S1                 0.0000
     10 ****         3.4906  -1.2560  -2.0766 O.3            1 S1                 0.0000
     11 ****         0.9356  -1.6788   0.6652 C.3            1 S1                 0.0000
     12 ****         1.2760  -2.9371   1.2162 O.3            1 S1                 0.0000
     13 ****        -0.5661  -1.4854   0.4795 C.3            1 S1                 0.0000
     14 ****        -1.2350  -2.6879   0.1460 O.3            1 S1                 0.0000
     15 ****        -2.4215   1.2009  -0.2532 C.2            1 S1                 0.0000
     16 ****        -3.2786   0.4139  -0.6542 O.2            1 S1                 0.0000
     17 ****        -2.7372   2.4364   0.1919 N.am           1 S1                 0.0000
     18 ****        -1.2978  -0.7798  -1.4898 H              1 S1                 0.0000
     19 ****         1.2990  -2.3645  -1.3495 H              1 S1                 0.0000
     20 ****         1.3153  -0.8937   1.3209 H              1 S1                 0.0000
     21 ****        -1.0328  -1.0659   1.3720 H              1 S1                 0.0000
     22 ****        -3.2919   4.4843   0.9134 H              1 S1                 0.0000
     23 ****         0.9473   1.4797   0.3485 H              1 S1                 0.0000
     24 ****         3.0994  -0.0317  -0.4628 H              1 S1                 0.0000
     25 ****         3.5401  -1.6924  -0.0995 H              1 S1                 0.0000
     26 ****         4.4065  -1.0237  -2.0664 H              1 S1                 0.0000
     27 ****         0.8161  -3.0401   2.0352 H              1 S1                 0.0000
     28 ****        -2.1428  -2.4888  -0.0259 H              1 S1                 0.0000
     29 ****        -3.7095   2.7070   0.1736 H              1 S1                 0.0000
     30 ****        -1.7626   5.2423   1.4279 LP             1 S1                 0.0000
     31 ****         0.2362   3.6413   1.1040 LP             1 S1                 0.0000
     32 ****         1.0889   0.4703  -0.9613 LP             1 S1                 0.0000
     33 ****         0.6254  -0.4494  -2.2285 LP             1 S1                 0.0000
     34 ****         3.0026  -0.6743  -2.7274 LP             1 S1                 0.0000
     35 ****         3.3889  -2.2140  -2.3445 LP             1 S1                 0.0000
     36 ****         2.2623  -2.9799   1.3755 LP             1 S1                 0.0000
     37 ****         1.0084  -3.6652   0.5852 LP             1 S1                 0.0000
     38 ****        -1.1695  -3.3326   0.9076 LP             1 S1                 0.0000
     39 ****        -0.8180  -3.0909  -0.6687 LP             1 S1                 0.0000
     40 ****        -3.0124  -0.4963  -0.9714 LP             1 S1                 0.0000
     41 ****        -4.2412   0.6847  -0.6628 LP             1 S1                 0.0000
@<TRIPOS>BOND
    1    1    2 2     
    2    1   22 1     
    3    2   17 1     
    4    2    3 1     
    5    3    4 2     
    6    4    5 1     
    7    4   23 1     
    8    5    6 1     
    9    5   15 am    
   10    6   18 1     
   11    6   13 1     
   12    6    7 1     
   13    7    8 1     
   14    8   19 1     
   15    8    9 1     
   16    8   11 1     
   17    9   10 1     
   18    9   24 1     
   19    9   25 1     
   20   10   26 1     
   21   11   20 1     
   22   11   12 1     
   23   11   13 1     
   24   12   27 1     
   25   13   21 1     
   26   13   14 1     
   27   14   28 1     
   28   15   16 2     
   29   15   17 am    
   30   17   29 1     
   31    1   30 1     
   32    3   31 1     
   33    7   32 1     
   34    7   33 1     
   35   10   34 1     
   36   10   35 1     
   37   12   36 1     
   38   12   37 1     
   39   14   38 1     
   40   14   39 1     
   41   16   40 1     
   42   16   41 1     
@<TRIPOS>SUBSTRUCTURE
      1 S1             1
@<TRIPOS>SET
LONE_PAIRS      STATIC     ATOMS    <user>   **** ""
12 30 31 32 33 34 35 36 37 38 39 40 41
DONOR_HYDROGENS      STATIC     ATOMS    <user>   **** ""
5 22 26 27 28 29
ATOM$BLUE        STATIC     ATOMS    COLORGROUP SYSTEM
12 30 31 32 33 34 35 36 37 38 39 40 41
ATOM$RED        STATIC     ATOMS    COLORGROUP SYSTEM
5 22 26 27 28 29
