#       Name:                AV-unprocessed.smi:1308
#       Creating user name   scv26
#       Creation time:       Fri Mar 27 05:00:41 2020


#       File generated by GOLD software.
#

@<TRIPOS>MOLECULE
AV-unprocessed.smi:1308
    50    50     1
SMALL
NO_CHARGES


@<TRIPOS>ATOM
      1 ****        -4.7809   4.5640  -0.8356 C.3            1 S1                 0.0000
      2 ****        -3.9196   3.3212  -0.7792 C.2            1 S1                 0.0000
      3 ****        -3.4821   2.8911  -2.0211 N.pl3          1 S1                 0.0000
      4 ****        -2.6933   1.7554  -2.0718 C.2            1 S1                 0.0000
      5 ****        -2.2567   1.3519  -3.4692 C.3            1 S1                 0.0000
      6 ****        -2.3546   1.0847  -0.9416 C.2            1 S1                 0.0000
      7 ****        -1.4811  -0.1694  -0.9504 C.3            1 S1                 0.0000
      8 ****         0.0328   0.0582  -0.9343 C.2            1 S1                 0.0000
      9 ****         0.4959   1.1988  -0.9091 O.2            1 S1                 0.0000
     10 ****         0.7894  -1.0502  -0.9382 N.am           1 S1                 0.0000
     11 ****         2.2498  -1.0943  -0.8772 C.3            1 S1                 0.0000
     12 ****         2.7906  -1.7573  -2.1515 C.3            1 S1                 0.0000
     13 ****         2.7119  -1.8366   0.3918 C.3            1 S1                 0.0000
     14 ****         2.2537  -1.1670   1.7024 C.3            1 S1                 0.0000
     15 ****         2.8412  -1.8065   2.9770 C.3            1 S1                 0.0000
     16 ****         2.3508  -3.2485   3.1908 C.3            1 S1                 0.0000
     17 ****         2.5246  -0.9454   4.2092 C.3            1 S1                 0.0000
     18 ****        -2.8422   1.6006   0.3592 C.2            1 S1                 0.0000
     19 ****        -2.5516   1.0485   1.4196 O.2            1 S1                 0.0000
     20 ****        -3.6480   2.7509   0.3552 N.2            1 S1                 0.0000
     21 ****        -3.7092   3.3609  -2.8856 H              1 S1                 0.0000
     22 ****        -5.0376   4.9060   0.1677 H              1 S1                 0.0000
     23 ****        -5.7070   4.3596  -1.3737 H              1 S1                 0.0000
     24 ****        -4.2531   5.3706  -1.3454 H              1 S1                 0.0000
     25 ****        -1.1690   1.3145  -3.5317 H              1 S1                 0.0000
     26 ****        -2.6111   2.0581  -4.2211 H              1 S1                 0.0000
     27 ****        -2.6517   0.3680  -3.7225 H              1 S1                 0.0000
     28 ****        -1.7189  -0.7559  -1.8378 H              1 S1                 0.0000
     29 ****        -1.7452  -0.8154  -0.1121 H              1 S1                 0.0000
     30 ****         0.3131  -1.9403  -0.9628 H              1 S1                 0.0000
     31 ****         2.6574  -0.0824  -0.8389 H              1 S1                 0.0000
     32 ****         3.8806  -1.7839  -2.1471 H              1 S1                 0.0000
     33 ****         2.4795  -1.2098  -3.0418 H              1 S1                 0.0000
     34 ****         2.4333  -2.7831  -2.2487 H              1 S1                 0.0000
     35 ****         2.3513  -2.8649   0.3547 H              1 S1                 0.0000
     36 ****         3.8010  -1.8961   0.3880 H              1 S1                 0.0000
     37 ****         2.5460  -0.1165   1.6692 H              1 S1                 0.0000
     38 ****         1.1649  -1.1731   1.7653 H              1 S1                 0.0000
     39 ****         3.9266  -1.8339   2.8734 H              1 S1                 0.0000
     40 ****         1.2627  -3.2934   3.2435 H              1 S1                 0.0000
     41 ****         2.7452  -3.6625   4.1193 H              1 S1                 0.0000
     42 ****         2.6745  -3.9074   2.3855 H              1 S1                 0.0000
     43 ****         1.4490  -0.8673   4.3719 H              1 S1                 0.0000
     44 ****         2.9178   0.0654   4.0958 H              1 S1                 0.0000
     45 ****         2.9680  -1.3685   5.1110 H              1 S1                 0.0000
     46 ****        -0.1184   1.9878  -0.8990 LP             1 S1                 0.0000
     47 ****         1.4864   1.3362  -0.8988 LP             1 S1                 0.0000
     48 ****        -1.9738   0.2323   1.4164 LP             1 S1                 0.0000
     49 ****        -2.8931   1.4160   2.2846 LP             1 S1                 0.0000
     50 ****        -4.0062   3.1242   1.2109 LP             1 S1                 0.0000
@<TRIPOS>BOND
    1    1   22 1     
    2    1   23 1     
    3    1   24 1     
    4    1    2 1     
    5    2    3 1     
    6    2   20 2     
    7    3    4 1     
    8    3   21 1     
    9    4    6 2     
   10    4    5 1     
   11    5   25 1     
   12    5   26 1     
   13    5   27 1     
   14    6   18 1     
   15    6    7 1     
   16    7    8 1     
   17    7   28 1     
   18    7   29 1     
   19    8    9 2     
   20    8   10 am    
   21   10   11 1     
   22   10   30 1     
   23   11   12 1     
   24   11   13 1     
   25   11   31 1     
   26   12   32 1     
   27   12   33 1     
   28   12   34 1     
   29   13   14 1     
   30   13   35 1     
   31   13   36 1     
   32   14   15 1     
   33   14   37 1     
   34   14   38 1     
   35   15   16 1     
   36   15   17 1     
   37   15   39 1     
   38   16   40 1     
   39   16   41 1     
   40   16   42 1     
   41   17   43 1     
   42   17   44 1     
   43   17   45 1     
   44   18   19 2     
   45   18   20 1     
   46    9   46 1     
   47    9   47 1     
   48   19   48 1     
   49   19   49 1     
   50   20   50 1     
@<TRIPOS>SUBSTRUCTURE
      1 S1             1
@<TRIPOS>SET
LONE_PAIRS      STATIC     ATOMS    <user>   **** ""
5 46 47 48 49 50
DONOR_HYDROGENS      STATIC     ATOMS    <user>   **** ""
2 21 30
ATOM$BLUE        STATIC     ATOMS    COLORGROUP SYSTEM
5 46 47 48 49 50
ATOM$RED        STATIC     ATOMS    COLORGROUP SYSTEM
2 21 30
