#       Name:                AV-unprocessed.smi:100
#       Creating user name   scv26
#       Creation time:       Thu Mar 26 17:39:39 2020


#       File generated by GOLD software.
#

@<TRIPOS>MOLECULE
AV-unprocessed.smi:100
    40    42     1
SMALL
NO_CHARGES


@<TRIPOS>ATOM
      1 ****        -5.1833   0.7480  -0.2202 N.pl3          1 S1                 0.0000
      2 ****        -3.9479   1.2672  -0.2087 C.ar           1 S1                 0.0000
      3 ****        -3.8164   2.6144  -0.1788 N.ar           1 S1                 0.0000
      4 ****        -2.5944   3.1577  -0.1662 C.ar           1 S1                 0.0000
      5 ****        -1.4067   2.5453  -0.1796 N.ar           1 S1                 0.0000
      6 ****        -1.5441   1.1873  -0.2136 C.ar           1 S1                 0.0000
      7 ****        -2.7736   0.4731  -0.2272 C.ar           1 S1                 0.0000
      8 ****        -2.5259  -0.8933  -0.2560 N.2            1 S1                 0.0000
      9 ****        -1.2218  -0.9764  -0.2599 C.2            1 S1                 0.0000
     10 ****        -0.5541   0.2296  -0.2401 N.pl3          1 S1                 0.0000
     11 ****         0.9173   0.4803  -0.2323 C.3            1 S1                 0.0000
     12 ****         1.5112  -0.5017  -1.0280 O.3            1 S1                 0.0000
     13 ****         2.6744  -0.9894  -0.3761 C.3            1 S1                 0.0000
     14 ****         3.0751  -2.3680  -0.9241 C.3            1 S1                 0.0000
     15 ****         4.2938  -2.7889  -0.3488 O.3            1 S1                 0.0000
     16 ****         2.2904  -0.9490   1.1042 C.3            1 S1                 0.0000
     17 ****         1.5229  -1.9928   1.4252 F              1 S1                 0.0000
     18 ****         1.4654   0.3250   1.1984 C.3            1 S1                 0.0000
     19 ****         2.2793   1.4171   1.5766 O.3            1 S1                 0.0000
     20 ****        -5.3072  -0.2540  -0.2431 H              1 S1                 0.0000
     21 ****        -5.9870   1.3589  -0.2094 H              1 S1                 0.0000
     22 ****        -2.5639   4.2371  -0.1438 H              1 S1                 0.0000
     23 ****        -0.7080  -1.9267  -0.2782 H              1 S1                 0.0000
     24 ****         1.0524   1.4729  -0.6648 H              1 S1                 0.0000
     25 ****         3.4775  -0.2732  -0.5608 H              1 S1                 0.0000
     26 ****         2.3013  -3.1114  -0.7320 H              1 S1                 0.0000
     27 ****         3.2063  -2.3156  -2.0053 H              1 S1                 0.0000
     28 ****         4.5153  -3.6367  -0.7027 H              1 S1                 0.0000
     29 ****         3.1516  -0.9674   1.7732 H              1 S1                 0.0000
     30 ****         0.6565   0.2342   1.9254 H              1 S1                 0.0000
     31 ****         1.7436   2.1957   1.5978 H              1 S1                 0.0000
     32 ****        -4.6275   3.1992  -0.1663 LP             1 S1                 0.0000
     33 ****        -0.5276   3.0219  -0.1664 LP             1 S1                 0.0000
     34 ****        -3.1910  -1.6399  -0.2704 LP             1 S1                 0.0000
     35 ****         1.7632  -0.1086  -1.9123 LP             1 S1                 0.0000
     36 ****         0.8667  -1.2532  -1.1689 LP             1 S1                 0.0000
     37 ****         4.1936  -2.8535   0.6440 LP             1 S1                 0.0000
     38 ****         5.0153  -2.1324  -0.5690 LP             1 S1                 0.0000
     39 ****         3.0180   1.5335   0.9127 LP             1 S1                 0.0000
     40 ****         2.6685   1.2503   2.4825 LP             1 S1                 0.0000
@<TRIPOS>BOND
    1    1    2 1     
    2    1   20 1     
    3    1   21 1     
    4    2    7 ar    
    5    2    3 ar    
    6    3    4 ar    
    7    4    5 ar    
    8    4   22 1     
    9    5    6 ar    
   10    6   10 1     
   11    6    7 ar    
   12    7    8 1     
   13    8    9 2     
   14    9   10 1     
   15    9   23 1     
   16   10   11 1     
   17   11   18 1     
   18   11   12 1     
   19   11   24 1     
   20   12   13 1     
   21   13   14 1     
   22   13   16 1     
   23   13   25 1     
   24   14   15 1     
   25   14   26 1     
   26   14   27 1     
   27   15   28 1     
   28   16   17 1     
   29   16   18 1     
   30   16   29 1     
   31   18   19 1     
   32   18   30 1     
   33   19   31 1     
   34    3   32 1     
   35    5   33 1     
   36    8   34 1     
   37   12   35 1     
   38   12   36 1     
   39   15   37 1     
   40   15   38 1     
   41   19   39 1     
   42   19   40 1     
@<TRIPOS>SUBSTRUCTURE
      1 S1             1
@<TRIPOS>SET
LONE_PAIRS      STATIC     ATOMS    <user>   **** ""
9 32 33 34 35 36 37 38 39 40
DONOR_HYDROGENS      STATIC     ATOMS    <user>   **** ""
4 20 21 28 31
ATOM$BLUE        STATIC     ATOMS    COLORGROUP SYSTEM
9 32 33 34 35 36 37 38 39 40
ATOM$RED        STATIC     ATOMS    COLORGROUP SYSTEM
4 20 21 28 31
