AV-unprocessed.smi:2120|AV-procd|sdf|8638|dock9
  -GOLD-   2272011383D 1   1.00000     0.00000
 Structure written by MMmdl.
 45 48  0  0  0  0  0  0  0  0  1 V2000
  147.0496  138.5244  151.2378 O   0  0  0  0  0  0  0  0  0  0  0  0
  146.6465  138.3918  152.3943 C   0  0  0  0  0  0  0  0  0  0  0  0
  145.7918  137.4159  152.7450 N   0  0  0  0  0  0  0  0  0  0  0  0
  145.2371  136.4179  151.8383 C   0  0  0  0  0  0  0  0  0  0  0  0
  144.5471  135.2749  152.6018 C   0  0  0  0  0  0  0  0  0  0  0  0
  145.1242  133.9186  152.2470 C   0  0  0  0  0  0  0  0  0  0  0  0
  144.2816  132.8594  151.8508 C   0  0  0  0  0  0  0  0  0  0  0  0
  144.8592  131.6155  151.5324 C   0  0  0  0  0  0  0  0  0  0  0  0
  146.2595  131.4842  151.6213 C   0  0  0  0  0  0  0  0  0  0  0  0
  147.0763  132.4915  151.9985 N   0  0  0  0  0  0  0  0  0  0  0  0
  146.5141  133.6809  152.3038 C   0  0  0  0  0  0  0  0  0  0  0  0
  147.1355  139.3681  153.4903 C   0  0  0  0  0  0  0  0  0  0  0  0
  147.1278  140.8145  152.9244 C   0  0  0  0  0  0  0  0  0  0  0  0
  147.5607  141.8198  154.0136 C   0  0  1  0  0  0  0  0  0  0  0  0
  146.5797  141.7472  155.2024 C   0  0  0  0  0  0  0  0  0  0  0  0
  146.5959  140.3196  155.7878 C   0  0  2  0  0  0  0  0  0  0  0  0
  148.0181  139.9759  156.2763 C   0  0  0  0  0  0  0  0  0  0  0  0
  148.9966  140.0538  155.0862 C   0  0  2  0  0  0  0  0  0  0  0  0
  148.9860  141.4799  154.4973 C   0  0  0  0  0  0  0  0  0  0  0  0
  148.5720  139.0438  153.9990 C   0  0  0  0  0  0  0  0  0  0  0  0
  146.1629  139.3116  154.7015 C   0  0  0  0  0  0  0  0  0  0  0  0
  145.5024  137.3660  153.7111 H   0  0  0  0  0  0  0  0  0  0  0  0
  144.5177  136.9158  151.1877 H   0  0  0  0  0  0  0  0  0  0  0  0
  146.0250  136.0294  151.1907 H   0  0  0  0  0  0  0  0  0  0  0  0
  144.6498  135.4191  153.6781 H   0  0  0  0  0  0  0  0  0  0  0  0
  143.4765  135.2793  152.3919 H   0  0  0  0  0  0  0  0  0  0  0  0
  143.2115  132.9966  151.7944 H   0  0  0  0  0  0  0  0  0  0  0  0
  144.2444  130.7817  151.2269 H   0  0  0  0  0  0  0  0  0  0  0  0
  146.7355  130.5444  151.3836 H   0  0  0  0  0  0  0  0  0  0  0  0
  147.1952  134.4642  152.6024 H   0  0  0  0  0  0  0  0  0  0  0  0
  147.7986  140.8898  152.0670 H   0  0  0  0  0  0  0  0  0  0  0  0
  146.1350  141.0811  152.5577 H   0  0  0  0  0  0  0  0  0  0  0  0
  147.5510  142.8282  153.5989 H   0  0  0  0  0  0  0  0  0  0  0  0
  146.8580  142.4731  155.9676 H   0  0  0  0  0  0  0  0  0  0  0  0
  145.5724  142.0115  154.8783 H   0  0  0  0  0  0  0  0  0  0  0  0
  145.9024  140.2655  156.6273 H   0  0  0  0  0  0  0  0  0  0  0  0
  148.3243  140.6662  157.0633 H   0  0  0  0  0  0  0  0  0  0  0  0
  148.0358  138.9782  156.7166 H   0  0  0  0  0  0  0  0  0  0  0  0
  150.0028  139.8127  155.4307 H   0  0  0  0  0  0  0  0  0  0  0  0
  149.6940  141.5533  153.6708 H   0  0  0  0  0  0  0  0  0  0  0  0
  149.3122  142.2009  155.2481 H   0  0  0  0  0  0  0  0  0  0  0  0
  148.6159  138.0323  154.4065 H   0  0  0  0  0  0  0  0  0  0  0  0
  149.2905  139.0794  153.1782 H   0  0  0  0  0  0  0  0  0  0  0  0
  145.1410  139.5353  154.3907 H   0  0  0  0  0  0  0  0  0  0  0  0
  146.1391  138.3047  155.1213 H   0  0  0  0  0  0  0  0  0  0  0  0
  1  2  2  0  0  0  0
  2  3  1  0  0  0  0
  2 12  1  0  0  0  0
  3  4  1  0  0  0  0
  3 22  1  0  0  0  0
  4  5  1  0  0  0  0
  4 23  1  0  0  0  0
  4 24  1  0  0  0  0
  5  6  1  0  0  0  0
  5 25  1  0  0  0  0
  5 26  1  0  0  0  0
  6 11  1  0  0  0  0
  6  7  2  0  0  0  0
  7  8  1  0  0  0  0
  7 27  1  0  0  0  0
  8  9  2  0  0  0  0
  8 28  1  0  0  0  0
  9 10  1  0  0  0  0
  9 29  1  0  0  0  0
 10 11  2  0  0  0  0
 11 30  1  0  0  0  0
 12 20  1  0  0  0  0
 12 21  1  0  0  0  0
 12 13  1  0  0  0  0
 13 14  1  0  0  0  0
 13 31  1  0  0  0  0
 13 32  1  0  0  0  0
 14 19  1  0  0  0  0
 14 15  1  0  0  0  0
 14 33  1  0  0  0  0
 15 16  1  0  0  0  0
 15 34  1  0  0  0  0
 15 35  1  0  0  0  0
 16 17  1  0  0  0  0
 16 21  1  0  0  0  0
 16 36  1  0  0  0  0
 17 18  1  0  0  0  0
 17 37  1  0  0  0  0
 17 38  1  0  0  0  0
 18 19  1  0  0  0  0
 18 20  1  0  0  0  0
 18 39  1  0  0  0  0
 19 40  1  0  0  0  0
 19 41  1  0  0  0  0
 20 42  1  0  0  0  0
 20 43  1  0  0  0  0
 21 44  1  0  0  0  0
 21 45  1  0  0  0  0
M  END
> <s_m_source_file>
AV-unprocessed.smi

> <i_m_source_file_index>
2120

> <i_lp_mmshare_version>
43012

> <i_f3d_flags>
0

> <s_epik_input>
W0NIMl0xW0NASF0oW0NIMl0yKVtDSDJdW0NASF0oW0NIMl0zKVtDSDJdW0NAQEhdMVtDSDJdQzIzQyg9TylbTkhdW0NIMl1bQ0gyXWM0W2NIXVtjSF1bY0hdbltjSF00

> <s_epik_cmdline>
J2VwaWtfcHl0aG9uJywgJy1waCcsICc3LjAnLCAnLXRuJywgJzgnLCAnLW1hJywgJzIwMCcsICctbWV0YWxfYmluZGluZycsICctaW1hZScsICc8aW5maWxlLm1hZT4nLCAnLW9tYWUnLCAnPG91dGZpbGUubWFlPic=

> <r_epik_Ionization_Penalty>
0.0137322

> <r_epik_Ionization_Penalty_Charging>
0

> <r_epik_Ionization_Penalty_Neutral>
0.0137322

> <r_epik_State_Penalty>
0.0107033

> <r_epik_Charging_Adjusted_Penalty>
0.0107033

> <i_epik_Tot_Q>
0

> <i_epik_Tot_abs_Q>
0

> <r_epik_Metal_State_Penalty>
0.0104605

> <b_epik_Metal_Only>
0

> <s_lp_Force_Field>
OPLS_2005

> <r_lp_Energy>
34.8386

> <b_lp_Chiralities_Consistent>
1

> <s_lp_Variant>
AV-unprocessed.smi:2120-1

> <Gold.Version>
5.8.1

> <Gold.Id.Protein>
6NUR|6NUR_protein|mol2

> <Gold.PLP.Fitness>
39.7003

> <Gold.PLP.PLP>
-34.2342

> <Gold.PLP.part.hbond>
-1.0000

> <Gold.PLP.part.metal>
0.0000

> <Gold.PLP.part.buried>
-3.1416

> <Gold.PLP.part.nonpolar>
-31.2634

> <Gold.PLP.part.repulsive>
2.1289

> <Gold.PLP.ligand.clash>
0.0214

> <Gold.PLP.ligand.torsion>
1.2514

> <Gold.PLP.Chemscore.Hbond>
0.9760

> <Gold.PLP.Chemscore.CHOScore>
1.6848

> <Gold.PLP.Chemscore.Metal>
0.0000

> <Gold.Chemscore.Hbonds>
donor molecule, donor type, donor heavy atom, donor atom, acceptor molecule, acceptor atom, score
      P1  H  7954  7966       L1     1  1.00
      L1  C     9    29       P1 10747  0.66
      L1  C    11    30       P1  7948  0.91

> <Gold.PLP.Chemscore.Internal.Correction>
0.0076

> <Gold.Rescore>
     Score         DG    S(hbond)    S(metal)    S(lipo)     H(rot)  DE(clash)    DE(int)     intcor
     13.11     -15.72       0.92        0.00      90.16       1.32       1.56       1.04       ----

> <Gold.Chemscore.Fitness>
13.1090

> <Gold.Chemscore.DG>
-15.7158

> <Gold.Chemscore.ZeroCoef>
-5.4800

> <Gold.Chemscore.Hbond>
0.9219

> <Gold.Chemscore.Metal>
0.0000

> <Gold.Chemscore.Lipo>
90.1586

> <Gold.Chemscore.Internal_Hbond>
0.0000

> <Gold.Chemscore.DEClash>
1.5628

> <Gold.Chemscore.DEInternal>
1.0441

> <Gold.Chemscore.Rot>
1.3250

> <Gold.Chemscore.Internal.Correction>
   9.000000E+99

> <Gold.Chemscore.Hbonds>
donor molecule, donor type, donor heavy atom, donor atom, acceptor molecule, acceptor atom, score
      P1  H  7954  7966       L1     1  0.98

> <Gold.Chemscore.Hbond.Weighted>
-3.0792

> <Gold.Chemscore.Metal.Weighted>
-0.0000

> <Gold.Chemscore.Lipo.Weighted>
-10.5486

> <Gold.Chemscore.Internal_Hbond.Weighted>
0.0000

> <Gold.Chemscore.DEClash.Weighted>
1.5628

> <Gold.Chemscore.DEInternal.Weighted>
1.0441

> <Gold.Chemscore.Rot.Weighted>
3.3920

> <Gold.Chemscore.Internal.Correction.Weighted>
   9.000000E+99

> <Gold.Protein.RotatedTorsions>
[ 6907 6896 6895 6894 ] final   63.38 input  -60.11 | X-H torsion
[ 7974 7965 7964 7962 ] final  -72.21 input  175.53 | X-H torsion
[ 8008 7997 7996 7995 ] final  105.89 input   59.86 | X-H torsion
[ 10167 10162 10161 10158 ] final -104.15 input  -65.29 | X-H torsion
[ 10718 10713 10712 10709 ] final  -25.77 input   66.30 | X-H torsion
[ 10763 10752 10751 10750 ] final  122.05 input  -60.55 | X-H torsion
[ 11005 11000 10999 10996 ] final    6.01 input  -57.11 | X-H torsion

> <Gold.Protein.ActiveResidues>
 VAL166  LYS551  ARG553  GLY616  TRP617  ASP618  TYR619  PRO620  LYS621  CYS622 
 ASP623  PHE694  ASN695  SER759  ASP760  ASP761  ALA762  ILE779  LEU786  VAL792 
 PHE793  MET794  SER795  GLU796  ALA797  LYS798  CYS799  TRP800  GLU811  SER814 

> <Gold.Protein.RotatedAtoms>
  152.4248  134.5888  159.9968 H   0  0  0  0  0  0  0  0  0  0  0  0  # atno 6907 bound_to 6896
  151.6028  133.3349  159.3059 H   0  0  0  0  0  0  0  0  0  0  0  0  # atno 6908 bound_to 6896
  150.8137  134.7344  159.6776 H   0  0  0  0  0  0  0  0  0  0  0  0  # atno 6909 bound_to 6896
  145.6681  140.9230  143.0897 H   0  0  0  0  0  0  0  0  0  0  0  0  # atno 7974 bound_to 7965
  156.1697  140.3122  155.8952 H   0  0  0  0  0  0  0  0  0  0  0  0  # atno 8008 bound_to 7997
  155.3612  140.0476  157.3063 H   0  0  0  0  0  0  0  0  0  0  0  0  # atno 8009 bound_to 7997
  154.5228  140.2204  155.8954 H   0  0  0  0  0  0  0  0  0  0  0  0  # atno 8010 bound_to 7997
  140.2123  143.3737  152.1040 H   0  0  0  0  0  0  0  0  0  0  0  0  # atno 10167 bound_to 10162
  156.4600  130.4502  149.6935 H   0  0  0  0  0  0  0  0  0  0  0  0  # atno 10718 bound_to 10713
  153.6237  135.3408  155.3019 H   0  0  0  0  0  0  0  0  0  0  0  0  # atno 10763 bound_to 10752
  154.8595  135.4279  154.2180 H   0  0  0  0  0  0  0  0  0  0  0  0  # atno 10764 bound_to 10752
  153.3059  135.7028  153.7233 H   0  0  0  0  0  0  0  0  0  0  0  0  # atno 10765 bound_to 10752
  140.5643  134.0162  155.7984 H   0  0  0  0  0  0  0  0  0  0  0  0  # atno 11005 bound_to 11000
  144.7066  139.8537  143.7428 LP  0  0  0  0  0  0  0  0  0  0  0  0  # atno 17320 bound_to 7965
  146.1068  139.4069  143.0312 LP  0  0  0  0  0  0  0  0  0  0  0  0  # atno 17321 bound_to 7965
  139.5175  144.6993  151.5541 LP  0  0  0  0  0  0  0  0  0  0  0  0  # atno 17342 bound_to 10162
  140.6314  143.9068  150.6609 LP  0  0  0  0  0  0  0  0  0  0  0  0  # atno 17343 bound_to 10162
  156.3727  130.7538  151.2523 LP  0  0  0  0  0  0  0  0  0  0  0  0  # atno 17370 bound_to 10713
  157.7498  131.0318  150.4200 LP  0  0  0  0  0  0  0  0  0  0  0  0  # atno 17371 bound_to 10713
  141.1095  133.9639  157.2936 LP  0  0  0  0  0  0  0  0  0  0  0  0  # atno 17394 bound_to 11000
  139.9392  135.0193  156.8655 LP  0  0  0  0  0  0  0  0  0  0  0  0  # atno 17395 bound_to 11000

$$$$
