AV-unprocessed.smi:72|AV-procd|sdf|712|dock5
  -GOLD-   2262017 33D 1   1.00000     0.00000
 Structure written by MMmdl.
 28 29  0  0  0  0  0  0  0  0  2 V2000
  154.4560  137.8244  155.4132 N   0  0  0  0  0  0  0  0  0  0  0  0
  153.2290  138.1128  155.4275 C   0  0  0  0  0  0  0  0  0  0  0  0
  152.8078  139.4878  155.5846 N   0  0  0  0  0  0  0  0  0  0  0  0
  151.5334  139.7322  155.6008 C   0  0  0  0  0  0  0  0  0  0  0  0
  150.5452  138.6688  155.4710 N   0  0  0  0  0  0  0  0  0  0  0  0
  149.0522  138.9486  155.4859 C   0  0  1  0  0  0  0  0  0  0  0  0
  148.8238  140.3040  155.7586 O   0  0  0  0  0  0  0  0  0  0  0  0
  148.2595  140.9346  154.6152 C   0  0  2  0  0  0  0  0  0  0  0  0
  147.5048  142.2164  155.0114 C   0  0  0  0  0  0  0  0  0  0  0  0
  147.4151  143.1367  153.9429 O   0  0  0  0  0  0  0  0  0  0  0  0
  147.4492  139.8243  153.9460 C   0  0  1  0  0  0  0  0  0  0  0  0
  147.1495  140.0979  152.5897 O   0  0  0  0  0  0  0  0  0  0  0  0
  148.3564  138.6128  154.1415 C   0  0  1  0  0  0  0  0  0  0  0  0
  149.2616  138.4423  153.0604 O   0  0  0  0  0  0  0  0  0  0  0  0
  150.9887  137.3302  155.3040 C   0  0  0  0  0  0  0  0  0  0  0  0
  150.1376  136.4507  155.1693 O   0  0  0  0  0  0  0  0  0  0  0  0
  152.3279  137.0805  155.2885 N   0  5  0  0  0  0  0  0  0  0  0  0
  148.6533  138.3823  156.3291 H   0  0  0  0  0  0  0  0  0  0  0  0
  149.0903  141.2107  153.9634 H   0  0  0  0  0  0  0  0  0  0  0  0
  146.5188  139.6505  154.4873 H   0  0  0  0  0  0  0  0  0  0  0  0
  147.7801  137.6937  154.2510 H   0  0  0  0  0  0  0  0  0  0  0  0
  154.6161  136.8344  155.2968 H   0  0  0  0  0  0  0  0  0  0  0  0
  151.1313  140.7392  155.7085 H   0  0  0  0  0  0  0  0  0  0  0  0
  146.5044  141.9753  155.3717 H   0  0  0  0  0  0  0  0  0  0  0  0
  148.0279  142.7096  155.8309 H   0  0  0  0  0  0  0  0  0  0  0  0
  147.8560  143.9334  154.1954 H   0  0  0  0  0  0  0  0  0  0  0  0
  147.9627  140.1676  152.1136 H   0  0  0  0  0  0  0  0  0  0  0  0
  149.2750  139.2413  152.5549 H   0  0  0  0  0  0  0  0  0  0  0  0
  1  2  2  0  0  0  0
  1 22  1  0  0  0  0
  2 17  1  0  0  0  0
  2  3  1  0  0  0  0
  3  4  2  0  0  0  0
  4  5  1  0  0  0  0
  4 23  1  0  0  0  0
  5  6  1  0  0  0  0
  5 15  1  0  0  0  0
  6 18  1  0  0  0  0
  6 13  1  0  0  0  0
  6  7  1  0  0  0  0
  7  8  1  0  0  0  0
  8 19  1  0  0  0  0
  8  9  1  0  0  0  0
  8 11  1  0  0  0  0
  9 10  1  0  0  0  0
  9 24  1  0  0  0  0
  9 25  1  0  0  0  0
 10 26  1  0  0  0  0
 11 20  1  0  0  0  0
 11 12  1  0  0  0  0
 11 13  1  0  0  0  0
 12 27  1  0  0  0  0
 13 21  1  0  0  0  0
 13 14  1  0  0  0  0
 14 28  1  0  0  0  0
 15 16  2  0  0  0  0
 15 17  1  0  0  0  0
M  CHG  1  17  -1
M  END
> <s_m_source_file>
AV-unprocessed.smi

> <i_m_source_file_index>
72

> <i_lp_mmshare_version>
43012

> <i_f3d_flags>
0

> <s_epik_input>
W05IMl1jMW5bY0hdbihjKD1PKW4xKVtDQEBIXTJPW0NASF0oW0NIMl1bT0hdKVtDQEBIXShbT0hdKVtDQEhdMltPSF0=

> <s_epik_cmdline>
J2VwaWtfcHl0aG9uJywgJy1waCcsICc3LjAnLCAnLXRuJywgJzgnLCAnLW1hJywgJzIwMCcsICctbWV0YWxfYmluZGluZycsICctaW1hZScsICc8aW5maWxlLm1hZT4nLCAnLW9tYWUnLCAnPG91dGZpbGUubWFlPic=

> <r_lp_tautomer_probability>
7.17554e-07

> <r_epik_Ionization_Penalty>
12.8705

> <r_epik_Ionization_Penalty_Charging>
5.64144

> <r_epik_Ionization_Penalty_Neutral>
7.22905

> <r_epik_State_Penalty>
3.30104

> <r_epik_Charging_Adjusted_Penalty>
8.94249

> <i_epik_Tot_Q>
-1

> <i_epik_Tot_abs_Q>
1

> <r_epik_Metal_State_Penalty>
0.529074

> <b_epik_Metal_Only>
1

> <s_epik_Chemistry_Notes>
This compound contains an acetal/aminal-like group ( X-CH(R)-Y where X, Y are N, S, or O) that may be acid/base labile, releasing an aldehyde.

> <s_lp_Force_Field>
OPLS_2005

> <r_lp_Energy>
42.9938

> <b_lp_Chiralities_Consistent>
1

> <s_lp_Variant>
AV-unprocessed.smi:72-50

> <Gold.Version>
5.8.1

> <Gold.Id.Protein>
6NUR|6NUR_protein|mol2

> <Gold.PLP.Fitness>
37.8142

> <Gold.PLP.PLP>
-22.2302

> <Gold.PLP.part.hbond>
-9.4988

> <Gold.PLP.part.metal>
0.0000

> <Gold.PLP.part.buried>
0.2154

> <Gold.PLP.part.nonpolar>
-14.6310

> <Gold.PLP.part.repulsive>
0.2238

> <Gold.PLP.ligand.clash>
0.0000

> <Gold.PLP.ligand.torsion>
0.3204

> <Gold.PLP.Chemscore.Hbond>
5.3960

> <Gold.PLP.Chemscore.CHOScore>
0.0000

> <Gold.PLP.Chemscore.Metal>
0.0000

> <Gold.Chemscore.Hbonds>
donor molecule, donor type, donor heavy atom, donor atom, acceptor molecule, acceptor atom, score
      L1  H    10    26       P1  8028  0.86
      L1  H    12    27       P1  7957  1.00
      L1  H    14    28       P1  7957  0.98
      P1  H  7997  8009       L1     3  0.90
      P1  H 10752 10764       L1    17  1.57

> <Gold.PLP.Chemscore.Internal.Correction>
0.0369

> <Gold.Rescore>
     Score         DG    S(hbond)    S(metal)    S(lipo)     H(rot)  DE(clash)    DE(int)     intcor
      8.47     -10.18       3.74        0.00      21.76       4.04       1.19       0.52       ----

> <Gold.Chemscore.Fitness>
8.4656

> <Gold.Chemscore.DG>
-10.1798

> <Gold.Chemscore.ZeroCoef>
-5.4800

> <Gold.Chemscore.Hbond>
3.7417

> <Gold.Chemscore.Metal>
0.0000

> <Gold.Chemscore.Lipo>
21.7572

> <Gold.Chemscore.Internal_Hbond>
0.0000

> <Gold.Chemscore.DEClash>
1.1900

> <Gold.Chemscore.DEInternal>
0.5241

> <Gold.Chemscore.Rot>
4.0403

> <Gold.Chemscore.Internal.Correction>
   9.000000E+99

> <Gold.Chemscore.Hbonds>
donor molecule, donor type, donor heavy atom, donor atom, acceptor molecule, acceptor atom, score
      L1  H    10    26       P1  8028  0.30
      L1  H    12    27       P1  7957  1.00
      L1  H    14    28       P1  7957  0.93
      P1  H  7997  8009       L1     3  0.18
      P1  H 10752 10764       L1    17  0.70

> <Gold.Chemscore.Hbond.Weighted>
-12.4973

> <Gold.Chemscore.Metal.Weighted>
-0.0000

> <Gold.Chemscore.Lipo.Weighted>
-2.5456

> <Gold.Chemscore.Internal_Hbond.Weighted>
0.0000

> <Gold.Chemscore.DEClash.Weighted>
1.1900

> <Gold.Chemscore.DEInternal.Weighted>
0.5241

> <Gold.Chemscore.Rot.Weighted>
10.3431

> <Gold.Chemscore.Internal.Correction.Weighted>
   9.000000E+99

> <Gold.Protein.RotatedTorsions>
[ 6907 6896 6895 6894 ] final   22.99 input  -60.11 | X-H torsion
[ 7974 7965 7964 7962 ] final  108.61 input  175.53 | X-H torsion
[ 8008 7997 7996 7995 ] final -147.56 input   59.86 | X-H torsion
[ 10167 10162 10161 10158 ] final -119.00 input  -65.29 | X-H torsion
[ 10718 10713 10712 10709 ] final  173.71 input   66.30 | X-H torsion
[ 10763 10752 10751 10750 ] final  -50.67 input  -60.55 | X-H torsion
[ 11005 11000 10999 10996 ] final  159.99 input  -57.11 | X-H torsion

> <Gold.Protein.ActiveResidues>
 VAL166  LYS551  ARG553  GLY616  TRP617  ASP618  TYR619  PRO620  LYS621  CYS622 
 ASP623  PHE694  ASN695  SER759  ASP760  ASP761  ALA762  ILE779  LEU786  VAL792 
 PHE793  MET794  SER795  GLU796  ALA797  LYS798  CYS799  TRP800  GLU811  SER814 

> <Gold.Protein.RotatedAtoms>
  151.9355  135.0237  160.0531 H   0  0  0  0  0  0  0  0  0  0  0  0  # atno 6907 bound_to 6896
  152.2082  133.4886  159.5104 H   0  0  0  0  0  0  0  0  0  0  0  0  # atno 6908 bound_to 6896
  150.6970  134.1419  159.4151 H   0  0  0  0  0  0  0  0  0  0  0  0  # atno 6909 bound_to 6896
  145.2784  139.2641  143.3929 H   0  0  0  0  0  0  0  0  0  0  0  0  # atno 7974 bound_to 7965
  155.5775  140.0640  157.2791 H   0  0  0  0  0  0  0  0  0  0  0  0  # atno 8008 bound_to 7997
  154.4342  140.1858  156.0989 H   0  0  0  0  0  0  0  0  0  0  0  0  # atno 8009 bound_to 7997
  156.0330  140.3304  155.7164 H   0  0  0  0  0  0  0  0  0  0  0  0  # atno 8010 bound_to 7997
  140.0514  143.5056  152.2080 H   0  0  0  0  0  0  0  0  0  0  0  0  # atno 10167 bound_to 10162
  156.9602  131.0058  151.2929 H   0  0  0  0  0  0  0  0  0  0  0  0  # atno 10718 bound_to 10713
  154.1142  135.6544  153.4890 H   0  0  0  0  0  0  0  0  0  0  0  0  # atno 10763 bound_to 10752
  153.0246  135.5255  154.7162 H   0  0  0  0  0  0  0  0  0  0  0  0  # atno 10764 bound_to 10752
  154.6350  135.2981  155.0141 H   0  0  0  0  0  0  0  0  0  0  0  0  # atno 10765 bound_to 10752
  140.2015  134.8334  157.3023 H   0  0  0  0  0  0  0  0  0  0  0  0  # atno 11005 bound_to 11000
  146.3224  140.3245  142.8635 LP  0  0  0  0  0  0  0  0  0  0  0  0  # atno 17320 bound_to 7965
  144.9274  140.7937  143.5710 LP  0  0  0  0  0  0  0  0  0  0  0  0  # atno 17321 bound_to 7965
  139.5950  144.7564  151.3307 LP  0  0  0  0  0  0  0  0  0  0  0  0  # atno 17342 bound_to 10162
  140.7215  143.7123  150.7760 LP  0  0  0  0  0  0  0  0  0  0  0  0  # atno 17343 bound_to 10162
  157.5663  130.8279  149.8331 LP  0  0  0  0  0  0  0  0  0  0  0  0  # atno 17370 bound_to 10713
  156.0325  130.3760  150.1648 LP  0  0  0  0  0  0  0  0  0  0  0  0  # atno 17371 bound_to 10713
  140.2049  134.4209  155.7643 LP  0  0  0  0  0  0  0  0  0  0  0  0  # atno 17394 bound_to 11000
  141.2227  133.7090  156.8244 LP  0  0  0  0  0  0  0  0  0  0  0  0  # atno 17395 bound_to 11000

$$$$
