AV-unprocessed.smi:3316|AV-procd|sdf|12759|dock6
  -GOLD-   2272019 93D 1   1.00000     0.00000
 Structure written by MMmdl.
 41 43  0  0  0  0  0  0  0  0  2 V2000
  148.4295  141.1112  154.0758 C   0  0  0  0  0  0  0  0  0  0  0  0
  148.6724  140.3685  155.3992 C   0  0  2  0  0  0  0  0  0  0  0  0
  149.0269  141.3464  156.5360 C   0  0  0  0  0  0  0  0  0  0  0  0
  150.0664  142.3104  156.1217 N   0  3  0  0  0  0  0  0  0  0  0  0
  151.2087  142.3985  157.0514 C   0  0  0  0  0  0  0  0  0  0  0  0
  151.2880  143.7900  157.7070 C   0  0  1  0  0  0  0  0  0  0  0  0
  150.3382  143.9653  158.9315 C   0  0  0  0  0  0  0  0  0  0  0  0
  151.2894  144.4724  160.0398 C   0  0  1  0  0  0  0  0  0  0  0  0
  152.2191  143.3345  160.4024 C   0  0  0  0  0  0  0  0  0  0  0  0
  153.0451  143.1534  159.3708 C   0  0  0  0  0  0  0  0  0  0  0  0
  152.6696  144.1674  158.3083 C   0  0  2  0  0  0  0  0  0  0  0  0
  152.2398  145.3358  159.2036 C   0  0  0  0  0  0  0  0  0  0  0  0
  149.7201  139.2737  155.2357 C   0  0  0  0  0  0  0  0  0  0  0  0
  149.3524  137.9134  155.3088 C   0  0  0  0  0  0  0  0  0  0  0  0
  150.3548  136.9340  155.1591 C   0  0  0  0  0  0  0  0  0  0  0  0
  151.6554  137.2304  154.9519 N   0  0  0  0  0  0  0  0  0  0  0  0
  152.0028  138.5328  154.8804 C   0  0  0  0  0  0  0  0  0  0  0  0
  151.0791  139.5884  155.0169 C   0  0  0  0  0  0  0  0  0  0  0  0
  148.1263  140.4197  153.2891 H   0  0  0  0  0  0  0  0  0  0  0  0
  149.3247  141.6320  153.7347 H   0  0  0  0  0  0  0  0  0  0  0  0
  147.6379  141.8532  154.1824 H   0  0  0  0  0  0  0  0  0  0  0  0
  147.7308  139.8861  155.6667 H   0  0  0  0  0  0  0  0  0  0  0  0
  148.1400  141.8904  156.8636 H   0  0  0  0  0  0  0  0  0  0  0  0
  149.3929  140.7887  157.3991 H   0  0  0  0  0  0  0  0  0  0  0  0
  150.4139  142.0378  155.2133 H   0  0  0  0  0  0  0  0  0  0  0  0
  151.0865  141.6391  157.8249 H   0  0  0  0  0  0  0  0  0  0  0  0
  152.1322  142.1621  156.5217 H   0  0  0  0  0  0  0  0  0  0  0  0
  151.0195  144.5365  156.9570 H   0  0  0  0  0  0  0  0  0  0  0  0
  149.5616  144.6998  158.7144 H   0  0  0  0  0  0  0  0  0  0  0  0
  149.8436  143.0370  159.2216 H   0  0  0  0  0  0  0  0  0  0  0  0
  150.8226  144.9715  160.8894 H   0  0  0  0  0  0  0  0  0  0  0  0
  152.1747  142.7705  161.3225 H   0  0  0  0  0  0  0  0  0  0  0  0
  153.8206  142.4087  159.2678 H   0  0  0  0  0  0  0  0  0  0  0  0
  153.4611  144.3992  157.5952 H   0  0  0  0  0  0  0  0  0  0  0  0
  151.7442  146.1485  158.6687 H   0  0  0  0  0  0  0  0  0  0  0  0
  153.0637  145.7508  159.7884 H   0  0  0  0  0  0  0  0  0  0  0  0
  148.3263  137.6190  155.4736 H   0  0  0  0  0  0  0  0  0  0  0  0
  150.1049  135.8846  155.2096 H   0  0  0  0  0  0  0  0  0  0  0  0
  153.0490  138.7410  154.7120 H   0  0  0  0  0  0  0  0  0  0  0  0
  151.4129  140.6135  154.9518 H   0  0  0  0  0  0  0  0  0  0  0  0
  149.6434  143.2246  156.0444 H   0  0  0  0  0  0  0  0  0  0  0  0
  1  2  1  0  0  0  0
  1 19  1  0  0  0  0
  1 20  1  0  0  0  0
  1 21  1  0  0  0  0
  2  3  1  0  0  0  0
  2 13  1  0  0  0  0
  2 22  1  0  0  0  0
  3  4  1  0  0  0  0
  3 23  1  0  0  0  0
  3 24  1  0  0  0  0
  4  5  1  0  0  0  0
  4 25  1  0  0  0  0
  4 41  1  0  0  0  0
  5  6  1  0  0  0  0
  5 26  1  0  0  0  0
  5 27  1  0  0  0  0
  6 11  1  0  0  0  0
  6  7  1  0  0  0  0
  6 28  1  0  0  0  0
  7  8  1  0  0  0  0
  7 29  1  0  0  0  0
  7 30  1  0  0  0  0
  8 12  1  0  0  0  0
  8  9  1  0  0  0  0
  8 31  1  0  0  0  0
  9 10  2  0  0  0  0
  9 32  1  0  0  0  0
 10 11  1  0  0  0  0
 10 33  1  0  0  0  0
 11 12  1  0  0  0  0
 11 34  1  0  0  0  0
 12 35  1  0  0  0  0
 12 36  1  0  0  0  0
 13 18  1  0  0  0  0
 13 14  2  0  0  0  0
 14 15  1  0  0  0  0
 14 37  1  0  0  0  0
 15 16  2  0  0  0  0
 15 38  1  0  0  0  0
 16 17  1  0  0  0  0
 17 18  2  0  0  0  0
 17 39  1  0  0  0  0
 18 40  1  0  0  0  0
M  CHG  1   4   1
M  END
> <s_m_source_file>
AV-unprocessed.smi

> <i_m_source_file_index>
3316

> <i_lp_mmshare_version>
43012

> <i_f3d_flags>
0

> <s_epik_input>
W2NIXTFbY0hdbltjSF1bY0hdYzFbQ0BIXShbQ0gzXSlbQ0gyXVtOSF1bQ0gyXVtDQEhdKFtDSDJdW0NASF0yMylbQ0BIXShbQ0gyXTMpW0NIXT1bQ0hdMg==

> <s_epik_cmdline>
J2VwaWtfcHl0aG9uJywgJy1waCcsICc3LjAnLCAnLXRuJywgJzgnLCAnLW1hJywgJzIwMCcsICctbWV0YWxfYmluZGluZycsICctaW1hZScsICc8aW5maWxlLm1hZT4nLCAnLW9tYWUnLCAnPG91dGZpbGUubWFlPic=

> <r_lp_tautomer_probability>
1

> <r_epik_Ionization_Penalty>
0.00280406

> <r_epik_Ionization_Penalty_Charging>
0.000446589

> <r_epik_Ionization_Penalty_Neutral>
0.00235747

> <r_epik_State_Penalty>
-0

> <r_epik_Charging_Adjusted_Penalty>
0.000446589

> <i_epik_Tot_Q>
1

> <i_epik_Tot_abs_Q>
1

> <r_epik_Metal_State_Penalty>
-0

> <b_epik_Metal_Only>
0

> <s_lp_Force_Field>
OPLS_2005

> <r_lp_Energy>
65.6453

> <b_lp_Chiralities_Consistent>
1

> <s_lp_Variant>
AV-unprocessed.smi:3316-7

> <Gold.Version>
5.8.1

> <Gold.Id.Protein>
6NUR|6NUR_protein|mol2

> <Gold.PLP.Fitness>
51.5862

> <Gold.PLP.PLP>
-44.8909

> <Gold.PLP.part.hbond>
-2.0000

> <Gold.PLP.part.metal>
0.0000

> <Gold.PLP.part.buried>
-3.0689

> <Gold.PLP.part.nonpolar>
-40.2560

> <Gold.PLP.part.repulsive>
0.2381

> <Gold.PLP.ligand.clash>
0.0000

> <Gold.PLP.ligand.torsion>
1.1393

> <Gold.PLP.Chemscore.Hbond>
2.9600

> <Gold.PLP.Chemscore.CHOScore>
0.0000

> <Gold.PLP.Chemscore.Metal>
0.0000

> <Gold.Chemscore.Hbonds>
donor molecule, donor type, donor heavy atom, donor atom, acceptor molecule, acceptor atom, score
      L1  H     4    41       P1  8028  2.00
      P1  H 10752 10765       L1    16  0.81

> <Gold.PLP.Chemscore.Internal.Correction>
0.0938

> <Gold.Rescore>
     Score         DG    S(hbond)    S(metal)    S(lipo)     H(rot)  DE(clash)    DE(int)     intcor
     23.10     -24.49       1.92        0.00     137.56       1.36       0.34       1.04       ----

> <Gold.Chemscore.Fitness>
23.1032

> <Gold.Chemscore.DG>
-24.4863

> <Gold.Chemscore.ZeroCoef>
-5.4800

> <Gold.Chemscore.Hbond>
1.9171

> <Gold.Chemscore.Metal>
0.0000

> <Gold.Chemscore.Lipo>
137.5646

> <Gold.Chemscore.Internal_Hbond>
0.0000

> <Gold.Chemscore.DEClash>
0.3441

> <Gold.Chemscore.DEInternal>
1.0390

> <Gold.Chemscore.Rot>
1.3640

> <Gold.Chemscore.Internal.Correction>
   9.000000E+99

> <Gold.Chemscore.Hbonds>
donor molecule, donor type, donor heavy atom, donor atom, acceptor molecule, acceptor atom, score
      L1  H     4    41       P1  8028  1.00
      P1  H 10752 10765       L1    16  0.74

> <Gold.Chemscore.Hbond.Weighted>
-6.4031

> <Gold.Chemscore.Metal.Weighted>
-0.0000

> <Gold.Chemscore.Lipo.Weighted>
-16.0951

> <Gold.Chemscore.Internal_Hbond.Weighted>
0.0000

> <Gold.Chemscore.DEClash.Weighted>
0.3441

> <Gold.Chemscore.DEInternal.Weighted>
1.0390

> <Gold.Chemscore.Rot.Weighted>
3.4919

> <Gold.Chemscore.Internal.Correction.Weighted>
   9.000000E+99

> <Gold.Protein.RotatedTorsions>
[ 6907 6896 6895 6894 ] final -161.11 input  -60.11 | X-H torsion
[ 7974 7965 7964 7962 ] final   38.37 input  175.53 | X-H torsion
[ 8008 7997 7996 7995 ] final -117.57 input   59.86 | X-H torsion
[ 10167 10162 10161 10158 ] final  -79.17 input  -65.29 | X-H torsion
[ 10718 10713 10712 10709 ] final -125.43 input   66.30 | X-H torsion
[ 10763 10752 10751 10750 ] final  169.85 input  -60.55 | X-H torsion
[ 11005 11000 10999 10996 ] final  -25.76 input  -57.11 | X-H torsion

> <Gold.Protein.ActiveResidues>
 VAL166  LYS551  ARG553  GLY616  TRP617  ASP618  TYR619  PRO620  LYS621  CYS622 
 ASP623  PHE694  ASN695  SER759  ASP760  ASP761  ALA762  ILE779  LEU786  VAL792 
 PHE793  MET794  SER795  GLU796  ALA797  LYS798  CYS799  TRP800  GLU811  SER814 

> <Gold.Protein.RotatedAtoms>
  151.3595  133.3895  159.2688 H   0  0  0  0  0  0  0  0  0  0  0  0  # atno 6907 bound_to 6896
  150.9737  134.9106  159.7813 H   0  0  0  0  0  0  0  0  0  0  0  0  # atno 6908 bound_to 6896
  152.5193  134.3558  159.9319 H   0  0  0  0  0  0  0  0  0  0  0  0  # atno 6909 bound_to 6896
  146.1067  139.5781  142.9379 H   0  0  0  0  0  0  0  0  0  0  0  0  # atno 7974 bound_to 7965
  155.0858  140.0394  157.2653 H   0  0  0  0  0  0  0  0  0  0  0  0  # atno 8008 bound_to 7997
  154.6871  140.2645  155.6825 H   0  0  0  0  0  0  0  0  0  0  0  0  # atno 8009 bound_to 7997
  156.2715  140.2767  156.1436 H   0  0  0  0  0  0  0  0  0  0  0  0  # atno 8010 bound_to 7997
  140.4617  143.2452  151.8339 H   0  0  0  0  0  0  0  0  0  0  0  0  # atno 10167 bound_to 10162
  156.1674  130.6644  151.0134 H   0  0  0  0  0  0  0  0  0  0  0  0  # atno 10718 bound_to 10713
  154.3891  135.2754  155.2165 H   0  0  0  0  0  0  0  0  0  0  0  0  # atno 10763 bound_to 10752
  154.4239  135.5993  153.6030 H   0  0  0  0  0  0  0  0  0  0  0  0  # atno 10764 bound_to 10752
  152.9832  135.5979  154.4144 H   0  0  0  0  0  0  0  0  0  0  0  0  # atno 10765 bound_to 10752
  140.8967  133.7551  156.0491 H   0  0  0  0  0  0  0  0  0  0  0  0  # atno 11005 bound_to 11000
  145.5746  141.0390  143.2155 LP  0  0  0  0  0  0  0  0  0  0  0  0  # atno 17320 bound_to 7965
  144.7477  139.7277  143.7286 LP  0  0  0  0  0  0  0  0  0  0  0  0  # atno 17321 bound_to 7965
  139.4807  144.5000  151.9073 LP  0  0  0  0  0  0  0  0  0  0  0  0  # atno 17342 bound_to 10162
  140.4086  144.2399  150.5890 LP  0  0  0  0  0  0  0  0  0  0  0  0  # atno 17343 bound_to 10162
  157.6778  131.0846  150.7449 LP  0  0  0  0  0  0  0  0  0  0  0  0  # atno 17370 bound_to 10713
  156.7509  130.4768  149.5457 LP  0  0  0  0  0  0  0  0  0  0  0  0  # atno 17371 bound_to 10713
  140.8280  134.3211  157.5359 LP  0  0  0  0  0  0  0  0  0  0  0  0  # atno 17394 bound_to 11000
  139.8736  134.9347  156.3614 LP  0  0  0  0  0  0  0  0  0  0  0  0  # atno 17395 bound_to 11000

$$$$
