AV-unprocessed.smi:2673|AV-procd|sdf|10357|dock5
  -GOLD-   2272014383D 1   1.00000     0.00000
 Structure written by MMmdl.
 32 33  0  0  0  0  0  0  0  0  1 V2000
  146.1820  137.4216  154.8750 O   0  0  0  0  0  0  0  0  0  0  0  0
  146.8977  137.3790  153.8720 C   0  0  0  0  0  0  0  0  0  0  0  0
  147.7051  138.3764  153.3480 N   0  0  0  0  0  0  0  0  0  0  0  0
  147.8394  139.5098  153.9649 C   0  0  0  0  0  0  0  0  0  0  0  0
  148.6375  140.5199  153.4476 N   0  0  0  0  0  0  0  0  0  0  0  0
  148.7581  141.6658  154.1049 N   0  0  0  0  0  0  0  0  0  0  0  0
  148.0715  141.6499  155.1850 C   0  0  0  0  0  0  0  0  0  0  0  0
  147.1688  140.1677  155.5226 S   0  0  0  0  0  0  0  0  0  0  0  0
  146.9977  136.2780  153.1078 N   0  0  0  0  0  0  0  0  0  0  0  0
  146.3541  134.9602  153.2530 C   0  0  0  0  0  0  0  0  0  0  0  0
  147.1159  134.1127  154.3130 C   0  0  0  0  0  0  0  0  0  0  0  0
  148.3993  133.9839  153.9741 F   0  0  0  0  0  0  0  0  0  0  0  0
  147.0591  134.7045  155.5074 F   0  0  0  0  0  0  0  0  0  0  0  0
  146.6055  132.8871  154.4291 F   0  0  0  0  0  0  0  0  0  0  0  0
  144.8444  135.0767  153.6137 C   0  0  0  0  0  0  0  0  0  0  0  0
  144.0230  135.8101  152.5375 C   0  0  0  0  0  0  0  0  0  0  0  0
  144.1627  135.1199  151.1733 C   0  0  0  0  0  0  0  0  0  0  0  0
  145.6379  134.9797  150.7712 C   0  0  0  0  0  0  0  0  0  0  0  0
  146.4545  134.2664  151.8673 C   0  0  0  0  0  0  0  0  0  0  0  0
  147.9948  142.4611  155.9088 H   0  0  0  0  0  0  0  0  0  0  0  0
  147.6159  136.3564  152.3135 H   0  0  0  0  0  0  0  0  0  0  0  0
  144.4296  134.0756  153.7363 H   0  0  0  0  0  0  0  0  0  0  0  0
  144.7008  135.5611  154.5783 H   0  0  0  0  0  0  0  0  0  0  0  0
  142.9731  135.8389  152.8300 H   0  0  0  0  0  0  0  0  0  0  0  0
  144.3471  136.8485  152.4615 H   0  0  0  0  0  0  0  0  0  0  0  0
  143.7018  134.1322  151.2162 H   0  0  0  0  0  0  0  0  0  0  0  0
  143.6193  135.6816  150.4129 H   0  0  0  0  0  0  0  0  0  0  0  0
  145.7123  134.4242  149.8359 H   0  0  0  0  0  0  0  0  0  0  0  0
  146.0583  135.9663  150.5727 H   0  0  0  0  0  0  0  0  0  0  0  0
  147.4969  134.1982  151.5534 H   0  0  0  0  0  0  0  0  0  0  0  0
  146.0988  133.2384  151.9428 H   0  0  0  0  0  0  0  0  0  0  0  0
  149.1379  140.4044  152.5779 H   0  0  0  0  0  0  0  0  0  0  0  0
  1  2  2  0  0  0  0
  2  3  1  0  0  0  0
  2  9  1  0  0  0  0
  3  4  2  0  0  0  0
  4  8  1  0  0  0  0
  4  5  1  0  0  0  0
  5  6  1  0  0  0  0
  5 32  1  0  0  0  0
  6  7  2  0  0  0  0
  7  8  1  0  0  0  0
  7 20  1  0  0  0  0
  9 10  1  0  0  0  0
  9 21  1  0  0  0  0
 10 19  1  0  0  0  0
 10 11  1  0  0  0  0
 10 15  1  0  0  0  0
 11 12  1  0  0  0  0
 11 13  1  0  0  0  0
 11 14  1  0  0  0  0
 15 16  1  0  0  0  0
 15 22  1  0  0  0  0
 15 23  1  0  0  0  0
 16 17  1  0  0  0  0
 16 24  1  0  0  0  0
 16 25  1  0  0  0  0
 17 18  1  0  0  0  0
 17 26  1  0  0  0  0
 17 27  1  0  0  0  0
 18 19  1  0  0  0  0
 18 28  1  0  0  0  0
 18 29  1  0  0  0  0
 19 30  1  0  0  0  0
 19 31  1  0  0  0  0
M  END
> <s_m_source_file>
AV-unprocessed.smi

> <i_m_source_file_index>
2673

> <i_lp_mmshare_version>
43012

> <i_f3d_flags>
0

> <s_epik_input>
czFbY0hdbm5jMVtOSF1DKD1PKVtOSF1DMihDKEYpKEYpRilbQ0gyXVtDSDJdW0NIMl1bQ0gyXVtDSDJdMg==

> <s_epik_cmdline>
J2VwaWtfcHl0aG9uJywgJy1waCcsICc3LjAnLCAnLXRuJywgJzgnLCAnLW1hJywgJzIwMCcsICctbWV0YWxfYmluZGluZycsICctaW1hZScsICc8aW5maWxlLm1hZT4nLCAnLW9tYWUnLCAnPG91dGZpbGUubWFlPic=

> <r_epik_Ionization_Penalty>
1.69703

> <r_epik_Ionization_Penalty_Charging>
1.69675

> <r_epik_Ionization_Penalty_Neutral>
0.00027895

> <r_epik_State_Penalty>
1.84993

> <r_epik_Charging_Adjusted_Penalty>
3.54668

> <i_epik_Tot_Q>
0

> <i_epik_Tot_abs_Q>
0

> <r_epik_Metal_State_Penalty>
1.90085

> <b_epik_Metal_Only>
0

> <s_lp_Force_Field>
OPLS_2005

> <r_lp_Energy>
22.7267

> <b_lp_Chiralities_Consistent>
1

> <s_lp_Variant>
AV-unprocessed.smi:2673-3

> <Gold.Version>
5.8.1

> <Gold.Id.Protein>
6NUR|6NUR_protein|mol2

> <Gold.PLP.Fitness>
29.3896

> <Gold.PLP.PLP>
-20.6237

> <Gold.PLP.part.hbond>
-2.9826

> <Gold.PLP.part.metal>
0.0000

> <Gold.PLP.part.buried>
-3.7609

> <Gold.PLP.part.nonpolar>
-14.7656

> <Gold.PLP.part.repulsive>
0.8213

> <Gold.PLP.ligand.clash>
0.0000

> <Gold.PLP.ligand.torsion>
0.3835

> <Gold.PLP.Chemscore.Hbond>
2.2055

> <Gold.PLP.Chemscore.CHOScore>
0.9617

> <Gold.PLP.Chemscore.Metal>
0.0000

> <Gold.Chemscore.Hbonds>
donor molecule, donor type, donor heavy atom, donor atom, acceptor molecule, acceptor atom, score
      L1  H     5    32       P1  7957  1.00
      L1  H     9    21       P1  7948  0.63
      P1  H  8011  8017       L1     6  0.12
      L1  C     7    20       P1  8028  0.93

> <Gold.PLP.Chemscore.Internal.Correction>
0.0310

> <Gold.Rescore>
     Score         DG    S(hbond)    S(metal)    S(lipo)     H(rot)  DE(clash)    DE(int)     intcor
     10.69     -13.53       2.00        0.00      33.64       1.00       0.09       2.75       ----

> <Gold.Chemscore.Fitness>
10.6893

> <Gold.Chemscore.DG>
-13.5302

> <Gold.Chemscore.ZeroCoef>
-5.4800

> <Gold.Chemscore.Hbond>
1.9983

> <Gold.Chemscore.Metal>
0.0000

> <Gold.Chemscore.Lipo>
33.6392

> <Gold.Chemscore.Internal_Hbond>
0.0000

> <Gold.Chemscore.DEClash>
0.0889

> <Gold.Chemscore.DEInternal>
2.7519

> <Gold.Chemscore.Rot>
1.0000

> <Gold.Chemscore.Internal.Correction>
   9.000000E+99

> <Gold.Chemscore.Hbonds>
donor molecule, donor type, donor heavy atom, donor atom, acceptor molecule, acceptor atom, score
      L1  H     5    32       P1  7957  0.93
      L1  H     9    21       P1  7948  0.63

> <Gold.Chemscore.Hbond.Weighted>
-6.6744

> <Gold.Chemscore.Metal.Weighted>
-0.0000

> <Gold.Chemscore.Lipo.Weighted>
-3.9358

> <Gold.Chemscore.Internal_Hbond.Weighted>
0.0000

> <Gold.Chemscore.DEClash.Weighted>
0.0889

> <Gold.Chemscore.DEInternal.Weighted>
2.7519

> <Gold.Chemscore.Rot.Weighted>
2.5600

> <Gold.Chemscore.Internal.Correction.Weighted>
   9.000000E+99

> <Gold.Protein.RotatedTorsions>
[ 6907 6896 6895 6894 ] final   35.02 input  -60.11 | X-H torsion
[ 7974 7965 7964 7962 ] final  172.04 input  175.53 | X-H torsion
[ 8008 7997 7996 7995 ] final   18.67 input   59.86 | X-H torsion
[ 10167 10162 10161 10158 ] final   48.08 input  -65.29 | X-H torsion
[ 10718 10713 10712 10709 ] final  175.66 input   66.30 | X-H torsion
[ 10763 10752 10751 10750 ] final   32.11 input  -60.55 | X-H torsion
[ 11005 11000 10999 10996 ] final -156.80 input  -57.11 | X-H torsion

> <Gold.Protein.ActiveResidues>
 VAL166  LYS551  ARG553  GLY616  TRP617  ASP618  TYR619  PRO620  LYS621  CYS622 
 ASP623  PHE694  ASN695  SER759  ASP760  ASP761  ALA762  ILE779  LEU786  VAL792 
 PHE793  MET794  SER795  GLU796  ALA797  LYS798  CYS799  TRP800  GLU811  SER814 

> <Gold.Protein.RotatedAtoms>
  152.1104  134.9278  160.0566 H   0  0  0  0  0  0  0  0  0  0  0  0  # atno 6907 bound_to 6896
  152.0458  133.3992  159.4364 H   0  0  0  0  0  0  0  0  0  0  0  0  # atno 6908 bound_to 6896
  150.6843  134.3285  159.4860 H   0  0  0  0  0  0  0  0  0  0  0  0  # atno 6909 bound_to 6896
  144.7278  139.9439  143.6429 H   0  0  0  0  0  0  0  0  0  0  0  0  # atno 7974 bound_to 7965
  154.9094  140.3012  155.5274 H   0  0  0  0  0  0  0  0  0  0  0  0  # atno 8008 bound_to 7997
  156.3015  140.2392  156.4067 H   0  0  0  0  0  0  0  0  0  0  0  0  # atno 8009 bound_to 7997
  154.8441  140.0412  157.1549 H   0  0  0  0  0  0  0  0  0  0  0  0  # atno 8010 bound_to 7997
  140.2970  144.2979  150.6227 H   0  0  0  0  0  0  0  0  0  0  0  0  # atno 10167 bound_to 10162
  156.9316  130.9973  151.2986 H   0  0  0  0  0  0  0  0  0  0  0  0  # atno 10718 bound_to 10713
  153.0279  135.6421  154.1304 H   0  0  0  0  0  0  0  0  0  0  0  0  # atno 10763 bound_to 10752
  154.1030  135.2858  155.3249 H   0  0  0  0  0  0  0  0  0  0  0  0  # atno 10764 bound_to 10752
  154.6385  135.5468  153.7824 H   0  0  0  0  0  0  0  0  0  0  0  0  # atno 10765 bound_to 10752
  140.6716  134.4241  157.5231 H   0  0  0  0  0  0  0  0  0  0  0  0  # atno 11005 bound_to 11000
  146.0763  139.3751  143.0492 LP  0  0  0  0  0  0  0  0  0  0  0  0  # atno 17320 bound_to 7965
  145.7900  140.9818  143.1054 LP  0  0  0  0  0  0  0  0  0  0  0  0  # atno 17321 bound_to 7965
  140.5684  143.2183  151.7643 LP  0  0  0  0  0  0  0  0  0  0  0  0  # atno 17342 bound_to 10162
  139.4924  144.4252  151.9934 LP  0  0  0  0  0  0  0  0  0  0  0  0  # atno 17343 bound_to 10162
  157.5843  130.8398  149.8567 LP  0  0  0  0  0  0  0  0  0  0  0  0  # atno 17370 bound_to 10713
  156.0445  130.3731  150.1353 LP  0  0  0  0  0  0  0  0  0  0  0  0  # atno 17371 bound_to 10713
  139.8980  134.8624  156.2021 LP  0  0  0  0  0  0  0  0  0  0  0  0  # atno 17394 bound_to 11000
  141.0388  133.6949  156.1560 LP  0  0  0  0  0  0  0  0  0  0  0  0  # atno 17395 bound_to 11000

$$$$
