#       Name:                AV-unprocessed.smi:3228
#       Creating user name   scv26
#       Creation time:       Fri Mar 27 18:16:50 2020


#       File generated by GOLD software.
#

@<TRIPOS>MOLECULE
AV-unprocessed.smi:3228
    36    37     1
SMALL
NO_CHARGES


@<TRIPOS>ATOM
      1 ****        -0.4523   1.9329   0.4073 O.2            1 S1                 0.0000
      2 ****        -0.9653   0.9505   0.9442 C.2            1 S1                 0.0000
      3 ****        -0.2650  -0.1147   1.3594 N.am           1 S1                 0.0000
      4 ****         1.1815  -0.2652   1.2391 C.3            1 S1                 0.0000
      5 ****         1.6083  -0.6667  -0.1873 C.3            1 S1                 0.0000
      6 ****         1.0023  -1.9922  -0.6750 C.3            1 S1                 0.0000
      7 ****         2.0077  -2.5879  -1.6738 C.3            1 S1                 0.0000
      8 ****         3.2401  -1.6758  -1.6447 C.3            1 S1                 0.0000
      9 ****         3.1167  -0.8838  -0.3423 C.3            1 S1                 0.0000
     10 ****         3.8301   0.3336  -0.4069 O.3            1 S1                 0.0000
     11 ****        -2.2780   0.7952   1.1904 N.am           1 S1                 0.0000
     12 ****        -3.3382   1.6940   0.9014 C.2            1 S1                 0.0000
     13 ****        -3.1795   2.8843   0.3104 N.2            1 S1                 0.0000
     14 ****        -4.3939   3.5568   0.1513 C.2            1 S1                 0.0000
     15 ****        -5.4746   2.8589   0.6303 C.2            1 S1                 0.0000
     16 ****        -5.0076   1.3198   1.3034 S.3            1 S1                 0.0000
     17 ****        -0.7669  -0.8776   1.7898 H              1 S1                 0.0000
     18 ****         1.6752   0.6618   1.5353 H              1 S1                 0.0000
     19 ****         1.5017  -1.0243   1.9532 H              1 S1                 0.0000
     20 ****         1.3052   0.1147  -0.8868 H              1 S1                 0.0000
     21 ****         0.8765  -2.6812   0.1613 H              1 S1                 0.0000
     22 ****         0.0190  -1.8441  -1.1226 H              1 S1                 0.0000
     23 ****         2.2748  -3.6016  -1.3730 H              1 S1                 0.0000
     24 ****         1.5897  -2.6463  -2.6794 H              1 S1                 0.0000
     25 ****         4.1756  -2.2325  -1.7086 H              1 S1                 0.0000
     26 ****         3.2014  -0.9980  -2.4991 H              1 S1                 0.0000
     27 ****         3.4976  -1.4822   0.4866 H              1 S1                 0.0000
     28 ****         3.4790   0.8507  -1.1159 H              1 S1                 0.0000
     29 ****        -2.5515  -0.0672   1.6380 H              1 S1                 0.0000
     30 ****        -4.3977   4.5311  -0.3149 H              1 S1                 0.0000
     31 ****        -6.5128   3.1558   0.6275 H              1 S1                 0.0000
     32 ****         0.5365   1.9636   0.2613 LP             1 S1                 0.0000
     33 ****        -1.0245   2.7000   0.1174 LP             1 S1                 0.0000
     34 ****         4.7988   0.1483  -0.5723 LP             1 S1                 0.0000
     35 ****         3.7282   0.8302   0.4551 LP             1 S1                 0.0000
     36 ****        -2.2959   3.2494   0.0173 LP             1 S1                 0.0000
@<TRIPOS>BOND
    1    1    2 2     
    2    2    3 am    
    3    2   11 am    
    4    3    4 1     
    5    3   17 1     
    6    4    5 1     
    7    4   18 1     
    8    4   19 1     
    9    5    9 1     
   10    5    6 1     
   11    5   20 1     
   12    6    7 1     
   13    6   21 1     
   14    6   22 1     
   15    7    8 1     
   16    7   23 1     
   17    7   24 1     
   18    8    9 1     
   19    8   25 1     
   20    8   26 1     
   21    9   10 1     
   22    9   27 1     
   23   10   28 1     
   24   11   12 1     
   25   11   29 1     
   26   12   16 1     
   27   12   13 2     
   28   13   14 1     
   29   14   15 2     
   30   14   30 1     
   31   15   16 1     
   32   15   31 1     
   33    1   32 1     
   34    1   33 1     
   35   10   34 1     
   36   10   35 1     
   37   13   36 1     
@<TRIPOS>SUBSTRUCTURE
      1 S1             1
@<TRIPOS>SET
LONE_PAIRS      STATIC     ATOMS    <user>   **** ""
5 32 33 34 35 36
DONOR_HYDROGENS      STATIC     ATOMS    <user>   **** ""
3 17 28 29
ATOM$BLUE        STATIC     ATOMS    COLORGROUP SYSTEM
5 32 33 34 35 36
ATOM$RED        STATIC     ATOMS    COLORGROUP SYSTEM
3 17 28 29
