#       Name:                AV-unprocessed.smi:823
#       Creating user name   scv26
#       Creation time:       Fri Mar 27 01:29:09 2020


#       File generated by GOLD software.
#

@<TRIPOS>MOLECULE
AV-unprocessed.smi:823
    54    55     1
SMALL
NO_CHARGES


@<TRIPOS>ATOM
      1 ****        -4.6678   4.8074   2.0548 C.3            1 S1                 0.0000
      2 ****        -3.6244   4.4116   1.0046 C.3            1 S1                 0.0000
      3 ****        -3.0612   2.9991   1.2550 C.3            1 S1                 0.0000
      4 ****        -1.9882   2.7003   0.3104 N.3            1 S1                 0.0000
      5 ****        -1.5824   1.3494   0.2671 C.ar           1 S1                 0.0000
      6 ****        -2.5336   0.3314   0.0227 C.ar           1 S1                 0.0000
      7 ****        -2.1088  -1.0103  -0.0119 C.ar           1 S1                 0.0000
      8 ****        -0.7483  -1.3082   0.1981 C.ar           1 S1                 0.0000
      9 ****        -0.2892  -2.7619   0.1761 C.3            1 S1                 0.0000
     10 ****         1.1550  -2.9644   0.2397 N.am           1 S1                 0.0000
     11 ****         1.9876  -2.9311  -0.8119 C.2            1 S1                 0.0000
     12 ****         1.6114  -2.7100  -1.9642 O.2            1 S1                 0.0000
     13 ****         3.4757  -3.1578  -0.5022 C.3            1 S1                 0.0000
     14 ****         4.1697  -1.7857  -0.4762 C.3            1 S1                 0.0000
     15 ****         4.1027  -3.9651  -1.5476 N.am           1 S1                 0.0000
     16 ****         4.0515  -5.3032  -1.6205 C.2            1 S1                 0.0000
     17 ****         4.6942  -5.7781  -2.6876 N.am           1 S1                 0.0000
     18 ****         3.4807  -6.0249  -0.8049 O.2            1 S1                 0.0000
     19 ****         0.1289  -0.2255   0.4327 C.ar           1 S1                 0.0000
     20 ****        -0.2719   1.0630   0.4628 N.ar           1 S1                 0.0000
     21 ****        -0.9501   3.7279   0.2717 C.3            1 S1                 0.0000
     22 ****        -1.5787   5.1133   0.0503 C.3            1 S1                 0.0000
     23 ****        -2.5604   5.3585   1.0521 O.3            1 S1                 0.0000
     24 ****        -5.5119   4.1174   2.0487 H              1 S1                 0.0000
     25 ****        -5.0556   5.8080   1.8620 H              1 S1                 0.0000
     26 ****        -4.2395   4.8035   3.0575 H              1 S1                 0.0000
     27 ****        -4.0924   4.4501   0.0193 H              1 S1                 0.0000
     28 ****        -2.6637   2.9276   2.2684 H              1 S1                 0.0000
     29 ****        -3.8710   2.2744   1.1808 H              1 S1                 0.0000
     30 ****        -3.5737   0.5645  -0.1499 H              1 S1                 0.0000
     31 ****        -2.8215  -1.8003  -0.1981 H              1 S1                 0.0000
     32 ****        -0.7333  -3.2695   1.0325 H              1 S1                 0.0000
     33 ****        -0.6945  -3.2514  -0.7112 H              1 S1                 0.0000
     34 ****         1.5501  -3.1508   1.1501 H              1 S1                 0.0000
     35 ****         3.5918  -3.6459   0.4677 H              1 S1                 0.0000
     36 ****         3.7420  -1.1402   0.2921 H              1 S1                 0.0000
     37 ****         4.0833  -1.2669  -1.4323 H              1 S1                 0.0000
     38 ****         5.2320  -1.8914  -0.2542 H              1 S1                 0.0000
     39 ****         4.5914  -3.4650  -2.2754 H              1 S1                 0.0000
     40 ****         4.7327  -6.7722  -2.8582 H              1 S1                 0.0000
     41 ****         5.1445  -5.1357  -3.3233 H              1 S1                 0.0000
     42 ****         1.1829  -0.3820   0.6063 H              1 S1                 0.0000
     43 ****        -0.3937   3.7167   1.2101 H              1 S1                 0.0000
     44 ****        -0.2419   3.5182  -0.5310 H              1 S1                 0.0000
     45 ****        -0.8124   5.8864   0.1066 H              1 S1                 0.0000
     46 ****        -2.0292   5.1832  -0.9411 H              1 S1                 0.0000
     47 ****        -2.3948   2.7766  -0.6000 LP             1 S1                 0.0000
     48 ****         0.6430  -2.5442  -2.1509 LP             1 S1                 0.0000
     49 ****         2.2744  -2.6964  -2.7127 LP             1 S1                 0.0000
     50 ****         3.0117  -5.6193  -0.0203 LP             1 S1                 0.0000
     51 ****         3.4854  -7.0175  -0.9262 LP             1 S1                 0.0000
     52 ****         0.3883   1.7958   0.6271 LP             1 S1                 0.0000
     53 ****        -2.1239   5.3079   1.9503 LP             1 S1                 0.0000
     54 ****        -2.9379   6.2745   0.9161 LP             1 S1                 0.0000
@<TRIPOS>BOND
    1    1    2 1     
    2    1   24 1     
    3    1   25 1     
    4    1   26 1     
    5    2   23 1     
    6    2    3 1     
    7    2   27 1     
    8    3    4 1     
    9    3   28 1     
   10    3   29 1     
   11    4    5 1     
   12    4   21 1     
   13    5   20 ar    
   14    5    6 ar    
   15    6    7 ar    
   16    6   30 1     
   17    7    8 ar    
   18    7   31 1     
   19    8    9 1     
   20    8   19 ar    
   21    9   10 1     
   22    9   32 1     
   23    9   33 1     
   24   10   11 am    
   25   10   34 1     
   26   11   12 2     
   27   11   13 1     
   28   13   14 1     
   29   13   15 1     
   30   13   35 1     
   31   14   36 1     
   32   14   37 1     
   33   14   38 1     
   34   15   16 am    
   35   15   39 1     
   36   16   17 am    
   37   16   18 2     
   38   17   40 1     
   39   17   41 1     
   40   19   20 ar    
   41   19   42 1     
   42   21   22 1     
   43   21   43 1     
   44   21   44 1     
   45   22   23 1     
   46   22   45 1     
   47   22   46 1     
   48    4   47 1     
   49   12   48 1     
   50   12   49 1     
   51   18   50 1     
   52   18   51 1     
   53   20   52 1     
   54   23   53 1     
   55   23   54 1     
@<TRIPOS>SUBSTRUCTURE
      1 S1             1
@<TRIPOS>SET
LONE_PAIRS      STATIC     ATOMS    <user>   **** ""
8 47 48 49 50 51 52 53 54
DONOR_HYDROGENS      STATIC     ATOMS    <user>   **** ""
4 34 39 40 41
ATOM$BLUE        STATIC     ATOMS    COLORGROUP SYSTEM
8 47 48 49 50 51 52 53 54
ATOM$RED        STATIC     ATOMS    COLORGROUP SYSTEM
4 34 39 40 41
