#       Name:                AV-unprocessed.smi:576
#       Creating user name   scv26
#       Creation time:       Thu Mar 26 23:48:48 2020


#       File generated by GOLD software.
#

@<TRIPOS>MOLECULE
AV-unprocessed.smi:576
    39    40     1
SMALL
NO_CHARGES


@<TRIPOS>ATOM
      1 ****        -2.9603  -1.7178  -0.3748 C.3            1 S1                 0.0000
      2 ****        -2.4085  -1.0221   0.8802 C.3            1 S1                 0.0000
      3 ****        -0.9495  -1.0129   0.8402 N.am           1 S1                 0.0000
      4 ****        -0.1920  -0.1296   0.1715 C.2            1 S1                 0.0000
      5 ****        -0.6605   0.7985  -0.4891 O.2            1 S1                 0.0000
      6 ****         1.3267  -0.3221   0.2877 C.3            1 S1                 0.0000
      7 ****         2.0708   0.2428  -0.8505 N.am           1 S1                 0.0000
      8 ****         2.6261   1.5266  -0.6817 C.2            1 S1                 0.0000
      9 ****         3.3353   2.1505  -1.6419 C.2            1 S1                 0.0000
     10 ****         3.8701   3.5615  -1.4522 C.3            1 S1                 0.0000
     11 ****         5.0833   3.5156  -0.9034 F              1 S1                 0.0000
     12 ****         3.9655   4.2000  -2.6187 F              1 S1                 0.0000
     13 ****         3.0784   4.2730  -0.6487 F              1 S1                 0.0000
     14 ****         3.4817   1.4425  -2.8986 C.2            1 S1                 0.0000
     15 ****         2.9461   0.2197  -3.0809 C.2            1 S1                 0.0000
     16 ****         2.1913  -0.4526  -2.0210 C.2            1 S1                 0.0000
     17 ****         1.6974  -1.5699  -2.1756 O.2            1 S1                 0.0000
     18 ****        -2.9490  -1.6737   2.1391 C.3            1 S1                 0.0000
     19 ****        -4.3402  -1.3668   2.6397 C.3            1 S1                 0.0000
     20 ****        -3.1331  -0.8820   3.4113 C.3            1 S1                 0.0000
     21 ****        -4.0504  -1.7065  -0.3809 H              1 S1                 0.0000
     22 ****        -2.6385  -2.7586  -0.4250 H              1 S1                 0.0000
     23 ****        -2.6245  -1.2214  -1.2859 H              1 S1                 0.0000
     24 ****        -2.7606   0.0114   0.8750 H              1 S1                 0.0000
     25 ****        -0.4783  -1.7389   1.3605 H              1 S1                 0.0000
     26 ****         1.6548   0.1321   1.2236 H              1 S1                 0.0000
     27 ****         1.5534  -1.3849   0.3928 H              1 S1                 0.0000
     28 ****         2.4283   1.9784   0.2796 H              1 S1                 0.0000
     29 ****         4.0329   1.8986  -3.7077 H              1 S1                 0.0000
     30 ****         3.0766  -0.2790  -4.0302 H              1 S1                 0.0000
     31 ****        -2.6241  -2.7048   2.2672 H              1 S1                 0.0000
     32 ****        -4.9222  -0.6223   2.1002 H              1 S1                 0.0000
     33 ****        -4.9129  -2.1888   3.0642 H              1 S1                 0.0000
     34 ****        -2.9017  -1.3806   4.3503 H              1 S1                 0.0000
     35 ****        -2.9123   0.1832   3.3821 H              1 S1                 0.0000
     36 ****        -1.6513   0.9216  -0.5458 LP             1 S1                 0.0000
     37 ****        -0.0501   1.4289  -0.9686 LP             1 S1                 0.0000
     38 ****         1.1873  -1.9986  -1.4299 LP             1 S1                 0.0000
     39 ****         1.8064  -2.0486  -3.0467 LP             1 S1                 0.0000
@<TRIPOS>BOND
    1    1    2 1     
    2    1   21 1     
    3    1   22 1     
    4    1   23 1     
    5    2    3 1     
    6    2   18 1     
    7    2   24 1     
    8    3    4 am    
    9    3   25 1     
   10    4    5 2     
   11    4    6 1     
   12    6    7 1     
   13    6   26 1     
   14    6   27 1     
   15    7   16 am    
   16    7    8 1     
   17    8    9 2     
   18    8   28 1     
   19    9   10 1     
   20    9   14 1     
   21   10   11 1     
   22   10   12 1     
   23   10   13 1     
   24   14   15 2     
   25   14   29 1     
   26   15   16 1     
   27   15   30 1     
   28   16   17 2     
   29   18   20 1     
   30   18   19 1     
   31   18   31 1     
   32   19   20 1     
   33   19   32 1     
   34   19   33 1     
   35   20   34 1     
   36   20   35 1     
   37    5   36 1     
   38    5   37 1     
   39   17   38 1     
   40   17   39 1     
@<TRIPOS>SUBSTRUCTURE
      1 S1             1
@<TRIPOS>SET
LONE_PAIRS      STATIC     ATOMS    <user>   **** ""
4 36 37 38 39
DONOR_HYDROGENS      STATIC     ATOMS    <user>   **** ""
1 25
ATOM$BLUE        STATIC     ATOMS    COLORGROUP SYSTEM
4 36 37 38 39
ATOM$RED        STATIC     ATOMS    COLORGROUP SYSTEM
1 25
