AV-unprocessed.smi:864|AV-procd|sdf|3989|dock9
  -GOLD-   22720 1463D 1   1.00000     0.00000
 Structure written by MMmdl.
 45 47  0  0  0  0  0  0  0  0  2 V2000
  143.8554  132.7035  149.5597 C   0  0  0  0  0  0  0  0  0  0  0  0
  144.1085  133.9244  150.4180 C   0  0  0  0  0  0  0  0  0  0  0  0
  143.4754  134.1140  151.6649 C   0  0  0  0  0  0  0  0  0  0  0  0
  143.7453  135.2851  152.4024 C   0  0  0  0  0  0  0  0  0  0  0  0
  144.6414  136.2439  151.8791 C   0  0  0  0  0  0  0  0  0  0  0  0
  144.9036  137.5461  152.6180 C   0  0  0  0  0  0  0  0  0  0  0  0
  145.8251  138.5188  151.8518 C   0  0  0  0  0  0  0  0  0  0  0  0
  147.2376  138.3120  152.1677 N   0  0  0  0  0  0  0  0  0  0  0  0
  147.8149  138.5984  153.3441 C   0  0  0  0  0  0  0  0  0  0  0  0
  147.2378  139.1522  154.2805 O   0  0  0  0  0  0  0  0  0  0  0  0
  149.0781  138.1565  153.4025 N   0  0  0  0  0  0  0  0  0  0  0  0
  149.9121  138.1960  154.6009 C   0  0  1  0  0  0  0  0  0  0  0  0
  151.4079  138.0232  154.2848 C   0  0  0  0  0  0  0  0  0  0  0  0
  152.0715  139.1427  155.0650 C   0  0  0  0  0  0  0  0  0  0  0  0
  153.2928  139.2351  155.1808 O   0  0  0  0  0  0  0  0  0  0  0  0
  151.1648  139.9724  155.5931 N   0  0  0  0  0  0  0  0  0  0  0  0
  151.4667  141.0516  156.4871 C   0  0  0  0  0  0  0  0  0  0  0  0
  152.1740  140.8021  157.8055 C   0  0  0  0  0  0  0  0  0  0  0  0
  150.7024  141.1360  157.7884 C   0  0  0  0  0  0  0  0  0  0  0  0
  149.7974  139.5580  155.3089 C   0  0  0  0  0  0  0  0  0  0  0  0
  145.2567  135.9922  150.6341 C   0  0  0  0  0  0  0  0  0  0  0  0
  144.9690  134.8594  149.9566 N   0  3  0  0  0  0  0  0  0  0  0  0
  143.1725  132.0110  150.0528 H   0  0  0  0  0  0  0  0  0  0  0  0
  144.7893  132.1771  149.3604 H   0  0  0  0  0  0  0  0  0  0  0  0
  143.4134  132.9956  148.6065 H   0  0  0  0  0  0  0  0  0  0  0  0
  142.7832  133.3785  152.0485 H   0  0  0  0  0  0  0  0  0  0  0  0
  143.2535  135.4519  153.3495 H   0  0  0  0  0  0  0  0  0  0  0  0
  143.9508  138.0352  152.8254 H   0  0  0  0  0  0  0  0  0  0  0  0
  145.3416  137.3153  153.5898 H   0  0  0  0  0  0  0  0  0  0  0  0
  145.6901  138.3816  150.7788 H   0  0  0  0  0  0  0  0  0  0  0  0
  145.5371  139.5504  152.0620 H   0  0  0  0  0  0  0  0  0  0  0  0
  147.7996  137.8625  151.4593 H   0  0  0  0  0  0  0  0  0  0  0  0
  149.4719  137.7162  152.5837 H   0  0  0  0  0  0  0  0  0  0  0  0
  149.5947  137.4098  155.2889 H   0  0  0  0  0  0  0  0  0  0  0  0
  151.7819  137.0478  154.5979 H   0  0  0  0  0  0  0  0  0  0  0  0
  151.6286  138.1540  153.2246 H   0  0  0  0  0  0  0  0  0  0  0  0
  151.7024  142.0021  156.0105 H   0  0  0  0  0  0  0  0  0  0  0  0
  152.4439  139.7863  158.0856 H   0  0  0  0  0  0  0  0  0  0  0  0
  152.8560  141.5727  158.1592 H   0  0  0  0  0  0  0  0  0  0  0  0
  150.4055  142.1251  158.1312 H   0  0  0  0  0  0  0  0  0  0  0  0
  150.0044  140.3338  158.0201 H   0  0  0  0  0  0  0  0  0  0  0  0
  149.3248  140.3090  154.6733 H   0  0  0  0  0  0  0  0  0  0  0  0
  149.2133  139.4745  156.2265 H   0  0  0  0  0  0  0  0  0  0  0  0
  145.9449  136.6702  150.1504 H   0  0  0  0  0  0  0  0  0  0  0  0
  145.4150  134.7071  149.0516 H   0  0  0  0  0  0  0  0  0  0  0  0
  1  2  1  0  0  0  0
  1 23  1  0  0  0  0
  1 24  1  0  0  0  0
  1 25  1  0  0  0  0
  2 22  1  0  0  0  0
  2  3  2  0  0  0  0
  3  4  1  0  0  0  0
  3 26  1  0  0  0  0
  4  5  2  0  0  0  0
  4 27  1  0  0  0  0
  5  6  1  0  0  0  0
  5 21  1  0  0  0  0
  6  7  1  0  0  0  0
  6 28  1  0  0  0  0
  6 29  1  0  0  0  0
  7  8  1  0  0  0  0
  7 30  1  0  0  0  0
  7 31  1  0  0  0  0
  8  9  1  0  0  0  0
  8 32  1  0  0  0  0
  9 10  2  0  0  0  0
  9 11  1  0  0  0  0
 11 12  1  0  0  0  0
 11 33  1  0  0  0  0
 12 20  1  0  0  0  0
 12 13  1  0  0  0  0
 12 34  1  0  0  0  0
 13 14  1  0  0  0  0
 13 35  1  0  0  0  0
 13 36  1  0  0  0  0
 14 15  2  0  0  0  0
 14 16  1  0  0  0  0
 16 17  1  0  0  0  0
 16 20  1  0  0  0  0
 17 19  1  0  0  0  0
 17 18  1  0  0  0  0
 17 37  1  0  0  0  0
 18 19  1  0  0  0  0
 18 38  1  0  0  0  0
 18 39  1  0  0  0  0
 19 40  1  0  0  0  0
 19 41  1  0  0  0  0
 20 42  1  0  0  0  0
 20 43  1  0  0  0  0
 21 22  2  0  0  0  0
 21 44  1  0  0  0  0
 22 45  1  0  0  0  0
M  CHG  1  22   1
M  END
> <s_m_source_file>
AV-unprocessed.smi

> <i_m_source_file_index>
864

> <i_lp_mmshare_version>
43012

> <i_f3d_flags>
0

> <s_epik_input>
W0NIM11jMVtjSF1bY0hdYyhbY0hdbjEpW0NIMl1bQ0gyXVtOSF1DKD1PKVtOSF1bQ0BASF0yW0NIMl1DKD1PKU4oW0NIMl0yKVtDSF0zW0NIMl1bQ0gyXTM=

> <s_epik_cmdline>
J2VwaWtfcHl0aG9uJywgJy1waCcsICc3LjAnLCAnLXRuJywgJzgnLCAnLW1hJywgJzIwMCcsICctbWV0YWxfYmluZGluZycsICctaW1hZScsICc8aW5maWxlLm1hZT4nLCAnLW9tYWUnLCAnPG91dGZpbGUubWFlPic=

> <r_epik_Ionization_Penalty>
1.42657

> <r_epik_Ionization_Penalty_Charging>
1.42653

> <r_epik_Ionization_Penalty_Neutral>
4.57062e-05

> <r_epik_State_Penalty>
1.51075

> <r_epik_Charging_Adjusted_Penalty>
2.93728

> <i_epik_Tot_Q>
1

> <i_epik_Tot_abs_Q>
1

> <r_epik_Metal_State_Penalty>
1.56242

> <b_epik_Metal_Only>
0

> <s_lp_Force_Field>
OPLS_2005

> <r_lp_Energy>
39.135

> <b_lp_Chiralities_Consistent>
1

> <s_lp_Variant>
AV-unprocessed.smi:864-4

> <Gold.Version>
5.8.1

> <Gold.Id.Protein>
6NUR|6NUR_protein|mol2

> <Gold.PLP.Fitness>
49.8042

> <Gold.PLP.PLP>
-41.3166

> <Gold.PLP.part.hbond>
-5.2374

> <Gold.PLP.part.metal>
0.0000

> <Gold.PLP.part.buried>
-2.6523

> <Gold.PLP.part.nonpolar>
-35.1458

> <Gold.PLP.part.repulsive>
0.3387

> <Gold.PLP.ligand.clash>
0.0000

> <Gold.PLP.ligand.torsion>
0.6182

> <Gold.PLP.Chemscore.Hbond>
3.1830

> <Gold.PLP.Chemscore.CHOScore>
0.0000

> <Gold.PLP.Chemscore.Metal>
0.0000

> <Gold.Chemscore.Hbonds>
donor molecule, donor type, donor heavy atom, donor atom, acceptor molecule, acceptor atom, score
      L1  H     8    32       P1  7948  0.48
      L1  H    11    33       P1  7948  0.58
      L1  H    22    45       P1  7921  1.00
      P1  H  7997  8010       L1    15  1.00

> <Gold.PLP.Chemscore.Internal.Correction>
0.1751

> <Gold.Rescore>
     Score         DG    S(hbond)    S(metal)    S(lipo)     H(rot)  DE(clash)    DE(int)     intcor
     19.67     -22.09       3.40        0.00      85.05       1.84       0.35       2.08       ----

> <Gold.Chemscore.Fitness>
19.6680

> <Gold.Chemscore.DG>
-22.0924

> <Gold.Chemscore.ZeroCoef>
-5.4800

> <Gold.Chemscore.Hbond>
3.4034

> <Gold.Chemscore.Metal>
0.0000

> <Gold.Chemscore.Lipo>
85.0471

> <Gold.Chemscore.Internal_Hbond>
0.0000

> <Gold.Chemscore.DEClash>
0.3486

> <Gold.Chemscore.DEInternal>
2.0759

> <Gold.Chemscore.Rot>
1.8381

> <Gold.Chemscore.Internal.Correction>
   9.000000E+99

> <Gold.Chemscore.Hbonds>
donor molecule, donor type, donor heavy atom, donor atom, acceptor molecule, acceptor atom, score
      L1  H     8    32       P1  7948  0.46
      L1  H    11    33       P1  7948  0.41
      L1  H    22    45       P1  7921  0.98
      P1  H  7997  8010       L1    15  0.99

> <Gold.Chemscore.Hbond.Weighted>
-11.3673

> <Gold.Chemscore.Metal.Weighted>
-0.0000

> <Gold.Chemscore.Lipo.Weighted>
-9.9505

> <Gold.Chemscore.Internal_Hbond.Weighted>
0.0000

> <Gold.Chemscore.DEClash.Weighted>
0.3486

> <Gold.Chemscore.DEInternal.Weighted>
2.0759

> <Gold.Chemscore.Rot.Weighted>
4.7054

> <Gold.Chemscore.Internal.Correction.Weighted>
   9.000000E+99

> <Gold.Protein.RotatedTorsions>
[ 6907 6896 6895 6894 ] final -156.74 input  -60.11 | X-H torsion
[ 7974 7965 7964 7962 ] final  114.50 input  175.53 | X-H torsion
[ 8008 7997 7996 7995 ] final  112.47 input   59.86 | X-H torsion
[ 10167 10162 10161 10158 ] final  -49.37 input  -65.29 | X-H torsion
[ 10718 10713 10712 10709 ] final  -86.77 input   66.30 | X-H torsion
[ 10763 10752 10751 10750 ] final  119.10 input  -60.55 | X-H torsion
[ 11005 11000 10999 10996 ] final   60.88 input  -57.11 | X-H torsion

> <Gold.Protein.ActiveResidues>
 VAL166  LYS551  ARG553  GLY616  TRP617  ASP618  TYR619  PRO620  LYS621  CYS622 
 ASP623  PHE694  ASN695  SER759  ASP760  ASP761  ALA762  ILE779  LEU786  VAL792 
 PHE793  MET794  SER795  GLU796  ALA797  LYS798  CYS799  TRP800  GLU811  SER814 

> <Gold.Protein.RotatedAtoms>
  151.2922  133.4160  159.2633 H   0  0  0  0  0  0  0  0  0  0  0  0  # atno 6907 bound_to 6896
  151.0267  134.9510  159.8099 H   0  0  0  0  0  0  0  0  0  0  0  0  # atno 6908 bound_to 6896
  152.5336  134.2884  159.9086 H   0  0  0  0  0  0  0  0  0  0  0  0  # atno 6909 bound_to 6896
  145.2037  139.2940  143.4305 H   0  0  0  0  0  0  0  0  0  0  0  0  # atno 7974 bound_to 7965
  156.2194  140.2999  155.9917 H   0  0  0  0  0  0  0  0  0  0  0  0  # atno 8008 bound_to 7997
  155.2520  140.0426  157.3005 H   0  0  0  0  0  0  0  0  0  0  0  0  # atno 8009 bound_to 7997
  154.5818  140.2377  155.8051 H   0  0  0  0  0  0  0  0  0  0  0  0  # atno 8010 bound_to 7997
  140.6688  143.2701  151.4205 H   0  0  0  0  0  0  0  0  0  0  0  0  # atno 10167 bound_to 10162
  155.9988  130.4776  150.4765 H   0  0  0  0  0  0  0  0  0  0  0  0  # atno 10718 bound_to 10713
  153.5778  135.3489  155.2863 H   0  0  0  0  0  0  0  0  0  0  0  0  # atno 10763 bound_to 10752
  154.8672  135.4175  154.2653 H   0  0  0  0  0  0  0  0  0  0  0  0  # atno 10764 bound_to 10752
  153.3433  135.7051  153.6919 H   0  0  0  0  0  0  0  0  0  0  0  0  # atno 10765 bound_to 10752
  140.0200  134.6167  155.9653 H   0  0  0  0  0  0  0  0  0  0  0  0  # atno 11005 bound_to 11000
  146.3412  140.2290  142.8593 LP  0  0  0  0  0  0  0  0  0  0  0  0  # atno 17320 bound_to 7965
  144.9923  140.8558  143.5332 LP  0  0  0  0  0  0  0  0  0  0  0  0  # atno 17321 bound_to 7965
  139.5948  144.1422  152.2130 LP  0  0  0  0  0  0  0  0  0  0  0  0  # atno 17342 bound_to 10162
  140.0787  144.5718  150.7138 LP  0  0  0  0  0  0  0  0  0  0  0  0  # atno 17343 bound_to 10162
  157.2774  131.0600  151.2220 LP  0  0  0  0  0  0  0  0  0  0  0  0  # atno 17370 bound_to 10713
  157.3278  130.6970  149.6307 LP  0  0  0  0  0  0  0  0  0  0  0  0  # atno 17371 bound_to 10713
  141.1768  133.6541  156.4859 LP  0  0  0  0  0  0  0  0  0  0  0  0  # atno 17394 bound_to 11000
  140.4404  134.7021  157.4988 LP  0  0  0  0  0  0  0  0  0  0  0  0  # atno 17395 bound_to 11000

$$$$
