AV-unprocessed.smi:525|AV-procd|sdf|2810|dock4
  -GOLD-   2262023293D 1   1.00000     0.00000
 Structure written by MMmdl.
 44 46  0  0  0  0  0  0  0  0  2 V2000
  152.3285  138.3353  155.2885 C   0  0  0  0  0  0  0  0  0  0  0  0
  152.2198  139.1841  156.4171 O   0  0  0  0  0  0  0  0  0  0  0  0
  151.4246  138.6189  157.4467 C   0  0  0  0  0  0  0  0  0  0  0  0
  151.2334  139.6406  158.5760 C   0  0  0  0  0  0  0  0  0  0  0  0
  150.8450  140.9613  158.0609 N   0  0  0  0  0  0  0  0  0  0  0  0
  149.8001  141.3163  157.2644 C   0  0  0  0  0  0  0  0  0  0  0  0
  148.5742  140.2294  156.6129 S   0  0  0  0  0  0  0  0  0  0  0  0
  148.2031  140.8565  154.9429 C   0  0  1  0  0  0  0  0  0  0  0  0
  147.7971  139.7671  153.9342 C   0  0  0  0  0  0  0  0  0  0  0  0
  148.6682  138.7745  153.7333 N   0  0  0  0  0  0  0  0  0  0  0  0
  146.7135  139.8039  153.3538 O   0  0  0  0  0  0  0  0  0  0  0  0
  147.1268  141.9322  155.0381 C   0  0  0  0  0  0  0  0  0  0  0  0
  146.5447  142.2660  156.2825 C   0  0  0  0  0  0  0  0  0  0  0  0
  145.5537  143.2636  156.3595 C   0  0  0  0  0  0  0  0  0  0  0  0
  145.1378  143.9350  155.1941 C   0  0  0  0  0  0  0  0  0  0  0  0
  145.7141  143.6087  153.9517 C   0  0  0  0  0  0  0  0  0  0  0  0
  146.7061  142.6120  153.8741 C   0  0  0  0  0  0  0  0  0  0  0  0
  149.8832  142.6568  157.0421 N   0  3  0  0  0  0  0  0  0  0  0  0
  151.0034  143.1675  157.6994 C   0  0  0  0  0  0  0  0  0  0  0  0
  151.5058  144.4634  157.7670 C   0  0  0  0  0  0  0  0  0  0  0  0
  152.6850  144.6465  158.5186 C   0  0  0  0  0  0  0  0  0  0  0  0
  153.3193  143.5655  159.1645 C   0  0  0  0  0  0  0  0  0  0  0  0
  152.7997  142.2564  159.0910 C   0  0  0  0  0  0  0  0  0  0  0  0
  151.6305  142.0834  158.3506 C   0  0  0  0  0  0  0  0  0  0  0  0
  152.9540  138.8097  154.5325 H   0  0  0  0  0  0  0  0  0  0  0  0
  151.3507  138.1448  154.8440 H   0  0  0  0  0  0  0  0  0  0  0  0
  152.7856  137.3817  155.5548 H   0  0  0  0  0  0  0  0  0  0  0  0
  150.4524  138.3247  157.0482 H   0  0  0  0  0  0  0  0  0  0  0  0
  151.9013  137.7186  157.8367 H   0  0  0  0  0  0  0  0  0  0  0  0
  150.4490  139.3053  159.2553 H   0  0  0  0  0  0  0  0  0  0  0  0
  152.1377  139.7352  159.1764 H   0  0  0  0  0  0  0  0  0  0  0  0
  149.1208  141.3144  154.5717 H   0  0  0  0  0  0  0  0  0  0  0  0
  148.4415  138.0231  153.0979 H   0  0  0  0  0  0  0  0  0  0  0  0
  149.5444  138.7679  154.2356 H   0  0  0  0  0  0  0  0  0  0  0  0
  146.8572  141.7569  157.1828 H   0  0  0  0  0  0  0  0  0  0  0  0
  145.1129  143.5137  157.3131 H   0  0  0  0  0  0  0  0  0  0  0  0
  144.3776  144.7001  155.2530 H   0  0  0  0  0  0  0  0  0  0  0  0
  145.3957  144.1242  153.0576 H   0  0  0  0  0  0  0  0  0  0  0  0
  147.1411  142.3721  152.9151 H   0  0  0  0  0  0  0  0  0  0  0  0
  151.0247  145.2924  157.2690 H   0  0  0  0  0  0  0  0  0  0  0  0
  153.1138  145.6350  158.5984 H   0  0  0  0  0  0  0  0  0  0  0  0
  154.2245  143.7429  159.7268 H   0  0  0  0  0  0  0  0  0  0  0  0
  153.2989  141.4360  159.5848 H   0  0  0  0  0  0  0  0  0  0  0  0
  149.2251  143.1797  156.4796 H   0  0  0  0  0  0  0  0  0  0  0  0
  1  2  1  0  0  0  0
  1 25  1  0  0  0  0
  1 26  1  0  0  0  0
  1 27  1  0  0  0  0
  2  3  1  0  0  0  0
  3  4  1  0  0  0  0
  3 28  1  0  0  0  0
  3 29  1  0  0  0  0
  4  5  1  0  0  0  0
  4 30  1  0  0  0  0
  4 31  1  0  0  0  0
  5 24  1  0  0  0  0
  5  6  1  0  0  0  0
  6  7  1  0  0  0  0
  6 18  2  0  0  0  0
  7  8  1  0  0  0  0
  8  9  1  0  0  0  0
  8 12  1  0  0  0  0
  8 32  1  0  0  0  0
  9 10  1  0  0  0  0
  9 11  2  0  0  0  0
 10 33  1  0  0  0  0
 10 34  1  0  0  0  0
 12 17  1  0  0  0  0
 12 13  2  0  0  0  0
 13 14  1  0  0  0  0
 13 35  1  0  0  0  0
 14 15  2  0  0  0  0
 14 36  1  0  0  0  0
 15 16  1  0  0  0  0
 15 37  1  0  0  0  0
 16 17  2  0  0  0  0
 16 38  1  0  0  0  0
 17 39  1  0  0  0  0
 18 19  1  0  0  0  0
 18 44  1  0  0  0  0
 19 24  2  0  0  0  0
 19 20  1  0  0  0  0
 20 21  2  0  0  0  0
 20 40  1  0  0  0  0
 21 22  1  0  0  0  0
 21 41  1  0  0  0  0
 22 23  2  0  0  0  0
 22 42  1  0  0  0  0
 23 24  1  0  0  0  0
 23 43  1  0  0  0  0
M  CHG  1  18   1
M  END
> <s_m_source_file>
AV-unprocessed.smi

> <i_m_source_file_index>
525

> <i_lp_mmshare_version>
43012

> <i_f3d_flags>
0

> <s_epik_input>
W2NIXTFbY0hdW2NIXVtjSF1jKGMxMiluKFtDSDJdW0NIMl1PW0NIM10pYyhuMilTW0NASF0oQyg9TylbTkgyXSljM1tjSF1bY0hdW2NIXVtjSF1bY0hdMw==

> <s_epik_cmdline>
J2VwaWtfcHl0aG9uJywgJy1waCcsICc3LjAnLCAnLXRuJywgJzgnLCAnLW1hJywgJzIwMCcsICctbWV0YWxfYmluZGluZycsICctaW1hZScsICc8aW5maWxlLm1hZT4nLCAnLW9tYWUnLCAnPG91dGZpbGUubWFlPic=

> <r_epik_Ionization_Penalty>
1.29485

> <r_epik_Ionization_Penalty_Charging>
1.29485

> <r_epik_Ionization_Penalty_Neutral>
1.02965e-06

> <r_epik_State_Penalty>
1.36828

> <r_epik_Charging_Adjusted_Penalty>
2.66313

> <i_epik_Tot_Q>
1

> <i_epik_Tot_abs_Q>
1

> <r_epik_Metal_State_Penalty>
1.43316

> <b_epik_Metal_Only>
0

> <s_lp_Force_Field>
OPLS_2005

> <r_lp_Energy>
11.9794

> <b_lp_Chiralities_Consistent>
1

> <s_lp_Variant>
AV-unprocessed.smi:525-4

> <Gold.Version>
5.8.1

> <Gold.Id.Protein>
6NUR|6NUR_protein|mol2

> <Gold.PLP.Fitness>
60.2286

> <Gold.PLP.PLP>
-50.2321

> <Gold.PLP.part.hbond>
-4.0000

> <Gold.PLP.part.metal>
0.0000

> <Gold.PLP.part.buried>
-7.5640

> <Gold.PLP.part.nonpolar>
-40.9630

> <Gold.PLP.part.repulsive>
0.3174

> <Gold.PLP.ligand.clash>
0.0000

> <Gold.PLP.ligand.torsion>
0.7836

> <Gold.PLP.Chemscore.Hbond>
3.7920

> <Gold.PLP.Chemscore.CHOScore>
0.0000

> <Gold.PLP.Chemscore.Metal>
0.0000

> <Gold.Chemscore.Hbonds>
donor molecule, donor type, donor heavy atom, donor atom, acceptor molecule, acceptor atom, score
      L1  H    10    33       P1  7948  0.54
      L1  H    18    44       P1  8028  1.86
      P1  H  7997  8010       L1     2  0.29

> <Gold.PLP.Chemscore.Internal.Correction>
0.1878

> <Gold.Rescore>
     Score         DG    S(hbond)    S(metal)    S(lipo)     H(rot)  DE(clash)    DE(int)     intcor
     16.97     -19.38       1.78        0.00     122.95       2.51       0.26       2.14       ----

> <Gold.Chemscore.Fitness>
16.9739

> <Gold.Chemscore.DG>
-19.3772

> <Gold.Chemscore.ZeroCoef>
-5.4800

> <Gold.Chemscore.Hbond>
1.7813

> <Gold.Chemscore.Metal>
0.0000

> <Gold.Chemscore.Lipo>
122.9461

> <Gold.Chemscore.Internal_Hbond>
0.0000

> <Gold.Chemscore.DEClash>
0.2594

> <Gold.Chemscore.DEInternal>
2.1439

> <Gold.Chemscore.Rot>
2.5145

> <Gold.Chemscore.Internal.Correction>
   9.000000E+99

> <Gold.Chemscore.Hbonds>
donor molecule, donor type, donor heavy atom, donor atom, acceptor molecule, acceptor atom, score
      L1  H    10    33       P1  7948  0.50
      L1  H    18    44       P1  8028  0.89
      P1  H  7997  8010       L1     2  0.08

> <Gold.Chemscore.Hbond.Weighted>
-5.9497

> <Gold.Chemscore.Metal.Weighted>
-0.0000

> <Gold.Chemscore.Lipo.Weighted>
-14.3847

> <Gold.Chemscore.Internal_Hbond.Weighted>
0.0000

> <Gold.Chemscore.DEClash.Weighted>
0.2594

> <Gold.Chemscore.DEInternal.Weighted>
2.1439

> <Gold.Chemscore.Rot.Weighted>
6.4372

> <Gold.Chemscore.Internal.Correction.Weighted>
   9.000000E+99

> <Gold.Protein.RotatedTorsions>
[ 6907 6896 6895 6894 ] final   44.73 input  -60.11 | X-H torsion
[ 7974 7965 7964 7962 ] final  113.85 input  175.53 | X-H torsion
[ 8008 7997 7996 7995 ] final   71.32 input   59.86 | X-H torsion
[ 10167 10162 10161 10158 ] final  102.94 input  -65.29 | X-H torsion
[ 10718 10713 10712 10709 ] final  144.90 input   66.30 | X-H torsion
[ 10763 10752 10751 10750 ] final  -57.22 input  -60.55 | X-H torsion
[ 11005 11000 10999 10996 ] final   94.12 input  -57.11 | X-H torsion

> <Gold.Protein.ActiveResidues>
 VAL166  LYS551  ARG553  GLY616  TRP617  ASP618  TYR619  PRO620  LYS621  CYS622 
 ASP623  PHE694  ASN695  SER759  ASP760  ASP761  ALA762  ILE779  LEU786  VAL792 
 PHE793  MET794  SER795  GLU796  ALA797  LYS798  CYS799  TRP800  GLU811  SER814 

> <Gold.Protein.RotatedAtoms>
  152.2361  134.8275  160.0466 H   0  0  0  0  0  0  0  0  0  0  0  0  # atno 6907 bound_to 6896
  151.9006  133.3532  159.3837 H   0  0  0  0  0  0  0  0  0  0  0  0  # atno 6908 bound_to 6896
  150.7039  134.4758  159.5491 H   0  0  0  0  0  0  0  0  0  0  0  0  # atno 6909 bound_to 6896
  145.2118  139.2902  143.4264 H   0  0  0  0  0  0  0  0  0  0  0  0  # atno 7974 bound_to 7965
  155.7520  140.3488  155.5155 H   0  0  0  0  0  0  0  0  0  0  0  0  # atno 8008 bound_to 7997
  155.8995  140.1031  157.1381 H   0  0  0  0  0  0  0  0  0  0  0  0  # atno 8009 bound_to 7997
  154.4042  140.1289  156.4405 H   0  0  0  0  0  0  0  0  0  0  0  0  # atno 8010 bound_to 7997
  139.7306  144.7037  151.0728 H   0  0  0  0  0  0  0  0  0  0  0  0  # atno 10167 bound_to 10162
  157.3517  131.0952  151.0994 H   0  0  0  0  0  0  0  0  0  0  0  0  # atno 10718 bound_to 10713
  154.2190  135.6381  153.5138 H   0  0  0  0  0  0  0  0  0  0  0  0  # atno 10763 bound_to 10752
  152.9973  135.5492  154.6135 H   0  0  0  0  0  0  0  0  0  0  0  0  # atno 10764 bound_to 10752
  154.5590  135.2907  155.0911 H   0  0  0  0  0  0  0  0  0  0  0  0  # atno 10765 bound_to 10752
  139.8802  134.8828  156.3818 H   0  0  0  0  0  0  0  0  0  0  0  0  # atno 11005 bound_to 11000
  146.3396  140.2396  142.8595 LP  0  0  0  0  0  0  0  0  0  0  0  0  # atno 17320 bound_to 7965
  144.9848  140.8493  143.5375 LP  0  0  0  0  0  0  0  0  0  0  0  0  # atno 17321 bound_to 7965
  140.7770  143.5048  150.9725 LP  0  0  0  0  0  0  0  0  0  0  0  0  # atno 17342 bound_to 10162
  139.8736  143.7160  152.3164 LP  0  0  0  0  0  0  0  0  0  0  0  0  # atno 17343 bound_to 10162
  157.2167  130.6462  149.5795 LP  0  0  0  0  0  0  0  0  0  0  0  0  # atno 17370 bound_to 10713
  155.9722  130.4642  150.6210 LP  0  0  0  0  0  0  0  0  0  0  0  0  # atno 17371 bound_to 10713
  140.9394  133.7525  156.0126 LP  0  0  0  0  0  0  0  0  0  0  0  0  # atno 17394 bound_to 11000
  140.8237  134.3259  157.5373 LP  0  0  0  0  0  0  0  0  0  0  0  0  # atno 17395 bound_to 11000

$$$$
