AV-unprocessed.smi:1705|AV-procd|sdf|6885|dock8
  -GOLD-   22720 8 93D 1   1.00000     0.00000
 Structure written by MMmdl.
 38 39  0  0  0  0  0  0  0  0  1 V2000
  149.7602  135.6525  156.6814 C   0  0  0  0  0  0  0  0  0  0  0  0
  150.3456  135.3793  155.2874 C   0  0  1  0  0  0  0  0  0  0  0  0
  149.3767  134.6514  154.4814 N   0  0  0  0  0  0  0  0  0  0  0  0
  149.2141  133.2706  154.4247 C   0  0  0  0  0  0  0  0  0  0  0  0
  149.9883  132.4239  155.1604 C   0  0  0  0  0  0  0  0  0  0  0  0
  150.9924  132.8636  156.0773 C   0  0  0  0  0  0  0  0  0  0  0  0
  151.8140  133.1890  156.8258 N   0  0  0  0  0  0  0  0  0  0  0  0
  149.8277  130.9728  155.0941 C   0  0  0  0  0  0  0  0  0  0  0  0
  150.5123  130.1756  155.7399 O   0  0  0  0  0  0  0  0  0  0  0  0
  148.8174  130.5286  154.2177 N   0  0  0  0  0  0  0  0  0  0  0  0
  148.6407  129.0933  154.1154 C   0  0  0  0  0  0  0  0  0  0  0  0
  148.0049  131.3818  153.4426 C   0  0  0  0  0  0  0  0  0  0  0  0
  147.1474  130.9389  152.6724 O   0  0  0  0  0  0  0  0  0  0  0  0
  148.2165  132.7761  153.5789 N   0  0  0  0  0  0  0  0  0  0  0  0
  147.3573  133.5992  152.7513 C   0  0  0  0  0  0  0  0  0  0  0  0
  150.7478  136.6750  154.5591 C   0  0  1  0  0  0  0  0  0  0  0  0
  149.8213  137.8651  154.8042 C   0  0  0  0  0  0  0  0  0  0  0  0
  150.7093  139.0630  154.5133 C   0  0  0  0  0  0  0  0  0  0  0  0
  152.1313  138.5105  154.6481 C   0  0  0  0  0  0  0  0  0  0  0  0
  151.9772  137.1635  155.0748 O   0  0  0  0  0  0  0  0  0  0  0  0
  150.4939  136.1230  157.3359 H   0  0  0  0  0  0  0  0  0  0  0  0
  149.4398  134.7299  157.1650 H   0  0  0  0  0  0  0  0  0  0  0  0
  148.8933  136.3114  156.6234 H   0  0  0  0  0  0  0  0  0  0  0  0
  151.2434  134.7723  155.4009 H   0  0  0  0  0  0  0  0  0  0  0  0
  149.1931  135.1193  153.6054 H   0  0  0  0  0  0  0  0  0  0  0  0
  147.7805  128.8379  153.4980 H   0  0  0  0  0  0  0  0  0  0  0  0
  148.4816  128.7090  155.1246 H   0  0  0  0  0  0  0  0  0  0  0  0
  149.5538  128.6894  153.6750 H   0  0  0  0  0  0  0  0  0  0  0  0
  147.6301  133.4070  151.7122 H   0  0  0  0  0  0  0  0  0  0  0  0
  147.4915  134.6527  152.9844 H   0  0  0  0  0  0  0  0  0  0  0  0
  146.3226  133.3199  152.9592 H   0  0  0  0  0  0  0  0  0  0  0  0
  150.8549  136.4994  153.4867 H   0  0  0  0  0  0  0  0  0  0  0  0
  148.9263  137.8422  154.1820 H   0  0  0  0  0  0  0  0  0  0  0  0
  149.5073  137.8874  155.8486 H   0  0  0  0  0  0  0  0  0  0  0  0
  150.5433  139.4353  153.5017 H   0  0  0  0  0  0  0  0  0  0  0  0
  150.5168  139.8806  155.2086 H   0  0  0  0  0  0  0  0  0  0  0  0
  152.6440  138.5290  153.6856 H   0  0  0  0  0  0  0  0  0  0  0  0
  152.7307  139.0735  155.3638 H   0  0  0  0  0  0  0  0  0  0  0  0
  1  2  1  0  0  0  0
  1 21  1  0  0  0  0
  1 22  1  0  0  0  0
  1 23  1  0  0  0  0
  2  3  1  0  0  0  0
  2 16  1  0  0  0  0
  2 24  1  0  0  0  0
  3  4  1  0  0  0  0
  3 25  1  0  0  0  0
  4 14  1  0  0  0  0
  4  5  2  0  0  0  0
  5  6  1  0  0  0  0
  5  8  1  0  0  0  0
  6  7  3  0  0  0  0
  8  9  2  0  0  0  0
  8 10  1  0  0  0  0
 10 11  1  0  0  0  0
 10 12  1  0  0  0  0
 11 26  1  0  0  0  0
 11 27  1  0  0  0  0
 11 28  1  0  0  0  0
 12 13  2  0  0  0  0
 12 14  1  0  0  0  0
 14 15  1  0  0  0  0
 15 29  1  0  0  0  0
 15 30  1  0  0  0  0
 15 31  1  0  0  0  0
 16 20  1  0  0  0  0
 16 17  1  0  0  0  0
 16 32  1  0  0  0  0
 17 18  1  0  0  0  0
 17 33  1  0  0  0  0
 17 34  1  0  0  0  0
 18 19  1  0  0  0  0
 18 35  1  0  0  0  0
 18 36  1  0  0  0  0
 19 20  1  0  0  0  0
 19 37  1  0  0  0  0
 19 38  1  0  0  0  0
M  END
> <s_m_source_file>
AV-unprocessed.smi

> <i_m_source_file_index>
1705

> <i_lp_mmshare_version>
43012

> <i_f3d_flags>
0

> <s_epik_input>
TzFbQ0gyXVtDSDJdW0NIMl1bQ0BIXTFbQ0BIXShbQ0gzXSlbTkhdYzJjKEMjTiljKD1PKW4oW0NIM10pYyg9TyluMltDSDNd

> <s_epik_cmdline>
J2VwaWtfcHl0aG9uJywgJy1waCcsICc3LjAnLCAnLXRuJywgJzgnLCAnLW1hJywgJzIwMCcsICctbWV0YWxfYmluZGluZycsICctaW1hZScsICc8aW5maWxlLm1hZT4nLCAnLW9tYWUnLCAnPG91dGZpbGUubWFlPic=

> <r_epik_Ionization_Penalty>
0.000446268

> <r_epik_Ionization_Penalty_Charging>
9.41922e-10

> <r_epik_Ionization_Penalty_Neutral>
0.000446267

> <r_epik_State_Penalty>
0.000275531

> <r_epik_Charging_Adjusted_Penalty>
0.000275532

> <i_epik_Tot_Q>
0

> <i_epik_Tot_abs_Q>
0

> <r_epik_Metal_State_Penalty>
-0

> <b_epik_Metal_Only>
0

> <s_lp_Force_Field>
OPLS_2005

> <r_lp_Energy>
37.8394

> <b_lp_Chiralities_Consistent>
1

> <s_lp_Variant>
AV-unprocessed.smi:1705-4

> <Gold.Version>
5.8.1

> <Gold.Id.Protein>
6NUR|6NUR_protein|mol2

> <Gold.PLP.Fitness>
35.5395

> <Gold.PLP.PLP>
-31.4467

> <Gold.PLP.part.hbond>
-2.0083

> <Gold.PLP.part.metal>
0.0000

> <Gold.PLP.part.buried>
-3.0286

> <Gold.PLP.part.nonpolar>
-28.4369

> <Gold.PLP.part.repulsive>
1.2289

> <Gold.PLP.ligand.clash>
9.0509

> <Gold.PLP.ligand.torsion>
0.7979

> <Gold.PLP.Chemscore.Hbond>
1.8865

> <Gold.PLP.Chemscore.CHOScore>
0.0000

> <Gold.PLP.Chemscore.Metal>
0.0000

> <Gold.Chemscore.Hbonds>
donor molecule, donor type, donor heavy atom, donor atom, acceptor molecule, acceptor atom, score
      L1  H     3    25       P1  7948  0.96
      P1  H 10752 10765       L1    20  0.75

> <Gold.PLP.Chemscore.Internal.Correction>
9.0800

> <Gold.Rescore>
     Score         DG    S(hbond)    S(metal)    S(lipo)     H(rot)  DE(clash)    DE(int)     intcor
      9.75     -13.11       1.55        0.00      49.00       1.28       0.06       3.29       ----

> <Gold.Chemscore.Fitness>
9.7535

> <Gold.Chemscore.DG>
-13.1121

> <Gold.Chemscore.ZeroCoef>
-5.4800

> <Gold.Chemscore.Hbond>
1.5480

> <Gold.Chemscore.Metal>
0.0000

> <Gold.Chemscore.Lipo>
49.0028

> <Gold.Chemscore.Internal_Hbond>
0.0000

> <Gold.Chemscore.DEClash>
0.0640

> <Gold.Chemscore.DEInternal>
3.2947

> <Gold.Chemscore.Rot>
1.2780

> <Gold.Chemscore.Internal.Correction>
   9.000000E+99

> <Gold.Chemscore.Hbonds>
donor molecule, donor type, donor heavy atom, donor atom, acceptor molecule, acceptor atom, score
      L1  H     3    25       P1  7948  0.23
      P1  H 10752 10765       L1    20  0.13

> <Gold.Chemscore.Hbond.Weighted>
-5.1704

> <Gold.Chemscore.Metal.Weighted>
-0.0000

> <Gold.Chemscore.Lipo.Weighted>
-5.7333

> <Gold.Chemscore.Internal_Hbond.Weighted>
0.0000

> <Gold.Chemscore.DEClash.Weighted>
0.0640

> <Gold.Chemscore.DEInternal.Weighted>
3.2947

> <Gold.Chemscore.Rot.Weighted>
3.2717

> <Gold.Chemscore.Internal.Correction.Weighted>
   9.000000E+99

> <Gold.Protein.RotatedTorsions>
[ 6907 6896 6895 6894 ] final    3.08 input  -60.11 | X-H torsion
[ 7974 7965 7964 7962 ] final -132.01 input  175.53 | X-H torsion
[ 8008 7997 7996 7995 ] final   51.74 input   59.86 | X-H torsion
[ 10167 10162 10161 10158 ] final   21.81 input  -65.29 | X-H torsion
[ 10718 10713 10712 10709 ] final  -18.95 input   66.30 | X-H torsion
[ 10763 10752 10751 10750 ] final -168.82 input  -60.55 | X-H torsion
[ 11005 11000 10999 10996 ] final -102.83 input  -57.11 | X-H torsion

> <Gold.Protein.ActiveResidues>
 VAL166  LYS551  ARG553  GLY616  TRP617  ASP618  TYR619  PRO620  LYS621  CYS622 
 ASP623  PHE694  ASN695  SER759  ASP760  ASP761  ALA762  ILE779  LEU786  VAL792 
 PHE793  MET794  SER795  GLU796  ALA797  LYS798  CYS799  TRP800  GLU811  SER814 

> <Gold.Protein.RotatedAtoms>
  151.6193  135.1033  160.0097 H   0  0  0  0  0  0  0  0  0  0  0  0  # atno 6907 bound_to 6896
  152.4166  133.7045  159.6453 H   0  0  0  0  0  0  0  0  0  0  0  0  # atno 6908 bound_to 6896
  150.8055  133.8445  159.3229 H   0  0  0  0  0  0  0  0  0  0  0  0  # atno 6909 bound_to 6896
  144.9325  140.7145  143.4897 H   0  0  0  0  0  0  0  0  0  0  0  0  # atno 7974 bound_to 7965
  155.4402  140.3454  155.4289 H   0  0  0  0  0  0  0  0  0  0  0  0  # atno 8008 bound_to 7997
  156.1283  140.1507  156.9133 H   0  0  0  0  0  0  0  0  0  0  0  0  # atno 8009 bound_to 7997
  154.4875  140.0851  156.7500 H   0  0  0  0  0  0  0  0  0  0  0  0  # atno 8010 bound_to 7997
  140.5397  143.9698  150.6512 H   0  0  0  0  0  0  0  0  0  0  0  0  # atno 10167 bound_to 10162
  156.5524  130.4705  149.6445 H   0  0  0  0  0  0  0  0  0  0  0  0  # atno 10718 bound_to 10713
  154.6589  135.2922  154.9892 H   0  0  0  0  0  0  0  0  0  0  0  0  # atno 10763 bound_to 10752
  154.0959  135.6584  153.4864 H   0  0  0  0  0  0  0  0  0  0  0  0  # atno 10764 bound_to 10752
  153.0418  135.5231  154.7530 H   0  0  0  0  0  0  0  0  0  0  0  0  # atno 10765 bound_to 10752
  141.1172  133.8590  157.1409 H   0  0  0  0  0  0  0  0  0  0  0  0  # atno 11005 bound_to 11000
  145.3119  139.1816  143.4634 LP  0  0  0  0  0  0  0  0  0  0  0  0  # atno 17320 bound_to 7965
  146.3253  140.3125  142.8627 LP  0  0  0  0  0  0  0  0  0  0  0  0  # atno 17321 bound_to 7965
  140.3095  143.3207  152.0893 LP  0  0  0  0  0  0  0  0  0  0  0  0  # atno 17342 bound_to 10162
  139.4984  144.6645  151.6388 LP  0  0  0  0  0  0  0  0  0  0  0  0  # atno 17343 bound_to 10162
  156.2872  130.7104  151.1943 LP  0  0  0  0  0  0  0  0  0  0  0  0  # atno 17370 bound_to 10713
  157.7385  131.0540  150.5292 LP  0  0  0  0  0  0  0  0  0  0  0  0  # atno 17371 bound_to 10713
  140.0103  134.9991  157.0381 LP  0  0  0  0  0  0  0  0  0  0  0  0  # atno 17394 bound_to 11000
  140.4611  134.1483  155.7191 LP  0  0  0  0  0  0  0  0  0  0  0  0  # atno 17395 bound_to 11000

$$$$
