AV-unprocessed.smi:3313|AV-procd|sdf|12730|dock1
  -GOLD-   2272019 73D 1   1.00000     0.00000
 Structure written by MMmdl.
 43 43  0  0  0  0  0  0  0  0  2 V2000
  146.0418  135.6570  153.1866 C   0  0  0  0  0  0  0  0  0  0  0  0
  145.6147  136.2903  151.8520 C   0  0  1  0  0  0  0  0  0  0  0  0
  144.3457  135.6070  151.3060 C   0  0  0  0  0  0  0  0  0  0  0  0
  144.5617  134.2045  150.9973 N   0  0  0  0  0  0  0  0  0  0  0  0
  143.6438  133.2737  150.5582 C   0  0  0  0  0  0  0  0  0  0  0  0
  144.3065  132.0893  150.4088 C   0  0  0  0  0  0  0  0  0  0  0  0
  145.6434  132.3993  150.7845 C   0  0  0  0  0  0  0  0  0  0  0  0
  145.7926  133.6657  151.1389 N   0  0  0  0  0  0  0  0  0  0  0  0
  145.3841  137.7443  152.0095 N   0  3  0  0  0  0  0  0  0  0  0  0
  146.4859  138.6165  151.5465 C   0  0  0  0  0  0  0  0  0  0  0  0
  146.8051  139.7285  152.5652 C   0  0  0  0  0  0  0  0  0  0  0  0
  147.9191  139.3749  153.5588 C   0  0  0  0  0  0  0  0  0  0  0  0
  147.6851  139.3244  154.7667 O   0  0  0  0  0  0  0  0  0  0  0  0
  149.1279  139.1382  153.0192 N   0  0  0  0  0  0  0  0  0  0  0  0
  150.3810  138.7928  153.7018 C   0  0  0  0  0  0  0  0  0  0  0  0
  150.9521  140.1016  154.2755 C   0  0  0  0  0  0  0  0  0  0  0  0
  151.3985  138.1955  152.7067 C   0  0  0  0  0  0  0  0  0  0  0  0
  150.1155  137.8108  154.8624 C   0  0  0  0  0  0  0  0  0  0  0  0
  146.1879  134.5818  153.0792 H   0  0  0  0  0  0  0  0  0  0  0  0
  145.2870  135.8125  153.9585 H   0  0  0  0  0  0  0  0  0  0  0  0
  146.9813  136.0719  153.5508 H   0  0  0  0  0  0  0  0  0  0  0  0
  146.4149  136.1420  151.1250 H   0  0  0  0  0  0  0  0  0  0  0  0
  143.5427  135.6652  152.0424 H   0  0  0  0  0  0  0  0  0  0  0  0
  143.9826  136.1176  150.4123 H   0  0  0  0  0  0  0  0  0  0  0  0
  142.6074  133.5284  150.3907 H   0  0  0  0  0  0  0  0  0  0  0  0
  143.8992  131.1450  150.0789 H   0  0  0  0  0  0  0  0  0  0  0  0
  146.5034  131.7463  150.8107 H   0  0  0  0  0  0  0  0  0  0  0  0
  144.5638  137.9808  151.4688 H   0  0  0  0  0  0  0  0  0  0  0  0
  147.3794  138.0230  151.3521 H   0  0  0  0  0  0  0  0  0  0  0  0
  146.2000  139.0712  150.5973 H   0  0  0  0  0  0  0  0  0  0  0  0
  147.1049  140.6313  152.0321 H   0  0  0  0  0  0  0  0  0  0  0  0
  145.9006  139.9833  153.1199 H   0  0  0  0  0  0  0  0  0  0  0  0
  149.1920  139.2060  152.0135 H   0  0  0  0  0  0  0  0  0  0  0  0
  151.8893  139.9276  154.8053 H   0  0  0  0  0  0  0  0  0  0  0  0
  150.2598  140.5637  154.9804 H   0  0  0  0  0  0  0  0  0  0  0  0
  151.1527  140.8285  153.4871 H   0  0  0  0  0  0  0  0  0  0  0  0
  151.5699  138.8658  151.8635 H   0  0  0  0  0  0  0  0  0  0  0  0
  151.0682  137.2374  152.3052 H   0  0  0  0  0  0  0  0  0  0  0  0
  152.3617  138.0233  153.1879 H   0  0  0  0  0  0  0  0  0  0  0  0
  151.0259  137.6229  155.4323 H   0  0  0  0  0  0  0  0  0  0  0  0
  149.7565  136.8441  154.5099 H   0  0  0  0  0  0  0  0  0  0  0  0
  149.3723  138.2064  155.5557 H   0  0  0  0  0  0  0  0  0  0  0  0
  145.1916  137.9408  152.9817 H   0  0  0  0  0  0  0  0  0  0  0  0
  1  2  1  0  0  0  0
  1 19  1  0  0  0  0
  1 20  1  0  0  0  0
  1 21  1  0  0  0  0
  2  3  1  0  0  0  0
  2  9  1  0  0  0  0
  2 22  1  0  0  0  0
  3  4  1  0  0  0  0
  3 23  1  0  0  0  0
  3 24  1  0  0  0  0
  4  8  1  0  0  0  0
  4  5  1  0  0  0  0
  5  6  2  0  0  0  0
  5 25  1  0  0  0  0
  6  7  1  0  0  0  0
  6 26  1  0  0  0  0
  7  8  2  0  0  0  0
  7 27  1  0  0  0  0
  9 10  1  0  0  0  0
  9 28  1  0  0  0  0
  9 43  1  0  0  0  0
 10 11  1  0  0  0  0
 10 29  1  0  0  0  0
 10 30  1  0  0  0  0
 11 12  1  0  0  0  0
 11 31  1  0  0  0  0
 11 32  1  0  0  0  0
 12 13  2  0  0  0  0
 12 14  1  0  0  0  0
 14 15  1  0  0  0  0
 14 33  1  0  0  0  0
 15 16  1  0  0  0  0
 15 17  1  0  0  0  0
 15 18  1  0  0  0  0
 16 34  1  0  0  0  0
 16 35  1  0  0  0  0
 16 36  1  0  0  0  0
 17 37  1  0  0  0  0
 17 38  1  0  0  0  0
 17 39  1  0  0  0  0
 18 40  1  0  0  0  0
 18 41  1  0  0  0  0
 18 42  1  0  0  0  0
M  CHG  1   9   1
M  END
> <s_m_source_file>
AV-unprocessed.smi

> <i_m_source_file_index>
3313

> <i_lp_mmshare_version>
43012

> <i_f3d_flags>
0

> <s_epik_input>
bjFbY0hdW2NIXVtjSF1uMVtDSDJdW0NAQEhdKFtDSDNdKVtOSF1bQ0gyXVtDSDJdQyg9TylbTkhdQyhbQ0gzXSkoW0NIM10pW0NIM10=

> <s_epik_cmdline>
J2VwaWtfcHl0aG9uJywgJy1waCcsICc3LjAnLCAnLXRuJywgJzgnLCAnLW1hJywgJzIwMCcsICctbWV0YWxfYmluZGluZycsICctaW1hZScsICc8aW5maWxlLm1hZT4nLCAnLW9tYWUnLCAnPG91dGZpbGUubWFlPic=

> <r_lp_tautomer_probability>
1

> <r_epik_Ionization_Penalty>
0.0056766

> <r_epik_Ionization_Penalty_Charging>
0.00567288

> <r_epik_Ionization_Penalty_Neutral>
3.71277e-06

> <r_epik_State_Penalty>
0.0041598

> <r_epik_Charging_Adjusted_Penalty>
0.00983268

> <i_epik_Tot_Q>
1

> <i_epik_Tot_abs_Q>
1

> <r_epik_Metal_State_Penalty>
-0

> <b_epik_Metal_Only>
0

> <s_lp_Force_Field>
OPLS_2005

> <r_lp_Energy>
4.0528

> <b_lp_Chiralities_Consistent>
1

> <s_lp_Variant>
AV-unprocessed.smi:3313-2

> <Gold.Version>
5.8.1

> <Gold.Id.Protein>
6NUR|6NUR_protein|mol2

> <Gold.PLP.Fitness>
43.3408

> <Gold.PLP.PLP>
-34.1642

> <Gold.PLP.part.hbond>
-2.0185

> <Gold.PLP.part.metal>
0.0000

> <Gold.PLP.part.buried>
-1.3980

> <Gold.PLP.part.nonpolar>
-31.3046

> <Gold.PLP.part.repulsive>
0.3609

> <Gold.PLP.ligand.clash>
0.0000

> <Gold.PLP.ligand.torsion>
1.5585

> <Gold.PLP.Chemscore.Hbond>
2.0000

> <Gold.PLP.Chemscore.CHOScore>
2.0000

> <Gold.PLP.Chemscore.Metal>
0.0000

> <Gold.Chemscore.Hbonds>
donor molecule, donor type, donor heavy atom, donor atom, acceptor molecule, acceptor atom, score
      L1  H     9    28       P1 10171  0.94
      L1  H    14    33       P1  7957  0.23
      L1  C     5    25       P1 10186  0.96
      L1  C     7    27       P1 10747  0.63

> <Gold.PLP.Chemscore.Internal.Correction>
0.2937

> <Gold.Rescore>
     Score         DG    S(hbond)    S(metal)    S(lipo)     H(rot)  DE(clash)    DE(int)     intcor
     12.10     -15.83       1.95        0.00      81.07       2.20       0.15       3.57       ----

> <Gold.Chemscore.Fitness>
12.1047

> <Gold.Chemscore.DG>
-15.8300

> <Gold.Chemscore.ZeroCoef>
-5.4800

> <Gold.Chemscore.Hbond>
1.9473

> <Gold.Chemscore.Metal>
0.0000

> <Gold.Chemscore.Lipo>
81.0685

> <Gold.Chemscore.Internal_Hbond>
0.0000

> <Gold.Chemscore.DEClash>
0.1540

> <Gold.Chemscore.DEInternal>
3.5713

> <Gold.Chemscore.Rot>
2.2027

> <Gold.Chemscore.Internal.Correction>
   9.000000E+99

> <Gold.Chemscore.Hbonds>
donor molecule, donor type, donor heavy atom, donor atom, acceptor molecule, acceptor atom, score
      L1  H     9    28       P1 10171  0.91
      L1  H    14    33       P1  7957  0.22

> <Gold.Chemscore.Hbond.Weighted>
-6.5039

> <Gold.Chemscore.Metal.Weighted>
-0.0000

> <Gold.Chemscore.Lipo.Weighted>
-9.4850

> <Gold.Chemscore.Internal_Hbond.Weighted>
0.0000

> <Gold.Chemscore.DEClash.Weighted>
0.1540

> <Gold.Chemscore.DEInternal.Weighted>
3.5713

> <Gold.Chemscore.Rot.Weighted>
5.6390

> <Gold.Chemscore.Internal.Correction.Weighted>
   9.000000E+99

> <Gold.Protein.RotatedTorsions>
[ 6907 6896 6895 6894 ] final  -41.39 input  -60.11 | X-H torsion
[ 7974 7965 7964 7962 ] final  164.23 input  175.53 | X-H torsion
[ 8008 7997 7996 7995 ] final  128.52 input   59.86 | X-H torsion
[ 10167 10162 10161 10158 ] final  -42.04 input  -65.29 | X-H torsion
[ 10718 10713 10712 10709 ] final  162.96 input   66.30 | X-H torsion
[ 10763 10752 10751 10750 ] final  138.98 input  -60.55 | X-H torsion
[ 11005 11000 10999 10996 ] final   43.72 input  -57.11 | X-H torsion

> <Gold.Protein.ActiveResidues>
 VAL166  LYS551  ARG553  GLY616  TRP617  ASP618  TYR619  PRO620  LYS621  CYS622 
 ASP623  PHE694  ASN695  SER759  ASP760  ASP761  ALA762  ILE779  LEU786  VAL792 
 PHE793  MET794  SER795  GLU796  ALA797  LYS798  CYS799  TRP800  GLU811  SER814 

> <Gold.Protein.RotatedAtoms>
  150.9673  134.9052  159.7766 H   0  0  0  0  0  0  0  0  0  0  0  0  # atno 6907 bound_to 6896
  152.5178  134.3589  159.9288 H   0  0  0  0  0  0  0  0  0  0  0  0  # atno 6908 bound_to 6896
  151.3600  133.3852  159.2723 H   0  0  0  0  0  0  0  0  0  0  0  0  # atno 6909 bound_to 6896
  144.7554  139.8296  143.6351 H   0  0  0  0  0  0  0  0  0  0  0  0  # atno 7974 bound_to 7965
  156.2916  140.2643  156.2449 H   0  0  0  0  0  0  0  0  0  0  0  0  # atno 8008 bound_to 7997
  154.9941  140.0388  157.2350 H   0  0  0  0  0  0  0  0  0  0  0  0  # atno 8009 bound_to 7997
  154.7660  140.2769  155.6180 H   0  0  0  0  0  0  0  0  0  0  0  0  # atno 8010 bound_to 7997
  140.6982  143.3060  151.3152 H   0  0  0  0  0  0  0  0  0  0  0  0  # atno 10167 bound_to 10162
  157.1152  131.0478  151.2440 H   0  0  0  0  0  0  0  0  0  0  0  0  # atno 10718 bound_to 10713
  153.8986  135.3024  155.3448 H   0  0  0  0  0  0  0  0  0  0  0  0  # atno 10763 bound_to 10752
  154.7681  135.4900  153.9598 H   0  0  0  0  0  0  0  0  0  0  0  0  # atno 10764 bound_to 10752
  153.1257  135.6792  153.9360 H   0  0  0  0  0  0  0  0  0  0  0  0  # atno 10765 bound_to 10752
  140.1618  134.4332  155.8313 H   0  0  0  0  0  0  0  0  0  0  0  0  # atno 11005 bound_to 11000
  146.1558  139.4655  143.0020 LP  0  0  0  0  0  0  0  0  0  0  0  0  # atno 17320 bound_to 7965
  145.6797  141.0194  143.1613 LP  0  0  0  0  0  0  0  0  0  0  0  0  # atno 17321 bound_to 7965
  139.6466  144.0440  152.2595 LP  0  0  0  0  0  0  0  0  0  0  0  0  # atno 17342 bound_to 10162
  139.9963  144.6326  150.7770 LP  0  0  0  0  0  0  0  0  0  0  0  0  # atno 17343 bound_to 10162
  157.4525  130.7606  149.7164 LP  0  0  0  0  0  0  0  0  0  0  0  0  # atno 17370 bound_to 10713
  155.9841  130.3994  150.3328 LP  0  0  0  0  0  0  0  0  0  0  0  0  # atno 17371 bound_to 10713
  141.2210  133.6917  156.7608 LP  0  0  0  0  0  0  0  0  0  0  0  0  # atno 17394 bound_to 11000
  140.2481  134.8562  157.3640 LP  0  0  0  0  0  0  0  0  0  0  0  0  # atno 17395 bound_to 11000

$$$$
