#       Name:                AV-unprocessed.smi:2121
#       Creating user name   scv26
#       Creation time:       Fri Mar 27 11:39:10 2020


#       File generated by GOLD software.
#

@<TRIPOS>MOLECULE
AV-unprocessed.smi:2121
    57    58     1
SMALL
NO_CHARGES


@<TRIPOS>ATOM
      1 ****        -5.1640   0.0306   1.1085 C.3            1 S1                 0.0000
      2 ****        -4.4461  -0.3872  -0.1788 C.3            1 S1                 0.0000
      3 ****        -2.9432  -0.0542  -0.1351 C.3            1 S1                 0.0000
      4 ****        -2.3119  -0.3402  -1.4232 N.3            1 S1                 0.0000
      5 ****        -0.8985  -0.3860  -1.4397 C.ar           1 S1                 0.0000
      6 ****        -0.1346   0.2114  -2.4747 C.ar           1 S1                 0.0000
      7 ****         1.2699   0.1230  -2.4319 C.ar           1 S1                 0.0000
      8 ****         1.8846  -0.5554  -1.3623 C.ar           1 S1                 0.0000
      9 ****         3.4026  -0.6659  -1.2991 C.3            1 S1                 0.0000
     10 ****         3.9437  -0.7909   0.0502 N.am           1 S1                 0.0000
     11 ****         4.0451   0.2143   0.9326 C.2            1 S1                 0.0000
     12 ****         3.7176   1.3740   0.6757 O.2            1 S1                 0.0000
     13 ****         4.6018  -0.1520   2.3172 C.3            1 S1                 0.0000
     14 ****         6.0227   0.4232   2.4392 C.3            1 S1                 0.0000
     15 ****         3.7762   0.4392   3.3692 N.am           1 S1                 0.0000
     16 ****         2.5975  -0.0474   3.7859 C.2            1 S1                 0.0000
     17 ****         2.0437   0.7076   4.7349 N.am           1 S1                 0.0000
     18 ****         2.0721  -1.0702   3.3503 O.2            1 S1                 0.0000
     19 ****         1.0459  -1.1271  -0.3818 C.ar           1 S1                 0.0000
     20 ****        -0.3002  -1.0446  -0.4176 N.ar           1 S1                 0.0000
     21 ****        -3.0080   0.2465  -2.5649 C.3            1 S1                 0.0000
     22 ****        -4.5082  -0.0992  -2.5252 C.3            1 S1                 0.0000
     23 ****        -5.2920   0.6092  -3.6351 C.3            1 S1                 0.0000
     24 ****        -5.0491   0.3012  -1.2702 O.3            1 S1                 0.0000
     25 ****        -4.7451  -0.4819   1.9748 H              1 S1                 0.0000
     26 ****        -6.2255  -0.2127   1.0588 H              1 S1                 0.0000
     27 ****        -5.0756   1.1040   1.2792 H              1 S1                 0.0000
     28 ****        -4.5796  -1.4619  -0.3154 H              1 S1                 0.0000
     29 ****        -2.7969   1.0013   0.0975 H              1 S1                 0.0000
     30 ****        -2.4847  -0.6241   0.6731 H              1 S1                 0.0000
     31 ****        -0.5909   0.7443  -3.2945 H              1 S1                 0.0000
     32 ****         1.8653   0.5758  -3.2110 H              1 S1                 0.0000
     33 ****         3.7042  -1.5457  -1.8677 H              1 S1                 0.0000
     34 ****         3.8560   0.1935  -1.7962 H              1 S1                 0.0000
     35 ****         4.2379  -1.7116   0.3424 H              1 S1                 0.0000
     36 ****         4.6355  -1.2365   2.4393 H              1 S1                 0.0000
     37 ****         6.6805   0.0184   1.6688 H              1 S1                 0.0000
     38 ****         6.4623   0.1711   3.4046 H              1 S1                 0.0000
     39 ****         6.0318   1.5103   2.3469 H              1 S1                 0.0000
     40 ****         4.1178   1.2909   3.7896 H              1 S1                 0.0000
     41 ****         1.1568   0.4461   5.1398 H              1 S1                 0.0000
     42 ****         2.5221   1.5388   5.0510 H              1 S1                 0.0000
     43 ****         1.4573  -1.6693   0.4566 H              1 S1                 0.0000
     44 ****        -2.8671   1.3281  -2.5520 H              1 S1                 0.0000
     45 ****        -2.5890  -0.1314  -3.4980 H              1 S1                 0.0000
     46 ****        -4.6392  -1.1763  -2.6443 H              1 S1                 0.0000
     47 ****        -4.9169   0.3305  -4.6202 H              1 S1                 0.0000
     48 ****        -5.2160   1.6928  -3.5416 H              1 S1                 0.0000
     49 ****        -6.3488   0.3444  -3.5947 H              1 S1                 0.0000
     50 ****        -2.4693  -1.3162  -1.5737 LP             1 S1                 0.0000
     51 ****         3.3556   1.6029  -0.2280 LP             1 S1                 0.0000
     52 ****         3.8138   2.0864   1.3709 LP             1 S1                 0.0000
     53 ****         2.5275  -1.6007   2.6353 LP             1 S1                 0.0000
     54 ****         1.1894  -1.3715   3.7110 LP             1 S1                 0.0000
     55 ****        -0.8512  -1.4653   0.3031 LP             1 S1                 0.0000
     56 ****        -4.8993   1.2831  -1.1537 LP             1 S1                 0.0000
     57 ****        -6.0309   0.1113  -1.2676 LP             1 S1                 0.0000
@<TRIPOS>BOND
    1    1    2 1     
    2    1   25 1     
    3    1   26 1     
    4    1   27 1     
    5    2   24 1     
    6    2    3 1     
    7    2   28 1     
    8    3    4 1     
    9    3   29 1     
   10    3   30 1     
   11    4    5 1     
   12    4   21 1     
   13    5   20 ar    
   14    5    6 ar    
   15    6    7 ar    
   16    6   31 1     
   17    7    8 ar    
   18    7   32 1     
   19    8    9 1     
   20    8   19 ar    
   21    9   10 1     
   22    9   33 1     
   23    9   34 1     
   24   10   11 am    
   25   10   35 1     
   26   11   12 2     
   27   11   13 1     
   28   13   14 1     
   29   13   15 1     
   30   13   36 1     
   31   14   37 1     
   32   14   38 1     
   33   14   39 1     
   34   15   16 am    
   35   15   40 1     
   36   16   17 am    
   37   16   18 2     
   38   17   41 1     
   39   17   42 1     
   40   19   20 ar    
   41   19   43 1     
   42   21   22 1     
   43   21   44 1     
   44   21   45 1     
   45   22   23 1     
   46   22   24 1     
   47   22   46 1     
   48   23   47 1     
   49   23   48 1     
   50   23   49 1     
   51    4   50 1     
   52   12   51 1     
   53   12   52 1     
   54   18   53 1     
   55   18   54 1     
   56   20   55 1     
   57   24   56 1     
   58   24   57 1     
@<TRIPOS>SUBSTRUCTURE
      1 S1             1
@<TRIPOS>SET
LONE_PAIRS      STATIC     ATOMS    <user>   **** ""
8 50 51 52 53 54 55 56 57
DONOR_HYDROGENS      STATIC     ATOMS    <user>   **** ""
4 35 40 41 42
ATOM$BLUE        STATIC     ATOMS    COLORGROUP SYSTEM
8 50 51 52 53 54 55 56 57
ATOM$RED        STATIC     ATOMS    COLORGROUP SYSTEM
4 35 40 41 42
