AV-unprocessed.smi:2905|AV-procd|sdf|11161|dock2
  -GOLD-   2272016 43D 1   1.00000     0.00000
 Structure written by MMmdl.
 39 40  0  0  0  0  0  0  0  0  1 V2000
  153.1041  138.8365  154.8088 C   0  0  0  0  0  0  0  0  0  0  0  0
  151.6995  138.3805  155.2748 C   0  0  0  0  0  0  0  0  0  0  0  0
  150.9544  137.8492  154.0331 C   0  0  0  0  0  0  0  0  0  0  0  0
  151.9041  137.2516  156.3056 C   0  0  0  0  0  0  0  0  0  0  0  0
  150.8982  139.5304  155.9116 C   0  0  0  0  0  0  0  0  0  0  0  0
  150.5080  139.4028  157.1866 N   0  0  0  0  0  0  0  0  0  0  0  0
  149.8057  140.4180  157.7334 C   0  0  0  0  0  0  0  0  0  0  0  0
  149.4889  141.5833  156.9951 C   0  0  0  0  0  0  0  0  0  0  0  0
  148.7331  142.6826  157.4825 N   0  0  0  0  0  0  0  0  0  0  0  0
  147.7345  142.6825  158.3867 C   0  0  0  0  0  0  0  0  0  0  0  0
  147.3578  141.6943  159.0127 O   0  0  0  0  0  0  0  0  0  0  0  0
  147.1795  143.8904  158.5930 N   0  0  0  0  0  0  0  0  0  0  0  0
  146.0838  144.2376  159.4999 C   0  0  0  0  0  0  0  0  0  0  0  0
  146.4987  144.1924  160.9931 C   0  0  0  0  0  0  0  0  0  0  0  0
  145.3653  143.4566  161.6543 C   0  0  0  0  0  0  0  0  0  0  0  0
  144.5006  142.9585  160.7729 C   0  0  0  0  0  0  0  0  0  0  0  0
  144.8891  143.2647  159.3520 C   0  0  0  0  0  0  0  0  0  0  0  0
  149.9407  141.6054  155.6606 C   0  0  0  0  0  0  0  0  0  0  0  0
  150.6443  140.5851  155.1262 N   0  0  0  0  0  0  0  0  0  0  0  0
  153.6607  138.0120  154.3619 H   0  0  0  0  0  0  0  0  0  0  0  0
  153.7020  139.2132  155.6399 H   0  0  0  0  0  0  0  0  0  0  0  0
  153.0434  139.6260  154.0585 H   0  0  0  0  0  0  0  0  0  0  0  0
  150.8058  138.6378  153.2947 H   0  0  0  0  0  0  0  0  0  0  0  0
  149.9720  137.4523  154.2913 H   0  0  0  0  0  0  0  0  0  0  0  0
  151.5095  137.0446  153.5496 H   0  0  0  0  0  0  0  0  0  0  0  0
  152.4924  136.4334  155.8887 H   0  0  0  0  0  0  0  0  0  0  0  0
  150.9547  136.8291  156.6356 H   0  0  0  0  0  0  0  0  0  0  0  0
  152.4265  137.6158  157.1910 H   0  0  0  0  0  0  0  0  0  0  0  0
  149.4889  140.2664  158.7533 H   0  0  0  0  0  0  0  0  0  0  0  0
  148.9958  143.5858  157.1160 H   0  0  0  0  0  0  0  0  0  0  0  0
  147.5885  144.6631  158.0877 H   0  0  0  0  0  0  0  0  0  0  0  0
  145.7182  145.2395  159.2672 H   0  0  0  0  0  0  0  0  0  0  0  0
  147.4257  143.6398  161.1527 H   0  0  0  0  0  0  0  0  0  0  0  0
  146.6133  145.1923  161.4122 H   0  0  0  0  0  0  0  0  0  0  0  0
  145.2982  143.3420  162.7261 H   0  0  0  0  0  0  0  0  0  0  0  0
  143.6239  142.3776  161.0187 H   0  0  0  0  0  0  0  0  0  0  0  0
  144.0599  143.7204  158.8100 H   0  0  0  0  0  0  0  0  0  0  0  0
  145.1647  142.3367  158.8492 H   0  0  0  0  0  0  0  0  0  0  0  0
  149.7383  142.4473  155.0146 H   0  0  0  0  0  0  0  0  0  0  0  0
  1  2  1  0  0  0  0
  1 20  1  0  0  0  0
  1 21  1  0  0  0  0
  1 22  1  0  0  0  0
  2  3  1  0  0  0  0
  2  4  1  0  0  0  0
  2  5  1  0  0  0  0
  3 23  1  0  0  0  0
  3 24  1  0  0  0  0
  3 25  1  0  0  0  0
  4 26  1  0  0  0  0
  4 27  1  0  0  0  0
  4 28  1  0  0  0  0
  5 19  1  0  0  0  0
  5  6  2  0  0  0  0
  6  7  1  0  0  0  0
  7  8  2  0  0  0  0
  7 29  1  0  0  0  0
  8  9  1  0  0  0  0
  8 18  1  0  0  0  0
  9 10  1  0  0  0  0
  9 30  1  0  0  0  0
 10 11  2  0  0  0  0
 10 12  1  0  0  0  0
 12 13  1  0  0  0  0
 12 31  1  0  0  0  0
 13 17  1  0  0  0  0
 13 14  1  0  0  0  0
 13 32  1  0  0  0  0
 14 15  1  0  0  0  0
 14 33  1  0  0  0  0
 14 34  1  0  0  0  0
 15 16  2  0  0  0  0
 15 35  1  0  0  0  0
 16 17  1  0  0  0  0
 16 36  1  0  0  0  0
 17 37  1  0  0  0  0
 17 38  1  0  0  0  0
 18 19  2  0  0  0  0
 18 39  1  0  0  0  0
M  END
> <s_m_source_file>
AV-unprocessed.smi

> <i_m_source_file_index>
2905

> <i_lp_mmshare_version>
43012

> <i_f3d_flags>
0

> <s_epik_input>
W0NIM11DKFtDSDNdKShbQ0gzXSljMW5bY0hdYyhbY0hdbjEpW05IXUMoPU8pW05IXVtDSF0yW0NIMl1bQ0hdPVtDSF1bQ0gyXTI=

> <s_epik_cmdline>
J2VwaWtfcHl0aG9uJywgJy1waCcsICc3LjAnLCAnLXRuJywgJzgnLCAnLW1hJywgJzIwMCcsICctbWV0YWxfYmluZGluZycsICctaW1hZScsICc8aW5maWxlLm1hZT4nLCAnLW9tYWUnLCAnPG91dGZpbGUubWFlPic=

> <r_lp_tautomer_probability>
1

> <r_epik_Ionization_Penalty>
2.65275e-05

> <r_epik_Ionization_Penalty_Charging>
0

> <r_epik_Ionization_Penalty_Neutral>
2.65275e-05

> <r_epik_State_Penalty>
-0

> <r_epik_Charging_Adjusted_Penalty>
0

> <i_epik_Tot_Q>
0

> <i_epik_Tot_abs_Q>
0

> <r_epik_Metal_State_Penalty>
-0

> <b_epik_Metal_Only>
0

> <s_lp_Force_Field>
OPLS_2005

> <r_lp_Energy>
27.7511

> <b_lp_Chiralities_Consistent>
1

> <s_lp_Variant>
AV-unprocessed.smi:2905-1

> <Gold.Version>
5.8.1

> <Gold.Id.Protein>
6NUR|6NUR_protein|mol2

> <Gold.PLP.Fitness>
42.0727

> <Gold.PLP.PLP>
-30.0741

> <Gold.PLP.part.hbond>
-4.8031

> <Gold.PLP.part.metal>
0.0000

> <Gold.PLP.part.buried>
-1.8121

> <Gold.PLP.part.nonpolar>
-24.8464

> <Gold.PLP.part.repulsive>
0.2089

> <Gold.PLP.ligand.clash>
0.0000

> <Gold.PLP.ligand.torsion>
0.3412

> <Gold.PLP.Chemscore.Hbond>
3.2800

> <Gold.PLP.Chemscore.CHOScore>
0.9449

> <Gold.PLP.Chemscore.Metal>
0.0000

> <Gold.Chemscore.Hbonds>
donor molecule, donor type, donor heavy atom, donor atom, acceptor molecule, acceptor atom, score
      L1  H     9    30       P1  8028  0.91
      L1  H    12    31       P1  8029  1.00
      P1  H  6934  6946       L1    11  0.40
      P1  H  7989  7998       L1    19  0.96
      L1  C    18    39       P1  8028  0.97

> <Gold.PLP.Chemscore.Internal.Correction>
0.0063

> <Gold.Rescore>
     Score         DG    S(hbond)    S(metal)    S(lipo)     H(rot)  DE(clash)    DE(int)     intcor
     16.63     -17.75       2.32        0.00      64.18       1.17       0.07       1.05       ----

> <Gold.Chemscore.Fitness>
16.6263

> <Gold.Chemscore.DG>
-17.7458

> <Gold.Chemscore.ZeroCoef>
-5.4800

> <Gold.Chemscore.Hbond>
2.3207

> <Gold.Chemscore.Metal>
0.0000

> <Gold.Chemscore.Lipo>
64.1844

> <Gold.Chemscore.Internal_Hbond>
0.0000

> <Gold.Chemscore.DEClash>
0.0727

> <Gold.Chemscore.DEInternal>
1.0469

> <Gold.Chemscore.Rot>
1.1699

> <Gold.Chemscore.Internal.Correction>
   9.000000E+99

> <Gold.Chemscore.Hbonds>
donor molecule, donor type, donor heavy atom, donor atom, acceptor molecule, acceptor atom, score
      L1  H     9    30       P1  8028  0.40
      L1  H    12    31       P1  8029  0.65
      P1  H  6934  6946       L1    11  0.40
      P1  H  7989  7998       L1    19  0.88

> <Gold.Chemscore.Hbond.Weighted>
-7.7511

> <Gold.Chemscore.Metal.Weighted>
-0.0000

> <Gold.Chemscore.Lipo.Weighted>
-7.5096

> <Gold.Chemscore.Internal_Hbond.Weighted>
0.0000

> <Gold.Chemscore.DEClash.Weighted>
0.0727

> <Gold.Chemscore.DEInternal.Weighted>
1.0469

> <Gold.Chemscore.Rot.Weighted>
2.9949

> <Gold.Chemscore.Internal.Correction.Weighted>
   9.000000E+99

> <Gold.Protein.RotatedTorsions>
[ 6907 6896 6895 6894 ] final   31.64 input  -60.11 | X-H torsion
[ 7974 7965 7964 7962 ] final -158.58 input  175.53 | X-H torsion
[ 8008 7997 7996 7995 ] final -165.87 input   59.86 | X-H torsion
[ 10167 10162 10161 10158 ] final  -85.78 input  -65.29 | X-H torsion
[ 10718 10713 10712 10709 ] final -116.79 input   66.30 | X-H torsion
[ 10763 10752 10751 10750 ] final -144.80 input  -60.55 | X-H torsion
[ 11005 11000 10999 10996 ] final  162.58 input  -57.11 | X-H torsion

> <Gold.Protein.ActiveResidues>
 VAL166  LYS551  ARG553  GLY616  TRP617  ASP618  TYR619  PRO620  LYS621  CYS622 
 ASP623  PHE694  ASN695  SER759  ASP760  ASP761  ALA762  ILE779  LEU786  VAL792 
 PHE793  MET794  SER795  GLU796  ALA797  LYS798  CYS799  TRP800  GLU811  SER814 

> <Gold.Protein.RotatedAtoms>
  152.0632  134.9581  160.0574 H   0  0  0  0  0  0  0  0  0  0  0  0  # atno 6907 bound_to 6896
  152.0936  133.4208  159.4563 H   0  0  0  0  0  0  0  0  0  0  0  0  # atno 6908 bound_to 6896
  150.6837  134.2762  159.4652 H   0  0  0  0  0  0  0  0  0  0  0  0  # atno 6909 bound_to 6896
  144.7500  140.3808  143.6055 H   0  0  0  0  0  0  0  0  0  0  0  0  # atno 7974 bound_to 7965
  155.8559  140.0970  157.1645 H   0  0  0  0  0  0  0  0  0  0  0  0  # atno 8008 bound_to 7997
  154.3988  140.1374  156.3963 H   0  0  0  0  0  0  0  0  0  0  0  0  # atno 8009 bound_to 7997
  155.7910  140.3455  155.5352 H   0  0  0  0  0  0  0  0  0  0  0  0  # atno 8010 bound_to 7997
  140.4005  143.2665  151.9148 H   0  0  0  0  0  0  0  0  0  0  0  0  # atno 10167 bound_to 10162
  156.0988  130.6155  150.9081 H   0  0  0  0  0  0  0  0  0  0  0  0  # atno 10718 bound_to 10713
  154.8412  135.3430  154.6403 H   0  0  0  0  0  0  0  0  0  0  0  0  # atno 10763 bound_to 10752
  153.7014  135.6969  153.5067 H   0  0  0  0  0  0  0  0  0  0  0  0  # atno 10764 bound_to 10752
  153.2520  135.4350  155.0762 H   0  0  0  0  0  0  0  0  0  0  0  0  # atno 10765 bound_to 10752
  140.2272  134.8151  157.3280 H   0  0  0  0  0  0  0  0  0  0  0  0  # atno 11005 bound_to 11000
  145.6980  139.1654  143.2609 LP  0  0  0  0  0  0  0  0  0  0  0  0  # atno 17320 bound_to 7965
  146.1436  140.7023  142.9355 LP  0  0  0  0  0  0  0  0  0  0  0  0  # atno 17321 bound_to 7965
  139.4785  144.5638  151.8197 LP  0  0  0  0  0  0  0  0  0  0  0  0  # atno 17342 bound_to 10162
  140.4745  144.1539  150.5923 LP  0  0  0  0  0  0  0  0  0  0  0  0  # atno 17343 bound_to 10162
  157.6154  131.0933  150.8719 LP  0  0  0  0  0  0  0  0  0  0  0  0  # atno 17370 bound_to 10713
  156.8851  130.5193  149.5289 LP  0  0  0  0  0  0  0  0  0  0  0  0  # atno 17371 bound_to 10713
  140.1788  134.4516  155.7785 LP  0  0  0  0  0  0  0  0  0  0  0  0  # atno 17394 bound_to 11000
  141.2220  133.6974  156.7833 LP  0  0  0  0  0  0  0  0  0  0  0  0  # atno 17395 bound_to 11000

$$$$
