AV-unprocessed.smi:1762|AV-procd|sdf|7100|dock9
  -GOLD-   22720 8323D 1   1.00000     0.00000
 Structure written by MMmdl.
 52 53  0  0  0  0  0  0  0  0  1 V2000
  154.0392  140.5526  160.2857 C   0  0  0  0  0  0  0  0  0  0  0  0
  152.7428  141.2856  159.9229 C   0  0  2  0  0  0  0  0  0  0  0  0
  151.9583  140.5716  158.8047 C   0  0  0  0  0  0  0  0  0  0  0  0
  150.7538  141.3050  158.3968 N   0  0  0  0  0  0  0  0  0  0  0  0
  149.9777  140.6052  157.3344 C   0  0  2  0  0  0  0  0  0  0  0  0
  149.5738  139.1649  157.7298 C   0  0  0  0  0  0  0  0  0  0  0  0
  150.4273  138.2822  157.8245 O   0  0  0  0  0  0  0  0  0  0  0  0
  148.2743  138.9538  157.9930 N   0  0  0  0  0  0  0  0  0  0  0  0
  147.7086  137.6849  158.4351 C   0  0  0  0  0  0  0  0  0  0  0  0
  148.6252  136.9887  159.4555 C   0  0  0  0  0  0  0  0  0  0  0  0
  147.8643  136.4972  160.6719 C   0  0  0  0  0  0  0  0  0  0  0  0
  147.6052  135.1216  160.8511 C   0  0  0  0  0  0  0  0  0  0  0  0
  146.8912  134.7164  161.9952 C   0  0  0  0  0  0  0  0  0  0  0  0
  146.4641  135.6976  162.9104 C   0  0  0  0  0  0  0  0  0  0  0  0
  146.7715  137.0458  162.6394 C   0  0  0  0  0  0  0  0  0  0  0  0
  147.4562  137.4450  161.5458 N   0  0  0  0  0  0  0  0  0  0  0  0
  150.6284  140.6299  155.9103 C   0  0  0  0  0  0  0  0  0  0  0  0
  149.6116  140.4255  154.7691 C   0  0  0  0  0  0  0  0  0  0  0  0
  151.8183  139.6635  155.7481 C   0  0  0  0  0  0  0  0  0  0  0  0
  151.1426  142.6841  158.0517 C   0  0  0  0  0  0  0  0  0  0  0  0
  151.9371  143.3811  159.1726 C   0  0  2  0  0  0  0  0  0  0  0  0
  152.4130  144.7795  158.7634 C   0  0  0  0  0  0  0  0  0  0  0  0
  153.0800  142.5983  159.4932 O   0  0  0  0  0  0  0  0  0  0  0  0
  153.8335  139.5414  160.6376 H   0  0  0  0  0  0  0  0  0  0  0  0
  154.5740  141.0772  161.0777 H   0  0  0  0  0  0  0  0  0  0  0  0
  154.7054  140.4794  159.4256 H   0  0  0  0  0  0  0  0  0  0  0  0
  152.1208  141.3545  160.8174 H   0  0  0  0  0  0  0  0  0  0  0  0
  152.6086  140.4171  157.9421 H   0  0  0  0  0  0  0  0  0  0  0  0
  151.6989  139.5855  159.1844 H   0  0  0  0  0  0  0  0  0  0  0  0
  149.0374  141.1514  157.2314 H   0  0  0  0  0  0  0  0  0  0  0  0
  147.6372  139.7314  157.8977 H   0  0  0  0  0  0  0  0  0  0  0  0
  146.7346  137.8848  158.8827 H   0  0  0  0  0  0  0  0  0  0  0  0
  147.5290  137.0357  157.5763 H   0  0  0  0  0  0  0  0  0  0  0  0
  149.1336  136.1423  158.9912 H   0  0  0  0  0  0  0  0  0  0  0  0
  149.4097  137.6735  159.7809 H   0  0  0  0  0  0  0  0  0  0  0  0
  147.9438  134.3929  160.1290 H   0  0  0  0  0  0  0  0  0  0  0  0
  146.6747  133.6723  162.1671 H   0  0  0  0  0  0  0  0  0  0  0  0
  145.9138  135.4239  163.7983 H   0  0  0  0  0  0  0  0  0  0  0  0
  146.4591  137.8243  163.3194 H   0  0  0  0  0  0  0  0  0  0  0  0
  151.0122  141.6342  155.7391 H   0  0  0  0  0  0  0  0  0  0  0  0
  149.2151  139.4099  154.7484 H   0  0  0  0  0  0  0  0  0  0  0  0
  150.0747  140.6099  153.7994 H   0  0  0  0  0  0  0  0  0  0  0  0
  148.7703  141.1125  154.8637 H   0  0  0  0  0  0  0  0  0  0  0  0
  151.5069  138.6205  155.7973 H   0  0  0  0  0  0  0  0  0  0  0  0
  152.5728  139.8232  156.5185 H   0  0  0  0  0  0  0  0  0  0  0  0
  152.3062  139.8096  154.7841 H   0  0  0  0  0  0  0  0  0  0  0  0
  151.7343  142.6793  157.1344 H   0  0  0  0  0  0  0  0  0  0  0  0
  150.2699  143.3062  157.8559 H   0  0  0  0  0  0  0  0  0  0  0  0
  151.3093  143.4730  160.0608 H   0  0  0  0  0  0  0  0  0  0  0  0
  151.5696  145.4249  158.5171 H   0  0  0  0  0  0  0  0  0  0  0  0
  153.0663  144.7345  157.8916 H   0  0  0  0  0  0  0  0  0  0  0  0
  152.9692  145.2541  159.5721 H   0  0  0  0  0  0  0  0  0  0  0  0
  1  2  1  0  0  0  0
  1 24  1  0  0  0  0
  1 25  1  0  0  0  0
  1 26  1  0  0  0  0
  2 23  1  0  0  0  0
  2  3  1  0  0  0  0
  2 27  1  0  0  0  0
  3  4  1  0  0  0  0
  3 28  1  0  0  0  0
  3 29  1  0  0  0  0
  4  5  1  0  0  0  0
  4 20  1  0  0  0  0
  5  6  1  0  0  0  0
  5 17  1  0  0  0  0
  5 30  1  0  0  0  0
  6  7  2  0  0  0  0
  6  8  1  0  0  0  0
  8  9  1  0  0  0  0
  8 31  1  0  0  0  0
  9 10  1  0  0  0  0
  9 32  1  0  0  0  0
  9 33  1  0  0  0  0
 10 11  1  0  0  0  0
 10 34  1  0  0  0  0
 10 35  1  0  0  0  0
 11 16  1  0  0  0  0
 11 12  2  0  0  0  0
 12 13  1  0  0  0  0
 12 36  1  0  0  0  0
 13 14  2  0  0  0  0
 13 37  1  0  0  0  0
 14 15  1  0  0  0  0
 14 38  1  0  0  0  0
 15 16  2  0  0  0  0
 15 39  1  0  0  0  0
 17 18  1  0  0  0  0
 17 19  1  0  0  0  0
 17 40  1  0  0  0  0
 18 41  1  0  0  0  0
 18 42  1  0  0  0  0
 18 43  1  0  0  0  0
 19 44  1  0  0  0  0
 19 45  1  0  0  0  0
 19 46  1  0  0  0  0
 20 21  1  0  0  0  0
 20 47  1  0  0  0  0
 20 48  1  0  0  0  0
 21 22  1  0  0  0  0
 21 23  1  0  0  0  0
 21 49  1  0  0  0  0
 22 50  1  0  0  0  0
 22 51  1  0  0  0  0
 22 52  1  0  0  0  0
M  END
> <s_m_source_file>
AV-unprocessed.smi

> <i_m_source_file_index>
1762

> <i_lp_mmshare_version>
43012

> <i_f3d_flags>
0

> <s_epik_input>
W0NIM11bQ0BASF0xW0NIMl1OKFtDSDJdW0NASF0oTzEpW0NIM10pW0NAQEhdKFtDSF0oW0NIM10pW0NIM10pQyg9TylbTkhdW0NIMl1bQ0gyXWMyW2NIXVtjSF1bY0hdW2NIXW4y

> <s_epik_cmdline>
J2VwaWtfcHl0aG9uJywgJy1waCcsICc3LjAnLCAnLXRuJywgJzgnLCAnLW1hJywgJzIwMCcsICctbWV0YWxfYmluZGluZycsICctaW1hZScsICc8aW5maWxlLm1hZT4nLCAnLW9tYWUnLCAnPG91dGZpbGUubWFlPic=

> <r_epik_Ionization_Penalty>
0.0399736

> <r_epik_Ionization_Penalty_Charging>
0

> <r_epik_Ionization_Penalty_Neutral>
0.0399736

> <r_epik_State_Penalty>
0.0317634

> <r_epik_Charging_Adjusted_Penalty>
0.0317634

> <i_epik_Tot_Q>
0

> <i_epik_Tot_abs_Q>
0

> <r_epik_Metal_State_Penalty>
0.0307795

> <b_epik_Metal_Only>
0

> <s_lp_Force_Field>
OPLS_2005

> <r_lp_Energy>
25.9705

> <b_lp_Chiralities_Consistent>
1

> <s_lp_Variant>
AV-unprocessed.smi:1762-2

> <Gold.Version>
5.8.1

> <Gold.Id.Protein>
6NUR|6NUR_protein|mol2

> <Gold.PLP.Fitness>
53.6255

> <Gold.PLP.PLP>
-49.9717

> <Gold.PLP.part.hbond>
-2.0000

> <Gold.PLP.part.metal>
0.0000

> <Gold.PLP.part.buried>
-5.6265

> <Gold.PLP.part.nonpolar>
-42.3308

> <Gold.PLP.part.repulsive>
0.1539

> <Gold.PLP.ligand.clash>
0.0000

> <Gold.PLP.ligand.torsion>
1.0347

> <Gold.PLP.Chemscore.Hbond>
1.7840

> <Gold.PLP.Chemscore.CHOScore>
0.0000

> <Gold.PLP.Chemscore.Metal>
0.0000

> <Gold.Chemscore.Hbonds>
donor molecule, donor type, donor heavy atom, donor atom, acceptor molecule, acceptor atom, score
      P1  H  6931  6943       L1    16  0.80
      P1  H  6934  6947       L1    16  0.82

> <Gold.PLP.Chemscore.Internal.Correction>
0.3712

> <Gold.Rescore>
     Score         DG    S(hbond)    S(metal)    S(lipo)     H(rot)  DE(clash)    DE(int)     intcor
     16.85     -19.47       0.92        0.00     128.20       1.60       0.13       2.49       ----

> <Gold.Chemscore.Fitness>
16.8545

> <Gold.Chemscore.DG>
-19.4738

> <Gold.Chemscore.ZeroCoef>
-5.4800

> <Gold.Chemscore.Hbond>
0.9248

> <Gold.Chemscore.Metal>
0.0000

> <Gold.Chemscore.Lipo>
128.1986

> <Gold.Chemscore.Internal_Hbond>
0.0000

> <Gold.Chemscore.DEClash>
0.1296

> <Gold.Chemscore.DEInternal>
2.4898

> <Gold.Chemscore.Rot>
1.5993

> <Gold.Chemscore.Internal.Correction>
   9.000000E+99

> <Gold.Chemscore.Hbonds>
donor molecule, donor type, donor heavy atom, donor atom, acceptor molecule, acceptor atom, score
      P1  H  6931  6943       L1    16  0.21
      P1  H  6934  6947       L1    16  0.73

> <Gold.Chemscore.Hbond.Weighted>
-3.0887

> <Gold.Chemscore.Metal.Weighted>
-0.0000

> <Gold.Chemscore.Lipo.Weighted>
-14.9992

> <Gold.Chemscore.Internal_Hbond.Weighted>
0.0000

> <Gold.Chemscore.DEClash.Weighted>
0.1296

> <Gold.Chemscore.DEInternal.Weighted>
2.4898

> <Gold.Chemscore.Rot.Weighted>
4.0941

> <Gold.Chemscore.Internal.Correction.Weighted>
   9.000000E+99

> <Gold.Protein.RotatedTorsions>
[ 6907 6896 6895 6894 ] final   -2.26 input  -60.11 | X-H torsion
[ 7974 7965 7964 7962 ] final    0.37 input  175.53 | X-H torsion
[ 8008 7997 7996 7995 ] final   98.26 input   59.86 | X-H torsion
[ 10167 10162 10161 10158 ] final  151.22 input  -65.29 | X-H torsion
[ 10718 10713 10712 10709 ] final  -61.98 input   66.30 | X-H torsion
[ 10763 10752 10751 10750 ] final -167.37 input  -60.55 | X-H torsion
[ 11005 11000 10999 10996 ] final   -9.86 input  -57.11 | X-H torsion

> <Gold.Protein.ActiveResidues>
 VAL166  LYS551  ARG553  GLY616  TRP617  ASP618  TYR619  PRO620  LYS621  CYS622 
 ASP623  PHE694  ASN695  SER759  ASP760  ASP761  ALA762  ILE779  LEU786  VAL792 
 PHE793  MET794  SER795  GLU796  ALA797  LYS798  CYS799  TRP800  GLU811  SER814 

> <Gold.Protein.RotatedAtoms>
  151.5327  135.1068  159.9906 H   0  0  0  0  0  0  0  0  0  0  0  0  # atno 6907 bound_to 6896
  152.4571  133.7741  159.6825 H   0  0  0  0  0  0  0  0  0  0  0  0  # atno 6908 bound_to 6896
  150.8519  133.7709  159.3047 H   0  0  0  0  0  0  0  0  0  0  0  0  # atno 6909 bound_to 6896
  146.2434  140.1147  142.8342 H   0  0  0  0  0  0  0  0  0  0  0  0  # atno 7974 bound_to 7965
  156.0986  140.3246  155.7911 H   0  0  0  0  0  0  0  0  0  0  0  0  # atno 8008 bound_to 7997
  155.4875  140.0559  157.2975 H   0  0  0  0  0  0  0  0  0  0  0  0  # atno 8009 bound_to 7997
  154.4682  140.1999  156.0077 H   0  0  0  0  0  0  0  0  0  0  0  0  # atno 8010 bound_to 7997
  139.4842  144.5459  151.7485 H   0  0  0  0  0  0  0  0  0  0  0  0  # atno 10167 bound_to 10162
  156.0885  130.4204  150.1071 H   0  0  0  0  0  0  0  0  0  0  0  0  # atno 10718 bound_to 10713
  154.6738  135.2943  154.9706 H   0  0  0  0  0  0  0  0  0  0  0  0  # atno 10763 bound_to 10752
  154.0724  135.6616  153.4830 H   0  0  0  0  0  0  0  0  0  0  0  0  # atno 10764 bound_to 10752
  153.0503  135.5178  154.7747 H   0  0  0  0  0  0  0  0  0  0  0  0  # atno 10765 bound_to 10752
  140.7386  133.8689  155.8950 H   0  0  0  0  0  0  0  0  0  0  0  0  # atno 11005 bound_to 11000
  145.0457  140.8979  143.5026 LP  0  0  0  0  0  0  0  0  0  0  0  0  # atno 17320 bound_to 7965
  145.1236  139.2677  143.5576 LP  0  0  0  0  0  0  0  0  0  0  0  0  # atno 17321 bound_to 7965
  140.5005  144.1176  150.5970 LP  0  0  0  0  0  0  0  0  0  0  0  0  # atno 17342 bound_to 10162
  140.4067  143.2677  151.9882 LP  0  0  0  0  0  0  0  0  0  0  0  0  # atno 17343 bound_to 10162
  156.9086  130.9644  151.3566 LP  0  0  0  0  0  0  0  0  0  0  0  0  # atno 17370 bound_to 10713
  157.6027  130.8524  149.8827 LP  0  0  0  0  0  0  0  0  0  0  0  0  # atno 17371 bound_to 10713
  140.9857  134.1346  157.4454 LP  0  0  0  0  0  0  0  0  0  0  0  0  # atno 17394 bound_to 11000
  139.8811  135.0024  156.6127 LP  0  0  0  0  0  0  0  0  0  0  0  0  # atno 17395 bound_to 11000

$$$$
