AV-unprocessed.smi:2649|AV-procd|sdf|10289|dock3
  -GOLD-   2272014303D 1   1.00000     0.00000
 Structure written by MMmdl.
 34 35  0  0  0  0  0  0  0  0  1 V2000
  145.9554  132.1602  149.6885 C   0  0  0  0  0  0  0  0  0  0  0  0
  146.8137  133.2322  150.8733 S   0  0  0  0  0  0  0  0  0  0  0  0
  146.8009  132.1879  152.3621 C   0  0  0  0  0  0  0  0  0  0  0  0
  147.9139  132.5871  153.3181 C   0  0  0  0  0  0  0  0  0  0  0  0
  148.0172  133.9118  153.5655 N   0  0  0  0  0  0  0  0  0  0  0  0
  148.9858  134.3658  154.3976 C   0  0  0  0  0  0  0  0  0  0  0  0
  149.1706  135.7377  154.7136 N   0  0  0  0  0  0  0  0  0  0  0  0
  150.2866  136.3508  155.1535 C   0  0  0  0  0  0  0  0  0  0  0  0
  151.3587  135.7785  155.3551 O   0  0  0  0  0  0  0  0  0  0  0  0
  150.1672  137.8651  155.3820 C   0  0  2  0  0  0  0  0  0  0  0  0
  151.0870  138.6933  154.4546 C   0  0  0  0  0  0  0  0  0  0  0  0
  150.9360  140.0746  154.7557 O   0  0  0  0  0  0  0  0  0  0  0  0
  151.2812  140.3514  156.1058 C   0  0  0  0  0  0  0  0  0  0  0  0
  150.3640  139.5370  157.0327 C   0  0  0  0  0  0  0  0  0  0  0  0
  150.5122  138.1547  156.7350 O   0  0  0  0  0  0  0  0  0  0  0  0
  149.8894  133.4777  155.0208 C   0  0  0  0  0  0  0  0  0  0  0  0
  149.7827  132.0960  154.7727 C   0  0  0  0  0  0  0  0  0  0  0  0
  148.7763  131.6335  153.9053 C   0  0  0  0  0  0  0  0  0  0  0  0
  148.6250  129.9410  153.5900 Cl  0  0  0  0  0  0  0  0  0  0  0  0
  145.9605  132.6182  148.6994 H   0  0  0  0  0  0  0  0  0  0  0  0
  144.9187  132.0058  149.9865 H   0  0  0  0  0  0  0  0  0  0  0  0
  146.4489  131.1905  149.6236 H   0  0  0  0  0  0  0  0  0  0  0  0
  145.8283  132.2723  152.8489 H   0  0  0  0  0  0  0  0  0  0  0  0
  146.9167  131.1436  152.0720 H   0  0  0  0  0  0  0  0  0  0  0  0
  148.3575  136.3255  154.6001 H   0  0  0  0  0  0  0  0  0  0  0  0
  149.1258  138.1422  155.2088 H   0  0  0  0  0  0  0  0  0  0  0  0
  152.1325  138.3994  154.5668 H   0  0  0  0  0  0  0  0  0  0  0  0
  150.8197  138.5404  153.4084 H   0  0  0  0  0  0  0  0  0  0  0  0
  152.3303  140.1106  156.2846 H   0  0  0  0  0  0  0  0  0  0  0  0
  151.1592  141.4183  156.2933 H   0  0  0  0  0  0  0  0  0  0  0  0
  150.6310  139.7075  158.0757 H   0  0  0  0  0  0  0  0  0  0  0  0
  149.3223  139.8390  156.9136 H   0  0  0  0  0  0  0  0  0  0  0  0
  150.6584  133.8466  155.6841 H   0  0  0  0  0  0  0  0  0  0  0  0
  150.4644  131.4025  155.2427 H   0  0  0  0  0  0  0  0  0  0  0  0
  1  2  1  0  0  0  0
  1 20  1  0  0  0  0
  1 21  1  0  0  0  0
  1 22  1  0  0  0  0
  2  3  1  0  0  0  0
  3  4  1  0  0  0  0
  3 23  1  0  0  0  0
  3 24  1  0  0  0  0
  4 18  1  0  0  0  0
  4  5  2  0  0  0  0
  5  6  1  0  0  0  0
  6  7  1  0  0  0  0
  6 16  2  0  0  0  0
  7  8  1  0  0  0  0
  7 25  1  0  0  0  0
  8  9  2  0  0  0  0
  8 10  1  0  0  0  0
 10 15  1  0  0  0  0
 10 11  1  0  0  0  0
 10 26  1  0  0  0  0
 11 12  1  0  0  0  0
 11 27  1  0  0  0  0
 11 28  1  0  0  0  0
 12 13  1  0  0  0  0
 13 14  1  0  0  0  0
 13 29  1  0  0  0  0
 13 30  1  0  0  0  0
 14 15  1  0  0  0  0
 14 31  1  0  0  0  0
 14 32  1  0  0  0  0
 16 17  1  0  0  0  0
 16 33  1  0  0  0  0
 17 18  2  0  0  0  0
 17 34  1  0  0  0  0
 18 19  1  0  0  0  0
M  END
> <s_m_source_file>
AV-unprocessed.smi

> <i_m_source_file_index>
2649

> <i_lp_mmshare_version>
43012

> <i_f3d_flags>
0

> <s_epik_input>
W0NIM11TW0NIMl1jMW5jKFtjSF1bY0hdYzFDbClbTkhdQyg9TylbQ0BASF0yW0NIMl1PW0NIMl1bQ0gyXU8y

> <s_epik_cmdline>
J2VwaWtfcHl0aG9uJywgJy1waCcsICc3LjAnLCAnLXRuJywgJzgnLCAnLW1hJywgJzIwMCcsICctbWV0YWxfYmluZGluZycsICctaW1hZScsICc8aW5maWxlLm1hZT4nLCAnLW9tYWUnLCAnPG91dGZpbGUubWFlPic=

> <r_lp_tautomer_probability>
1

> <r_epik_Ionization_Penalty>
9.71596e-06

> <r_epik_Ionization_Penalty_Charging>
0

> <r_epik_Ionization_Penalty_Neutral>
9.71596e-06

> <r_epik_State_Penalty>
-0

> <r_epik_Charging_Adjusted_Penalty>
0

> <i_epik_Tot_Q>
0

> <i_epik_Tot_abs_Q>
0

> <r_epik_Metal_State_Penalty>
-0

> <b_epik_Metal_Only>
0

> <s_lp_Force_Field>
OPLS_2005

> <r_lp_Energy>
11.5794

> <b_lp_Chiralities_Consistent>
1

> <s_lp_Variant>
AV-unprocessed.smi:2649-1

> <Gold.Version>
5.8.1

> <Gold.Id.Protein>
6NUR|6NUR_protein|mol2

> <Gold.PLP.Fitness>
39.4448

> <Gold.PLP.PLP>
-34.2108

> <Gold.PLP.part.hbond>
-3.0000

> <Gold.PLP.part.metal>
0.0000

> <Gold.PLP.part.buried>
-3.9255

> <Gold.PLP.part.nonpolar>
-28.1029

> <Gold.PLP.part.repulsive>
1.1710

> <Gold.PLP.ligand.clash>
0.0000

> <Gold.PLP.ligand.torsion>
0.3845

> <Gold.PLP.Chemscore.Hbond>
2.0000

> <Gold.PLP.Chemscore.CHOScore>
0.0000

> <Gold.PLP.Chemscore.Metal>
0.0000

> <Gold.Chemscore.Hbonds>
donor molecule, donor type, donor heavy atom, donor atom, acceptor molecule, acceptor atom, score
      P1  H  7989  7998       L1    12  1.00
      P1  H 10752 10764       L1     9  1.00

> <Gold.PLP.Chemscore.Internal.Correction>
0.0031

> <Gold.Rescore>
     Score         DG    S(hbond)    S(metal)    S(lipo)     H(rot)  DE(clash)    DE(int)     intcor
     15.05     -17.07       1.90        0.00      74.22       1.34       0.15       1.87       ----

> <Gold.Chemscore.Fitness>
15.0510

> <Gold.Chemscore.DG>
-17.0685

> <Gold.Chemscore.ZeroCoef>
-5.4800

> <Gold.Chemscore.Hbond>
1.8975

> <Gold.Chemscore.Metal>
0.0000

> <Gold.Chemscore.Lipo>
74.2213

> <Gold.Chemscore.Internal_Hbond>
0.0000

> <Gold.Chemscore.DEClash>
0.1461

> <Gold.Chemscore.DEInternal>
1.8714

> <Gold.Chemscore.Rot>
1.3410

> <Gold.Chemscore.Internal.Correction>
   9.000000E+99

> <Gold.Chemscore.Hbonds>
donor molecule, donor type, donor heavy atom, donor atom, acceptor molecule, acceptor atom, score
      P1  H  7989  7998       L1    12  0.49
      P1  H 10752 10764       L1     9  1.00

> <Gold.Chemscore.Hbond.Weighted>
-6.3377

> <Gold.Chemscore.Metal.Weighted>
-0.0000

> <Gold.Chemscore.Lipo.Weighted>
-8.6839

> <Gold.Chemscore.Internal_Hbond.Weighted>
0.0000

> <Gold.Chemscore.DEClash.Weighted>
0.1461

> <Gold.Chemscore.DEInternal.Weighted>
1.8714

> <Gold.Chemscore.Rot.Weighted>
3.4331

> <Gold.Chemscore.Internal.Correction.Weighted>
   9.000000E+99

> <Gold.Protein.RotatedTorsions>
[ 6907 6896 6895 6894 ] final -162.22 input  -60.11 | X-H torsion
[ 7974 7965 7964 7962 ] final  -80.73 input  175.53 | X-H torsion
[ 8008 7997 7996 7995 ] final -137.02 input   59.86 | X-H torsion
[ 10167 10162 10161 10158 ] final   70.71 input  -65.29 | X-H torsion
[ 10718 10713 10712 10709 ] final   -7.52 input   66.30 | X-H torsion
[ 10763 10752 10751 10750 ] final  -55.10 input  -60.55 | X-H torsion
[ 11005 11000 10999 10996 ] final  156.60 input  -57.11 | X-H torsion

> <Gold.Protein.ActiveResidues>
 VAL166  LYS551  ARG553  GLY616  TRP617  ASP618  TYR619  PRO620  LYS621  CYS622 
 ASP623  PHE694  ASN695  SER759  ASP760  ASP761  ALA762  ILE779  LEU786  VAL792 
 PHE793  MET794  SER795  GLU796  ALA797  LYS798  CYS799  TRP800  GLU811  SER814 

> <Gold.Protein.RotatedAtoms>
  151.3770  133.3835  159.2705 H   0  0  0  0  0  0  0  0  0  0  0  0  # atno 6907 bound_to 6896
  150.9607  134.8996  159.7739 H   0  0  0  0  0  0  0  0  0  0  0  0  # atno 6908 bound_to 6896
  152.5148  134.3729  159.9376 H   0  0  0  0  0  0  0  0  0  0  0  0  # atno 6909 bound_to 6896
  145.5560  140.9489  143.1473 H   0  0  0  0  0  0  0  0  0  0  0  0  # atno 7974 bound_to 7965
  155.4049  140.0508  157.3035 H   0  0  0  0  0  0  0  0  0  0  0  0  # atno 8008 bound_to 7997
  154.4973  140.2143  155.9380 H   0  0  0  0  0  0  0  0  0  0  0  0  # atno 8009 bound_to 7997
  156.1422  140.3152  155.8519 H   0  0  0  0  0  0  0  0  0  0  0  0  # atno 8010 bound_to 7997
  140.0540  144.5288  150.7342 H   0  0  0  0  0  0  0  0  0  0  0  0  # atno 10167 bound_to 10162
  156.7160  130.5136  149.5880 H   0  0  0  0  0  0  0  0  0  0  0  0  # atno 10718 bound_to 10713
  154.1855  135.6436  153.5045 H   0  0  0  0  0  0  0  0  0  0  0  0  # atno 10763 bound_to 10752
  153.0048  135.5416  154.6470 H   0  0  0  0  0  0  0  0  0  0  0  0  # atno 10764 bound_to 10752
  154.5845  135.2928  155.0671 H   0  0  0  0  0  0  0  0  0  0  0  0  # atno 10765 bound_to 10752
  140.1690  134.8556  157.2667 H   0  0  0  0  0  0  0  0  0  0  0  0  # atno 11005 bound_to 11000
  144.7506  139.7204  143.7274 LP  0  0  0  0  0  0  0  0  0  0  0  0  # atno 17320 bound_to 7965
  146.1884  139.5111  142.9821 LP  0  0  0  0  0  0  0  0  0  0  0  0  # atno 17321 bound_to 7965
  140.7203  143.2583  151.4300 LP  0  0  0  0  0  0  0  0  0  0  0  0  # atno 17342 bound_to 10162
  139.5935  144.1448  152.2116 LP  0  0  0  0  0  0  0  0  0  0  0  0  # atno 17343 bound_to 10162
  156.1628  130.6385  151.0740 LP  0  0  0  0  0  0  0  0  0  0  0  0  # atno 17370 bound_to 10713
  157.6917  131.0807  150.7088 LP  0  0  0  0  0  0  0  0  0  0  0  0  # atno 17371 bound_to 10713
  140.2399  134.3808  155.7485 LP  0  0  0  0  0  0  0  0  0  0  0  0  # atno 17394 bound_to 11000
  141.2216  133.7260  156.8773 LP  0  0  0  0  0  0  0  0  0  0  0  0  # atno 17395 bound_to 11000

$$$$
