AV-unprocessed.smi:161|AV-procd|sdf|1375|dock7
  -GOLD-   2262019 93D 1   1.00000     0.00000
 Structure written by MMmdl.
 52 55  0  0  0  0  0  0  0  0  1 V2000
  152.1176  144.6195  158.3558 C   0  0  0  0  0  0  0  0  0  0  0  0
  151.9558  143.1982  158.8991 C   0  0  0  0  0  0  0  0  0  0  0  0
  151.2939  142.4049  157.9276 O   0  0  0  0  0  0  0  0  0  0  0  0
  149.9510  142.3685  157.8802 C   0  0  0  0  0  0  0  0  0  0  0  0
  149.2265  142.9499  158.6891 O   0  0  0  0  0  0  0  0  0  0  0  0
  149.4743  141.5400  156.7102 C   0  0  2  0  0  0  0  0  0  0  0  0
  149.6450  142.1245  155.3037 C   0  0  0  0  0  0  0  0  0  0  0  0
  148.5712  141.0416  155.0923 C   0  0  2  0  0  0  0  0  0  0  0  0
  147.7671  140.9328  153.8066 C   0  0  0  0  0  0  0  0  0  0  0  0
  147.9752  141.6149  156.3844 C   0  0  0  0  0  0  0  0  0  0  0  0
  149.1752  139.7969  155.4831 O   0  0  0  0  0  0  0  0  0  0  0  0
  149.8976  140.0725  156.6854 C   0  0  0  0  0  0  0  0  0  0  0  0
  149.3434  139.2140  157.8591 C   0  0  0  0  0  0  0  0  0  0  0  0
  149.7942  137.7460  157.7663 C   0  0  0  0  0  0  0  0  0  0  0  0
  151.2588  137.7126  157.6858 N   0  0  0  0  0  0  0  0  0  0  0  0
  152.1128  137.5077  158.7201 C   0  0  0  0  0  0  0  0  0  0  0  0
  151.7313  137.1027  159.8187 O   0  0  0  0  0  0  0  0  0  0  0  0
  153.5624  137.7221  158.5051 C   0  0  0  0  0  0  0  0  0  0  0  0
  154.4866  137.2056  157.6394 C   0  0  0  0  0  0  0  0  0  0  0  0
  155.7189  137.8057  157.8804 N   0  0  0  0  0  0  0  0  0  0  0  0
  155.5918  138.6679  158.8377 N   0  0  0  0  0  0  0  0  0  0  0  0
  154.2953  138.6504  159.2341 N   0  0  0  0  0  0  0  0  0  0  0  0
  153.8867  139.5365  160.3167 C   0  0  0  0  0  0  0  0  0  0  0  0
  154.0777  141.0156  159.9558 C   0  0  0  0  0  0  0  0  0  0  0  0
  151.7123  138.2823  156.4145 C   0  0  0  0  0  0  0  0  0  0  0  0
  151.4101  139.7907  156.4368 C   0  0  0  0  0  0  0  0  0  0  0  0
  152.6113  145.2602  159.0863 H   0  0  0  0  0  0  0  0  0  0  0  0
  151.1496  145.0628  158.1216 H   0  0  0  0  0  0  0  0  0  0  0  0
  152.7189  144.6242  157.4463 H   0  0  0  0  0  0  0  0  0  0  0  0
  152.9368  142.7805  159.1300 H   0  0  0  0  0  0  0  0  0  0  0  0
  151.3751  143.2061  159.8219 H   0  0  0  0  0  0  0  0  0  0  0  0
  149.3229  143.1600  155.1580 H   0  0  0  0  0  0  0  0  0  0  0  0
  150.5962  141.9352  154.8093 H   0  0  0  0  0  0  0  0  0  0  0  0
  147.3209  141.8903  153.5372 H   0  0  0  0  0  0  0  0  0  0  0  0
  146.9590  140.2082  153.9075 H   0  0  0  0  0  0  0  0  0  0  0  0
  148.3955  140.6150  152.9747 H   0  0  0  0  0  0  0  0  0  0  0  0
  147.3192  140.9376  156.9285 H   0  0  0  0  0  0  0  0  0  0  0  0
  147.5354  142.6141  156.3103 H   0  0  0  0  0  0  0  0  0  0  0  0
  149.6883  139.6254  158.8079 H   0  0  0  0  0  0  0  0  0  0  0  0
  148.2561  139.2425  157.8986 H   0  0  0  0  0  0  0  0  0  0  0  0
  149.3841  137.1823  158.6003 H   0  0  0  0  0  0  0  0  0  0  0  0
  149.3693  137.2830  156.8746 H   0  0  0  0  0  0  0  0  0  0  0  0
  154.3666  136.4571  156.8702 H   0  0  0  0  0  0  0  0  0  0  0  0
  152.8377  139.3506  160.5518 H   0  0  0  0  0  0  0  0  0  0  0  0
  154.4473  139.2856  161.2167 H   0  0  0  0  0  0  0  0  0  0  0  0
  153.7054  141.6578  160.7537 H   0  0  0  0  0  0  0  0  0  0  0  0
  153.5399  141.2734  159.0432 H   0  0  0  0  0  0  0  0  0  0  0  0
  155.1295  141.2576  159.8060 H   0  0  0  0  0  0  0  0  0  0  0  0
  152.7745  138.1105  156.2339 H   0  0  0  0  0  0  0  0  0  0  0  0
  151.1927  137.8039  155.5831 H   0  0  0  0  0  0  0  0  0  0  0  0
  151.7543  140.2330  155.5038 H   0  0  0  0  0  0  0  0  0  0  0  0
  152.0123  140.2379  157.2267 H   0  0  0  0  0  0  0  0  0  0  0  0
  1  2  1  0  0  0  0
  1 27  1  0  0  0  0
  1 28  1  0  0  0  0
  1 29  1  0  0  0  0
  2  3  1  0  0  0  0
  2 30  1  0  0  0  0
  2 31  1  0  0  0  0
  3  4  1  0  0  0  0
  4  5  2  0  0  0  0
  4  6  1  0  0  0  0
  6 10  1  0  0  0  0
  6 12  1  0  0  0  0
  6  7  1  0  0  0  0
  7  8  1  0  0  0  0
  7 32  1  0  0  0  0
  7 33  1  0  0  0  0
  8  9  1  0  0  0  0
  8 10  1  0  0  0  0
  8 11  1  0  0  0  0
  9 34  1  0  0  0  0
  9 35  1  0  0  0  0
  9 36  1  0  0  0  0
 10 37  1  0  0  0  0
 10 38  1  0  0  0  0
 11 12  1  0  0  0  0
 12 26  1  0  0  0  0
 12 13  1  0  0  0  0
 13 14  1  0  0  0  0
 13 39  1  0  0  0  0
 13 40  1  0  0  0  0
 14 15  1  0  0  0  0
 14 41  1  0  0  0  0
 14 42  1  0  0  0  0
 15 16  1  0  0  0  0
 15 25  1  0  0  0  0
 16 17  2  0  0  0  0
 16 18  1  0  0  0  0
 18 22  1  0  0  0  0
 18 19  2  0  0  0  0
 19 20  1  0  0  0  0
 19 43  1  0  0  0  0
 20 21  2  0  0  0  0
 21 22  1  0  0  0  0
 22 23  1  0  0  0  0
 23 24  1  0  0  0  0
 23 44  1  0  0  0  0
 23 45  1  0  0  0  0
 24 46  1  0  0  0  0
 24 47  1  0  0  0  0
 24 48  1  0  0  0  0
 25 26  1  0  0  0  0
 25 49  1  0  0  0  0
 25 50  1  0  0  0  0
 26 51  1  0  0  0  0
 26 52  1  0  0  0  0
M  END
> <s_m_source_file>
AV-unprocessed.smi

> <i_m_source_file_index>
161

> <i_lp_mmshare_version>
43012

> <i_f3d_flags>
2

> <s_epik_input>
W0NIM11bQ0gyXU9DKD1PKVtDQEBdMShbQ0gyXVtDQF0oTzIpKFtDSDNdKVtDSDJdMSlDMjNbQ0gyXVtDSDJdTihbQ0gyXVtDSDJdMylDKD1PKWM0W2NIXW5ubjRbQ0gyXVtDSDNd

> <s_epik_cmdline>
J2VwaWtfcHl0aG9uJywgJy1waCcsICc3LjAnLCAnLXRuJywgJzgnLCAnLW1hJywgJzIwMCcsICctbWV0YWxfYmluZGluZycsICctaW1hZScsICc8aW5maWxlLm1hZT4nLCAnLW9tYWUnLCAnPG91dGZpbGUubWFlPic=

> <r_lp_tautomer_probability>
1

> <r_epik_Ionization_Penalty>
1.75517e-07

> <r_epik_Ionization_Penalty_Charging>
0

> <r_epik_Ionization_Penalty_Neutral>
1.75517e-07

> <r_epik_State_Penalty>
-0

> <r_epik_Charging_Adjusted_Penalty>
0

> <i_epik_Tot_Q>
0

> <i_epik_Tot_abs_Q>
0

> <r_epik_Metal_State_Penalty>
-0

> <b_epik_Metal_Only>
0

> <s_epik_Chemistry_Notes>
This compound has an ester and may undergo hydrolysis at high or low pH.

> <s_lp_Force_Field>
OPLS_2005

> <r_lp_Energy>
59.4881

> <b_lp_Chiralities_Consistent>
0

> <s_lp_Variant>
AV-unprocessed.smi:161-1

> <Gold.Version>
5.8.1

> <Gold.Id.Protein>
6NUR|6NUR_protein|mol2

> <Gold.PLP.Fitness>
36.0768

> <Gold.PLP.PLP>
-34.1663

> <Gold.PLP.part.hbond>
-3.0000

> <Gold.PLP.part.metal>
0.0000

> <Gold.PLP.part.buried>
-3.4041

> <Gold.PLP.part.nonpolar>
-28.8117

> <Gold.PLP.part.repulsive>
0.2810

> <Gold.PLP.ligand.clash>
0.0000

> <Gold.PLP.ligand.torsion>
1.5634

> <Gold.PLP.Chemscore.Hbond>
1.4050

> <Gold.PLP.Chemscore.CHOScore>
0.0000

> <Gold.PLP.Chemscore.Metal>
0.0000

> <Gold.Chemscore.Hbonds>
donor molecule, donor type, donor heavy atom, donor atom, acceptor molecule, acceptor atom, score
      P1  H  6896  6907       L1    17  1.00
      P1  H  7997  8008       L1    21  0.20

> <Gold.PLP.Chemscore.Internal.Correction>
0.8222

> <Gold.Rescore>
     Score         DG    S(hbond)    S(metal)    S(lipo)     H(rot)  DE(clash)    DE(int)     intcor
     14.77     -16.53       0.98        0.00      98.68       1.47       0.27       1.50       ----

> <Gold.Chemscore.Fitness>
14.7688

> <Gold.Chemscore.DG>
-16.5340

> <Gold.Chemscore.ZeroCoef>
-5.4800

> <Gold.Chemscore.Hbond>
0.9757

> <Gold.Chemscore.Metal>
0.0000

> <Gold.Chemscore.Lipo>
98.6841

> <Gold.Chemscore.Internal_Hbond>
0.0000

> <Gold.Chemscore.DEClash>
0.2666

> <Gold.Chemscore.DEInternal>
1.4986

> <Gold.Chemscore.Rot>
1.4652

> <Gold.Chemscore.Internal.Correction>
   9.000000E+99

> <Gold.Chemscore.Hbonds>
donor molecule, donor type, donor heavy atom, donor atom, acceptor molecule, acceptor atom, score
      P1  H  6896  6907       L1    17  0.92

> <Gold.Chemscore.Hbond.Weighted>
-3.2590

> <Gold.Chemscore.Metal.Weighted>
-0.0000

> <Gold.Chemscore.Lipo.Weighted>
-11.5460

> <Gold.Chemscore.Internal_Hbond.Weighted>
0.0000

> <Gold.Chemscore.DEClash.Weighted>
0.2666

> <Gold.Chemscore.DEInternal.Weighted>
1.4986

> <Gold.Chemscore.Rot.Weighted>
3.7510

> <Gold.Chemscore.Internal.Correction.Weighted>
   9.000000E+99

> <Gold.Protein.RotatedTorsions>
[ 6907 6896 6895 6894 ] final   -0.34 input  -60.11 | X-H torsion
[ 7974 7965 7964 7962 ] final  127.86 input  175.53 | X-H torsion
[ 8008 7997 7996 7995 ] final -147.52 input   59.86 | X-H torsion
[ 10167 10162 10161 10158 ] final  -40.02 input  -65.29 | X-H torsion
[ 10718 10713 10712 10709 ] final   18.59 input   66.30 | X-H torsion
[ 10763 10752 10751 10750 ] final  168.96 input  -60.55 | X-H torsion
[ 11005 11000 10999 10996 ] final  -67.79 input  -57.11 | X-H torsion

> <Gold.Protein.ActiveResidues>
 VAL166  LYS551  ARG553  GLY616  TRP617  ASP618  TYR619  PRO620  LYS621  CYS622 
 ASP623  PHE694  ASN695  SER759  ASP760  ASP761  ALA762  ILE779  LEU786  VAL792 
 PHE793  MET794  SER795  GLU796  ALA797  LYS798  CYS799  TRP800  GLU811  SER814 

> <Gold.Protein.RotatedAtoms>
  151.5638  135.1064  159.9978 H   0  0  0  0  0  0  0  0  0  0  0  0  # atno 6907 bound_to 6896
  152.4434  133.7486  159.6692 H   0  0  0  0  0  0  0  0  0  0  0  0  # atno 6908 bound_to 6896
  150.8344  133.7969  159.3109 H   0  0  0  0  0  0  0  0  0  0  0  0  # atno 6909 bound_to 6896
  145.0459  139.3924  143.5078 H   0  0  0  0  0  0  0  0  0  0  0  0  # atno 7974 bound_to 7965
  155.5768  140.0639  157.2793 H   0  0  0  0  0  0  0  0  0  0  0  0  # atno 8008 bound_to 7997
  154.4344  140.1859  156.0982 H   0  0  0  0  0  0  0  0  0  0  0  0  # atno 8009 bound_to 7997
  156.0335  140.3304  155.7169 H   0  0  0  0  0  0  0  0  0  0  0  0  # atno 8010 bound_to 7997
  140.7047  143.3179  151.2864 H   0  0  0  0  0  0  0  0  0  0  0  0  # atno 10167 bound_to 10162
  157.0985  130.6458  149.5866 H   0  0  0  0  0  0  0  0  0  0  0  0  # atno 10718 bound_to 10713
  154.3762  135.2753  155.2238 H   0  0  0  0  0  0  0  0  0  0  0  0  # atno 10763 bound_to 10752
  154.4364  135.5965  153.6105 H   0  0  0  0  0  0  0  0  0  0  0  0  # atno 10764 bound_to 10752
  152.9836  135.6008  154.3999 H   0  0  0  0  0  0  0  0  0  0  0  0  # atno 10765 bound_to 10752
  141.1516  133.6726  156.6346 H   0  0  0  0  0  0  0  0  0  0  0  0  # atno 11005 bound_to 11000
  146.3514  140.0084  142.8669 LP  0  0  0  0  0  0  0  0  0  0  0  0  # atno 17320 bound_to 7965
  145.1589  140.9662  143.4389 LP  0  0  0  0  0  0  0  0  0  0  0  0  # atno 17321 bound_to 7965
  139.6623  144.0167  152.2700 LP  0  0  0  0  0  0  0  0  0  0  0  0  # atno 17342 bound_to 10162
  139.9738  144.6475  150.7964 LP  0  0  0  0  0  0  0  0  0  0  0  0  # atno 17343 bound_to 10162
  155.9879  130.4921  150.7148 LP  0  0  0  0  0  0  0  0  0  0  0  0  # atno 17370 bound_to 10713
  157.4661  131.0888  151.0693 LP  0  0  0  0  0  0  0  0  0  0  0  0  # atno 17371 bound_to 10713
  140.3440  134.7825  157.4418 LP  0  0  0  0  0  0  0  0  0  0  0  0  # atno 17394 bound_to 11000
  140.0915  134.5595  155.8440 LP  0  0  0  0  0  0  0  0  0  0  0  0  # atno 17395 bound_to 11000

$$$$
