AV-unprocessed.smi:1378|AV-procd|sdf|5596|dock4
  -GOLD-   22720 5203D 1   1.00000     0.00000
 Structure written by MMmdl.
 46 48  0  0  0  0  0  0  0  0  1 V2000
  150.4373  139.0122  154.3128 C   0  0  0  0  0  0  0  0  0  0  0  0
  151.0117  140.1908  154.8483 O   0  0  0  0  0  0  0  0  0  0  0  0
  150.0361  141.1329  155.2639 C   0  0  0  0  0  0  0  0  0  0  0  0
  149.6241  140.8406  156.7128 C   0  0  0  0  0  0  0  0  0  0  0  0
  150.7382  140.9924  157.6362 N   0  0  0  0  0  0  0  0  0  0  0  0
  151.5980  140.0377  158.0669 C   0  0  0  0  0  0  0  0  0  0  0  0
  151.4977  138.3687  157.5061 S   0  0  0  0  0  0  0  0  0  0  0  0
  149.8281  137.9817  158.1173 C   0  0  0  0  0  0  0  0  0  0  0  0
  149.4275  136.5267  157.8711 C   0  0  0  0  0  0  0  0  0  0  0  0
  149.1854  135.7835  158.8214 O   0  0  0  0  0  0  0  0  0  0  0  0
  149.3334  136.1470  156.5876 N   0  0  0  0  0  0  0  0  0  0  0  0
  148.8545  134.8525  156.1152 C   0  0  0  0  0  0  0  0  0  0  0  0
  149.7678  133.7106  156.5987 C   0  0  0  0  0  0  0  0  0  0  0  0
  150.5457  133.2480  155.3664 C   0  0  0  0  0  0  0  0  0  0  0  0
  149.5864  133.4956  154.2064 C   0  0  0  0  0  0  0  0  0  0  0  0
  148.8760  134.7987  154.5751 C   0  0  0  0  0  0  0  0  0  0  0  0
  152.5451  140.4490  158.9101 N   0  0  0  0  0  0  0  0  0  0  0  0
  152.2753  141.7977  159.0353 C   0  0  0  0  0  0  0  0  0  0  0  0
  152.9322  142.7998  159.7845 C   0  0  0  0  0  0  0  0  0  0  0  0
  152.4727  144.1327  159.7501 C   0  0  0  0  0  0  0  0  0  0  0  0
  151.3521  144.4818  158.9690 C   0  0  0  0  0  0  0  0  0  0  0  0
  150.6832  143.4987  158.2152 C   0  0  0  0  0  0  0  0  0  0  0  0
  151.1477  142.1705  158.2510 C   0  0  0  0  0  0  0  0  0  0  0  0
  151.2277  138.3227  154.0165 H   0  0  0  0  0  0  0  0  0  0  0  0
  149.8352  139.2331  153.4306 H   0  0  0  0  0  0  0  0  0  0  0  0
  149.8096  138.5089  155.0493 H   0  0  0  0  0  0  0  0  0  0  0  0
  150.4369  142.1449  155.1866 H   0  0  0  0  0  0  0  0  0  0  0  0
  149.1626  141.0772  154.6130 H   0  0  0  0  0  0  0  0  0  0  0  0
  148.8090  141.4964  157.0194 H   0  0  0  0  0  0  0  0  0  0  0  0
  149.2399  139.8235  156.7943 H   0  0  0  0  0  0  0  0  0  0  0  0
  149.7681  138.2140  159.1812 H   0  0  0  0  0  0  0  0  0  0  0  0
  149.1155  138.6355  157.6139 H   0  0  0  0  0  0  0  0  0  0  0  0
  149.5602  136.8299  155.8790 H   0  0  0  0  0  0  0  0  0  0  0  0
  147.8361  134.6779  156.4670 H   0  0  0  0  0  0  0  0  0  0  0  0
  150.4287  133.9996  157.4169 H   0  0  0  0  0  0  0  0  0  0  0  0
  149.1504  132.8883  156.9624 H   0  0  0  0  0  0  0  0  0  0  0  0
  151.4383  133.8625  155.2429 H   0  0  0  0  0  0  0  0  0  0  0  0
  150.8628  132.2071  155.4353 H   0  0  0  0  0  0  0  0  0  0  0  0
  150.0955  133.5530  153.2436 H   0  0  0  0  0  0  0  0  0  0  0  0
  148.8604  132.6835  154.1521 H   0  0  0  0  0  0  0  0  0  0  0  0
  147.8748  134.8537  154.1465 H   0  0  0  0  0  0  0  0  0  0  0  0
  149.4440  135.6364  154.1671 H   0  0  0  0  0  0  0  0  0  0  0  0
  153.7918  142.5431  160.3857 H   0  0  0  0  0  0  0  0  0  0  0  0
  152.9820  144.8908  160.3267 H   0  0  0  0  0  0  0  0  0  0  0  0
  151.0062  145.5049  158.9493 H   0  0  0  0  0  0  0  0  0  0  0  0
  149.8238  143.7619  157.6165 H   0  0  0  0  0  0  0  0  0  0  0  0
  1  2  1  0  0  0  0
  1 24  1  0  0  0  0
  1 25  1  0  0  0  0
  1 26  1  0  0  0  0
  2  3  1  0  0  0  0
  3  4  1  0  0  0  0
  3 27  1  0  0  0  0
  3 28  1  0  0  0  0
  4  5  1  0  0  0  0
  4 29  1  0  0  0  0
  4 30  1  0  0  0  0
  5 23  1  0  0  0  0
  5  6  1  0  0  0  0
  6  7  1  0  0  0  0
  6 17  2  0  0  0  0
  7  8  1  0  0  0  0
  8  9  1  0  0  0  0
  8 31  1  0  0  0  0
  8 32  1  0  0  0  0
  9 10  2  0  0  0  0
  9 11  1  0  0  0  0
 11 12  1  0  0  0  0
 11 33  1  0  0  0  0
 12 16  1  0  0  0  0
 12 13  1  0  0  0  0
 12 34  1  0  0  0  0
 13 14  1  0  0  0  0
 13 35  1  0  0  0  0
 13 36  1  0  0  0  0
 14 15  1  0  0  0  0
 14 37  1  0  0  0  0
 14 38  1  0  0  0  0
 15 16  1  0  0  0  0
 15 39  1  0  0  0  0
 15 40  1  0  0  0  0
 16 41  1  0  0  0  0
 16 42  1  0  0  0  0
 17 18  1  0  0  0  0
 18 23  2  0  0  0  0
 18 19  1  0  0  0  0
 19 20  2  0  0  0  0
 19 43  1  0  0  0  0
 20 21  1  0  0  0  0
 20 44  1  0  0  0  0
 21 22  2  0  0  0  0
 21 45  1  0  0  0  0
 22 23  1  0  0  0  0
 22 46  1  0  0  0  0
M  END
> <s_m_source_file>
AV-unprocessed.smi

> <i_m_source_file_index>
1378

> <i_lp_mmshare_version>
43012

> <i_f3d_flags>
0

> <s_epik_input>
W2NIXTFbY0hdW2NIXVtjSF1jKGMxMiluKFtDSDJdW0NIMl1PW0NIM10pYyhuMilTW0NIMl1DKD1PKVtOSF1bQ0hdM1tDSDJdW0NIMl1bQ0gyXVtDSDJdMw==

> <s_epik_cmdline>
J2VwaWtfcHl0aG9uJywgJy1waCcsICc3LjAnLCAnLXRuJywgJzgnLCAnLW1hJywgJzIwMCcsICctbWV0YWxfYmluZGluZycsICctaW1hZScsICc8aW5maWxlLm1hZT4nLCAnLW9tYWUnLCAnPG91dGZpbGUubWFlPic=

> <r_epik_Ionization_Penalty>
0.0369383

> <r_epik_Ionization_Penalty_Charging>
0

> <r_epik_Ionization_Penalty_Neutral>
0.0369383

> <r_epik_State_Penalty>
0.0308874

> <r_epik_Charging_Adjusted_Penalty>
0.0308874

> <i_epik_Tot_Q>
0

> <i_epik_Tot_abs_Q>
0

> <r_epik_Metal_State_Penalty>
0.0290628

> <b_epik_Metal_Only>
0

> <s_lp_Force_Field>
OPLS_2005

> <r_lp_Energy>
18.5214

> <b_lp_Chiralities_Consistent>
1

> <s_lp_Variant>
AV-unprocessed.smi:1378-1

> <Gold.Version>
5.8.1

> <Gold.Id.Protein>
6NUR|6NUR_protein|mol2

> <Gold.PLP.Fitness>
46.9052

> <Gold.PLP.PLP>
-41.8724

> <Gold.PLP.part.hbond>
-2.0000

> <Gold.PLP.part.metal>
0.0000

> <Gold.PLP.part.buried>
-5.9164

> <Gold.PLP.part.nonpolar>
-33.7092

> <Gold.PLP.part.repulsive>
0.0942

> <Gold.PLP.ligand.clash>
0.0000

> <Gold.PLP.ligand.torsion>
0.5490

> <Gold.PLP.Chemscore.Hbond>
2.0000

> <Gold.PLP.Chemscore.CHOScore>
0.0000

> <Gold.PLP.Chemscore.Metal>
0.0000

> <Gold.Chemscore.Hbonds>
donor molecule, donor type, donor heavy atom, donor atom, acceptor molecule, acceptor atom, score
      P1  H  6896  6908       L1    10  0.98
      P1  H  7989  7998       L1     2  1.00

> <Gold.PLP.Chemscore.Internal.Correction>
0.1309

> <Gold.Rescore>
     Score         DG    S(hbond)    S(metal)    S(lipo)     H(rot)  DE(clash)    DE(int)     intcor
     19.79     -20.34       1.96        0.00     114.28       1.98       0.05       0.50       ----

> <Gold.Chemscore.Fitness>
19.7875

> <Gold.Chemscore.DG>
-20.3361

> <Gold.Chemscore.ZeroCoef>
-5.4800

> <Gold.Chemscore.Hbond>
1.9616

> <Gold.Chemscore.Metal>
0.0000

> <Gold.Chemscore.Lipo>
114.2847

> <Gold.Chemscore.Internal_Hbond>
0.0000

> <Gold.Chemscore.DEClash>
0.0524

> <Gold.Chemscore.DEInternal>
0.4962

> <Gold.Chemscore.Rot>
1.9792

> <Gold.Chemscore.Internal.Correction>
   9.000000E+99

> <Gold.Chemscore.Hbonds>
donor molecule, donor type, donor heavy atom, donor atom, acceptor molecule, acceptor atom, score
      P1  H  6896  6908       L1    10  0.88
      P1  H  7989  7998       L1     2  0.12

> <Gold.Chemscore.Hbond.Weighted>
-6.5517

> <Gold.Chemscore.Metal.Weighted>
-0.0000

> <Gold.Chemscore.Lipo.Weighted>
-13.3713

> <Gold.Chemscore.Internal_Hbond.Weighted>
0.0000

> <Gold.Chemscore.DEClash.Weighted>
0.0524

> <Gold.Chemscore.DEInternal.Weighted>
0.4962

> <Gold.Chemscore.Rot.Weighted>
5.0669

> <Gold.Chemscore.Internal.Correction.Weighted>
   9.000000E+99

> <Gold.Protein.RotatedTorsions>
[ 6907 6896 6895 6894 ] final  172.64 input  -60.11 | X-H torsion
[ 7974 7965 7964 7962 ] final  -88.66 input  175.53 | X-H torsion
[ 8008 7997 7996 7995 ] final   69.02 input   59.86 | X-H torsion
[ 10167 10162 10161 10158 ] final -158.91 input  -65.29 | X-H torsion
[ 10718 10713 10712 10709 ] final  147.35 input   66.30 | X-H torsion
[ 10763 10752 10751 10750 ] final  -48.21 input  -60.55 | X-H torsion
[ 11005 11000 10999 10996 ] final    5.22 input  -57.11 | X-H torsion

> <Gold.Protein.ActiveResidues>
 VAL166  LYS551  ARG553  GLY616  TRP617  ASP618  TYR619  PRO620  LYS621  CYS622 
 ASP623  PHE694  ASN695  SER759  ASP760  ASP761  ALA762  ILE779  LEU786  VAL792 
 PHE793  MET794  SER795  GLU796  ALA797  LYS798  CYS799  TRP800  GLU811  SER814 

> <Gold.Protein.RotatedAtoms>
  151.7811  133.3350  159.3471 H   0  0  0  0  0  0  0  0  0  0  0  0  # atno 6907 bound_to 6896
  150.7426  134.5930  159.6006 H   0  0  0  0  0  0  0  0  0  0  0  0  # atno 6908 bound_to 6896
  152.3275  134.7303  160.0349 H   0  0  0  0  0  0  0  0  0  0  0  0  # atno 6909 bound_to 6896
  145.4502  140.9560  143.2027 H   0  0  0  0  0  0  0  0  0  0  0  0  # atno 7974 bound_to 7965
  155.7173  140.3493  155.5000 H   0  0  0  0  0  0  0  0  0  0  0  0  # atno 8008 bound_to 7997
  155.9302  140.1083  157.1160 H   0  0  0  0  0  0  0  0  0  0  0  0  # atno 8009 bound_to 7997
  154.4084  140.1232  156.4779 H   0  0  0  0  0  0  0  0  0  0  0  0  # atno 8010 bound_to 7997
  139.6656  143.9836  152.2252 H   0  0  0  0  0  0  0  0  0  0  0  0  # atno 10167 bound_to 10162
  157.3220  131.0906  151.1233 H   0  0  0  0  0  0  0  0  0  0  0  0  # atno 10718 bound_to 10713
  154.0741  135.6600  153.4828 H   0  0  0  0  0  0  0  0  0  0  0  0  # atno 10763 bound_to 10752
  153.0380  135.5164  154.7538 H   0  0  0  0  0  0  0  0  0  0  0  0  # atno 10764 bound_to 10752
  154.6613  135.3015  154.9831 H   0  0  0  0  0  0  0  0  0  0  0  0  # atno 10765 bound_to 10752
  140.5732  134.0083  155.8017 H   0  0  0  0  0  0  0  0  0  0  0  0  # atno 11005 bound_to 11000
  144.8066  139.6039  143.7048 LP  0  0  0  0  0  0  0  0  0  0  0  0  # atno 17320 bound_to 7965
  146.2509  139.6197  142.9428 LP  0  0  0  0  0  0  0  0  0  0  0  0  # atno 17321 bound_to 7965
  139.9586  144.6573  150.8101 LP  0  0  0  0  0  0  0  0  0  0  0  0  # atno 17342 bound_to 10162
  140.7598  143.3136  151.2785 LP  0  0  0  0  0  0  0  0  0  0  0  0  # atno 17343 bound_to 10162
  157.2514  130.6616  149.5933 LP  0  0  0  0  0  0  0  0  0  0  0  0  # atno 17370 bound_to 10713
  155.9687  130.4537  150.5822 LP  0  0  0  0  0  0  0  0  0  0  0  0  # atno 17371 bound_to 10713
  141.1043  133.9718  157.3024 LP  0  0  0  0  0  0  0  0  0  0  0  0  # atno 17394 bound_to 11000
  139.9352  135.0197  156.8532 LP  0  0  0  0  0  0  0  0  0  0  0  0  # atno 17395 bound_to 11000

$$$$
