AV-unprocessed.smi:172|AV-procd|sdf|1422|dock2
  -GOLD-   2262019193D 1   1.00000     0.00000
 Structure written by MMmdl.
 56 60  0  0  0  0  0  0  0  0  1 V2000
  148.9105  134.3037  153.7798 O   0  0  0  0  0  0  0  0  0  0  0  0
  148.7106  134.7265  155.1147 C   0  0  0  0  0  0  0  0  0  0  0  0
  149.6290  133.9953  156.1146 C   0  0  0  0  0  0  0  0  0  0  0  0
  150.9712  134.7418  156.2750 C   0  0  0  0  0  0  0  0  0  0  0  0
  150.8539  136.1246  156.7095 N   0  0  0  0  0  0  0  0  0  0  0  0
  150.0085  136.6089  157.6838 C   0  0  0  0  0  0  0  0  0  0  0  0
  150.0740  137.8955  157.8914 N   0  0  0  0  0  0  0  0  0  0  0  0
  151.0474  138.3268  157.0006 C   0  0  0  0  0  0  0  0  0  0  0  0
  151.6068  139.5941  156.6922 C   0  0  0  0  0  0  0  0  0  0  0  0
  151.1926  140.7282  157.3072 N   0  0  0  0  0  0  0  0  0  0  0  0
  150.4314  141.5896  156.3922 C   0  0  0  0  0  0  0  0  0  0  0  0
  149.2741  140.8930  155.6871 C   0  0  0  0  0  0  0  0  0  0  0  0
  149.5189  140.1047  154.4221 C   0  0  0  0  0  0  0  0  0  0  0  0
  148.7537  141.4047  154.3649 C   0  0  0  0  0  0  0  0  0  0  0  0
  152.2311  141.3531  158.1497 C   0  0  0  0  0  0  0  0  0  0  0  0
  152.7220  140.4038  159.2798 C   0  0  0  0  0  0  0  0  0  0  0  0
  153.7891  141.0543  160.1730 C   0  0  0  0  0  0  0  0  0  0  0  0
  153.2771  142.3619  160.7869 C   0  0  0  0  0  0  0  0  0  0  0  0
  152.8145  143.3250  159.6878 C   0  0  0  0  0  0  0  0  0  0  0  0
  151.7480  142.6818  158.7867 C   0  0  0  0  0  0  0  0  0  0  0  0
  152.5728  139.6518  155.7378 N   0  0  0  0  0  0  0  0  0  0  0  0
  152.9674  138.5320  155.1242 C   0  0  0  0  0  0  0  0  0  0  0  0
  152.5325  137.2825  155.3047 N   0  0  0  0  0  0  0  0  0  0  0  0
  151.5587  137.2269  156.2582 C   0  0  0  0  0  0  0  0  0  0  0  0
  148.9434  133.6455  157.4440 C   0  0  0  0  0  0  0  0  0  0  0  0
  148.7437  132.2735  157.0462 O   0  0  0  0  0  0  0  0  0  0  0  0
  149.6878  132.4653  155.9723 C   0  0  0  0  0  0  0  0  0  0  0  0
  148.5968  134.9801  153.1991 H   0  0  0  0  0  0  0  0  0  0  0  0
  148.8535  135.8062  155.1677 H   0  0  0  0  0  0  0  0  0  0  0  0
  147.6619  134.5453  155.3528 H   0  0  0  0  0  0  0  0  0  0  0  0
  151.6080  134.2173  156.9885 H   0  0  0  0  0  0  0  0  0  0  0  0
  151.5240  134.7390  155.3345 H   0  0  0  0  0  0  0  0  0  0  0  0
  149.3258  135.9742  158.2298 H   0  0  0  0  0  0  0  0  0  0  0  0
  150.0093  142.4296  156.9404 H   0  0  0  0  0  0  0  0  0  0  0  0
  151.1023  142.0096  155.6415 H   0  0  0  0  0  0  0  0  0  0  0  0
  148.5372  140.4536  156.3573 H   0  0  0  0  0  0  0  0  0  0  0  0
  150.5274  140.0984  154.0133 H   0  0  0  0  0  0  0  0  0  0  0  0
  148.9553  139.1837  154.2877 H   0  0  0  0  0  0  0  0  0  0  0  0
  147.6794  141.3543  154.2003 H   0  0  0  0  0  0  0  0  0  0  0  0
  149.2533  142.2656  153.9252 H   0  0  0  0  0  0  0  0  0  0  0  0
  153.0816  141.5844  157.5062 H   0  0  0  0  0  0  0  0  0  0  0  0
  151.8738  140.0976  159.8937 H   0  0  0  0  0  0  0  0  0  0  0  0
  153.1486  139.4884  158.8695 H   0  0  0  0  0  0  0  0  0  0  0  0
  154.0816  140.3634  160.9641 H   0  0  0  0  0  0  0  0  0  0  0  0
  154.6870  141.2508  159.5859 H   0  0  0  0  0  0  0  0  0  0  0  0
  152.4498  142.1517  161.4660 H   0  0  0  0  0  0  0  0  0  0  0  0
  154.0615  142.8264  161.3852 H   0  0  0  0  0  0  0  0  0  0  0  0
  152.4193  144.2368  160.1367 H   0  0  0  0  0  0  0  0  0  0  0  0
  153.6699  143.6257  159.0815 H   0  0  0  0  0  0  0  0  0  0  0  0
  151.4943  143.4120  158.0195 H   0  0  0  0  0  0  0  0  0  0  0  0
  150.8397  142.5052  159.3646 H   0  0  0  0  0  0  0  0  0  0  0  0
  153.7395  138.6549  154.3793 H   0  0  0  0  0  0  0  0  0  0  0  0
  149.5973  133.7208  158.3147 H   0  0  0  0  0  0  0  0  0  0  0  0
  148.0058  134.1742  157.6193 H   0  0  0  0  0  0  0  0  0  0  0  0
  149.3212  132.0839  155.0188 H   0  0  0  0  0  0  0  0  0  0  0  0
  150.6585  132.0318  156.2155 H   0  0  0  0  0  0  0  0  0  0  0  0
  1  2  1  0  0  0  0
  1 28  1  0  0  0  0
  2  3  1  0  0  0  0
  2 29  1  0  0  0  0
  2 30  1  0  0  0  0
  3 27  1  0  0  0  0
  3  4  1  0  0  0  0
  3 25  1  0  0  0  0
  4  5  1  0  0  0  0
  4 31  1  0  0  0  0
  4 32  1  0  0  0  0
  5 24  1  0  0  0  0
  5  6  1  0  0  0  0
  6  7  2  0  0  0  0
  6 33  1  0  0  0  0
  7  8  1  0  0  0  0
  8 24  2  0  0  0  0
  8  9  1  0  0  0  0
  9 10  1  0  0  0  0
  9 21  2  0  0  0  0
 10 11  1  0  0  0  0
 10 15  1  0  0  0  0
 11 12  1  0  0  0  0
 11 34  1  0  0  0  0
 11 35  1  0  0  0  0
 12 14  1  0  0  0  0
 12 13  1  0  0  0  0
 12 36  1  0  0  0  0
 13 14  1  0  0  0  0
 13 37  1  0  0  0  0
 13 38  1  0  0  0  0
 14 39  1  0  0  0  0
 14 40  1  0  0  0  0
 15 20  1  0  0  0  0
 15 16  1  0  0  0  0
 15 41  1  0  0  0  0
 16 17  1  0  0  0  0
 16 42  1  0  0  0  0
 16 43  1  0  0  0  0
 17 18  1  0  0  0  0
 17 44  1  0  0  0  0
 17 45  1  0  0  0  0
 18 19  1  0  0  0  0
 18 46  1  0  0  0  0
 18 47  1  0  0  0  0
 19 20  1  0  0  0  0
 19 48  1  0  0  0  0
 19 49  1  0  0  0  0
 20 50  1  0  0  0  0
 20 51  1  0  0  0  0
 21 22  1  0  0  0  0
 22 23  2  0  0  0  0
 22 52  1  0  0  0  0
 23 24  1  0  0  0  0
 25 26  1  0  0  0  0
 25 53  1  0  0  0  0
 25 54  1  0  0  0  0
 26 27  1  0  0  0  0
 27 55  1  0  0  0  0
 27 56  1  0  0  0  0
M  END
> <s_m_source_file>
AV-unprocessed.smi

> <i_m_source_file_index>
172

> <i_lp_mmshare_version>
43012

> <i_f3d_flags>
0

> <s_epik_input>
W0NIMl0xT1tDSDJdQzEoW0NIMl1bT0hdKVtDSDJdbihbY0hdbjIpYyhjMjMpbltjSF1uYzNOKFtDSDJdW0NIXTRbQ0gyXVtDSDJdNClbQ0hdNVtDSDJdW0NIMl1bQ0gyXVtDSDJdW0NIMl01

> <s_epik_cmdline>
J2VwaWtfcHl0aG9uJywgJy1waCcsICc3LjAnLCAnLXRuJywgJzgnLCAnLW1hJywgJzIwMCcsICctbWV0YWxfYmluZGluZycsICctaW1hZScsICc8aW5maWxlLm1hZT4nLCAnLW9tYWUnLCAnPG91dGZpbGUubWFlPic=

> <r_lp_tautomer_probability>
1

> <r_epik_Ionization_Penalty>
0.0023612

> <r_epik_Ionization_Penalty_Charging>
0

> <r_epik_Ionization_Penalty_Neutral>
0.0023612

> <r_epik_State_Penalty>
0.00145434

> <r_epik_Charging_Adjusted_Penalty>
0.00145434

> <i_epik_Tot_Q>
0

> <i_epik_Tot_abs_Q>
0

> <r_epik_Metal_State_Penalty>
-0

> <b_epik_Metal_Only>
0

> <s_lp_Force_Field>
OPLS_2005

> <r_lp_Energy>
48.1575

> <b_lp_Chiralities_Consistent>
1

> <s_lp_Variant>
AV-unprocessed.smi:172-1

> <Gold.Version>
5.8.1

> <Gold.Id.Protein>
6NUR|6NUR_protein|mol2

> <Gold.PLP.Fitness>
49.7392

> <Gold.PLP.PLP>
-43.1391

> <Gold.PLP.part.hbond>
-3.0000

> <Gold.PLP.part.metal>
0.0000

> <Gold.PLP.part.buried>
-5.6387

> <Gold.PLP.part.nonpolar>
-34.8835

> <Gold.PLP.part.repulsive>
0.0373

> <Gold.PLP.ligand.clash>
0.0000

> <Gold.PLP.ligand.torsion>
1.3531

> <Gold.PLP.Chemscore.Hbond>
2.5800

> <Gold.PLP.Chemscore.CHOScore>
0.0000

> <Gold.PLP.Chemscore.Metal>
0.0000

> <Gold.Chemscore.Hbonds>
donor molecule, donor type, donor heavy atom, donor atom, acceptor molecule, acceptor atom, score
      L1  H     1    28       P1  7948  0.94
      P1  H  7997  8008       L1    21  0.80
      P1  H 10752 10765       L1    23  0.64

> <Gold.PLP.Chemscore.Internal.Correction>
1.5663

> <Gold.Rescore>
     Score         DG    S(hbond)    S(metal)    S(lipo)     H(rot)  DE(clash)    DE(int)     intcor
     16.43     -17.83       2.15        0.00     107.24       2.87       0.09       1.32       ----

> <Gold.Chemscore.Fitness>
16.4262

> <Gold.Chemscore.DG>
-17.8336

> <Gold.Chemscore.ZeroCoef>
-5.4800

> <Gold.Chemscore.Hbond>
2.1451

> <Gold.Chemscore.Metal>
0.0000

> <Gold.Chemscore.Lipo>
107.2428

> <Gold.Chemscore.Internal_Hbond>
0.0000

> <Gold.Chemscore.DEClash>
0.0901

> <Gold.Chemscore.DEInternal>
1.3172

> <Gold.Chemscore.Rot>
2.8744

> <Gold.Chemscore.Internal.Correction>
   9.000000E+99

> <Gold.Chemscore.Hbonds>
donor molecule, donor type, donor heavy atom, donor atom, acceptor molecule, acceptor atom, score
      L1  H     1    28       P1  7948  0.60
      P1  H  7997  8008       L1    21  0.09
      P1  H 10752 10765       L1    23  0.48

> <Gold.Chemscore.Hbond.Weighted>
-7.1646

> <Gold.Chemscore.Metal.Weighted>
-0.0000

> <Gold.Chemscore.Lipo.Weighted>
-12.5474

> <Gold.Chemscore.Internal_Hbond.Weighted>
0.0000

> <Gold.Chemscore.DEClash.Weighted>
0.0901

> <Gold.Chemscore.DEInternal.Weighted>
1.3172

> <Gold.Chemscore.Rot.Weighted>
7.3584

> <Gold.Chemscore.Internal.Correction.Weighted>
   9.000000E+99

> <Gold.Protein.RotatedTorsions>
[ 6907 6896 6895 6894 ] final -124.15 input  -60.11 | X-H torsion
[ 7974 7965 7964 7962 ] final    9.59 input  175.53 | X-H torsion
[ 8008 7997 7996 7995 ] final  -53.15 input   59.86 | X-H torsion
[ 10167 10162 10161 10158 ] final   58.73 input  -65.29 | X-H torsion
[ 10718 10713 10712 10709 ] final -148.15 input   66.30 | X-H torsion
[ 10763 10752 10751 10750 ] final -166.60 input  -60.55 | X-H torsion
[ 11005 11000 10999 10996 ] final  -57.81 input  -57.11 | X-H torsion

> <Gold.Protein.ActiveResidues>
 VAL166  LYS551  ARG553  GLY616  TRP617  ASP618  TYR619  PRO620  LYS621  CYS622 
 ASP623  PHE694  ASN695  SER759  ASP760  ASP761  ALA762  ILE779  LEU786  VAL792 
 PHE793  MET794  SER795  GLU796  ALA797  LYS798  CYS799  TRP800  GLU811  SER814 

> <Gold.Protein.RotatedAtoms>
  150.8740  133.7465  159.2952 H   0  0  0  0  0  0  0  0  0  0  0  0  # atno 6907 bound_to 6896
  151.5067  135.1062  159.9853 H   0  0  0  0  0  0  0  0  0  0  0  0  # atno 6908 bound_to 6896
  152.4715  133.7995  159.7001 H   0  0  0  0  0  0  0  0  0  0  0  0  # atno 6909 bound_to 6896
  146.2401  139.9760  142.8441 H   0  0  0  0  0  0  0  0  0  0  0  0  # atno 7974 bound_to 7965
  154.4125  140.1207  156.5107 H   0  0  0  0  0  0  0  0  0  0  0  0  # atno 8008 bound_to 7997
  155.6802  140.3496  155.4833 H   0  0  0  0  0  0  0  0  0  0  0  0  # atno 8009 bound_to 7997
  155.9558  140.1113  157.0928 H   0  0  0  0  0  0  0  0  0  0  0  0  # atno 8010 bound_to 7997
  140.1841  144.4152  150.6601 H   0  0  0  0  0  0  0  0  0  0  0  0  # atno 10167 bound_to 10162
  156.4165  130.8008  151.2228 H   0  0  0  0  0  0  0  0  0  0  0  0  # atno 10718 bound_to 10713
  154.6816  135.2955  154.9604 H   0  0  0  0  0  0  0  0  0  0  0  0  # atno 10763 bound_to 10752
  154.0597  135.6633  153.4814 H   0  0  0  0  0  0  0  0  0  0  0  0  # atno 10764 bound_to 10752
  153.0551  135.5149  154.7863 H   0  0  0  0  0  0  0  0  0  0  0  0  # atno 10765 bound_to 10752
  141.1181  133.6611  156.4826 H   0  0  0  0  0  0  0  0  0  0  0  0  # atno 11005 bound_to 11000
  145.1636  140.9685  143.4362 LP  0  0  0  0  0  0  0  0  0  0  0  0  # atno 17320 bound_to 7965
  145.0093  139.3525  143.6128 LP  0  0  0  0  0  0  0  0  0  0  0  0  # atno 17321 bound_to 7965
  140.6500  143.2222  151.6099 LP  0  0  0  0  0  0  0  0  0  0  0  0  # atno 17342 bound_to 10162
  139.5284  144.2991  152.1089 LP  0  0  0  0  0  0  0  0  0  0  0  0  # atno 17343 bound_to 10162
  157.7508  131.0241  150.3863 LP  0  0  0  0  0  0  0  0  0  0  0  0  # atno 17370 bound_to 10713
  156.4172  130.3945  149.6850 LP  0  0  0  0  0  0  0  0  0  0  0  0  # atno 17371 bound_to 10713
  140.4588  134.6860  157.5075 LP  0  0  0  0  0  0  0  0  0  0  0  0  # atno 17394 bound_to 11000
  140.0117  134.6680  155.9371 LP  0  0  0  0  0  0  0  0  0  0  0  0  # atno 17395 bound_to 11000

$$$$
