AV-unprocessed.smi:1174|AV-procd|sdf|4947|dock7
  -GOLD-   22720 3533D 1   1.00000     0.00000
 Structure written by MMmdl.
 41 42  0  0  0  0  0  0  0  0  1 V2000
  154.5913  141.5552  159.8842 C   0  0  0  0  0  0  0  0  0  0  0  0
  153.2144  141.1860  160.4573 C   0  0  1  0  0  0  0  0  0  0  0  0
  152.4399  142.4364  160.9170 C   0  0  0  0  0  0  0  0  0  0  0  0
  152.1692  143.3536  159.8237 N   0  0  0  0  0  0  0  0  0  0  0  0
  152.4365  144.7050  159.7530 C   0  0  0  0  0  0  0  0  0  0  0  0
  152.0132  145.1391  158.5298 C   0  0  0  0  0  0  0  0  0  0  0  0
  151.4931  143.9652  157.9163 C   0  0  0  0  0  0  0  0  0  0  0  0
  151.5865  142.8985  158.6938 N   0  0  0  0  0  0  0  0  0  0  0  0
  152.4364  140.4598  159.4561 N   0  0  0  0  0  0  0  0  0  0  0  0
  152.8770  139.4256  158.7240 C   0  0  0  0  0  0  0  0  0  0  0  0
  154.0257  138.9878  158.7925 O   0  0  0  0  0  0  0  0  0  0  0  0
  151.8597  138.7885  157.7694 C   0  0  2  0  0  0  0  0  0  0  0  0
  151.5793  137.3150  158.1477 C   0  0  0  0  0  0  0  0  0  0  0  0
  150.6648  136.6254  157.1171 C   0  0  0  0  0  0  0  0  0  0  0  0
  151.1943  136.8293  155.6858 C   0  0  0  0  0  0  0  0  0  0  0  0
  151.3288  138.2740  155.4324 N   0  0  0  0  0  0  0  0  0  0  0  0
  150.4967  139.0352  154.6781 C   0  0  0  0  0  0  0  0  0  0  0  0
  149.7007  138.3571  153.8458 N   0  0  0  0  0  0  0  0  0  0  0  0
  150.4781  140.2646  154.7086 O   0  0  0  0  0  0  0  0  0  0  0  0
  152.3456  138.8739  156.3053 C   0  0  0  0  0  0  0  0  0  0  0  0
  155.1925  142.0873  160.6220 H   0  0  0  0  0  0  0  0  0  0  0  0
  154.4978  142.1956  159.0066 H   0  0  0  0  0  0  0  0  0  0  0  0
  155.1484  140.6652  159.5898 H   0  0  0  0  0  0  0  0  0  0  0  0
  153.3698  140.5455  161.3276 H   0  0  0  0  0  0  0  0  0  0  0  0
  151.4868  142.1472  161.3625 H   0  0  0  0  0  0  0  0  0  0  0  0
  152.9957  142.9690  161.6900 H   0  0  0  0  0  0  0  0  0  0  0  0
  152.9032  145.2379  160.5684 H   0  0  0  0  0  0  0  0  0  0  0  0
  152.0669  146.1422  158.1336 H   0  0  0  0  0  0  0  0  0  0  0  0
  151.0530  143.8575  156.9359 H   0  0  0  0  0  0  0  0  0  0  0  0
  151.4793  140.7534  159.3252 H   0  0  0  0  0  0  0  0  0  0  0  0
  150.9218  139.3421  157.8479 H   0  0  0  0  0  0  0  0  0  0  0  0
  152.5176  136.7608  158.2058 H   0  0  0  0  0  0  0  0  0  0  0  0
  151.1272  137.2581  159.1389 H   0  0  0  0  0  0  0  0  0  0  0  0
  150.5874  135.5611  157.3409 H   0  0  0  0  0  0  0  0  0  0  0  0
  149.6557  137.0327  157.1934 H   0  0  0  0  0  0  0  0  0  0  0  0
  152.1714  136.3554  155.5809 H   0  0  0  0  0  0  0  0  0  0  0  0
  150.5472  136.3144  154.9760 H   0  0  0  0  0  0  0  0  0  0  0  0
  149.0521  138.8530  153.2524 H   0  0  0  0  0  0  0  0  0  0  0  0
  149.7517  137.3492  153.8163 H   0  0  0  0  0  0  0  0  0  0  0  0
  152.5646  139.9088  156.0356 H   0  0  0  0  0  0  0  0  0  0  0  0
  153.2861  138.3346  156.1804 H   0  0  0  0  0  0  0  0  0  0  0  0
  1  2  1  0  0  0  0
  1 21  1  0  0  0  0
  1 22  1  0  0  0  0
  1 23  1  0  0  0  0
  2  3  1  0  0  0  0
  2  9  1  0  0  0  0
  2 24  1  0  0  0  0
  3  4  1  0  0  0  0
  3 25  1  0  0  0  0
  3 26  1  0  0  0  0
  4  8  1  0  0  0  0
  4  5  1  0  0  0  0
  5  6  2  0  0  0  0
  5 27  1  0  0  0  0
  6  7  1  0  0  0  0
  6 28  1  0  0  0  0
  7  8  2  0  0  0  0
  7 29  1  0  0  0  0
  9 10  1  0  0  0  0
  9 30  1  0  0  0  0
 10 11  2  0  0  0  0
 10 12  1  0  0  0  0
 12 20  1  0  0  0  0
 12 13  1  0  0  0  0
 12 31  1  0  0  0  0
 13 14  1  0  0  0  0
 13 32  1  0  0  0  0
 13 33  1  0  0  0  0
 14 15  1  0  0  0  0
 14 34  1  0  0  0  0
 14 35  1  0  0  0  0
 15 16  1  0  0  0  0
 15 36  1  0  0  0  0
 15 37  1  0  0  0  0
 16 17  1  0  0  0  0
 16 20  1  0  0  0  0
 17 18  1  0  0  0  0
 17 19  2  0  0  0  0
 18 38  1  0  0  0  0
 18 39  1  0  0  0  0
 20 40  1  0  0  0  0
 20 41  1  0  0  0  0
M  END
> <s_m_source_file>
AV-unprocessed.smi

> <i_m_source_file_index>
1174

> <i_lp_mmshare_version>
43012

> <i_f3d_flags>
0

> <s_epik_input>
bjFbY0hdW2NIXVtjSF1uMVtDSDJdW0NAQEhdKFtDSDNdKVtOSF1DKD1PKVtDQEBIXTJbQ0gyXVtDSDJdW0NIMl1OKFtDSDJdMilDKD1PKVtOSDJd

> <s_epik_cmdline>
J2VwaWtfcHl0aG9uJywgJy1waCcsICc3LjAnLCAnLXRuJywgJzgnLCAnLW1hJywgJzIwMCcsICctbWV0YWxfYmluZGluZycsICctaW1hZScsICc8aW5maWxlLm1hZT4nLCAnLW9tYWUnLCAnPG91dGZpbGUubWFlPic=

> <r_lp_tautomer_probability>
1

> <r_epik_Ionization_Penalty>
0.000372452

> <r_epik_Ionization_Penalty_Charging>
0

> <r_epik_Ionization_Penalty_Neutral>
0.000372452

> <r_epik_State_Penalty>
-0

> <r_epik_Charging_Adjusted_Penalty>
0

> <i_epik_Tot_Q>
0

> <i_epik_Tot_abs_Q>
0

> <r_epik_Metal_State_Penalty>
-0

> <b_epik_Metal_Only>
0

> <s_lp_Force_Field>
OPLS_2005

> <r_lp_Energy>
26.6636

> <b_lp_Chiralities_Consistent>
1

> <s_lp_Variant>
AV-unprocessed.smi:1174-2

> <Gold.Version>
5.8.1

> <Gold.Id.Protein>
6NUR|6NUR_protein|mol2

> <Gold.PLP.Fitness>
52.2853

> <Gold.PLP.PLP>
-41.4624

> <Gold.PLP.part.hbond>
-3.8638

> <Gold.PLP.part.metal>
0.0000

> <Gold.PLP.part.buried>
-5.3045

> <Gold.PLP.part.nonpolar>
-32.1615

> <Gold.PLP.part.repulsive>
0.3765

> <Gold.PLP.ligand.clash>
0.0000

> <Gold.PLP.ligand.torsion>
0.2409

> <Gold.PLP.Chemscore.Hbond>
2.7502

> <Gold.PLP.Chemscore.CHOScore>
1.0000

> <Gold.PLP.Chemscore.Metal>
0.0000

> <Gold.Chemscore.Hbonds>
donor molecule, donor type, donor heavy atom, donor atom, acceptor molecule, acceptor atom, score
      L1  H    18    39       P1  7948  0.07
      P1  H  7989  7998       L1    19  1.00
      P1  H  7997  8010       L1    11  0.59
      L1  C     7    29       P1  8028  0.73

> <Gold.PLP.Chemscore.Internal.Correction>
0.0542

> <Gold.Rescore>
     Score         DG    S(hbond)    S(metal)    S(lipo)     H(rot)  DE(clash)    DE(int)     intcor
     14.65     -17.11       1.64        0.00      92.40       1.82       1.04       1.42       ----

> <Gold.Chemscore.Fitness>
14.6537

> <Gold.Chemscore.DG>
-17.1143

> <Gold.Chemscore.ZeroCoef>
-5.4800

> <Gold.Chemscore.Hbond>
1.6420

> <Gold.Chemscore.Metal>
0.0000

> <Gold.Chemscore.Lipo>
92.3999

> <Gold.Chemscore.Internal_Hbond>
0.0000

> <Gold.Chemscore.DEClash>
1.0421

> <Gold.Chemscore.DEInternal>
1.4184

> <Gold.Chemscore.Rot>
1.8206

> <Gold.Chemscore.Internal.Correction>
   9.000000E+99

> <Gold.Chemscore.Hbonds>
donor molecule, donor type, donor heavy atom, donor atom, acceptor molecule, acceptor atom, score
      L1  H    18    38       P1  7957  0.02
      L1  H    18    39       P1  7948  0.05
      P1  H  7989  7998       L1    19  0.69
      P1  H  7997  8010       L1    11  0.06

> <Gold.Chemscore.Hbond.Weighted>
-5.4842

> <Gold.Chemscore.Metal.Weighted>
-0.0000

> <Gold.Chemscore.Lipo.Weighted>
-10.8108

> <Gold.Chemscore.Internal_Hbond.Weighted>
0.0000

> <Gold.Chemscore.DEClash.Weighted>
1.0421

> <Gold.Chemscore.DEInternal.Weighted>
1.4184

> <Gold.Chemscore.Rot.Weighted>
4.6607

> <Gold.Chemscore.Internal.Correction.Weighted>
   9.000000E+99

> <Gold.Protein.RotatedTorsions>
[ 6907 6896 6895 6894 ] final -172.93 input  -60.11 | X-H torsion
[ 7974 7965 7964 7962 ] final   79.69 input  175.53 | X-H torsion
[ 8008 7997 7996 7995 ] final   31.09 input   59.86 | X-H torsion
[ 10167 10162 10161 10158 ] final   39.84 input  -65.29 | X-H torsion
[ 10718 10713 10712 10709 ] final  126.66 input   66.30 | X-H torsion
[ 10763 10752 10751 10750 ] final -118.44 input  -60.55 | X-H torsion
[ 11005 11000 10999 10996 ] final  -11.07 input  -57.11 | X-H torsion

> <Gold.Protein.ActiveResidues>
 VAL166  LYS551  ARG553  GLY616  TRP617  ASP618  TYR619  PRO620  LYS621  CYS622 
 ASP623  PHE694  ASN695  SER759  ASP760  ASP761  ALA762  ILE779  LEU786  VAL792 
 PHE793  MET794  SER795  GLU796  ALA797  LYS798  CYS799  TRP800  GLU811  SER814 

> <Gold.Protein.RotatedAtoms>
  151.5479  133.3422  159.2947 H   0  0  0  0  0  0  0  0  0  0  0  0  # atno 6907 bound_to 6896
  150.8496  134.7819  159.7009 H   0  0  0  0  0  0  0  0  0  0  0  0  # atno 6908 bound_to 6896
  152.4545  134.5329  159.9868 H   0  0  0  0  0  0  0  0  0  0  0  0  # atno 6909 bound_to 6896
  145.6609  139.2471  143.1923 H   0  0  0  0  0  0  0  0  0  0  0  0  # atno 7974 bound_to 7965
  155.1008  140.3229  155.4547 H   0  0  0  0  0  0  0  0  0  0  0  0  # atno 8008 bound_to 7997
  156.2717  140.2061  156.6081 H   0  0  0  0  0  0  0  0  0  0  0  0  # atno 8009 bound_to 7997
  154.6830  140.0524  157.0273 H   0  0  0  0  0  0  0  0  0  0  0  0  # atno 8010 bound_to 7997
  140.3800  144.1992  150.6131 H   0  0  0  0  0  0  0  0  0  0  0  0  # atno 10167 bound_to 10162
  157.5400  131.1097  150.8874 H   0  0  0  0  0  0  0  0  0  0  0  0  # atno 10718 bound_to 10713
  154.8587  135.4274  154.2139 H   0  0  0  0  0  0  0  0  0  0  0  0  # atno 10763 bound_to 10752
  153.3159  135.6979  153.7080 H   0  0  0  0  0  0  0  0  0  0  0  0  # atno 10764 bound_to 10752
  153.6154  135.3511  155.2967 H   0  0  0  0  0  0  0  0  0  0  0  0  # atno 10765 bound_to 10752
  140.7514  133.8589  155.9048 H   0  0  0  0  0  0  0  0  0  0  0  0  # atno 11005 bound_to 11000
  146.1126  140.7409  142.9496 LP  0  0  0  0  0  0  0  0  0  0  0  0  # atno 17320 bound_to 7965
  144.7089  140.3963  143.7096 LP  0  0  0  0  0  0  0  0  0  0  0  0  # atno 17321 bound_to 7965
  140.4947  143.2336  151.8767 LP  0  0  0  0  0  0  0  0  0  0  0  0  # atno 17342 bound_to 10162
  139.4796  144.5127  151.8911 LP  0  0  0  0  0  0  0  0  0  0  0  0  # atno 17343 bound_to 10162
  156.9429  130.5391  149.5280 LP  0  0  0  0  0  0  0  0  0  0  0  0  # atno 17370 bound_to 10713
  156.0489  130.5561  150.8944 LP  0  0  0  0  0  0  0  0  0  0  0  0  # atno 17371 bound_to 10713
  140.9747  134.1485  157.4546 LP  0  0  0  0  0  0  0  0  0  0  0  0  # atno 17394 bound_to 11000
  139.8787  134.9990  156.5933 LP  0  0  0  0  0  0  0  0  0  0  0  0  # atno 17395 bound_to 11000

$$$$
