AV-unprocessed.smi:3349|AV-procd|sdf|12935|dock2
  -GOLD-   2272019363D 1   1.00000     0.00000
 Structure written by MMmdl.
 41 42  0  0  0  0  0  0  0  0  2 V2000
  146.3193  136.6994  154.8077 C   0  0  0  0  0  0  0  0  0  0  0  0
  146.9297  135.3104  154.4975 C   0  0  2  0  0  0  0  0  0  0  0  0
  148.3944  135.2269  155.0129 C   0  0  0  0  0  0  0  0  0  0  0  0
  149.2617  136.2663  154.4627 N   0  0  0  0  0  0  0  0  0  0  0  0
  149.7798  137.2968  155.1515 C   0  0  0  0  0  0  0  0  0  0  0  0
  149.5962  137.4571  156.3587 O   0  0  0  0  0  0  0  0  0  0  0  0
  150.6435  138.2839  154.3491 C   0  0  2  0  0  0  0  0  0  0  0  0
  152.1414  138.1984  154.7075 C   0  0  0  0  0  0  0  0  0  0  0  0
  150.1233  139.6390  154.4846 N   0  0  0  0  0  0  0  0  0  0  0  0
  149.1804  140.2704  153.7819 C   0  0  0  0  0  0  0  0  0  0  0  0
  148.9198  141.4976  154.2098 N   0  0  0  0  0  0  0  0  0  0  0  0
  149.7927  141.5632  155.2584 C   0  0  0  0  0  0  0  0  0  0  0  0
  150.5299  140.4739  155.4734 N   0  0  0  0  0  0  0  0  0  0  0  0
  146.8161  134.9803  153.0358 N   0  3  0  0  0  0  0  0  0  0  0  0
  146.9361  133.5276  152.7227 C   0  0  0  0  0  0  0  0  0  0  0  0
  146.8062  133.2578  151.2138 C   0  0  0  0  0  0  0  0  0  0  0  0
  145.5752  133.7753  150.7360 O   0  0  0  0  0  0  0  0  0  0  0  0
  145.5126  135.1818  150.9054 C   0  0  0  0  0  0  0  0  0  0  0  0
  145.5819  135.5259  152.4023 C   0  0  0  0  0  0  0  0  0  0  0  0
  146.4113  136.9611  155.8608 H   0  0  0  0  0  0  0  0  0  0  0  0
  145.2513  136.7460  154.6034 H   0  0  0  0  0  0  0  0  0  0  0  0
  146.8096  137.4843  154.2310 H   0  0  0  0  0  0  0  0  0  0  0  0
  146.3513  134.5642  155.0448 H   0  0  0  0  0  0  0  0  0  0  0  0
  148.4345  135.3833  156.0898 H   0  0  0  0  0  0  0  0  0  0  0  0
  148.8043  134.2321  154.8292 H   0  0  0  0  0  0  0  0  0  0  0  0
  149.4673  136.2101  153.4756 H   0  0  0  0  0  0  0  0  0  0  0  0
  150.5502  138.0096  153.2970 H   0  0  0  0  0  0  0  0  0  0  0  0
  152.5267  137.1903  154.5508 H   0  0  0  0  0  0  0  0  0  0  0  0
  152.3306  138.4662  155.7479 H   0  0  0  0  0  0  0  0  0  0  0  0
  152.7285  138.8717  154.0824 H   0  0  0  0  0  0  0  0  0  0  0  0
  148.6698  139.8214  152.9425 H   0  0  0  0  0  0  0  0  0  0  0  0
  149.8823  142.4374  155.8864 H   0  0  0  0  0  0  0  0  0  0  0  0
  147.9066  133.1404  153.0291 H   0  0  0  0  0  0  0  0  0  0  0  0
  146.1730  132.9713  153.2690 H   0  0  0  0  0  0  0  0  0  0  0  0
  147.6401  133.6987  150.6650 H   0  0  0  0  0  0  0  0  0  0  0  0
  146.8341  132.1851  151.0222 H   0  0  0  0  0  0  0  0  0  0  0  0
  146.3195  135.6672  150.3539 H   0  0  0  0  0  0  0  0  0  0  0  0
  144.5762  135.5449  150.4816 H   0  0  0  0  0  0  0  0  0  0  0  0
  144.7035  135.1306  152.9147 H   0  0  0  0  0  0  0  0  0  0  0  0
  145.5415  136.6099  152.4836 H   0  0  0  0  0  0  0  0  0  0  0  0
  147.5973  135.4306  152.5800 H   0  0  0  0  0  0  0  0  0  0  0  0
  1  2  1  0  0  0  0
  1 20  1  0  0  0  0
  1 21  1  0  0  0  0
  1 22  1  0  0  0  0
  2  3  1  0  0  0  0
  2 14  1  0  0  0  0
  2 23  1  0  0  0  0
  3  4  1  0  0  0  0
  3 24  1  0  0  0  0
  3 25  1  0  0  0  0
  4  5  1  0  0  0  0
  4 26  1  0  0  0  0
  5  6  2  0  0  0  0
  5  7  1  0  0  0  0
  7  8  1  0  0  0  0
  7  9  1  0  0  0  0
  7 27  1  0  0  0  0
  8 28  1  0  0  0  0
  8 29  1  0  0  0  0
  8 30  1  0  0  0  0
  9 13  1  0  0  0  0
  9 10  1  0  0  0  0
 10 11  2  0  0  0  0
 10 31  1  0  0  0  0
 11 12  1  0  0  0  0
 12 13  2  0  0  0  0
 12 32  1  0  0  0  0
 14 19  1  0  0  0  0
 14 15  1  0  0  0  0
 14 41  1  0  0  0  0
 15 16  1  0  0  0  0
 15 33  1  0  0  0  0
 15 34  1  0  0  0  0
 16 17  1  0  0  0  0
 16 35  1  0  0  0  0
 16 36  1  0  0  0  0
 17 18  1  0  0  0  0
 18 19  1  0  0  0  0
 18 37  1  0  0  0  0
 18 38  1  0  0  0  0
 19 39  1  0  0  0  0
 19 40  1  0  0  0  0
M  CHG  1  14   1
M  END
> <s_m_source_file>
AV-unprocessed.smi

> <i_m_source_file_index>
3349

> <i_lp_mmshare_version>
43012

> <i_f3d_flags>
0

> <s_epik_input>
W0NIMl0xW0NIMl1PW0NIMl1bQ0gyXU4xW0NASF0oW0NIM10pW0NIMl1bTkhdQyg9TylbQ0BIXShbQ0gzXSluMltjSF1uW2NIXW4y

> <s_epik_cmdline>
J2VwaWtfcHl0aG9uJywgJy1waCcsICc3LjAnLCAnLXRuJywgJzgnLCAnLW1hJywgJzIwMCcsICctbWV0YWxfYmluZGluZycsICctaW1hZScsICc8aW5maWxlLm1hZT4nLCAnLW9tYWUnLCAnPG91dGZpbGUubWFlPic=

> <r_lp_tautomer_probability>
1

> <r_epik_Ionization_Penalty>
0.71326

> <r_epik_Ionization_Penalty_Charging>
0.713252

> <r_epik_Ionization_Penalty_Neutral>
8.10337e-06

> <r_epik_State_Penalty>
0.737017

> <r_epik_Charging_Adjusted_Penalty>
1.45027

> <i_epik_Tot_Q>
1

> <i_epik_Tot_abs_Q>
1

> <r_epik_Metal_State_Penalty>
0.73702

> <b_epik_Metal_Only>
0

> <s_lp_Force_Field>
OPLS_2005

> <r_lp_Energy>
28.3535

> <b_lp_Chiralities_Consistent>
1

> <s_lp_Variant>
AV-unprocessed.smi:3349-5

> <Gold.Version>
5.8.1

> <Gold.Id.Protein>
6NUR|6NUR_protein|mol2

> <Gold.PLP.Fitness>
39.6450

> <Gold.PLP.PLP>
-27.4961

> <Gold.PLP.part.hbond>
-3.4299

> <Gold.PLP.part.metal>
0.0000

> <Gold.PLP.part.buried>
-0.3034

> <Gold.PLP.part.nonpolar>
-24.0882

> <Gold.PLP.part.repulsive>
0.4106

> <Gold.PLP.ligand.clash>
0.0000

> <Gold.PLP.ligand.torsion>
1.2887

> <Gold.PLP.Chemscore.Hbond>
3.1413

> <Gold.PLP.Chemscore.CHOScore>
1.7165

> <Gold.PLP.Chemscore.Metal>
0.0000

> <Gold.Chemscore.Hbonds>
donor molecule, donor type, donor heavy atom, donor atom, acceptor molecule, acceptor atom, score
      L1  H     4    26       P1  7948  1.00
      L1  H    14    41       P1  7948  2.00
      P1  H  8011  8017       L1    11  0.16
      L1  C    10    31       P1  7957  0.69
      L1  C    12    32       P1  8028  1.00

> <Gold.PLP.Chemscore.Internal.Correction>
0.1531

> <Gold.Rescore>
     Score         DG    S(hbond)    S(metal)    S(lipo)     H(rot)  DE(clash)    DE(int)     intcor
      9.17     -10.17       1.94        0.00      42.42       2.63       0.03       0.98       ----

> <Gold.Chemscore.Fitness>
9.1667

> <Gold.Chemscore.DG>
-10.1716

> <Gold.Chemscore.ZeroCoef>
-5.4800

> <Gold.Chemscore.Hbond>
1.9369

> <Gold.Chemscore.Metal>
0.0000

> <Gold.Chemscore.Lipo>
42.4152

> <Gold.Chemscore.Internal_Hbond>
0.0000

> <Gold.Chemscore.DEClash>
0.0285

> <Gold.Chemscore.DEInternal>
0.9764

> <Gold.Chemscore.Rot>
2.6329

> <Gold.Chemscore.Internal.Correction>
   9.000000E+99

> <Gold.Chemscore.Hbonds>
donor molecule, donor type, donor heavy atom, donor atom, acceptor molecule, acceptor atom, score
      L1  H     4    26       P1  7948  0.58
      L1  H    14    41       P1  7948  1.00
      P1  H  8011  8017       L1    11  0.01

> <Gold.Chemscore.Hbond.Weighted>
-6.4694

> <Gold.Chemscore.Metal.Weighted>
-0.0000

> <Gold.Chemscore.Lipo.Weighted>
-4.9626

> <Gold.Chemscore.Internal_Hbond.Weighted>
0.0000

> <Gold.Chemscore.DEClash.Weighted>
0.0285

> <Gold.Chemscore.DEInternal.Weighted>
0.9764

> <Gold.Chemscore.Rot.Weighted>
6.7403

> <Gold.Chemscore.Internal.Correction.Weighted>
   9.000000E+99

> <Gold.Protein.RotatedTorsions>
[ 6907 6896 6895 6894 ] final   -4.61 input  -60.11 | X-H torsion
[ 7974 7965 7964 7962 ] final -115.23 input  175.53 | X-H torsion
[ 8008 7997 7996 7995 ] final  -13.96 input   59.86 | X-H torsion
[ 10167 10162 10161 10158 ] final  -46.36 input  -65.29 | X-H torsion
[ 10718 10713 10712 10709 ] final  158.19 input   66.30 | X-H torsion
[ 10763 10752 10751 10750 ] final   43.26 input  -60.55 | X-H torsion
[ 11005 11000 10999 10996 ] final  133.91 input  -57.11 | X-H torsion

> <Gold.Protein.ActiveResidues>
 VAL166  LYS551  ARG553  GLY616  TRP617  ASP618  TYR619  PRO620  LYS621  CYS622 
 ASP623  PHE694  ASN695  SER759  ASP760  ASP761  ALA762  ILE779  LEU786  VAL792 
 PHE793  MET794  SER795  GLU796  ALA797  LYS798  CYS799  TRP800  GLU811  SER814 

> <Gold.Protein.RotatedAtoms>
  151.4949  135.1059  159.9813 H   0  0  0  0  0  0  0  0  0  0  0  0  # atno 6907 bound_to 6896
  152.4726  133.8060  159.6988 H   0  0  0  0  0  0  0  0  0  0  0  0  # atno 6908 bound_to 6896
  150.8744  133.7397  159.2977 H   0  0  0  0  0  0  0  0  0  0  0  0  # atno 6909 bound_to 6896
  145.1109  140.8611  143.3871 H   0  0  0  0  0  0  0  0  0  0  0  0  # atno 7974 bound_to 7965
  154.5249  140.2236  155.8908 H   0  0  0  0  0  0  0  0  0  0  0  0  # atno 8008 bound_to 7997
  156.1702  140.3123  155.8925 H   0  0  0  0  0  0  0  0  0  0  0  0  # atno 8009 bound_to 7997
  155.3573  140.0459  157.3037 H   0  0  0  0  0  0  0  0  0  0  0  0  # atno 8010 bound_to 7997
  140.6820  143.2834  151.3772 H   0  0  0  0  0  0  0  0  0  0  0  0  # atno 10167 bound_to 10162
  157.1812  131.0633  151.2130 H   0  0  0  0  0  0  0  0  0  0  0  0  # atno 10718 bound_to 10713
  152.9864  135.6107  154.3083 H   0  0  0  0  0  0  0  0  0  0  0  0  # atno 10763 bound_to 10752
  154.2800  135.2777  155.2703 H   0  0  0  0  0  0  0  0  0  0  0  0  # atno 10764 bound_to 10752
  154.5046  135.5857  153.6614 H   0  0  0  0  0  0  0  0  0  0  0  0  # atno 10765 bound_to 10752
  139.9881  134.9525  156.9792 H   0  0  0  0  0  0  0  0  0  0  0  0  # atno 11005 bound_to 11000
  145.0848  139.2933  143.5765 LP  0  0  0  0  0  0  0  0  0  0  0  0  # atno 17320 bound_to 7965
  146.3526  140.0367  142.8646 LP  0  0  0  0  0  0  0  0  0  0  0  0  # atno 17321 bound_to 7965
  139.6150  144.1021  152.2336 LP  0  0  0  0  0  0  0  0  0  0  0  0  # atno 17342 bound_to 10162
  140.0447  144.5979  150.7383 LP  0  0  0  0  0  0  0  0  0  0  0  0  # atno 17343 bound_to 10162
  157.3950  130.7303  149.6725 LP  0  0  0  0  0  0  0  0  0  0  0  0  # atno 17370 bound_to 10713
  155.9724  130.4136  150.4090 LP  0  0  0  0  0  0  0  0  0  0  0  0  # atno 17371 bound_to 10713
  140.4962  134.1143  155.7241 LP  0  0  0  0  0  0  0  0  0  0  0  0  # atno 17394 bound_to 11000
  141.1542  133.8912  157.2019 LP  0  0  0  0  0  0  0  0  0  0  0  0  # atno 17395 bound_to 11000

$$$$
