#       Name:                AV-unprocessed.smi:3186
#       Creating user name   scv26
#       Creation time:       Fri Mar 27 18:01:13 2020


#       File generated by GOLD software.
#

@<TRIPOS>MOLECULE
AV-unprocessed.smi:3186
    38    39     1
SMALL
NO_CHARGES


@<TRIPOS>ATOM
      1 ****        -2.5312   1.2746  -2.2099 C.3            1 S1                 0.0000
      2 ****        -2.7065   2.1419  -0.9759 C.ar           1 S1                 0.0000
      3 ****        -3.1933   3.4606  -1.1118 C.ar           1 S1                 0.0000
      4 ****        -3.3813   4.2987  -0.0711 N.ar           1 S1                 0.0000
      5 ****        -3.0884   3.8453   1.1649 C.ar           1 S1                 0.0000
      6 ****        -2.5977   2.5491   1.4157 C.ar           1 S1                 0.0000
      7 ****        -2.4015   1.6740   0.3267 C.ar           1 S1                 0.0000
      8 ****        -1.8663   0.2740   0.5830 C.3            1 S1                 0.0000
      9 ****        -0.3336   0.2193   0.5171 C.3            1 S1                 0.0000
     10 ****         0.1587  -1.1506   0.7728 N.4            1 S1                 1.0000
     11 ****         1.6283  -1.3153   0.7087 C.3            1 S1                 0.0000
     12 ****         2.1134  -1.3905  -0.7564 C.3            1 S1                 0.0000
     13 ****         3.6420  -1.5092  -0.8750 C.3            1 S1                 0.0000
     14 ****         4.1895  -2.7714  -0.1955 C.3            1 S1                 0.0000
     15 ****         3.8353  -2.7602   1.5818 S.3            1 S1                 0.0000
     16 ****         2.0334  -2.5756   1.4949 C.3            1 S1                 0.0000
     17 ****        -2.7102   1.8460  -3.1215 H              1 S1                 0.0000
     18 ****        -3.2357   0.4429  -2.1924 H              1 S1                 0.0000
     19 ****        -1.5197   0.8729  -2.2640 H              1 S1                 0.0000
     20 ****        -3.4403   3.8582  -2.0854 H              1 S1                 0.0000
     21 ****        -3.2479   4.5363   1.9794 H              1 S1                 0.0000
     22 ****        -2.3775   2.2380   2.4264 H              1 S1                 0.0000
     23 ****        -2.2044  -0.0549   1.5668 H              1 S1                 0.0000
     24 ****        -2.3028  -0.4266  -0.1291 H              1 S1                 0.0000
     25 ****         0.0048   0.5598  -0.4606 H              1 S1                 0.0000
     26 ****         0.0942   0.8972   1.2572 H              1 S1                 0.0000
     27 ****        -0.1382  -1.4043   1.7044 H              1 S1                 0.0000
     28 ****         2.0861  -0.4534   1.1972 H              1 S1                 0.0000
     29 ****         1.6432  -2.2370  -1.2589 H              1 S1                 0.0000
     30 ****         1.8001  -0.5022  -1.3041 H              1 S1                 0.0000
     31 ****         3.9197  -1.5222  -1.9295 H              1 S1                 0.0000
     32 ****         4.1160  -0.6251  -0.4467 H              1 S1                 0.0000
     33 ****         3.7517  -3.6652  -0.6415 H              1 S1                 0.0000
     34 ****         5.2685  -2.8390  -0.3367 H              1 S1                 0.0000
     35 ****         1.6499  -2.5275   2.5148 H              1 S1                 0.0000
     36 ****         1.6089  -3.4698   1.0367 H              1 S1                 0.0000
     37 ****        -0.2682  -1.7888   0.1167 H              1 S1                 0.0000
     38 ****        -3.7268   5.2265  -0.2118 LP             1 S1                 0.0000
@<TRIPOS>BOND
    1    1    2 1     
    2    1   17 1     
    3    1   18 1     
    4    1   19 1     
    5    2    7 ar    
    6    2    3 ar    
    7    3    4 ar    
    8    3   20 1     
    9    4    5 ar    
   10    5    6 ar    
   11    5   21 1     
   12    6    7 ar    
   13    6   22 1     
   14    7    8 1     
   15    8    9 1     
   16    8   23 1     
   17    8   24 1     
   18    9   10 1     
   19    9   25 1     
   20    9   26 1     
   21   10   11 1     
   22   10   27 1     
   23   10   37 1     
   24   11   16 1     
   25   11   12 1     
   26   11   28 1     
   27   12   13 1     
   28   12   29 1     
   29   12   30 1     
   30   13   14 1     
   31   13   31 1     
   32   13   32 1     
   33   14   15 1     
   34   14   33 1     
   35   14   34 1     
   36   15   16 1     
   37   16   35 1     
   38   16   36 1     
   39    4   38 1     
@<TRIPOS>SUBSTRUCTURE
      1 S1             1
@<TRIPOS>SET
LONE_PAIRS      STATIC     ATOMS    <user>   **** ""
1 38
DONOR_HYDROGENS      STATIC     ATOMS    <user>   **** ""
2 27 37
ATOM$BLUE        STATIC     ATOMS    COLORGROUP SYSTEM
1 38
ATOM$RED        STATIC     ATOMS    COLORGROUP SYSTEM
2 27 37
