AV-unprocessed.smi:279|AV-procd|sdf|2096|dock9
  -GOLD-   2262021383D 1   1.00000     0.00000
 Structure written by MMmdl.
 50 54  0  0  0  0  0  0  0  0  1 V2000
  155.6560  130.7639  159.1995 O   0  0  0  0  0  0  0  0  0  0  0  0
  154.8301  131.8339  159.7792 S   0  0  0  0  0  0  0  0  0  0  0  0
  153.5922  132.2748  159.1181 O   0  0  0  0  0  0  0  0  0  0  0  0
  154.4651  131.4435  161.5259 C   0  0  0  0  0  0  0  0  0  0  0  0
  154.4725  132.8035  162.2299 C   0  0  0  0  0  0  0  0  0  0  0  0
  155.6168  133.6616  161.6427 C   0  0  2  0  0  0  0  0  0  0  0  0
  155.3374  135.1730  161.6377 C   0  0  0  0  0  0  0  0  0  0  0  0
  155.7121  135.6499  160.3137 N   0  0  0  0  0  0  0  0  0  0  0  0
  155.3937  136.9182  159.9342 C   0  0  0  0  0  0  0  0  0  0  0  0
  156.4026  137.8081  159.7312 N   0  0  0  0  0  0  0  0  0  0  0  0
  156.1423  139.0626  159.3544 C   0  0  0  0  0  0  0  0  0  0  0  0
  154.9602  139.6375  159.1338 N   0  0  0  0  0  0  0  0  0  0  0  0
  153.9377  138.7627  159.3516 C   0  0  0  0  0  0  0  0  0  0  0  0
  154.0615  137.3978  159.7461 C   0  0  0  0  0  0  0  0  0  0  0  0
  152.7948  136.8338  159.8583 N   0  0  0  0  0  0  0  0  0  0  0  0
  151.9774  137.7987  159.5388 C   0  0  0  0  0  0  0  0  0  0  0  0
  152.5783  139.0005  159.2457 N   0  0  0  0  0  0  0  0  0  0  0  0
  151.9237  140.2039  158.8231 C   0  0  0  0  0  0  0  0  0  0  0  0
  150.4003  140.2718  158.6731 C   0  0  0  0  0  0  0  0  0  0  0  0
  150.5732  141.2758  157.5102 C   0  0  0  0  0  0  0  0  0  0  0  0
  149.6135  141.1200  156.3141 C   0  0  0  0  0  0  0  0  0  0  0  0
  149.8595  142.0652  155.2920 O   0  0  0  0  0  0  0  0  0  0  0  0
  150.5225  142.7536  157.9436 C   0  0  0  0  0  0  0  0  0  0  0  0
  149.1921  143.2004  158.1095 O   0  0  0  0  0  0  0  0  0  0  0  0
  151.9902  140.6734  157.3665 C   0  0  0  0  0  0  0  0  0  0  0  0
  155.5440  134.5520  159.3718 C   0  0  0  0  0  0  0  0  0  0  0  0
  155.8787  133.2920  160.1736 C   0  0  2  0  0  0  0  0  0  0  0  0
  156.5301  133.4621  162.2051 H   0  0  0  0  0  0  0  0  0  0  0  0
  156.9260  133.0178  160.0415 H   0  0  0  0  0  0  0  0  0  0  0  0
  153.5153  130.9150  161.6072 H   0  0  0  0  0  0  0  0  0  0  0  0
  155.2617  130.8041  161.9071 H   0  0  0  0  0  0  0  0  0  0  0  0
  153.5141  133.2862  162.0344 H   0  0  0  0  0  0  0  0  0  0  0  0
  154.5592  132.7000  163.3116 H   0  0  0  0  0  0  0  0  0  0  0  0
  154.2843  135.3923  161.8186 H   0  0  0  0  0  0  0  0  0  0  0  0
  155.9262  135.6624  162.4132 H   0  0  0  0  0  0  0  0  0  0  0  0
  157.0046  139.6969  159.2110 H   0  0  0  0  0  0  0  0  0  0  0  0
  150.9064  137.6585  159.5138 H   0  0  0  0  0  0  0  0  0  0  0  0
  152.2790  140.9871  159.4946 H   0  0  0  0  0  0  0  0  0  0  0  0
  149.9738  139.3139  158.3719 H   0  0  0  0  0  0  0  0  0  0  0  0
  149.8814  140.6673  159.5468 H   0  0  0  0  0  0  0  0  0  0  0  0
  149.6993  140.1251  155.8764 H   0  0  0  0  0  0  0  0  0  0  0  0
  148.5753  141.2381  156.6253 H   0  0  0  0  0  0  0  0  0  0  0  0
  149.2545  142.7838  155.3959 H   0  0  0  0  0  0  0  0  0  0  0  0
  151.0622  142.9065  158.8787 H   0  0  0  0  0  0  0  0  0  0  0  0
  151.0013  143.4002  157.2082 H   0  0  0  0  0  0  0  0  0  0  0  0
  148.8912  143.5588  157.2884 H   0  0  0  0  0  0  0  0  0  0  0  0
  152.7821  141.3951  157.1644 H   0  0  0  0  0  0  0  0  0  0  0  0
  152.0390  139.8396  156.6642 H   0  0  0  0  0  0  0  0  0  0  0  0
  154.5124  134.5487  159.0200 H   0  0  0  0  0  0  0  0  0  0  0  0
  156.2005  134.6540  158.5069 H   0  0  0  0  0  0  0  0  0  0  0  0
  1  2  2  0  0  0  0
  2 27  1  0  0  0  0
  2  3  2  0  0  0  0
  2  4  1  0  0  0  0
  4  5  1  0  0  0  0
  4 30  1  0  0  0  0
  4 31  1  0  0  0  0
  5  6  1  0  0  0  0
  5 32  1  0  0  0  0
  5 33  1  0  0  0  0
  6 28  1  0  0  0  0
  6 27  1  0  0  0  0
  6  7  1  0  0  0  0
  7  8  1  0  0  0  0
  7 34  1  0  0  0  0
  7 35  1  0  0  0  0
  8  9  1  0  0  0  0
  8 26  1  0  0  0  0
  9 14  1  0  0  0  0
  9 10  2  0  0  0  0
 10 11  1  0  0  0  0
 11 12  2  0  0  0  0
 11 36  1  0  0  0  0
 12 13  1  0  0  0  0
 13 17  1  0  0  0  0
 13 14  2  0  0  0  0
 14 15  1  0  0  0  0
 15 16  2  0  0  0  0
 16 17  1  0  0  0  0
 16 37  1  0  0  0  0
 17 18  1  0  0  0  0
 18 25  1  0  0  0  0
 18 19  1  0  0  0  0
 18 38  1  0  0  0  0
 19 20  1  0  0  0  0
 19 39  1  0  0  0  0
 19 40  1  0  0  0  0
 20 21  1  0  0  0  0
 20 23  1  0  0  0  0
 20 25  1  0  0  0  0
 21 22  1  0  0  0  0
 21 41  1  0  0  0  0
 21 42  1  0  0  0  0
 22 43  1  0  0  0  0
 23 24  1  0  0  0  0
 23 44  1  0  0  0  0
 23 45  1  0  0  0  0
 24 46  1  0  0  0  0
 25 47  1  0  0  0  0
 25 48  1  0  0  0  0
 26 27  1  0  0  0  0
 26 49  1  0  0  0  0
 26 50  1  0  0  0  0
 27 29  1  0  0  0  0
M  END
> <s_m_source_file>
AV-unprocessed.smi

> <i_m_source_file_index>
279

> <i_lp_mmshare_version>
43012

> <i_f3d_flags>
0

> <s_epik_input>
W0NIMl0xW0NIMl1TKD1PKSg9TylbQ0BASF0oW0NAQEhdMTIpW0NIMl1OKFtDSDJdMiljKG5bY0hdbjMpYyhjMzQpbltjSF1uNFtDSF0oW0NIMl01KVtDSDJdQzUoW0NIMl1bT0hdKVtDSDJdW09IXQ==

> <s_epik_cmdline>
J2VwaWtfcHl0aG9uJywgJy1waCcsICc3LjAnLCAnLXRuJywgJzgnLCAnLW1hJywgJzIwMCcsICctbWV0YWxfYmluZGluZycsICctaW1hZScsICc8aW5maWxlLm1hZT4nLCAnLW9tYWUnLCAnPG91dGZpbGUubWFlPic=

> <r_lp_tautomer_probability>
1

> <r_epik_Ionization_Penalty>
0.000990948

> <r_epik_Ionization_Penalty_Charging>
0

> <r_epik_Ionization_Penalty_Neutral>
0.000990948

> <r_epik_State_Penalty>
0.000515994

> <r_epik_Charging_Adjusted_Penalty>
0.000515994

> <i_epik_Tot_Q>
0

> <i_epik_Tot_abs_Q>
0

> <r_epik_Metal_State_Penalty>
-0

> <b_epik_Metal_Only>
0

> <s_lp_Force_Field>
OPLS_2005

> <r_lp_Energy>
55.7342

> <b_lp_Chiralities_Consistent>
1

> <s_lp_Variant>
AV-unprocessed.smi:279-2

> <Gold.Version>
5.8.1

> <Gold.Id.Protein>
6NUR|6NUR_protein|mol2

> <Gold.PLP.Fitness>
41.5780

> <Gold.PLP.PLP>
-26.9048

> <Gold.PLP.part.hbond>
-6.2327

> <Gold.PLP.part.metal>
0.0000

> <Gold.PLP.part.buried>
-3.2555

> <Gold.PLP.part.nonpolar>
-17.4222

> <Gold.PLP.part.repulsive>
0.0206

> <Gold.PLP.ligand.clash>
0.0000

> <Gold.PLP.ligand.torsion>
0.5420

> <Gold.PLP.Chemscore.Hbond>
5.0000

> <Gold.PLP.Chemscore.CHOScore>
0.0000

> <Gold.PLP.Chemscore.Metal>
0.0000

> <Gold.Chemscore.Hbonds>
donor molecule, donor type, donor heavy atom, donor atom, acceptor molecule, acceptor atom, score
      L1  H    22    43       P1  8028  1.00
      L1  H    24    46       P1  8028  1.00
      P1  H  6896  6908       L1    15  1.00
      P1  H  6896  6909       L1     3  1.00
      P1  H  7997  8009       L1    12  1.00

> <Gold.PLP.Chemscore.Internal.Correction>
0.7572

> <Gold.Rescore>
     Score         DG    S(hbond)    S(metal)    S(lipo)     H(rot)  DE(clash)    DE(int)     intcor
     15.13     -16.02       3.67        0.00      57.45       3.29       0.12       0.77       ----

> <Gold.Chemscore.Fitness>
15.1280

> <Gold.Chemscore.DG>
-16.0192

> <Gold.Chemscore.ZeroCoef>
-5.4800

> <Gold.Chemscore.Hbond>
3.6682

> <Gold.Chemscore.Metal>
0.0000

> <Gold.Chemscore.Lipo>
57.4458

> <Gold.Chemscore.Internal_Hbond>
0.0000

> <Gold.Chemscore.DEClash>
0.1204

> <Gold.Chemscore.DEInternal>
0.7707

> <Gold.Chemscore.Rot>
3.2944

> <Gold.Chemscore.Internal.Correction>
   9.000000E+99

> <Gold.Chemscore.Hbonds>
donor molecule, donor type, donor heavy atom, donor atom, acceptor molecule, acceptor atom, score
      L1  H    22    43       P1  8028  0.93
      L1  H    24    46       P1  8028  0.25
      P1  H  6896  6908       L1    15  0.72
      P1  H  6896  6909       L1     3  1.00
      P1  H  7997  8009       L1    12  0.22

> <Gold.Chemscore.Hbond.Weighted>
-12.2517

> <Gold.Chemscore.Metal.Weighted>
-0.0000

> <Gold.Chemscore.Lipo.Weighted>
-6.7212

> <Gold.Chemscore.Internal_Hbond.Weighted>
0.0000

> <Gold.Chemscore.DEClash.Weighted>
0.1204

> <Gold.Chemscore.DEInternal.Weighted>
0.7707

> <Gold.Chemscore.Rot.Weighted>
8.4337

> <Gold.Chemscore.Internal.Correction.Weighted>
   9.000000E+99

> <Gold.Protein.RotatedTorsions>
[ 6907 6896 6895 6894 ] final -108.99 input  -60.11 | X-H torsion
[ 7974 7965 7964 7962 ] final -109.58 input  175.53 | X-H torsion
[ 8008 7997 7996 7995 ] final  122.24 input   59.86 | X-H torsion
[ 10167 10162 10161 10158 ] final   63.64 input  -65.29 | X-H torsion
[ 10718 10713 10712 10709 ] final  -24.21 input   66.30 | X-H torsion
[ 10763 10752 10751 10750 ] final  -78.12 input  -60.55 | X-H torsion
[ 11005 11000 10999 10996 ] final   34.45 input  -57.11 | X-H torsion

> <Gold.Protein.ActiveResidues>
 VAL166  LYS551  ARG553  GLY616  TRP617  ASP618  TYR619  PRO620  LYS621  CYS622 
 ASP623  PHE694  ASN695  SER759  ASP760  ASP761  ALA762  ILE779  LEU786  VAL792 
 PHE793  MET794  SER795  GLU796  ALA797  LYS798  CYS799  TRP800  GLU811  SER814 

> <Gold.Protein.RotatedAtoms>
  150.7535  133.9595  159.3510 H   0  0  0  0  0  0  0  0  0  0  0  0  # atno 6907 bound_to 6896
  151.7520  135.0828  160.0341 H   0  0  0  0  0  0  0  0  0  0  0  0  # atno 6908 bound_to 6896
  152.3460  133.6085  159.5946 H   0  0  0  0  0  0  0  0  0  0  0  0  # atno 6909 bound_to 6896
  145.1788  140.8961  143.3492 H   0  0  0  0  0  0  0  0  0  0  0  0  # atno 7974 bound_to 7965
  156.2719  140.2790  156.1436 H   0  0  0  0  0  0  0  0  0  0  0  0  # atno 8008 bound_to 7997
  155.0927  140.0389  157.2691 H   0  0  0  0  0  0  0  0  0  0  0  0  # atno 8009 bound_to 7997
  154.6876  140.2622  155.6850 H   0  0  0  0  0  0  0  0  0  0  0  0  # atno 8010 bound_to 7997
  140.1308  144.4644  150.6866 H   0  0  0  0  0  0  0  0  0  0  0  0  # atno 10167 bound_to 10162
  156.4807  130.4544  149.6813 H   0  0  0  0  0  0  0  0  0  0  0  0  # atno 10718 bound_to 10713
  154.5218  135.5741  153.6687 H   0  0  0  0  0  0  0  0  0  0  0  0  # atno 10763 bound_to 10752
  152.9919  135.6183  154.2745 H   0  0  0  0  0  0  0  0  0  0  0  0  # atno 10764 bound_to 10752
  154.2666  135.2854  155.2735 H   0  0  0  0  0  0  0  0  0  0  0  0  # atno 10765 bound_to 10752
  140.2527  134.3284  155.7884 H   0  0  0  0  0  0  0  0  0  0  0  0  # atno 11005 bound_to 11000
  145.0157  139.3469  143.6097 LP  0  0  0  0  0  0  0  0  0  0  0  0  # atno 17320 bound_to 7965
  146.3456  139.9438  142.8737 LP  0  0  0  0  0  0  0  0  0  0  0  0  # atno 17321 bound_to 7965
  140.6818  143.2330  151.5365 LP  0  0  0  0  0  0  0  0  0  0  0  0  # atno 17342 bound_to 10162
  139.5520  144.2370  152.1547 LP  0  0  0  0  0  0  0  0  0  0  0  0  # atno 17343 bound_to 10162
  156.3525  130.7439  151.2400 LP  0  0  0  0  0  0  0  0  0  0  0  0  # atno 17370 bound_to 10713
  157.7483  131.0373  150.4450 LP  0  0  0  0  0  0  0  0  0  0  0  0  # atno 17371 bound_to 10713
  141.2199  133.7363  156.9063 LP  0  0  0  0  0  0  0  0  0  0  0  0  # atno 17394 bound_to 11000
  140.1542  134.9210  157.2631 LP  0  0  0  0  0  0  0  0  0  0  0  0  # atno 17395 bound_to 11000

$$$$
