#       Name:                AV-unprocessed.smi:442
#       Creating user name   scv26
#       Creation time:       Thu Mar 26 22:57:21 2020


#       File generated by GOLD software.
#

@<TRIPOS>MOLECULE
AV-unprocessed.smi:442
    45    45     1
SMALL
NO_CHARGES


@<TRIPOS>ATOM
      1 ****        -2.6117   1.1910  -2.9446 C.3            1 S1                 0.0000
      2 ****        -3.0566   0.6057  -1.5967 C.3            1 S1                 0.0000
      3 ****        -2.4958   1.3543  -0.3711 C.3            1 S1                 0.0000
      4 ****        -3.0818   0.8090   0.9385 C.3            1 S1                 0.0000
      5 ****        -1.0402   1.2430  -0.3168 N.am           1 S1                 0.0000
      6 ****        -0.1535   2.2086  -0.6166 C.2            1 S1                 0.0000
      7 ****        -0.4879   3.3279  -1.0023 O.2            1 S1                 0.0000
      8 ****         1.3448   1.8871  -0.4755 C.3            1 S1                 0.0000
      9 ****         1.6457   0.5449   0.0614 N.am           1 S1                 0.0000
     10 ****         1.8610  -0.4723  -0.8856 C.2            1 S1                 0.0000
     11 ****         2.1351  -1.7390  -0.5282 C.2            1 S1                 0.0000
     12 ****         2.3410  -2.7705  -1.5225 N.pl3          1 S1                 1.0000
     13 ****         2.5681  -3.9157  -1.1459 O.2            1 S1                 0.0000
     14 ****         2.2819  -2.4719  -2.7115 O.2            1 S1                -1.0000
     15 ****         2.2088  -2.0422   0.8861 C.2            1 S1                 0.0000
     16 ****         1.9977  -1.0782   1.8185 C.2            1 S1                 0.0000
     17 ****         2.0591  -1.3437   3.2735 C.2            1 S1                 0.0000
     18 ****         2.3318  -2.6153   3.5912 N.am           1 S1                 0.0000
     19 ****         1.8878  -0.5307   4.1816 O.2            1 S1                 0.0000
     20 ****         1.6865   0.3194   1.4121 C.2            1 S1                 0.0000
     21 ****         1.4650   1.2476   2.1941 O.2            1 S1                 0.0000
     22 ****        -3.0856   0.6611  -3.7708 H              1 S1                 0.0000
     23 ****        -1.5331   1.1121  -3.0808 H              1 S1                 0.0000
     24 ****        -2.8843   2.2435  -3.0252 H              1 S1                 0.0000
     25 ****        -4.1463   0.6252  -1.5572 H              1 S1                 0.0000
     26 ****        -2.7719  -0.4462  -1.5496 H              1 S1                 0.0000
     27 ****        -2.7891   2.4029  -0.4449 H              1 S1                 0.0000
     28 ****        -4.1687   0.8948   0.9485 H              1 S1                 0.0000
     29 ****        -2.7009   1.3612   1.7983 H              1 S1                 0.0000
     30 ****        -2.8295  -0.2426   1.0800 H              1 S1                 0.0000
     31 ****        -0.6725   0.3539  -0.0114 H              1 S1                 0.0000
     32 ****         1.8059   2.0096  -1.4566 H              1 S1                 0.0000
     33 ****         1.8073   2.6594   0.1415 H              1 S1                 0.0000
     34 ****         1.7770  -0.1508  -1.9139 H              1 S1                 0.0000
     35 ****         2.4354  -3.0576   1.1743 H              1 S1                 0.0000
     36 ****         2.3946  -2.8949   4.5591 H              1 S1                 0.0000
     37 ****         2.4743  -3.2931   2.8563 H              1 S1                 0.0000
     38 ****        -1.4569   3.5525  -1.1050 LP             1 S1                 0.0000
     39 ****         0.2093   4.0131  -1.2131 LP             1 S1                 0.0000
     40 ****         2.6081  -4.1219  -0.1682 LP             1 S1                 0.0000
     41 ****         2.7133  -4.6431  -1.8166 LP             1 S1                 0.0000
     42 ****         1.6827   0.4240   3.9659 LP             1 S1                 0.0000
     43 ****         1.9538  -0.8249   5.1351 LP             1 S1                 0.0000
     44 ****         1.2568   2.1598   1.8412 LP             1 S1                 0.0000
     45 ****         1.4937   1.0877   3.1808 LP             1 S1                 0.0000
@<TRIPOS>BOND
    1    1    2 1     
    2    1   22 1     
    3    1   23 1     
    4    1   24 1     
    5    2    3 1     
    6    2   25 1     
    7    2   26 1     
    8    3    4 1     
    9    3    5 1     
   10    3   27 1     
   11    4   28 1     
   12    4   29 1     
   13    4   30 1     
   14    5    6 am    
   15    5   31 1     
   16    6    7 2     
   17    6    8 1     
   18    8    9 1     
   19    8   32 1     
   20    8   33 1     
   21    9   20 am    
   22    9   10 1     
   23   10   11 2     
   24   10   34 1     
   25   11   12 1     
   26   11   15 1     
   27   12   13 2     
   28   12   14 1     
   29   15   16 2     
   30   15   35 1     
   31   16   17 1     
   32   16   20 1     
   33   17   18 am    
   34   17   19 2     
   35   18   36 1     
   36   18   37 1     
   37   20   21 2     
   38    7   38 1     
   39    7   39 1     
   40   13   40 1     
   41   13   41 1     
   42   19   42 1     
   43   19   43 1     
   44   21   44 1     
   45   21   45 1     
@<TRIPOS>SUBSTRUCTURE
      1 S1             1
@<TRIPOS>SET
LONE_PAIRS      STATIC     ATOMS    <user>   **** ""
9 38 39 40 41 14 42 43 44 45
DONOR_HYDROGENS      STATIC     ATOMS    <user>   **** ""
3 31 36 37
ATOM$BLUE        STATIC     ATOMS    COLORGROUP SYSTEM
9 38 39 40 41 14 42 43 44 45
ATOM$RED        STATIC     ATOMS    COLORGROUP SYSTEM
3 31 36 37
