AV-unprocessed.smi:1726|AV-procd|sdf|6960|dock6
  -GOLD-   22720 8173D 1   1.00000     0.00000
 Structure written by MMmdl.
 43 44  0  0  0  0  0  0  0  0  2 V2000
  146.6001  133.8106  152.7980 C   0  0  0  0  0  0  0  0  0  0  0  0
  146.6602  134.8334  153.9416 C   0  0  0  0  0  0  0  0  0  0  0  0
  148.0407  135.3109  154.2092 N   0  3  2  0  0  0  0  0  0  0  0  0
  148.9307  134.2138  154.6712 C   0  0  0  0  0  0  0  0  0  0  0  0
  150.3833  134.6964  154.8157 C   0  0  0  0  0  0  0  0  0  0  0  0
  150.4724  135.9036  155.7577 C   0  0  0  0  0  0  0  0  0  0  0  0
  149.5292  137.0165  155.2755 C   0  0  2  0  0  0  0  0  0  0  0  0
  149.5733  138.1423  156.2046 N   0  0  0  0  0  0  0  0  0  0  0  0
  150.6918  138.7479  156.6296 C   0  0  0  0  0  0  0  0  0  0  0  0
  151.8177  138.4136  156.2611 O   0  0  0  0  0  0  0  0  0  0  0  0
  150.4041  139.7564  157.4730 N   0  0  0  0  0  0  0  0  0  0  0  0
  151.2774  140.6226  158.1529 C   0  0  0  0  0  0  0  0  0  0  0  0
  151.1027  141.9648  158.2737 C   0  0  0  0  0  0  0  0  0  0  0  0
  152.0512  142.8054  158.9857 C   0  0  0  0  0  0  0  0  0  0  0  0
  151.8758  144.3139  159.0694 C   0  0  0  0  0  0  0  0  0  0  0  0
  150.6915  144.6895  158.5844 F   0  0  0  0  0  0  0  0  0  0  0  0
  151.9656  144.7391  160.3298 F   0  0  0  0  0  0  0  0  0  0  0  0
  152.8260  144.9198  158.3587 F   0  0  0  0  0  0  0  0  0  0  0  0
  153.1338  142.1895  159.4956 C   0  0  0  0  0  0  0  0  0  0  0  0
  153.3210  140.8108  159.3758 N   0  0  0  0  0  0  0  0  0  0  0  0
  152.4671  139.9806  158.7360 C   0  0  0  0  0  0  0  0  0  0  0  0
  152.7055  138.7753  158.6687 O   0  0  0  0  0  0  0  0  0  0  0  0
  148.0897  136.4776  155.1305 C   0  0  0  0  0  0  0  0  0  0  0  0
  154.1543  140.4229  159.7943 H   0  0  0  0  0  0  0  0  0  0  0  0
  145.5924  133.4061  152.6999 H   0  0  0  0  0  0  0  0  0  0  0  0
  147.2740  132.9735  152.9819 H   0  0  0  0  0  0  0  0  0  0  0  0
  146.8636  134.2518  151.8371 H   0  0  0  0  0  0  0  0  0  0  0  0
  146.0032  135.6800  153.7368 H   0  0  0  0  0  0  0  0  0  0  0  0
  146.2685  134.3494  154.8374 H   0  0  0  0  0  0  0  0  0  0  0  0
  148.5660  133.8246  155.6232 H   0  0  0  0  0  0  0  0  0  0  0  0
  148.9001  133.3883  153.9589 H   0  0  0  0  0  0  0  0  0  0  0  0
  151.0092  133.8857  155.1899 H   0  0  0  0  0  0  0  0  0  0  0  0
  150.7792  134.9656  153.8356 H   0  0  0  0  0  0  0  0  0  0  0  0
  150.2055  135.5980  156.7704 H   0  0  0  0  0  0  0  0  0  0  0  0
  151.4998  136.2673  155.8001 H   0  0  0  0  0  0  0  0  0  0  0  0
  149.8791  137.3570  154.2986 H   0  0  0  0  0  0  0  0  0  0  0  0
  148.6880  138.4819  156.5527 H   0  0  0  0  0  0  0  0  0  0  0  0
  149.4246  139.9525  157.6211 H   0  0  0  0  0  0  0  0  0  0  0  0
  150.2531  142.4560  157.8288 H   0  0  0  0  0  0  0  0  0  0  0  0
  153.9292  142.6958  160.0226 H   0  0  0  0  0  0  0  0  0  0  0  0
  147.4461  137.2720  154.7541 H   0  0  0  0  0  0  0  0  0  0  0  0
  147.6936  136.1875  156.1054 H   0  0  0  0  0  0  0  0  0  0  0  0
  148.4128  135.6206  153.3227 H   0  0  0  0  0  0  0  0  0  0  0  0
  1  2  1  0  0  0  0
  1 25  1  0  0  0  0
  1 26  1  0  0  0  0
  1 27  1  0  0  0  0
  2  3  1  0  0  0  0
  2 28  1  0  0  0  0
  2 29  1  0  0  0  0
  3 23  1  0  0  0  0
  3  4  1  0  0  0  0
  3 43  1  0  0  0  0
  4  5  1  0  0  0  0
  4 30  1  0  0  0  0
  4 31  1  0  0  0  0
  5  6  1  0  0  0  0
  5 32  1  0  0  0  0
  5 33  1  0  0  0  0
  6  7  1  0  0  0  0
  6 34  1  0  0  0  0
  6 35  1  0  0  0  0
  7  8  1  0  0  0  0
  7 23  1  0  0  0  0
  7 36  1  0  0  0  0
  8  9  1  0  0  0  0
  8 37  1  0  0  0  0
  9 10  2  0  0  0  0
  9 11  1  0  0  0  0
 11 12  1  0  0  0  0
 11 38  1  0  0  0  0
 12 21  1  0  0  0  0
 12 13  2  0  0  0  0
 13 14  1  0  0  0  0
 13 39  1  0  0  0  0
 14 15  1  0  0  0  0
 14 19  2  0  0  0  0
 15 16  1  0  0  0  0
 15 17  1  0  0  0  0
 15 18  1  0  0  0  0
 19 20  1  0  0  0  0
 19 40  1  0  0  0  0
 20 24  1  0  0  0  0
 20 21  1  0  0  0  0
 21 22  2  0  0  0  0
 23 41  1  0  0  0  0
 23 42  1  0  0  0  0
M  CHG  1   3   1
M  END
> <s_m_source_file>
AV-unprocessed.smi

> <i_m_source_file_index>
1726

> <i_lp_mmshare_version>
43012

> <i_f3d_flags>
0

> <s_epik_input>
W0NIM11bQ0gyXU4xW0NIMl1bQ0gyXVtDSDJdW0NASF0oW0NIMl0xKVtOSF1DKD1PKVtOSF1jMltjSF1jKEMoRikoRilGKVtjSF1bbkhdYzI9Tw==

> <s_epik_cmdline>
J2VwaWtfcHl0aG9uJywgJy1waCcsICc3LjAnLCAnLXRuJywgJzgnLCAnLW1hJywgJzIwMCcsICctbWV0YWxfYmluZGluZycsICctaW1hZScsICc8aW5maWxlLm1hZT4nLCAnLW9tYWUnLCAnPG91dGZpbGUubWFlPic=

> <r_lp_tautomer_probability>
1

> <r_epik_Ionization_Penalty>
0.00745721

> <r_epik_Ionization_Penalty_Charging>
0.00743804

> <r_epik_Ionization_Penalty_Neutral>
1.91703e-05

> <r_epik_State_Penalty>
-0

> <r_epik_Charging_Adjusted_Penalty>
0.00743804

> <i_epik_Tot_Q>
1

> <i_epik_Tot_abs_Q>
1

> <r_epik_Metal_State_Penalty>
0.37929

> <b_epik_Metal_Only>
0

> <s_lp_Force_Field>
OPLS_2005

> <r_lp_Energy>
26.6941

> <b_lp_Chiralities_Consistent>
1

> <s_lp_Variant>
AV-unprocessed.smi:1726-4

> <Gold.Version>
5.8.1

> <Gold.Id.Protein>
6NUR|6NUR_protein|mol2

> <Gold.PLP.Fitness>
42.5690

> <Gold.PLP.PLP>
-37.6657

> <Gold.PLP.part.hbond>
-1.0000

> <Gold.PLP.part.metal>
0.0000

> <Gold.PLP.part.buried>
-6.4292

> <Gold.PLP.part.nonpolar>
-30.3432

> <Gold.PLP.part.repulsive>
0.1330

> <Gold.PLP.ligand.clash>
0.0000

> <Gold.PLP.ligand.torsion>
0.5761

> <Gold.PLP.Chemscore.Hbond>
2.0000

> <Gold.PLP.Chemscore.CHOScore>
0.0000

> <Gold.PLP.Chemscore.Metal>
0.0000

> <Gold.Chemscore.Hbonds>
donor molecule, donor type, donor heavy atom, donor atom, acceptor molecule, acceptor atom, score
      L1  H     3    43       P1  7948  2.00

> <Gold.PLP.Chemscore.Internal.Correction>
0.0556

> <Gold.Rescore>
     Score         DG    S(hbond)    S(metal)    S(lipo)     H(rot)  DE(clash)    DE(int)     intcor
      9.90     -14.14       1.00        0.00      73.71       1.29       0.09       4.15       ----

> <Gold.Chemscore.Fitness>
9.9002

> <Gold.Chemscore.DG>
-14.1410

> <Gold.Chemscore.ZeroCoef>
-5.4800

> <Gold.Chemscore.Hbond>
0.9984

> <Gold.Chemscore.Metal>
0.0000

> <Gold.Chemscore.Lipo>
73.7144

> <Gold.Chemscore.Internal_Hbond>
0.0000

> <Gold.Chemscore.DEClash>
0.0885

> <Gold.Chemscore.DEInternal>
4.1523

> <Gold.Chemscore.Rot>
1.2884

> <Gold.Chemscore.Internal.Correction>
   9.000000E+99

> <Gold.Chemscore.Hbonds>
donor molecule, donor type, donor heavy atom, donor atom, acceptor molecule, acceptor atom, score
      L1  H     3    43       P1  7948  1.00

> <Gold.Chemscore.Hbond.Weighted>
-3.3348

> <Gold.Chemscore.Metal.Weighted>
-0.0000

> <Gold.Chemscore.Lipo.Weighted>
-8.6246

> <Gold.Chemscore.Internal_Hbond.Weighted>
0.0000

> <Gold.Chemscore.DEClash.Weighted>
0.0885

> <Gold.Chemscore.DEInternal.Weighted>
4.1523

> <Gold.Chemscore.Rot.Weighted>
3.2983

> <Gold.Chemscore.Internal.Correction.Weighted>
   9.000000E+99

> <Gold.Protein.RotatedTorsions>
[ 6907 6896 6895 6894 ] final   16.62 input  -60.11 | X-H torsion
[ 7974 7965 7964 7962 ] final   59.37 input  175.53 | X-H torsion
[ 8008 7997 7996 7995 ] final    5.26 input   59.86 | X-H torsion
[ 10167 10162 10161 10158 ] final -139.66 input  -65.29 | X-H torsion
[ 10718 10713 10712 10709 ] final -143.22 input   66.30 | X-H torsion
[ 10763 10752 10751 10750 ] final -170.28 input  -60.55 | X-H torsion
[ 11005 11000 10999 10996 ] final  -97.10 input  -57.11 | X-H torsion

> <Gold.Protein.ActiveResidues>
 VAL166  LYS551  ARG553  GLY616  TRP617  ASP618  TYR619  PRO620  LYS621  CYS622 
 ASP623  PHE694  ASN695  SER759  ASP760  ASP761  ALA762  ILE779  LEU786  VAL792 
 PHE793  MET794  SER795  GLU796  ALA797  LYS798  CYS799  TRP800  GLU811  SER814 

> <Gold.Protein.RotatedAtoms>
  151.8367  135.0603  160.0443 H   0  0  0  0  0  0  0  0  0  0  0  0  # atno 6907 bound_to 6896
  152.2840  133.5492  159.5523 H   0  0  0  0  0  0  0  0  0  0  0  0  # atno 6908 bound_to 6896
  150.7201  134.0440  159.3818 H   0  0  0  0  0  0  0  0  0  0  0  0  # atno 6909 bound_to 6896
  145.9079  139.3631  143.0553 H   0  0  0  0  0  0  0  0  0  0  0  0  # atno 7974 bound_to 7965
  154.7262  140.2721  155.6497 H   0  0  0  0  0  0  0  0  0  0  0  0  # atno 8008 bound_to 7997
  156.2837  140.2724  156.1874 H   0  0  0  0  0  0  0  0  0  0  0  0  # atno 8009 bound_to 7997
  155.0442  140.0371  157.2510 H   0  0  0  0  0  0  0  0  0  0  0  0  # atno 8010 bound_to 7997
  139.8358  143.7387  152.2665 H   0  0  0  0  0  0  0  0  0  0  0  0  # atno 10167 bound_to 10162
  156.3553  130.7710  151.1869 H   0  0  0  0  0  0  0  0  0  0  0  0  # atno 10718 bound_to 10713
  154.6432  135.2901  155.0078 H   0  0  0  0  0  0  0  0  0  0  0  0  # atno 10763 bound_to 10752
  154.1197  135.6550  153.4904 H   0  0  0  0  0  0  0  0  0  0  0  0  # atno 10764 bound_to 10752
  153.0337  135.5285  154.7308 H   0  0  0  0  0  0  0  0  0  0  0  0  # atno 10765 bound_to 10752
  141.1390  133.8146  157.0661 H   0  0  0  0  0  0  0  0  0  0  0  0  # atno 11005 bound_to 11000
  145.8709  140.9420  143.0651 LP  0  0  0  0  0  0  0  0  0  0  0  0  # atno 17320 bound_to 7965
  144.6741  140.0653  143.7475 LP  0  0  0  0  0  0  0  0  0  0  0  0  # atno 17321 bound_to 7965
  139.7609  144.7507  151.0366 LP  0  0  0  0  0  0  0  0  0  0  0  0  # atno 17342 bound_to 10162
  140.7803  143.4752  151.0091 LP  0  0  0  0  0  0  0  0  0  0  0  0  # atno 17343 bound_to 10162
  157.7466  131.0415  150.4652 LP  0  0  0  0  0  0  0  0  0  0  0  0  # atno 17370 bound_to 10713
  156.4854  130.4083  149.6437 LP  0  0  0  0  0  0  0  0  0  0  0  0  # atno 17371 bound_to 10713
  140.0541  134.9790  157.1188 LP  0  0  0  0  0  0  0  0  0  0  0  0  # atno 17394 bound_to 11000
  140.3946  134.2148  155.7165 LP  0  0  0  0  0  0  0  0  0  0  0  0  # atno 17395 bound_to 11000

$$$$
