AV-unprocessed.smi:1005|AV-procd|sdf|4386|dock2
  -GOLD-   22720 2313D 1   1.00000     0.00000
 Structure written by MMmdl.
 55 57  0  0  0  0  0  0  0  0  1 V2000
  153.5781  142.3939  161.2915 C   0  0  0  0  0  0  0  0  0  0  0  0
  152.8044  142.1238  160.0128 C   0  0  0  0  0  0  0  0  0  0  0  0
  152.7770  140.8110  159.4905 C   0  0  0  0  0  0  0  0  0  0  0  0
  152.0704  140.5183  158.3035 C   0  0  0  0  0  0  0  0  0  0  0  0
  151.9104  139.3224  157.6247 N   0  0  0  0  0  0  0  0  0  0  0  0
  151.1499  139.6960  156.6000 C   0  0  0  0  0  0  0  0  0  0  0  0
  150.8043  140.9963  156.5295 N   0  0  0  0  0  0  0  0  0  0  0  0
  149.9882  141.6335  155.5109 C   0  0  0  0  0  0  0  0  0  0  0  0
  149.3432  140.6210  154.5428 C   0  0  2  0  0  0  0  0  0  0  0  0
  149.4620  141.1579  153.2409 O   0  0  0  0  0  0  0  0  0  0  0  0
  147.8516  140.3378  154.8383 C   0  0  0  0  0  0  0  0  0  0  0  0
  147.0378  141.5227  155.1066 N   0  0  0  0  0  0  0  0  0  0  0  0
  146.6921  142.2121  153.8687 C   0  0  0  0  0  0  0  0  0  0  0  0
  145.8453  143.4691  154.1282 C   0  0  0  0  0  0  0  0  0  0  0  0
  144.6668  143.1135  154.8437 O   0  0  0  0  0  0  0  0  0  0  0  0
  144.9398  142.4550  156.0784 C   0  0  1  0  0  0  0  0  0  0  0  0
  143.6299  142.1497  156.8360 C   0  0  0  0  0  0  0  0  0  0  0  0
  142.6637  143.2455  156.9627 N   0  0  0  0  0  0  0  0  0  0  0  0
  142.0200  143.5846  155.6992 C   0  0  0  0  0  0  0  0  0  0  0  0
  143.3019  144.4250  157.5303 C   0  0  0  0  0  0  0  0  0  0  0  0
  145.8101  141.2044  155.8316 C   0  0  0  0  0  0  0  0  0  0  0  0
  151.3874  141.5836  157.6471 C   0  0  0  0  0  0  0  0  0  0  0  0
  151.4048  142.8933  158.1586 C   0  0  0  0  0  0  0  0  0  0  0  0
  152.1160  143.1685  159.3453 C   0  0  0  0  0  0  0  0  0  0  0  0
  152.1319  144.5868  159.8875 C   0  0  0  0  0  0  0  0  0  0  0  0
  154.0345  141.4833  161.6806 H   0  0  0  0  0  0  0  0  0  0  0  0
  152.9170  142.7915  162.0616 H   0  0  0  0  0  0  0  0  0  0  0  0
  154.3742  143.1165  161.1104 H   0  0  0  0  0  0  0  0  0  0  0  0
  153.3005  140.0147  159.9990 H   0  0  0  0  0  0  0  0  0  0  0  0
  150.8305  138.9842  155.8529 H   0  0  0  0  0  0  0  0  0  0  0  0
  149.2204  142.2332  156.0022 H   0  0  0  0  0  0  0  0  0  0  0  0
  150.6238  142.3288  154.9606 H   0  0  0  0  0  0  0  0  0  0  0  0
  149.9121  139.6911  154.5806 H   0  0  0  0  0  0  0  0  0  0  0  0
  149.3346  140.4612  152.6153 H   0  0  0  0  0  0  0  0  0  0  0  0
  147.4211  139.8419  153.9693 H   0  0  0  0  0  0  0  0  0  0  0  0
  147.7539  139.6160  155.6508 H   0  0  0  0  0  0  0  0  0  0  0  0
  147.6008  142.4965  153.3369 H   0  0  0  0  0  0  0  0  0  0  0  0
  146.1434  141.5374  153.2098 H   0  0  0  0  0  0  0  0  0  0  0  0
  146.4145  144.2078  154.6945 H   0  0  0  0  0  0  0  0  0  0  0  0
  145.5623  143.9374  153.1854 H   0  0  0  0  0  0  0  0  0  0  0  0
  145.5095  143.1532  156.6946 H   0  0  0  0  0  0  0  0  0  0  0  0
  143.1456  141.3293  156.3044 H   0  0  0  0  0  0  0  0  0  0  0  0
  143.8705  141.7549  157.8241 H   0  0  0  0  0  0  0  0  0  0  0  0
  141.3607  144.4445  155.8209 H   0  0  0  0  0  0  0  0  0  0  0  0
  141.4022  142.7645  155.3367 H   0  0  0  0  0  0  0  0  0  0  0  0
  142.7569  143.8290  154.9332 H   0  0  0  0  0  0  0  0  0  0  0  0
  142.5775  145.2273  157.6735 H   0  0  0  0  0  0  0  0  0  0  0  0
  144.0950  144.7951  156.8794 H   0  0  0  0  0  0  0  0  0  0  0  0
  143.7384  144.1995  158.5038 H   0  0  0  0  0  0  0  0  0  0  0  0
  145.2389  140.4632  155.2709 H   0  0  0  0  0  0  0  0  0  0  0  0
  146.0499  140.7511  156.7932 H   0  0  0  0  0  0  0  0  0  0  0  0
  150.8763  143.6796  157.6401 H   0  0  0  0  0  0  0  0  0  0  0  0
  151.5378  145.2572  159.2656 H   0  0  0  0  0  0  0  0  0  0  0  0
  153.1511  144.9725  159.9170 H   0  0  0  0  0  0  0  0  0  0  0  0
  151.7204  144.6155  160.8968 H   0  0  0  0  0  0  0  0  0  0  0  0
  1  2  1  0  0  0  0
  1 26  1  0  0  0  0
  1 27  1  0  0  0  0
  1 28  1  0  0  0  0
  2 24  1  0  0  0  0
  2  3  2  0  0  0  0
  3  4  1  0  0  0  0
  3 29  1  0  0  0  0
  4 22  2  0  0  0  0
  4  5  1  0  0  0  0
  5  6  2  0  0  0  0
  6  7  1  0  0  0  0
  6 30  1  0  0  0  0
  7  8  1  0  0  0  0
  7 22  1  0  0  0  0
  8  9  1  0  0  0  0
  8 31  1  0  0  0  0
  8 32  1  0  0  0  0
  9 10  1  0  0  0  0
  9 11  1  0  0  0  0
  9 33  1  0  0  0  0
 10 34  1  0  0  0  0
 11 12  1  0  0  0  0
 11 35  1  0  0  0  0
 11 36  1  0  0  0  0
 12 21  1  0  0  0  0
 12 13  1  0  0  0  0
 13 14  1  0  0  0  0
 13 37  1  0  0  0  0
 13 38  1  0  0  0  0
 14 15  1  0  0  0  0
 14 39  1  0  0  0  0
 14 40  1  0  0  0  0
 15 16  1  0  0  0  0
 16 17  1  0  0  0  0
 16 21  1  0  0  0  0
 16 41  1  0  0  0  0
 17 18  1  0  0  0  0
 17 42  1  0  0  0  0
 17 43  1  0  0  0  0
 18 19  1  0  0  0  0
 18 20  1  0  0  0  0
 19 44  1  0  0  0  0
 19 45  1  0  0  0  0
 19 46  1  0  0  0  0
 20 47  1  0  0  0  0
 20 48  1  0  0  0  0
 20 49  1  0  0  0  0
 21 50  1  0  0  0  0
 21 51  1  0  0  0  0
 22 23  1  0  0  0  0
 23 24  2  0  0  0  0
 23 52  1  0  0  0  0
 24 25  1  0  0  0  0
 25 53  1  0  0  0  0
 25 54  1  0  0  0  0
 25 55  1  0  0  0  0
M  END
> <s_m_source_file>
AV-unprocessed.smi

> <i_m_source_file_index>
1005

> <i_lp_mmshare_version>
43012

> <i_f3d_flags>
0

> <s_epik_input>
W0NIM11jKFtjSF0xKWMoW0NIM10pW2NIXWMoYzEyKW4oW2NIXW4yKVtDSDJdW0NASF0oW09IXSlbQ0gyXU4zW0NIMl1bQ0gyXU9bQ0BIXShbQ0gyXTMpW0NIMl1OKFtDSDNdKVtDSDNd

> <s_epik_cmdline>
J2VwaWtfcHl0aG9uJywgJy1waCcsICc3LjAnLCAnLXRuJywgJzgnLCAnLW1hJywgJzIwMCcsICctbWV0YWxfYmluZGluZycsICctaW1hZScsICc8aW5maWxlLm1hZT4nLCAnLW9tYWUnLCAnPG91dGZpbGUubWFlPic=

> <r_epik_Ionization_Penalty>
2.78613

> <r_epik_Ionization_Penalty_Charging>
0

> <r_epik_Ionization_Penalty_Neutral>
2.78613

> <r_epik_State_Penalty>
2.57336

> <r_epik_Charging_Adjusted_Penalty>
2.57336

> <i_epik_Tot_Q>
0

> <i_epik_Tot_abs_Q>
0

> <r_epik_Metal_State_Penalty>
2.49087

> <b_epik_Metal_Only>
0

> <s_lp_Force_Field>
OPLS_2005

> <r_lp_Energy>
41.5619

> <b_lp_Chiralities_Consistent>
1

> <s_lp_Variant>
AV-unprocessed.smi:1005-25

> <Gold.Version>
5.8.1

> <Gold.Id.Protein>
6NUR|6NUR_protein|mol2

> <Gold.PLP.Fitness>
51.2245

> <Gold.PLP.PLP>
-47.2352

> <Gold.PLP.part.hbond>
-2.3689

> <Gold.PLP.part.metal>
0.0000

> <Gold.PLP.part.buried>
-7.2987

> <Gold.PLP.part.nonpolar>
-37.9342

> <Gold.PLP.part.repulsive>
0.3092

> <Gold.PLP.ligand.clash>
0.0000

> <Gold.PLP.ligand.torsion>
1.0366

> <Gold.PLP.Chemscore.Hbond>
1.8647

> <Gold.PLP.Chemscore.CHOScore>
0.0000

> <Gold.PLP.Chemscore.Metal>
0.0000

> <Gold.Chemscore.Hbonds>
donor molecule, donor type, donor heavy atom, donor atom, acceptor molecule, acceptor atom, score
      L1  H    10    34       P1  7957  0.85
      P1  H  7989  7998       L1    10  0.02
      P1  H  8011  8017       L1    10  1.00

> <Gold.PLP.Chemscore.Internal.Correction>
0.4683

> <Gold.Rescore>
     Score         DG    S(hbond)    S(metal)    S(lipo)     H(rot)  DE(clash)    DE(int)     intcor
     16.23     -18.30       1.37        0.00     120.59       2.29       0.00       2.07       ----

> <Gold.Chemscore.Fitness>
16.2301

> <Gold.Chemscore.DG>
-18.3035

> <Gold.Chemscore.ZeroCoef>
-5.4800

> <Gold.Chemscore.Hbond>
1.3700

> <Gold.Chemscore.Metal>
0.0000

> <Gold.Chemscore.Lipo>
120.5871

> <Gold.Chemscore.Internal_Hbond>
0.0000

> <Gold.Chemscore.DEClash>
0.0009

> <Gold.Chemscore.DEInternal>
2.0725

> <Gold.Chemscore.Rot>
2.2895

> <Gold.Chemscore.Internal.Correction>
   9.000000E+99

> <Gold.Chemscore.Hbonds>
donor molecule, donor type, donor heavy atom, donor atom, acceptor molecule, acceptor atom, score
      L1  H    10    34       P1  7957  0.79
      P1  H  8011  8017       L1    10  0.38

> <Gold.Chemscore.Hbond.Weighted>
-4.5760

> <Gold.Chemscore.Metal.Weighted>
-0.0000

> <Gold.Chemscore.Lipo.Weighted>
-14.1087

> <Gold.Chemscore.Internal_Hbond.Weighted>
0.0000

> <Gold.Chemscore.DEClash.Weighted>
0.0009

> <Gold.Chemscore.DEInternal.Weighted>
2.0725

> <Gold.Chemscore.Rot.Weighted>
5.8612

> <Gold.Chemscore.Internal.Correction.Weighted>
   9.000000E+99

> <Gold.Protein.RotatedTorsions>
[ 6907 6896 6895 6894 ] final  -74.30 input  -60.11 | X-H torsion
[ 7974 7965 7964 7962 ] final -168.31 input  175.53 | X-H torsion
[ 8008 7997 7996 7995 ] final  103.49 input   59.86 | X-H torsion
[ 10167 10162 10161 10158 ] final  179.82 input  -65.29 | X-H torsion
[ 10718 10713 10712 10709 ] final  130.78 input   66.30 | X-H torsion
[ 10763 10752 10751 10750 ] final  163.52 input  -60.55 | X-H torsion
[ 11005 11000 10999 10996 ] final -103.20 input  -57.11 | X-H torsion

> <Gold.Protein.ActiveResidues>
 VAL166  LYS551  ARG553  GLY616  TRP617  ASP618  TYR619  PRO620  LYS621  CYS622 
 ASP623  PHE694  ASN695  SER759  ASP760  ASP761  ALA762  ILE779  LEU786  VAL792 
 PHE793  MET794  SER795  GLU796  ALA797  LYS798  CYS799  TRP800  GLU811  SER814 

> <Gold.Protein.RotatedAtoms>
  150.7098  134.4889  159.5505 H   0  0  0  0  0  0  0  0  0  0  0  0  # atno 6907 bound_to 6896
  152.2511  134.8129  160.0455 H   0  0  0  0  0  0  0  0  0  0  0  0  # atno 6908 bound_to 6896
  151.8876  133.3474  159.3824 H   0  0  0  0  0  0  0  0  0  0  0  0  # atno 6909 bound_to 6896
  144.7205  140.2389  143.6294 H   0  0  0  0  0  0  0  0  0  0  0  0  # atno 7974 bound_to 7965
  156.1489  140.3164  155.8615 H   0  0  0  0  0  0  0  0  0  0  0  0  # atno 8008 bound_to 7997
  155.4010  140.0499  157.3054 H   0  0  0  0  0  0  0  0  0  0  0  0  # atno 8009 bound_to 7997
  154.5040  140.2140  155.9299 H   0  0  0  0  0  0  0  0  0  0  0  0  # atno 8010 bound_to 7997
  139.5353  144.2515  152.0780 H   0  0  0  0  0  0  0  0  0  0  0  0  # atno 10167 bound_to 10162
  157.5029  131.1095  150.9401 H   0  0  0  0  0  0  0  0  0  0  0  0  # atno 10718 bound_to 10713
  154.2950  135.2760  155.2637 H   0  0  0  0  0  0  0  0  0  0  0  0  # atno 10763 bound_to 10752
  154.5099  135.5785  153.6600 H   0  0  0  0  0  0  0  0  0  0  0  0  # atno 10764 bound_to 10752
  152.9908  135.6178  154.3117 H   0  0  0  0  0  0  0  0  0  0  0  0  # atno 10765 bound_to 10752
  141.1156  133.8620  157.1456 H   0  0  0  0  0  0  0  0  0  0  0  0  # atno 11005 bound_to 11000
  145.8338  139.2098  143.1867 LP  0  0  0  0  0  0  0  0  0  0  0  0  # atno 17320 bound_to 7965
  146.0407  140.8168  142.9830 LP  0  0  0  0  0  0  0  0  0  0  0  0  # atno 17321 bound_to 7965
  140.1985  144.4681  150.6443 LP  0  0  0  0  0  0  0  0  0  0  0  0  # atno 17342 bound_to 10162
  140.6556  143.2236  151.5977 LP  0  0  0  0  0  0  0  0  0  0  0  0  # atno 17343 bound_to 10162
  157.0066  130.5620  149.5316 LP  0  0  0  0  0  0  0  0  0  0  0  0  # atno 17370 bound_to 10713
  156.0240  130.5335  150.8356 LP  0  0  0  0  0  0  0  0  0  0  0  0  # atno 17371 bound_to 10713
  140.0077  135.0001  157.0327 LP  0  0  0  0  0  0  0  0  0  0  0  0  # atno 17394 bound_to 11000
  140.4654  134.1441  155.7196 LP  0  0  0  0  0  0  0  0  0  0  0  0  # atno 17395 bound_to 11000

$$$$
