AV-unprocessed.smi:1275|AV-procd|sdf|5342|dock2
  -GOLD-   22720 4473D 1   1.00000     0.00000
 Structure written by MMmdl.
 42 43  0  0  0  0  0  0  0  0  1 V2000
  145.9162  137.2576  151.9296 C   0  0  0  0  0  0  0  0  0  0  0  0
  146.9658  138.0616  151.4210 O   0  0  0  0  0  0  0  0  0  0  0  0
  146.7339  139.4462  151.6196 C   0  0  0  0  0  0  0  0  0  0  0  0
  147.0641  139.8078  153.0706 C   0  0  0  0  0  0  0  0  0  0  0  0
  148.2695  139.1484  153.4466 O   0  0  0  0  0  0  0  0  0  0  0  0
  149.0731  139.7375  154.4008 C   0  0  0  0  0  0  0  0  0  0  0  0
  150.1976  139.0272  154.8658 C   0  0  0  0  0  0  0  0  0  0  0  0
  151.0275  139.6232  155.8345 C   0  0  0  0  0  0  0  0  0  0  0  0
  150.7087  140.9197  156.3035 C   0  0  0  0  0  0  0  0  0  0  0  0
  151.4555  141.6184  157.2899 N   0  0  0  0  0  0  0  0  0  0  0  0
  152.0192  141.1391  158.4162 C   0  0  0  0  0  0  0  0  0  0  0  0
  151.9419  139.9596  158.7615 O   0  0  0  0  0  0  0  0  0  0  0  0
  152.6806  142.0717  159.1477 N   0  0  0  0  0  0  0  0  0  0  0  0
  153.5659  141.8304  160.2965 C   0  0  0  0  0  0  0  0  0  0  0  0
  152.8651  142.3567  161.5616 C   0  0  0  0  0  0  0  0  0  0  0  0
  152.5663  143.7418  161.4034 O   0  0  0  0  0  0  0  0  0  0  0  0
  151.7374  144.0197  160.2756 C   0  0  1  0  0  0  0  0  0  0  0  0
  151.4775  145.5294  160.2318 C   0  0  0  0  0  0  0  0  0  0  0  0
  152.4370  143.5097  158.9992 C   0  0  0  0  0  0  0  0  0  0  0  0
  149.5504  141.5374  155.7889 C   0  0  0  0  0  0  0  0  0  0  0  0
  148.7521  140.9730  154.8586 N   0  0  0  0  0  0  0  0  0  0  0  0
  146.1430  136.2063  151.7544 H   0  0  0  0  0  0  0  0  0  0  0  0
  144.9706  137.4852  151.4360 H   0  0  0  0  0  0  0  0  0  0  0  0
  145.7942  137.4012  153.0040 H   0  0  0  0  0  0  0  0  0  0  0  0
  147.3298  140.0470  150.9308 H   0  0  0  0  0  0  0  0  0  0  0  0
  145.6837  139.6651  151.4214 H   0  0  0  0  0  0  0  0  0  0  0  0
  147.2040  140.8874  153.1461 H   0  0  0  0  0  0  0  0  0  0  0  0
  146.2363  139.5297  153.7252 H   0  0  0  0  0  0  0  0  0  0  0  0
  150.4187  138.0400  154.4878 H   0  0  0  0  0  0  0  0  0  0  0  0
  151.8775  139.0721  156.2054 H   0  0  0  0  0  0  0  0  0  0  0  0
  151.6532  142.5856  157.0783 H   0  0  0  0  0  0  0  0  0  0  0  0
  153.8418  140.7861  160.4389 H   0  0  0  0  0  0  0  0  0  0  0  0
  154.5053  142.3631  160.1425 H   0  0  0  0  0  0  0  0  0  0  0  0
  151.9498  141.7975  161.7614 H   0  0  0  0  0  0  0  0  0  0  0  0
  153.5116  142.2332  162.4303 H   0  0  0  0  0  0  0  0  0  0  0  0
  150.7832  143.5052  160.4020 H   0  0  0  0  0  0  0  0  0  0  0  0
  150.8352  145.7927  159.3911 H   0  0  0  0  0  0  0  0  0  0  0  0
  152.4084  146.0876  160.1302 H   0  0  0  0  0  0  0  0  0  0  0  0
  150.9848  145.8665  161.1441 H   0  0  0  0  0  0  0  0  0  0  0  0
  153.3882  144.0246  158.8552 H   0  0  0  0  0  0  0  0  0  0  0  0
  151.8339  143.7476  158.1219 H   0  0  0  0  0  0  0  0  0  0  0  0
  149.2570  142.5202  156.1282 H   0  0  0  0  0  0  0  0  0  0  0  0
  1  2  1  0  0  0  0
  1 22  1  0  0  0  0
  1 23  1  0  0  0  0
  1 24  1  0  0  0  0
  2  3  1  0  0  0  0
  3  4  1  0  0  0  0
  3 25  1  0  0  0  0
  3 26  1  0  0  0  0
  4  5  1  0  0  0  0
  4 27  1  0  0  0  0
  4 28  1  0  0  0  0
  5  6  1  0  0  0  0
  6 21  1  0  0  0  0
  6  7  2  0  0  0  0
  7  8  1  0  0  0  0
  7 29  1  0  0  0  0
  8  9  2  0  0  0  0
  8 30  1  0  0  0  0
  9 10  1  0  0  0  0
  9 20  1  0  0  0  0
 10 11  1  0  0  0  0
 10 31  1  0  0  0  0
 11 12  2  0  0  0  0
 11 13  1  0  0  0  0
 13 19  1  0  0  0  0
 13 14  1  0  0  0  0
 14 15  1  0  0  0  0
 14 32  1  0  0  0  0
 14 33  1  0  0  0  0
 15 16  1  0  0  0  0
 15 34  1  0  0  0  0
 15 35  1  0  0  0  0
 16 17  1  0  0  0  0
 17 18  1  0  0  0  0
 17 19  1  0  0  0  0
 17 36  1  0  0  0  0
 18 37  1  0  0  0  0
 18 38  1  0  0  0  0
 18 39  1  0  0  0  0
 19 40  1  0  0  0  0
 19 41  1  0  0  0  0
 20 21  2  0  0  0  0
 20 42  1  0  0  0  0
M  END
> <s_m_source_file>
AV-unprocessed.smi

> <i_m_source_file_index>
1275

> <i_lp_mmshare_version>
43012

> <i_f3d_flags>
0

> <s_epik_input>
W0NIM11PW0NIMl1bQ0gyXU9jMVtjSF1bY0hdYyhbY0hdbjEpW05IXUMoPU8pTjJbQ0gyXVtDSDJdT1tDQEBIXShbQ0gzXSlbQ0gyXTI=

> <s_epik_cmdline>
J2VwaWtfcHl0aG9uJywgJy1waCcsICc3LjAnLCAnLXRuJywgJzgnLCAnLW1hJywgJzIwMCcsICctbWV0YWxfYmluZGluZycsICctaW1hZScsICc8aW5maWxlLm1hZT4nLCAnLW9tYWUnLCAnPG91dGZpbGUubWFlPic=

> <r_lp_tautomer_probability>
1

> <r_epik_Ionization_Penalty>
5.69099e-05

> <r_epik_Ionization_Penalty_Charging>
0

> <r_epik_Ionization_Penalty_Neutral>
5.69099e-05

> <r_epik_State_Penalty>
-0

> <r_epik_Charging_Adjusted_Penalty>
0

> <i_epik_Tot_Q>
0

> <i_epik_Tot_abs_Q>
0

> <r_epik_Metal_State_Penalty>
-0

> <b_epik_Metal_Only>
0

> <s_lp_Force_Field>
OPLS_2005

> <r_lp_Energy>
32.9839

> <b_lp_Chiralities_Consistent>
1

> <s_lp_Variant>
AV-unprocessed.smi:1275-1

> <Gold.Version>
5.8.1

> <Gold.Id.Protein>
6NUR|6NUR_protein|mol2

> <Gold.PLP.Fitness>
45.3246

> <Gold.PLP.PLP>
-41.4293

> <Gold.PLP.part.hbond>
-1.0000

> <Gold.PLP.part.metal>
0.0000

> <Gold.PLP.part.buried>
-1.6972

> <Gold.PLP.part.nonpolar>
-44.2210

> <Gold.PLP.part.repulsive>
5.8138

> <Gold.PLP.ligand.clash>
0.6646

> <Gold.PLP.ligand.torsion>
0.8019

> <Gold.PLP.Chemscore.Hbond>
1.0000

> <Gold.PLP.Chemscore.CHOScore>
1.0000

> <Gold.PLP.Chemscore.Metal>
0.0000

> <Gold.Chemscore.Hbonds>
donor molecule, donor type, donor heavy atom, donor atom, acceptor molecule, acceptor atom, score
      P1  H  7954  7966       L1     2  1.00
      L1  C    20    42       P1  8028  1.00

> <Gold.PLP.Chemscore.Internal.Correction>
0.1638

> <Gold.Rescore>
     Score         DG    S(hbond)    S(metal)    S(lipo)     H(rot)  DE(clash)    DE(int)     intcor
     12.71     -16.96       0.93        0.00     107.04       1.62       2.50       1.75       ----

> <Gold.Chemscore.Fitness>
12.7078

> <Gold.Chemscore.DG>
-16.9563

> <Gold.Chemscore.ZeroCoef>
-5.4800

> <Gold.Chemscore.Hbond>
0.9265

> <Gold.Chemscore.Metal>
0.0000

> <Gold.Chemscore.Lipo>
107.0373

> <Gold.Chemscore.Internal_Hbond>
0.0000

> <Gold.Chemscore.DEClash>
2.4955

> <Gold.Chemscore.DEInternal>
1.7530

> <Gold.Chemscore.Rot>
1.6178

> <Gold.Chemscore.Internal.Correction>
   9.000000E+99

> <Gold.Chemscore.Hbonds>
donor molecule, donor type, donor heavy atom, donor atom, acceptor molecule, acceptor atom, score
      P1  H  7954  7966       L1     2  0.65

> <Gold.Chemscore.Hbond.Weighted>
-3.0946

> <Gold.Chemscore.Metal.Weighted>
-0.0000

> <Gold.Chemscore.Lipo.Weighted>
-12.5234

> <Gold.Chemscore.Internal_Hbond.Weighted>
0.0000

> <Gold.Chemscore.DEClash.Weighted>
2.4955

> <Gold.Chemscore.DEInternal.Weighted>
1.7530

> <Gold.Chemscore.Rot.Weighted>
4.1416

> <Gold.Chemscore.Internal.Correction.Weighted>
   9.000000E+99

> <Gold.Protein.RotatedTorsions>
[ 6907 6896 6895 6894 ] final  170.70 input  -60.11 | X-H torsion
[ 7974 7965 7964 7962 ] final -177.92 input  175.53 | X-H torsion
[ 8008 7997 7996 7995 ] final  162.06 input   59.86 | X-H torsion
[ 10167 10162 10161 10158 ] final  153.70 input  -65.29 | X-H torsion
[ 10718 10713 10712 10709 ] final -176.31 input   66.30 | X-H torsion
[ 10763 10752 10751 10750 ] final  167.83 input  -60.55 | X-H torsion
[ 11005 11000 10999 10996 ] final -174.83 input  -57.11 | X-H torsion

> <Gold.Protein.ActiveResidues>
 VAL166  LYS551  ARG553  GLY616  TRP617  ASP618  TYR619  PRO620  LYS621  CYS622 
 ASP623  PHE694  ASN695  SER759  ASP760  ASP761  ALA762  ILE779  LEU786  VAL792 
 PHE793  MET794  SER795  GLU796  ALA797  LYS798  CYS799  TRP800  GLU811  SER814 

> <Gold.Protein.RotatedAtoms>
  151.8120  133.3383  159.3557 H   0  0  0  0  0  0  0  0  0  0  0  0  # atno 6907 bound_to 6896
  150.7323  134.5655  159.5873 H   0  0  0  0  0  0  0  0  0  0  0  0  # atno 6908 bound_to 6896
  152.3068  134.7546  160.0396 H   0  0  0  0  0  0  0  0  0  0  0  0  # atno 6909 bound_to 6896
  144.7129  140.0947  143.6419 H   0  0  0  0  0  0  0  0  0  0  0  0  # atno 7974 bound_to 7965
  156.2059  140.1760  156.7801 H   0  0  0  0  0  0  0  0  0  0  0  0  # atno 8008 bound_to 7997
  154.5654  140.0692  156.8913 H   0  0  0  0  0  0  0  0  0  0  0  0  # atno 8009 bound_to 7997
  155.2771  140.3346  155.4263 H   0  0  0  0  0  0  0  0  0  0  0  0  # atno 8010 bound_to 7997
  139.4826  144.5251  151.7814 H   0  0  0  0  0  0  0  0  0  0  0  0  # atno 10167 bound_to 10162
  156.8128  130.9592  151.3115 H   0  0  0  0  0  0  0  0  0  0  0  0  # atno 10718 bound_to 10713
  154.3597  135.2753  155.2327 H   0  0  0  0  0  0  0  0  0  0  0  0  # atno 10763 bound_to 10752
  154.4521  135.5928  153.6202 H   0  0  0  0  0  0  0  0  0  0  0  0  # atno 10764 bound_to 10752
  152.9844  135.6044  154.3816 H   0  0  0  0  0  0  0  0  0  0  0  0  # atno 10765 bound_to 10752
  140.4702  134.6173  157.4879 H   0  0  0  0  0  0  0  0  0  0  0  0  # atno 11005 bound_to 11000
  145.9590  139.2787  143.1167 LP  0  0  0  0  0  0  0  0  0  0  0  0  # atno 17320 bound_to 7965
  145.9241  140.9095  143.0390 LP  0  0  0  0  0  0  0  0  0  0  0  0  # atno 17321 bound_to 7965
  140.4770  144.1505  150.5926 LP  0  0  0  0  0  0  0  0  0  0  0  0  # atno 17342 bound_to 10162
  140.4320  143.2564  151.9583 LP  0  0  0  0  0  0  0  0  0  0  0  0  # atno 17343 bound_to 10162
  157.6497  130.8874  149.9608 LP  0  0  0  0  0  0  0  0  0  0  0  0  # atno 17370 bound_to 10713
  156.1034  130.3654  150.0176 LP  0  0  0  0  0  0  0  0  0  0  0  0  # atno 17371 bound_to 10713
  139.9890  134.7015  155.9723 LP  0  0  0  0  0  0  0  0  0  0  0  0  # atno 17394 bound_to 11000
  141.1581  133.6541  156.4226 LP  0  0  0  0  0  0  0  0  0  0  0  0  # atno 17395 bound_to 11000

$$$$
