AV-unprocessed.smi:283|AV-procd|sdf|2135|dock7
  -GOLD-   2262021453D 1   1.00000     0.00000
 Structure written by MMmdl.
 48 51  0  0  0  0  0  0  0  0  1 V2000
  151.3673  140.6036  156.0012 C   0  0  0  0  0  0  0  0  0  0  0  0
  150.4063  141.2901  156.9809 C   0  0  2  0  0  0  0  0  0  0  0  0
  149.3618  141.9987  156.2431 N   0  0  0  0  0  0  0  0  0  0  0  0
  148.1671  141.4136  156.0029 C   0  0  0  0  0  0  0  0  0  0  0  0
  147.0947  141.6521  156.8020 N   0  0  0  0  0  0  0  0  0  0  0  0
  145.9243  141.0637  156.5415 C   0  0  0  0  0  0  0  0  0  0  0  0
  145.6188  140.2168  155.5567 N   0  0  0  0  0  0  0  0  0  0  0  0
  146.6927  139.9675  154.7526 C   0  0  0  0  0  0  0  0  0  0  0  0
  147.9927  140.5250  154.9108 C   0  0  0  0  0  0  0  0  0  0  0  0
  148.8330  140.0548  153.9110 N   0  0  0  0  0  0  0  0  0  0  0  0
  148.0703  139.2648  153.2050 C   0  0  0  0  0  0  0  0  0  0  0  0
  146.7671  139.1544  153.6372 N   0  0  0  0  0  0  0  0  0  0  0  0
  145.6806  138.3263  153.0171 C   0  0  1  0  0  0  0  0  0  0  0  0
  146.1544  137.7243  151.8485 O   0  0  0  0  0  0  0  0  0  0  0  0
  146.1172  136.3026  151.9657 C   0  0  2  0  0  0  0  0  0  0  0  0
  145.9323  135.6384  150.5905 C   0  0  0  0  0  0  0  0  0  0  0  0
  144.8601  136.2460  149.9023 O   0  0  0  0  0  0  0  0  0  0  0  0
  144.9966  136.0478  152.9823 C   0  0  2  0  0  0  0  0  0  0  0  0
  143.7240  136.0839  152.3615 O   0  0  0  0  0  0  0  0  0  0  0  0
  145.1550  137.2130  153.9464 C   0  0  1  0  0  0  0  0  0  0  0  0
  146.0436  136.8729  154.9961 O   0  0  0  0  0  0  0  0  0  0  0  0
  151.1817  142.1688  157.9651 C   0  0  0  0  0  0  0  0  0  0  0  0
  151.0228  143.5734  157.9214 C   0  0  0  0  0  0  0  0  0  0  0  0
  151.7226  144.4036  158.8167 C   0  0  0  0  0  0  0  0  0  0  0  0
  152.5946  143.8376  159.7638 C   0  0  0  0  0  0  0  0  0  0  0  0
  152.7683  142.4420  159.8099 C   0  0  0  0  0  0  0  0  0  0  0  0
  152.0707  141.6055  158.9151 C   0  0  0  0  0  0  0  0  0  0  0  0
  152.3326  139.8991  159.0117 Cl  0  0  0  0  0  0  0  0  0  0  0  0
  144.9081  139.0477  152.7483 H   0  0  0  0  0  0  0  0  0  0  0  0
  147.0501  135.9608  152.4157 H   0  0  0  0  0  0  0  0  0  0  0  0
  145.1042  135.0799  153.4741 H   0  0  0  0  0  0  0  0  0  0  0  0
  144.2081  137.5211  154.3918 H   0  0  0  0  0  0  0  0  0  0  0  0
  152.1064  140.0045  156.5340 H   0  0  0  0  0  0  0  0  0  0  0  0
  151.9049  141.3326  155.3938 H   0  0  0  0  0  0  0  0  0  0  0  0
  150.8303  139.9375  155.3253 H   0  0  0  0  0  0  0  0  0  0  0  0
  149.8980  140.5007  157.5332 H   0  0  0  0  0  0  0  0  0  0  0  0
  149.5248  142.9842  156.0945 H   0  0  0  0  0  0  0  0  0  0  0  0
  145.1182  141.3058  157.2182 H   0  0  0  0  0  0  0  0  0  0  0  0
  148.4404  138.7368  152.3382 H   0  0  0  0  0  0  0  0  0  0  0  0
  146.8280  135.7737  149.9836 H   0  0  0  0  0  0  0  0  0  0  0  0
  145.7604  134.5658  150.6851 H   0  0  0  0  0  0  0  0  0  0  0  0
  144.8727  137.1726  150.0881 H   0  0  0  0  0  0  0  0  0  0  0  0
  143.3860  135.2025  152.3183 H   0  0  0  0  0  0  0  0  0  0  0  0
  145.5340  136.5975  155.7428 H   0  0  0  0  0  0  0  0  0  0  0  0
  150.3585  144.0233  157.1981 H   0  0  0  0  0  0  0  0  0  0  0  0
  151.5903  145.4748  158.7762 H   0  0  0  0  0  0  0  0  0  0  0  0
  153.1316  144.4730  160.4525 H   0  0  0  0  0  0  0  0  0  0  0  0
  153.4420  142.0110  160.5358 H   0  0  0  0  0  0  0  0  0  0  0  0
  1  2  1  0  0  0  0
  1 33  1  0  0  0  0
  1 34  1  0  0  0  0
  1 35  1  0  0  0  0
  2  3  1  0  0  0  0
  2 22  1  0  0  0  0
  2 36  1  0  0  0  0
  3  4  1  0  0  0  0
  3 37  1  0  0  0  0
  4  9  1  0  0  0  0
  4  5  2  0  0  0  0
  5  6  1  0  0  0  0
  6  7  2  0  0  0  0
  6 38  1  0  0  0  0
  7  8  1  0  0  0  0
  8 12  1  0  0  0  0
  8  9  2  0  0  0  0
  9 10  1  0  0  0  0
 10 11  2  0  0  0  0
 11 12  1  0  0  0  0
 11 39  1  0  0  0  0
 12 13  1  0  0  0  0
 13 29  1  0  0  0  0
 13 20  1  0  0  0  0
 13 14  1  0  0  0  0
 14 15  1  0  0  0  0
 15 30  1  0  0  0  0
 15 16  1  0  0  0  0
 15 18  1  0  0  0  0
 16 17  1  0  0  0  0
 16 40  1  0  0  0  0
 16 41  1  0  0  0  0
 17 42  1  0  0  0  0
 18 31  1  0  0  0  0
 18 19  1  0  0  0  0
 18 20  1  0  0  0  0
 19 43  1  0  0  0  0
 20 32  1  0  0  0  0
 20 21  1  0  0  0  0
 21 44  1  0  0  0  0
 22 27  1  0  0  0  0
 22 23  2  0  0  0  0
 23 24  1  0  0  0  0
 23 45  1  0  0  0  0
 24 25  2  0  0  0  0
 24 46  1  0  0  0  0
 25 26  1  0  0  0  0
 25 47  1  0  0  0  0
 26 27  2  0  0  0  0
 26 48  1  0  0  0  0
 27 28  1  0  0  0  0
M  END
> <s_m_source_file>
AV-unprocessed.smi

> <i_m_source_file_index>
283

> <i_lp_mmshare_version>
43012

> <i_f3d_flags>
0

> <s_epik_input>
Q2xjMVtjSF1bY0hdW2NIXVtjSF1jMVtDQEhdKFtDSDNdKVtOSF1jKG5bY0hdbjIpYyhjMjMpbltjSF1uM1tDQEBIXTRPW0NASF0oW0NIMl1bT0hdKVtDQEBIXShbT0hdKVtDQEhdNFtPSF0=

> <s_epik_cmdline>
J2VwaWtfcHl0aG9uJywgJy1waCcsICc3LjAnLCAnLXRuJywgJzgnLCAnLW1hJywgJzIwMCcsICctbWV0YWxfYmluZGluZycsICctaW1hZScsICc8aW5maWxlLm1hZT4nLCAnLW9tYWUnLCAnPG91dGZpbGUubWFlPic=

> <r_lp_tautomer_probability>
1

> <r_epik_Ionization_Penalty>
0.000266407

> <r_epik_Ionization_Penalty_Charging>
0

> <r_epik_Ionization_Penalty_Neutral>
0.000266407

> <r_epik_State_Penalty>
-0

> <r_epik_Charging_Adjusted_Penalty>
0

> <i_epik_Tot_Q>
0

> <i_epik_Tot_abs_Q>
0

> <r_epik_Metal_State_Penalty>
-0

> <b_epik_Metal_Only>
0

> <s_epik_Chemistry_Notes>
This compound contains an acetal/aminal-like group ( X-CH(R)-Y where X, Y are N, S, or O) that may be acid/base labile, releasing an aldehyde.

> <s_lp_Force_Field>
OPLS_2005

> <r_lp_Energy>
46.2986

> <b_lp_Chiralities_Consistent>
1

> <s_lp_Variant>
AV-unprocessed.smi:283-11

> <Gold.Version>
5.8.1

> <Gold.Id.Protein>
6NUR|6NUR_protein|mol2

> <Gold.PLP.Fitness>
44.7827

> <Gold.PLP.PLP>
-37.1798

> <Gold.PLP.part.hbond>
-2.0000

> <Gold.PLP.part.metal>
0.0000

> <Gold.PLP.part.buried>
-3.9487

> <Gold.PLP.part.nonpolar>
-32.4815

> <Gold.PLP.part.repulsive>
0.9700

> <Gold.PLP.ligand.clash>
0.0000

> <Gold.PLP.ligand.torsion>
1.2780

> <Gold.PLP.Chemscore.Hbond>
1.8000

> <Gold.PLP.Chemscore.CHOScore>
1.5706

> <Gold.PLP.Chemscore.Metal>
0.0000

> <Gold.Chemscore.Hbonds>
donor molecule, donor type, donor heavy atom, donor atom, acceptor molecule, acceptor atom, score
      L1  H     3    37       P1  8028  1.00
      L1  H    17    42       P1 10171  0.75
      L1  C    11    39       P1  7948  0.91
      L1  C    11    39       P1  7957  0.62

> <Gold.PLP.Chemscore.Internal.Correction>
0.0473

> <Gold.Rescore>
     Score         DG    S(hbond)    S(metal)    S(lipo)     H(rot)  DE(clash)    DE(int)     intcor
     11.21     -12.64       1.67        0.00     103.26       4.10       0.07       1.36       ----

> <Gold.Chemscore.Fitness>
11.2055

> <Gold.Chemscore.DG>
-12.6406

> <Gold.Chemscore.ZeroCoef>
-5.4800

> <Gold.Chemscore.Hbond>
1.6668

> <Gold.Chemscore.Metal>
0.0000

> <Gold.Chemscore.Lipo>
103.2591

> <Gold.Chemscore.Internal_Hbond>
0.0000

> <Gold.Chemscore.DEClash>
0.0747

> <Gold.Chemscore.DEInternal>
1.3605

> <Gold.Chemscore.Rot>
4.0968

> <Gold.Chemscore.Internal.Correction>
   9.000000E+99

> <Gold.Chemscore.Hbonds>
donor molecule, donor type, donor heavy atom, donor atom, acceptor molecule, acceptor atom, score
      L1  H     3    37       P1  8028  0.95
      L1  H    17    42       P1 10171  0.76

> <Gold.Chemscore.Hbond.Weighted>
-5.5672

> <Gold.Chemscore.Metal.Weighted>
-0.0000

> <Gold.Chemscore.Lipo.Weighted>
-12.0813

> <Gold.Chemscore.Internal_Hbond.Weighted>
0.0000

> <Gold.Chemscore.DEClash.Weighted>
0.0747

> <Gold.Chemscore.DEInternal.Weighted>
1.3605

> <Gold.Chemscore.Rot.Weighted>
10.4879

> <Gold.Chemscore.Internal.Correction.Weighted>
   9.000000E+99

> <Gold.Protein.RotatedTorsions>
[ 6907 6896 6895 6894 ] final  -93.29 input  -60.11 | X-H torsion
[ 7974 7965 7964 7962 ] final  -90.86 input  175.53 | X-H torsion
[ 8008 7997 7996 7995 ] final -154.35 input   59.86 | X-H torsion
[ 10167 10162 10161 10158 ] final  -85.63 input  -65.29 | X-H torsion
[ 10718 10713 10712 10709 ] final  -36.27 input   66.30 | X-H torsion
[ 10763 10752 10751 10750 ] final -138.72 input  -60.55 | X-H torsion
[ 11005 11000 10999 10996 ] final   69.08 input  -57.11 | X-H torsion

> <Gold.Protein.ActiveResidues>
 VAL166  LYS551  ARG553  GLY616  TRP617  ASP618  TYR619  PRO620  LYS621  CYS622 
 ASP623  PHE694  ASN695  SER759  ASP760  ASP761  ALA762  ILE779  LEU786  VAL792 
 PHE793  MET794  SER795  GLU796  ALA797  LYS798  CYS799  TRP800  GLU811  SER814 

> <Gold.Protein.RotatedAtoms>
  150.6920  134.1990  159.4314 H   0  0  0  0  0  0  0  0  0  0  0  0  # atno 6907 bound_to 6896
  151.9958  134.9952  160.0572 H   0  0  0  0  0  0  0  0  0  0  0  0  # atno 6908 bound_to 6896
  152.1625  133.4556  159.4905 H   0  0  0  0  0  0  0  0  0  0  0  0  # atno 6909 bound_to 6896
  145.4209  140.9551  143.2182 H   0  0  0  0  0  0  0  0  0  0  0  0  # atno 7974 bound_to 7965
  155.6850  140.0748  157.2470 H   0  0  0  0  0  0  0  0  0  0  0  0  # atno 8008 bound_to 7997
  154.4099  140.1675  156.2076 H   0  0  0  0  0  0  0  0  0  0  0  0  # atno 8009 bound_to 7997
  155.9502  140.3378  155.6404 H   0  0  0  0  0  0  0  0  0  0  0  0  # atno 8010 bound_to 7997
  140.4018  143.2659  151.9132 H   0  0  0  0  0  0  0  0  0  0  0  0  # atno 10167 bound_to 10162
  156.3289  130.4276  149.7891 H   0  0  0  0  0  0  0  0  0  0  0  0  # atno 10718 bound_to 10713
  154.8629  135.3604  154.5430 H   0  0  0  0  0  0  0  0  0  0  0  0  # atno 10763 bound_to 10752
  153.6051  135.7011  153.5373 H   0  0  0  0  0  0  0  0  0  0  0  0  # atno 10764 bound_to 10752
  153.3257  135.4138  155.1415 H   0  0  0  0  0  0  0  0  0  0  0  0  # atno 10765 bound_to 10752
  139.9674  134.6958  156.0517 H   0  0  0  0  0  0  0  0  0  0  0  0  # atno 11005 bound_to 11000
  144.8246  139.5732  143.6971 LP  0  0  0  0  0  0  0  0  0  0  0  0  # atno 17320 bound_to 7965
  146.2657  139.6514  142.9331 LP  0  0  0  0  0  0  0  0  0  0  0  0  # atno 17321 bound_to 7965
  139.4784  144.5625  151.8216 LP  0  0  0  0  0  0  0  0  0  0  0  0  # atno 17342 bound_to 10162
  140.4731  144.1558  150.5921 LP  0  0  0  0  0  0  0  0  0  0  0  0  # atno 17343 bound_to 10162
  156.5171  130.8198  151.3190 LP  0  0  0  0  0  0  0  0  0  0  0  0  # atno 17370 bound_to 10713
  157.7426  130.9895  150.2532 LP  0  0  0  0  0  0  0  0  0  0  0  0  # atno 17371 bound_to 10713
  141.1354  133.6576  156.3578 LP  0  0  0  0  0  0  0  0  0  0  0  0  # atno 17394 bound_to 11000
  140.5367  134.6160  157.5367 LP  0  0  0  0  0  0  0  0  0  0  0  0  # atno 17395 bound_to 11000

$$$$
