#       Name:                AV-unprocessed.smi:1093
#       Creating user name   scv26
#       Creation time:       Fri Mar 27 03:28:00 2020


#       File generated by GOLD software.
#

@<TRIPOS>MOLECULE
AV-unprocessed.smi:1093
    50    51     1
SMALL
NO_CHARGES


@<TRIPOS>ATOM
      1 ****        -2.8145  -0.4915   3.0931 C.3            1 S1                 0.0000
      2 ****        -4.0698  -0.3382   2.2223 C.3            1 S1                 0.0000
      3 ****        -3.7397  -0.0814   0.7986 N.4            1 S1                 1.0000
      4 ****        -4.8461  -0.4588  -0.1190 C.3            1 S1                 0.0000
      5 ****        -4.4182  -0.3276  -1.5914 C.3            1 S1                 0.0000
      6 ****        -3.8794   1.0802  -1.8973 C.3            1 S1                 0.0000
      7 ****        -2.7710   1.4745  -0.9050 C.3            1 S1                 0.0000
      8 ****        -1.5730   0.6702  -1.1499 N.am           1 S1                 0.0000
      9 ****        -0.3479   0.9389  -0.6760 C.2            1 S1                 0.0000
     10 ****        -0.0975   1.9063   0.0422 O.2            1 S1                 0.0000
     11 ****         0.5391   0.0082  -1.0664 N.am           1 S1                 0.0000
     12 ****         1.9252  -0.0705  -0.7649 C.ar           1 S1                 0.0000
     13 ****         2.7263   1.0358  -0.4004 C.ar           1 S1                 0.0000
     14 ****         4.0956   0.8325  -0.1426 C.ar           1 S1                 0.0000
     15 ****         4.6398  -0.4706  -0.2614 C.ar           1 S1                 0.0000
     16 ****         6.0075  -0.7257  -0.0106 N.pl3          1 S1                 0.0000
     17 ****         6.5319  -2.0798  -0.1559 C.3            1 S1                 0.0000
     18 ****         6.9103   0.3713   0.3155 C.3            1 S1                 0.0000
     19 ****         3.8676  -1.5238  -0.6245 N.ar           1 S1                 0.0000
     20 ****         2.5570  -1.3244  -0.8726 C.ar           1 S1                 0.0000
     21 ****        -3.2851   1.3112   0.5425 C.3            1 S1                 0.0000
     22 ****        -3.0875  -0.7609   4.1134 H              1 S1                 0.0000
     23 ****        -2.2349   0.4297   3.1475 H              1 S1                 0.0000
     24 ****        -2.1624  -1.2763   2.7089 H              1 S1                 0.0000
     25 ****        -4.6388  -1.2658   2.2983 H              1 S1                 0.0000
     26 ****        -4.7150   0.4528   2.6074 H              1 S1                 0.0000
     27 ****        -5.1515  -1.4882   0.0720 H              1 S1                 0.0000
     28 ****        -5.7144   0.1717   0.0789 H              1 S1                 0.0000
     29 ****        -3.6539  -1.0724  -1.8159 H              1 S1                 0.0000
     30 ****        -5.2623  -0.5513  -2.2445 H              1 S1                 0.0000
     31 ****        -3.5131   1.1313  -2.9234 H              1 S1                 0.0000
     32 ****        -4.6963   1.7998  -1.8287 H              1 S1                 0.0000
     33 ****        -2.5156   2.5219  -1.0754 H              1 S1                 0.0000
     34 ****        -1.6845  -0.1436  -1.7372 H              1 S1                 0.0000
     35 ****         0.1678  -0.7707  -1.5903 H              1 S1                 0.0000
     36 ****         2.3249   2.0346  -0.3269 H              1 S1                 0.0000
     37 ****         4.7005   1.6814   0.1374 H              1 S1                 0.0000
     38 ****         6.4055  -2.4306  -1.1807 H              1 S1                 0.0000
     39 ****         6.0114  -2.7661   0.5127 H              1 S1                 0.0000
     40 ****         7.5942  -2.1240   0.0840 H              1 S1                 0.0000
     41 ****         6.5975   0.8649   1.2360 H              1 S1                 0.0000
     42 ****         6.9256   1.1074  -0.4887 H              1 S1                 0.0000
     43 ****         7.9305   0.0158   0.4599 H              1 S1                 0.0000
     44 ****         1.9934  -2.1998  -1.1605 H              1 S1                 0.0000
     45 ****        -4.1130   1.9990   0.7223 H              1 S1                 0.0000
     46 ****        -2.5016   1.5931   1.2446 H              1 S1                 0.0000
     47 ****        -2.9653  -0.6895   0.5734 H              1 S1                 0.0000
     48 ****        -0.8271   2.5396   0.3002 LP             1 S1                 0.0000
     49 ****         0.8356   2.0591   0.3678 LP             1 S1                 0.0000
     50 ****         4.2649  -2.4377  -0.7074 LP             1 S1                 0.0000
@<TRIPOS>BOND
    1    1    2 1     
    2    1   22 1     
    3    1   23 1     
    4    1   24 1     
    5    2    3 1     
    6    2   25 1     
    7    2   26 1     
    8    3   21 1     
    9    3    4 1     
   10    3   47 1     
   11    4    5 1     
   12    4   27 1     
   13    4   28 1     
   14    5    6 1     
   15    5   29 1     
   16    5   30 1     
   17    6    7 1     
   18    6   31 1     
   19    6   32 1     
   20    7    8 1     
   21    7   21 1     
   22    7   33 1     
   23    8    9 am    
   24    8   34 1     
   25    9   10 2     
   26    9   11 am    
   27   11   12 1     
   28   11   35 1     
   29   12   20 ar    
   30   12   13 ar    
   31   13   14 ar    
   32   13   36 1     
   33   14   15 ar    
   34   14   37 1     
   35   15   16 1     
   36   15   19 ar    
   37   16   17 1     
   38   16   18 1     
   39   17   38 1     
   40   17   39 1     
   41   17   40 1     
   42   18   41 1     
   43   18   42 1     
   44   18   43 1     
   45   19   20 ar    
   46   20   44 1     
   47   21   45 1     
   48   21   46 1     
   49   10   48 1     
   50   10   49 1     
   51   19   50 1     
@<TRIPOS>SUBSTRUCTURE
      1 S1             1
@<TRIPOS>SET
LONE_PAIRS      STATIC     ATOMS    <user>   **** ""
3 48 49 50
DONOR_HYDROGENS      STATIC     ATOMS    <user>   **** ""
3 47 34 35
ATOM$BLUE        STATIC     ATOMS    COLORGROUP SYSTEM
3 48 49 50
ATOM$RED        STATIC     ATOMS    COLORGROUP SYSTEM
3 47 34 35
