AV-unprocessed.smi:2973|AV-procd|sdf|11339|dock2
  -GOLD-   2272016253D 1   1.00000     0.00000
 Structure written by MMmdl.
 49 51  0  0  0  0  0  0  0  0  1 V2000
  145.7711  136.4390  151.7335 C   0  0  0  0  0  0  0  0  0  0  0  0
  144.9378  136.6428  153.0174 C   0  0  2  0  0  0  0  0  0  0  0  0
  143.4538  136.8739  152.6576 C   0  0  0  0  0  0  0  0  0  0  0  0
  142.5721  137.0117  153.9088 C   0  0  0  0  0  0  0  0  0  0  0  0
  143.0785  138.1306  154.8297 C   0  0  0  0  0  0  0  0  0  0  0  0
  144.5509  137.9049  155.2090 C   0  0  0  0  0  0  0  0  0  0  0  0
  145.4560  137.7730  153.9607 C   0  0  2  0  0  0  0  0  0  0  0  0
  145.5821  139.0477  153.2735 N   0  0  0  0  0  0  0  0  0  0  0  0
  146.8341  139.5213  153.2770 C   0  0  0  0  0  0  0  0  0  0  0  0
  147.1950  140.5731  152.7521 O   0  0  0  0  0  0  0  0  0  0  0  0
  147.6164  138.6454  153.9339 N   0  0  0  0  0  0  0  0  0  0  0  0
  149.0679  138.8040  154.1115 C   0  0  0  0  0  0  0  0  0  0  0  0
  149.5149  140.1907  154.6074 C   0  0  0  0  0  0  0  0  0  0  0  0
  149.4385  141.1507  153.8418 O   0  0  0  0  0  0  0  0  0  0  0  0
  149.9818  140.2997  155.8630 N   0  0  0  0  0  0  0  0  0  0  0  0
  150.4672  141.5273  156.4797 C   0  0  0  0  0  0  0  0  0  0  0  0
  150.7054  141.3399  157.9867 C   0  0  0  0  0  0  0  0  0  0  0  0
  151.2069  142.6081  158.6506 C   0  0  0  0  0  0  0  0  0  0  0  0
  151.4940  143.7569  157.8830 C   0  0  0  0  0  0  0  0  0  0  0  0
  151.9502  144.9113  158.5480 C   0  0  0  0  0  0  0  0  0  0  0  0
  152.0999  144.8732  159.9477 C   0  0  0  0  0  0  0  0  0  0  0  0
  151.7852  143.6769  160.6229 C   0  0  0  0  0  0  0  0  0  0  0  0
  151.3463  142.5645  159.9950 N   0  0  0  0  0  0  0  0  0  0  0  0
  146.9123  137.5914  154.3702 C   0  0  0  0  0  0  0  0  0  0  0  0
  147.3398  136.6155  154.9871 O   0  0  0  0  0  0  0  0  0  0  0  0
  145.7872  137.3363  151.1141 H   0  0  0  0  0  0  0  0  0  0  0  0
  145.3582  135.6322  151.1276 H   0  0  0  0  0  0  0  0  0  0  0  0
  146.8028  136.1688  151.9578 H   0  0  0  0  0  0  0  0  0  0  0  0
  144.9865  135.7050  153.5736 H   0  0  0  0  0  0  0  0  0  0  0  0
  143.3558  137.7697  152.0433 H   0  0  0  0  0  0  0  0  0  0  0  0
  143.0860  136.0463  152.0502 H   0  0  0  0  0  0  0  0  0  0  0  0
  141.5408  137.2107  153.6162 H   0  0  0  0  0  0  0  0  0  0  0  0
  142.5617  136.0670  154.4540 H   0  0  0  0  0  0  0  0  0  0  0  0
  142.9657  139.0953  154.3336 H   0  0  0  0  0  0  0  0  0  0  0  0
  142.4663  138.1750  155.7310 H   0  0  0  0  0  0  0  0  0  0  0  0
  144.8921  138.7212  155.8478 H   0  0  0  0  0  0  0  0  0  0  0  0
  144.6234  136.9987  155.8128 H   0  0  0  0  0  0  0  0  0  0  0  0
  144.7987  139.5130  152.8384 H   0  0  0  0  0  0  0  0  0  0  0  0
  149.4348  138.0548  154.8151 H   0  0  0  0  0  0  0  0  0  0  0  0
  149.5824  138.5963  153.1718 H   0  0  0  0  0  0  0  0  0  0  0  0
  150.0104  139.4649  156.4299 H   0  0  0  0  0  0  0  0  0  0  0  0
  151.3807  141.8622  155.9854 H   0  0  0  0  0  0  0  0  0  0  0  0
  149.7206  142.3045  156.3134 H   0  0  0  0  0  0  0  0  0  0  0  0
  149.7813  141.0267  158.4748 H   0  0  0  0  0  0  0  0  0  0  0  0
  151.4272  140.5402  158.1576 H   0  0  0  0  0  0  0  0  0  0  0  0
  151.3665  143.7557  156.8103 H   0  0  0  0  0  0  0  0  0  0  0  0
  152.1798  145.8099  157.9947 H   0  0  0  0  0  0  0  0  0  0  0  0
  152.4469  145.7398  160.4907 H   0  0  0  0  0  0  0  0  0  0  0  0
  151.8880  143.6120  161.6958 H   0  0  0  0  0  0  0  0  0  0  0  0
  1  2  1  0  0  0  0
  1 26  1  0  0  0  0
  1 27  1  0  0  0  0
  1 28  1  0  0  0  0
  2  7  1  0  0  0  0
  2  3  1  0  0  0  0
  2 29  1  0  0  0  0
  3  4  1  0  0  0  0
  3 30  1  0  0  0  0
  3 31  1  0  0  0  0
  4  5  1  0  0  0  0
  4 32  1  0  0  0  0
  4 33  1  0  0  0  0
  5  6  1  0  0  0  0
  5 34  1  0  0  0  0
  5 35  1  0  0  0  0
  6  7  1  0  0  0  0
  6 36  1  0  0  0  0
  6 37  1  0  0  0  0
  7 24  1  0  0  0  0
  7  8  1  0  0  0  0
  8  9  1  0  0  0  0
  8 38  1  0  0  0  0
  9 10  2  0  0  0  0
  9 11  1  0  0  0  0
 11 12  1  0  0  0  0
 11 24  1  0  0  0  0
 12 13  1  0  0  0  0
 12 39  1  0  0  0  0
 12 40  1  0  0  0  0
 13 14  2  0  0  0  0
 13 15  1  0  0  0  0
 15 16  1  0  0  0  0
 15 41  1  0  0  0  0
 16 17  1  0  0  0  0
 16 42  1  0  0  0  0
 16 43  1  0  0  0  0
 17 18  1  0  0  0  0
 17 44  1  0  0  0  0
 17 45  1  0  0  0  0
 18 23  1  0  0  0  0
 18 19  2  0  0  0  0
 19 20  1  0  0  0  0
 19 46  1  0  0  0  0
 20 21  2  0  0  0  0
 20 47  1  0  0  0  0
 21 22  1  0  0  0  0
 21 48  1  0  0  0  0
 22 23  2  0  0  0  0
 22 49  1  0  0  0  0
 24 25  2  0  0  0  0
M  END
> <s_m_source_file>
AV-unprocessed.smi

> <i_m_source_file_index>
2973

> <i_lp_mmshare_version>
43012

> <i_f3d_flags>
0

> <s_epik_input>
W0NIMl0xW0NIMl1bQ0gyXVtDSDJdW0NAQEhdKFtDSDNdKVtDQF0xMltOSF1DKD1PKU4oQzI9TylbQ0gyXUMoPU8pW05IXVtDSDJdW0NIMl1jM1tjSF1bY0hdW2NIXVtjSF1uMw==

> <s_epik_cmdline>
J2VwaWtfcHl0aG9uJywgJy1waCcsICc3LjAnLCAnLXRuJywgJzgnLCAnLW1hJywgJzIwMCcsICctbWV0YWxfYmluZGluZycsICctaW1hZScsICc8aW5maWxlLm1hZT4nLCAnLW9tYWUnLCAnPG91dGZpbGUubWFlPic=

> <r_lp_tautomer_probability>
1

> <r_epik_Ionization_Penalty>
0.0245152

> <r_epik_Ionization_Penalty_Charging>
0

> <r_epik_Ionization_Penalty_Neutral>
0.0245152

> <r_epik_State_Penalty>
0.0198648

> <r_epik_Charging_Adjusted_Penalty>
0.0198648

> <i_epik_Tot_Q>
0

> <i_epik_Tot_abs_Q>
0

> <r_epik_Metal_State_Penalty>
0.0400162

> <b_epik_Metal_Only>
0

> <s_lp_Force_Field>
OPLS_2005

> <r_lp_Energy>
21.7018

> <b_lp_Chiralities_Consistent>
1

> <s_lp_Variant>
AV-unprocessed.smi:2973-3

> <Gold.Version>
5.8.1

> <Gold.Id.Protein>
6NUR|6NUR_protein|mol2

> <Gold.PLP.Fitness>
45.4019

> <Gold.PLP.PLP>
-40.0233

> <Gold.PLP.part.hbond>
-3.7937

> <Gold.PLP.part.metal>
0.0000

> <Gold.PLP.part.buried>
-6.1105

> <Gold.PLP.part.nonpolar>
-33.3904

> <Gold.PLP.part.repulsive>
3.6499

> <Gold.PLP.ligand.clash>
0.0000

> <Gold.PLP.ligand.torsion>
0.3170

> <Gold.PLP.Chemscore.Hbond>
1.9906

> <Gold.PLP.Chemscore.CHOScore>
0.0000

> <Gold.PLP.Chemscore.Metal>
0.0000

> <Gold.Chemscore.Hbonds>
donor molecule, donor type, donor heavy atom, donor atom, acceptor molecule, acceptor atom, score
      L1  H     8    38       P1 10175  0.96
      P1  H  7989  7998       L1    14  0.07
      P1  H  8011  8017       L1    14  0.90

> <Gold.PLP.Chemscore.Internal.Correction>
0.0408

> <Gold.Rescore>
     Score         DG    S(hbond)    S(metal)    S(lipo)     H(rot)  DE(clash)    DE(int)     intcor
     14.61     -17.53       1.74        0.00      93.89       1.86       0.35       2.57       ----

> <Gold.Chemscore.Fitness>
14.6139

> <Gold.Chemscore.DG>
-17.5259

> <Gold.Chemscore.ZeroCoef>
-5.4800

> <Gold.Chemscore.Hbond>
1.7395

> <Gold.Chemscore.Metal>
0.0000

> <Gold.Chemscore.Lipo>
93.8946

> <Gold.Chemscore.Internal_Hbond>
0.0000

> <Gold.Chemscore.DEClash>
0.3458

> <Gold.Chemscore.DEInternal>
2.5663

> <Gold.Chemscore.Rot>
1.8553

> <Gold.Chemscore.Internal.Correction>
   9.000000E+99

> <Gold.Chemscore.Hbonds>
donor molecule, donor type, donor heavy atom, donor atom, acceptor molecule, acceptor atom, score
      L1  H     8    38       P1 10175  0.91
      P1  H  8011  8017       L1    14  0.83

> <Gold.Chemscore.Hbond.Weighted>
-5.8099

> <Gold.Chemscore.Metal.Weighted>
-0.0000

> <Gold.Chemscore.Lipo.Weighted>
-10.9857

> <Gold.Chemscore.Internal_Hbond.Weighted>
0.0000

> <Gold.Chemscore.DEClash.Weighted>
0.3458

> <Gold.Chemscore.DEInternal.Weighted>
2.5663

> <Gold.Chemscore.Rot.Weighted>
4.7497

> <Gold.Chemscore.Internal.Correction.Weighted>
   9.000000E+99

> <Gold.Protein.RotatedTorsions>
[ 6907 6896 6895 6894 ] final   -4.26 input  -60.11 | X-H torsion
[ 7974 7965 7964 7962 ] final  157.88 input  175.53 | X-H torsion
[ 8008 7997 7996 7995 ] final  -68.89 input   59.86 | X-H torsion
[ 10167 10162 10161 10158 ] final -152.45 input  -65.29 | X-H torsion
[ 10718 10713 10712 10709 ] final   33.87 input   66.30 | X-H torsion
[ 10763 10752 10751 10750 ] final  -34.88 input  -60.55 | X-H torsion
[ 11005 11000 10999 10996 ] final   -0.82 input  -57.11 | X-H torsion

> <Gold.Protein.ActiveResidues>
 VAL166  LYS551  ARG553  GLY616  TRP617  ASP618  TYR619  PRO620  LYS621  CYS622 
 ASP623  PHE694  ASN695  SER759  ASP760  ASP761  ALA762  ILE779  LEU786  VAL792 
 PHE793  MET794  SER795  GLU796  ALA797  LYS798  CYS799  TRP800  GLU811  SER814 

> <Gold.Protein.RotatedAtoms>
  151.5006  135.1061  159.9827 H   0  0  0  0  0  0  0  0  0  0  0  0  # atno 6907 bound_to 6896
  152.4703  133.8011  159.6964 H   0  0  0  0  0  0  0  0  0  0  0  0  # atno 6908 bound_to 6896
  150.8709  133.7444  159.2987 H   0  0  0  0  0  0  0  0  0  0  0  0  # atno 6909 bound_to 6896
  144.7877  139.7402  143.6234 H   0  0  0  0  0  0  0  0  0  0  0  0  # atno 7974 bound_to 7965
  154.4899  140.0864  156.7571 H   0  0  0  0  0  0  0  0  0  0  0  0  # atno 8008 bound_to 7997
  155.4256  140.3447  155.4257 H   0  0  0  0  0  0  0  0  0  0  0  0  # atno 8009 bound_to 7997
  156.1315  140.1503  156.9046 H   0  0  0  0  0  0  0  0  0  0  0  0  # atno 8010 bound_to 7997
  139.7180  143.9002  152.2493 H   0  0  0  0  0  0  0  0  0  0  0  0  # atno 10167 bound_to 10162
  157.3032  130.7361  149.6679 H   0  0  0  0  0  0  0  0  0  0  0  0  # atno 10718 bound_to 10713
  153.8540  135.6846  153.4789 H   0  0  0  0  0  0  0  0  0  0  0  0  # atno 10763 bound_to 10752
  153.1381  135.4669  154.9451 H   0  0  0  0  0  0  0  0  0  0  0  0  # atno 10764 bound_to 10752
  154.7789  135.3262  154.7980 H   0  0  0  0  0  0  0  0  0  0  0  0  # atno 10765 bound_to 10752
  140.6405  133.9494  155.8323 H   0  0  0  0  0  0  0  0  0  0  0  0  # atno 11005 bound_to 11000
  146.2116  139.5477  142.9677 LP  0  0  0  0  0  0  0  0  0  0  0  0  # atno 17320 bound_to 7965
  145.5877  141.0374  143.2087 LP  0  0  0  0  0  0  0  0  0  0  0  0  # atno 17321 bound_to 7965
  139.8890  144.6976  150.8791 LP  0  0  0  0  0  0  0  0  0  0  0  0  # atno 17342 bound_to 10162
  140.7748  143.3601  151.1845 LP  0  0  0  0  0  0  0  0  0  0  0  0  # atno 17343 bound_to 10162
  155.9673  130.4273  150.4740 LP  0  0  0  0  0  0  0  0  0  0  0  0  # atno 17370 bound_to 10713
  157.2725  131.0590  151.2251 LP  0  0  0  0  0  0  0  0  0  0  0  0  # atno 17371 bound_to 10713
  141.0610  134.0346  157.3658 LP  0  0  0  0  0  0  0  0  0  0  0  0  # atno 17394 bound_to 11000
  139.9082  135.0184  156.7578 LP  0  0  0  0  0  0  0  0  0  0  0  0  # atno 17395 bound_to 11000

$$$$
