#       Name:                AV-unprocessed.smi:3245
#       Creating user name   scv26
#       Creation time:       Fri Mar 27 18:29:05 2020


#       File generated by GOLD software.
#

@<TRIPOS>MOLECULE
AV-unprocessed.smi:3245
    41    42     1
SMALL
NO_CHARGES


@<TRIPOS>ATOM
      1 ****        -1.4384   0.0429  -0.9196 C.3            1 S1                 0.0000
      2 ****        -0.9217   0.2901   0.5124 C.3            1 S1                 0.0000
      3 ****        -1.3895  -0.7910   1.5088 C.3            1 S1                 0.0000
      4 ****        -2.8348  -0.9099   1.5810 N.pl3          1 S1                 0.0000
      5 ****        -3.6319  -1.9463   1.1419 C.2            1 S1                 0.0000
      6 ****        -4.9248  -1.6147   1.4301 C.2            1 S1                 0.0000
      7 ****        -4.8153  -0.3427   2.0587 C.2            1 S1                 0.0000
      8 ****        -3.5630   0.0750   2.1507 N.2            1 S1                 0.0000
      9 ****         0.5359   0.2970   0.5329 N.3            1 S1                 0.0000
     10 ****         1.0948   1.5446   0.0304 C.3            1 S1                 0.0000
     11 ****         2.6311   1.5151   0.1217 C.3            1 S1                 0.0000
     12 ****         3.2289   0.6148  -0.8727 N.am           1 S1                 0.0000
     13 ****         3.4045   0.9316  -2.1594 C.2            1 S1                 0.0000
     14 ****         3.1179   1.9873  -2.7245 O.2            1 S1                 0.0000
     15 ****         4.0342  -0.2605  -2.8413 C.3            1 S1                 0.0000
     16 ****         4.1529  -1.2091  -1.7575 N.pl3          1 S1                -1.0000
     17 ****         3.6608  -0.6388  -0.6325 C.2            1 S1                 0.0000
     18 ****         3.5950  -1.1553   0.4828 O.2            1 S1                 0.0000
     19 ****        -2.5278   0.0262  -0.9508 H              1 S1                 0.0000
     20 ****        -1.0820  -0.9117  -1.3079 H              1 S1                 0.0000
     21 ****        -1.1200   0.8221  -1.6110 H              1 S1                 0.0000
     22 ****        -1.2850   1.2563   0.8657 H              1 S1                 0.0000
     23 ****        -0.9809  -1.7640   1.2305 H              1 S1                 0.0000
     24 ****        -1.0165  -0.5719   2.5106 H              1 S1                 0.0000
     25 ****        -3.2172  -2.8216   0.6639 H              1 S1                 0.0000
     26 ****        -5.8132  -2.1929   1.2243 H              1 S1                 0.0000
     27 ****        -5.6031   0.2844   2.4494 H              1 S1                 0.0000
     28 ****         0.8612   0.1532   1.4783 H              1 S1                 0.0000
     29 ****         0.7827   1.7312  -0.9966 H              1 S1                 0.0000
     30 ****         0.7155   2.3683   0.6361 H              1 S1                 0.0000
     31 ****         3.0155   2.5223  -0.0465 H              1 S1                 0.0000
     32 ****         2.9483   1.2530   1.1325 H              1 S1                 0.0000
     33 ****         3.3902  -0.6085  -3.6496 H              1 S1                 0.0000
     34 ****         4.9946   0.0232  -3.2729 H              1 S1                 0.0000
     35 ****        -3.2303   0.9284   2.5520 LP             1 S1                 0.0000
     36 ****         0.8421  -0.4416  -0.0677 LP             1 S1                 0.0000
     37 ****         2.7004   2.7341  -2.2069 LP             1 S1                 0.0000
     38 ****         3.3027   2.0979  -3.7010 LP             1 S1                 0.0000
     39 ****         4.5341  -2.1310  -1.8268 LP             1 S1                 0.0000
     40 ****         3.2105  -0.6416   1.2498 LP             1 S1                 0.0000
     41 ****         3.9261  -2.0886   0.6219 LP             1 S1                 0.0000
@<TRIPOS>BOND
    1    1    2 1     
    2    1   19 1     
    3    1   20 1     
    4    1   21 1     
    5    2    3 1     
    6    2    9 1     
    7    2   22 1     
    8    3    4 1     
    9    3   23 1     
   10    3   24 1     
   11    4    8 1     
   12    4    5 1     
   13    5    6 2     
   14    5   25 1     
   15    6    7 1     
   16    6   26 1     
   17    7    8 2     
   18    7   27 1     
   19    9   10 1     
   20    9   28 1     
   21   10   11 1     
   22   10   29 1     
   23   10   30 1     
   24   11   12 1     
   25   11   31 1     
   26   11   32 1     
   27   12   17 am    
   28   12   13 am    
   29   13   14 2     
   30   13   15 1     
   31   15   16 1     
   32   15   33 1     
   33   15   34 1     
   34   16   17 1     
   35   17   18 2     
   36    8   35 1     
   37    9   36 1     
   38   14   37 1     
   39   14   38 1     
   40   16   39 1     
   41   18   40 1     
   42   18   41 1     
@<TRIPOS>SUBSTRUCTURE
      1 S1             1
@<TRIPOS>SET
LONE_PAIRS      STATIC     ATOMS    <user>   **** ""
7 35 36 37 38 39 40 41
DONOR_HYDROGENS      STATIC     ATOMS    <user>   **** ""
1 28
ATOM$BLUE        STATIC     ATOMS    COLORGROUP SYSTEM
7 35 36 37 38 39 40 41
ATOM$RED        STATIC     ATOMS    COLORGROUP SYSTEM
1 28
