#       Name:                AV-unprocessed.smi:3176
#       Creating user name   scv26
#       Creation time:       Fri Mar 27 17:56:31 2020


#       File generated by GOLD software.
#

@<TRIPOS>MOLECULE
AV-unprocessed.smi:3176
    37    38     1
SMALL
NO_CHARGES


@<TRIPOS>ATOM
      1 ****        -1.1851   1.2028  -0.3357 O.2            1 S1                 0.0000
      2 ****        -1.4412   0.2586   0.4124 C.2            1 S1                 0.0000
      3 ****        -0.4998  -0.4335   1.0724 N.am           1 S1                 0.0000
      4 ****         0.9347  -0.1833   0.9893 C.3            1 S1                 0.0000
      5 ****         1.5403  -0.7787  -0.2932 C.3            1 S1                 0.0000
      6 ****         3.0338  -0.5333  -0.3914 C.ar           1 S1                 0.0000
      7 ****         3.5380   0.5290  -1.1718 C.ar           1 S1                 0.0000
      8 ****         4.9323   0.7193  -1.2255 C.ar           1 S1                 0.0000
      9 ****         5.7642  -0.1545  -0.4994 C.ar           1 S1                 0.0000
     10 ****         5.1623  -1.1839   0.2516 C.ar           1 S1                 0.0000
     11 ****         3.8265  -1.3748   0.3104 N.ar           1 S1                 0.0000
     12 ****        -2.8929  -0.1786   0.6368 C.3            1 S1                 0.0000
     13 ****        -3.7101  -0.3021  -0.6627 C.3            1 S1                 0.0000
     14 ****        -4.6799   0.8609  -0.5904 C.3            1 S1                 0.0000
     15 ****        -4.8578   1.0236   0.9120 C.3            1 S1                 0.0000
     16 ****        -3.5452   0.8251   1.4131 O.3            1 S1                 0.0000
     17 ****        -0.7987  -1.1881   1.6730 H              1 S1                 0.0000
     18 ****         1.1293   0.8893   1.0413 H              1 S1                 0.0000
     19 ****         1.4069  -0.6275   1.8662 H              1 S1                 0.0000
     20 ****         1.3540  -1.8531  -0.3305 H              1 S1                 0.0000
     21 ****         1.0546  -0.3546  -1.1732 H              1 S1                 0.0000
     22 ****         2.8733   1.1845  -1.7154 H              1 S1                 0.0000
     23 ****         5.3552   1.5214  -1.8122 H              1 S1                 0.0000
     24 ****         6.8378  -0.0384  -0.5172 H              1 S1                 0.0000
     25 ****         5.7700  -1.8720   0.8207 H              1 S1                 0.0000
     26 ****        -2.9230  -1.1243   1.1807 H              1 S1                 0.0000
     27 ****        -3.1083  -0.2766  -1.5725 H              1 S1                 0.0000
     28 ****        -4.2582  -1.2450  -0.6627 H              1 S1                 0.0000
     29 ****        -4.2229   1.7573  -1.0118 H              1 S1                 0.0000
     30 ****        -5.6167   0.6719  -1.1153 H              1 S1                 0.0000
     31 ****        -5.2508   2.0023   1.1879 H              1 S1                 0.0000
     32 ****        -5.5230   0.2567   1.3120 H              1 S1                 0.0000
     33 ****        -0.2366   1.4875  -0.4749 LP             1 S1                 0.0000
     34 ****        -1.9256   1.6849  -0.8038 LP             1 S1                 0.0000
     35 ****         3.4355  -2.1159   0.8563 LP             1 S1                 0.0000
     36 ****        -3.0313   1.6808   1.3530 LP             1 S1                 0.0000
     37 ****        -3.5927   0.5311   2.3678 LP             1 S1                 0.0000
@<TRIPOS>BOND
    1    1    2 2     
    2    2    3 am    
    3    2   12 1     
    4    3    4 1     
    5    3   17 1     
    6    4    5 1     
    7    4   18 1     
    8    4   19 1     
    9    5    6 1     
   10    5   20 1     
   11    5   21 1     
   12    6   11 ar    
   13    6    7 ar    
   14    7    8 ar    
   15    7   22 1     
   16    8    9 ar    
   17    8   23 1     
   18    9   10 ar    
   19    9   24 1     
   20   10   11 ar    
   21   10   25 1     
   22   12   16 1     
   23   12   13 1     
   24   12   26 1     
   25   13   14 1     
   26   13   27 1     
   27   13   28 1     
   28   14   15 1     
   29   14   29 1     
   30   14   30 1     
   31   15   16 1     
   32   15   31 1     
   33   15   32 1     
   34    1   33 1     
   35    1   34 1     
   36   11   35 1     
   37   16   36 1     
   38   16   37 1     
@<TRIPOS>SUBSTRUCTURE
      1 S1             1
@<TRIPOS>SET
LONE_PAIRS      STATIC     ATOMS    <user>   **** ""
5 33 34 35 36 37
DONOR_HYDROGENS      STATIC     ATOMS    <user>   **** ""
1 17
ATOM$BLUE        STATIC     ATOMS    COLORGROUP SYSTEM
5 33 34 35 36 37
ATOM$RED        STATIC     ATOMS    COLORGROUP SYSTEM
1 17
