AV-unprocessed.smi:1426|AV-procd|sdf|5806|dock1
  -GOLD-   22720 5463D 1   1.00000     0.00000
 Structure written by MMmdl.
 43 45  0  0  0  0  0  0  0  0  1 V2000
  149.9387  133.5713  155.4435 O   0  0  0  0  0  0  0  0  0  0  0  0
  149.5468  134.2763  154.5136 C   0  0  0  0  0  0  0  0  0  0  0  0
  149.8425  135.5782  154.3929 N   0  0  0  0  0  0  0  0  0  0  0  0
  150.6318  136.3588  155.3406 C   0  0  0  0  0  0  0  0  0  0  0  0
  150.5894  137.8631  155.0125 C   0  0  1  0  0  0  0  0  0  0  0  0
  150.2164  138.7684  156.1710 C   0  0  0  0  0  0  0  0  0  0  0  0
  150.7230  140.1244  155.6895 C   0  0  0  0  0  0  0  0  0  0  0  0
  151.8445  139.8489  154.8547 O   0  0  0  0  0  0  0  0  0  0  0  0
  151.9441  138.4482  154.6160 C   0  0  0  0  0  0  0  0  0  0  0  0
  148.7544  133.8657  153.5097 N   0  0  0  0  0  0  0  0  0  0  0  0
  148.1678  132.5820  153.3211 C   0  0  0  0  0  0  0  0  0  0  0  0
  148.6182  131.4318  154.0136 C   0  0  0  0  0  0  0  0  0  0  0  0
  147.9970  130.1948  153.7667 C   0  0  0  0  0  0  0  0  0  0  0  0
  146.9517  130.1486  152.8277 C   0  0  0  0  0  0  0  0  0  0  0  0
  146.5237  131.2306  152.1467 N   0  0  0  0  0  0  0  0  0  0  0  0
  147.1136  132.4285  152.3813 C   0  0  0  0  0  0  0  0  0  0  0  0
  146.6703  133.5352  151.6283 N   0  0  0  0  0  0  0  0  0  0  0  0
  145.7883  133.1658  150.5244 C   0  0  0  0  0  0  0  0  0  0  0  0
  144.7246  134.2617  150.4330 C   0  0  0  0  0  0  0  0  0  0  0  0
  144.6461  134.7836  151.8623 C   0  0  0  0  0  0  0  0  0  0  0  0
  146.0974  134.6836  152.3288 C   0  0  0  0  0  0  0  0  0  0  0  0
  149.4732  136.0747  153.5952 H   0  0  0  0  0  0  0  0  0  0  0  0
  150.3028  136.1776  156.3655 H   0  0  0  0  0  0  0  0  0  0  0  0
  151.6612  136.0041  155.2855 H   0  0  0  0  0  0  0  0  0  0  0  0
  149.8865  138.0356  154.1954 H   0  0  0  0  0  0  0  0  0  0  0  0
  149.1484  138.7711  156.3906 H   0  0  0  0  0  0  0  0  0  0  0  0
  150.7500  138.4693  157.0744 H   0  0  0  0  0  0  0  0  0  0  0  0
  149.9604  140.6237  155.0906 H   0  0  0  0  0  0  0  0  0  0  0  0
  150.9917  140.7847  156.5143 H   0  0  0  0  0  0  0  0  0  0  0  0
  152.7382  138.0482  155.2481 H   0  0  0  0  0  0  0  0  0  0  0  0
  152.2018  138.2392  153.5776 H   0  0  0  0  0  0  0  0  0  0  0  0
  148.4398  134.5810  152.8707 H   0  0  0  0  0  0  0  0  0  0  0  0
  149.4359  131.4744  154.7167 H   0  0  0  0  0  0  0  0  0  0  0  0
  148.3182  129.3017  154.2819 H   0  0  0  0  0  0  0  0  0  0  0  0
  146.4522  129.2161  152.6100 H   0  0  0  0  0  0  0  0  0  0  0  0
  146.3453  133.0737  149.5916 H   0  0  0  0  0  0  0  0  0  0  0  0
  145.3139  132.2033  150.7256 H   0  0  0  0  0  0  0  0  0  0  0  0
  145.0666  135.0570  149.7689 H   0  0  0  0  0  0  0  0  0  0  0  0
  143.7686  133.8949  150.0581 H   0  0  0  0  0  0  0  0  0  0  0  0
  144.2471  135.7961  151.9285 H   0  0  0  0  0  0  0  0  0  0  0  0
  144.0152  134.1277  152.4641 H   0  0  0  0  0  0  0  0  0  0  0  0
  146.1731  134.6316  153.4152 H   0  0  0  0  0  0  0  0  0  0  0  0
  146.6494  135.5704  152.0159 H   0  0  0  0  0  0  0  0  0  0  0  0
  1  2  2  0  0  0  0
  2  3  1  0  0  0  0
  2 10  1  0  0  0  0
  3  4  1  0  0  0  0
  3 22  1  0  0  0  0
  4  5  1  0  0  0  0
  4 23  1  0  0  0  0
  4 24  1  0  0  0  0
  5  9  1  0  0  0  0
  5  6  1  0  0  0  0
  5 25  1  0  0  0  0
  6  7  1  0  0  0  0
  6 26  1  0  0  0  0
  6 27  1  0  0  0  0
  7  8  1  0  0  0  0
  7 28  1  0  0  0  0
  7 29  1  0  0  0  0
  8  9  1  0  0  0  0
  9 30  1  0  0  0  0
  9 31  1  0  0  0  0
 10 11  1  0  0  0  0
 10 32  1  0  0  0  0
 11 16  1  0  0  0  0
 11 12  2  0  0  0  0
 12 13  1  0  0  0  0
 12 33  1  0  0  0  0
 13 14  2  0  0  0  0
 13 34  1  0  0  0  0
 14 15  1  0  0  0  0
 14 35  1  0  0  0  0
 15 16  2  0  0  0  0
 16 17  1  0  0  0  0
 17 21  1  0  0  0  0
 17 18  1  0  0  0  0
 18 19  1  0  0  0  0
 18 36  1  0  0  0  0
 18 37  1  0  0  0  0
 19 20  1  0  0  0  0
 19 38  1  0  0  0  0
 19 39  1  0  0  0  0
 20 21  1  0  0  0  0
 20 40  1  0  0  0  0
 20 41  1  0  0  0  0
 21 42  1  0  0  0  0
 21 43  1  0  0  0  0
M  END
> <s_m_source_file>
AV-unprocessed.smi

> <i_m_source_file_index>
1426

> <i_lp_mmshare_version>
43012

> <i_f3d_flags>
0

> <s_epik_input>
W0NIMl0xT1tDSDJdW0NIMl1bQ0BIXTFbQ0gyXVtOSF1DKD1PKVtOSF1jMltjSF1bY0hdW2NIXW5jMk4zW0NIMl1bQ0gyXVtDSDJdW0NIMl0z

> <s_epik_cmdline>
J2VwaWtfcHl0aG9uJywgJy1waCcsICc3LjAnLCAnLXRuJywgJzgnLCAnLW1hJywgJzIwMCcsICctbWV0YWxfYmluZGluZycsICctaW1hZScsICc8aW5maWxlLm1hZT4nLCAnLW9tYWUnLCAnPG91dGZpbGUubWFlPic=

> <r_lp_tautomer_probability>
1

> <r_epik_Ionization_Penalty>
0.0999657

> <r_epik_Ionization_Penalty_Charging>
0

> <r_epik_Ionization_Penalty_Neutral>
0.0999657

> <r_epik_State_Penalty>
0.0894442

> <r_epik_Charging_Adjusted_Penalty>
0.0894442

> <i_epik_Tot_Q>
0

> <i_epik_Tot_abs_Q>
0

> <r_epik_Metal_State_Penalty>
0.076486

> <b_epik_Metal_Only>
0

> <s_lp_Force_Field>
OPLS_2005

> <r_lp_Energy>
46.9111

> <b_lp_Chiralities_Consistent>
1

> <s_lp_Variant>
AV-unprocessed.smi:1426-2

> <Gold.Version>
5.8.1

> <Gold.Id.Protein>
6NUR|6NUR_protein|mol2

> <Gold.PLP.Fitness>
41.8257

> <Gold.PLP.PLP>
-35.1348

> <Gold.PLP.part.hbond>
-3.6361

> <Gold.PLP.part.metal>
0.0000

> <Gold.PLP.part.buried>
-3.1598

> <Gold.PLP.part.nonpolar>
-27.8037

> <Gold.PLP.part.repulsive>
0.4760

> <Gold.PLP.ligand.clash>
0.0000

> <Gold.PLP.ligand.torsion>
0.9395

> <Gold.PLP.Chemscore.Hbond>
2.8080

> <Gold.PLP.Chemscore.CHOScore>
0.0000

> <Gold.PLP.Chemscore.Metal>
0.0000

> <Gold.Chemscore.Hbonds>
donor molecule, donor type, donor heavy atom, donor atom, acceptor molecule, acceptor atom, score
      L1  H     3    22       P1  7948  1.00
      L1  H    10    32       P1  7948  0.90
      P1  H  7989  7998       L1     8  0.98

> <Gold.PLP.Chemscore.Internal.Correction>
0.1459

> <Gold.Rescore>
     Score         DG    S(hbond)    S(metal)    S(lipo)     H(rot)  DE(clash)    DE(int)     intcor
     14.59     -16.89       1.91        0.00      73.15       1.38       0.02       2.28       ----

> <Gold.Chemscore.Fitness>
14.5897

> <Gold.Chemscore.DG>
-16.8941

> <Gold.Chemscore.ZeroCoef>
-5.4800

> <Gold.Chemscore.Hbond>
1.9122

> <Gold.Chemscore.Metal>
0.0000

> <Gold.Chemscore.Lipo>
73.1527

> <Gold.Chemscore.Internal_Hbond>
0.0000

> <Gold.Chemscore.DEClash>
0.0202

> <Gold.Chemscore.DEInternal>
2.2841

> <Gold.Chemscore.Rot>
1.3796

> <Gold.Chemscore.Internal.Correction>
   9.000000E+99

> <Gold.Chemscore.Hbonds>
donor molecule, donor type, donor heavy atom, donor atom, acceptor molecule, acceptor atom, score
      L1  H     3    22       P1  7948  0.54
      L1  H    10    32       P1  7948  0.26
      P1  H  7989  7998       L1     8  0.49

> <Gold.Chemscore.Hbond.Weighted>
-6.3869

> <Gold.Chemscore.Metal.Weighted>
-0.0000

> <Gold.Chemscore.Lipo.Weighted>
-8.5589

> <Gold.Chemscore.Internal_Hbond.Weighted>
0.0000

> <Gold.Chemscore.DEClash.Weighted>
0.0202

> <Gold.Chemscore.DEInternal.Weighted>
2.2841

> <Gold.Chemscore.Rot.Weighted>
3.5317

> <Gold.Chemscore.Internal.Correction.Weighted>
   9.000000E+99

> <Gold.Protein.RotatedTorsions>
[ 6907 6896 6895 6894 ] final -173.06 input  -60.11 | X-H torsion
[ 7974 7965 7964 7962 ] final  167.52 input  175.53 | X-H torsion
[ 8008 7997 7996 7995 ] final  -22.42 input   59.86 | X-H torsion
[ 10167 10162 10161 10158 ] final  -70.93 input  -65.29 | X-H torsion
[ 10718 10713 10712 10709 ] final  164.30 input   66.30 | X-H torsion
[ 10763 10752 10751 10750 ] final  -93.57 input  -60.55 | X-H torsion
[ 11005 11000 10999 10996 ] final  -23.35 input  -57.11 | X-H torsion

> <Gold.Protein.ActiveResidues>
 VAL166  LYS551  ARG553  GLY616  TRP617  ASP618  TYR619  PRO620  LYS621  CYS622 
 ASP623  PHE694  ASN695  SER759  ASP760  ASP761  ALA762  ILE779  LEU786  VAL792 
 PHE793  MET794  SER795  GLU796  ALA797  LYS798  CYS799  TRP800  GLU811  SER814 

> <Gold.Protein.RotatedAtoms>
  151.5500  133.3419  159.2950 H   0  0  0  0  0  0  0  0  0  0  0  0  # atno 6907 bound_to 6896
  150.8484  134.7804  159.7000 H   0  0  0  0  0  0  0  0  0  0  0  0  # atno 6908 bound_to 6896
  152.4536  134.5347  159.9873 H   0  0  0  0  0  0  0  0  0  0  0  0  # atno 6909 bound_to 6896
  144.7421  139.8774  143.6393 H   0  0  0  0  0  0  0  0  0  0  0  0  # atno 7974 bound_to 7965
  154.4645  140.2008  156.0155 H   0  0  0  0  0  0  0  0  0  0  0  0  # atno 8008 bound_to 7997
  156.0901  140.3259  155.7776 H   0  0  0  0  0  0  0  0  0  0  0  0  # atno 8009 bound_to 7997
  155.4970  140.0551  157.2936 H   0  0  0  0  0  0  0  0  0  0  0  0  # atno 8010 bound_to 7997
  140.5313  143.2321  151.7256 H   0  0  0  0  0  0  0  0  0  0  0  0  # atno 10167 bound_to 10162
  157.0963  131.0431  151.2516 H   0  0  0  0  0  0  0  0  0  0  0  0  # atno 10718 bound_to 10713
  154.6972  135.5189  153.8475 H   0  0  0  0  0  0  0  0  0  0  0  0  # atno 10763 bound_to 10752
  153.0676  135.6590  154.0329 H   0  0  0  0  0  0  0  0  0  0  0  0  # atno 10764 bound_to 10752
  154.0193  135.2995  155.3362 H   0  0  0  0  0  0  0  0  0  0  0  0  # atno 10765 bound_to 10752
  140.8743  133.7698  156.0224 H   0  0  0  0  0  0  0  0  0  0  0  0  # atno 11005 bound_to 11000
  146.1236  139.4259  143.0212 LP  0  0  0  0  0  0  0  0  0  0  0  0  # atno 17320 bound_to 7965
  145.7268  141.0056  143.1373 LP  0  0  0  0  0  0  0  0  0  0  0  0  # atno 17321 bound_to 7965
  139.4955  144.4109  152.0081 LP  0  0  0  0  0  0  0  0  0  0  0  0  # atno 17342 bound_to 10162
  140.3211  144.3426  150.6009 LP  0  0  0  0  0  0  0  0  0  0  0  0  # atno 17343 bound_to 10162
  157.4678  130.7691  149.7295 LP  0  0  0  0  0  0  0  0  0  0  0  0  # atno 17370 bound_to 10713
  155.9885  130.3959  150.3116 LP  0  0  0  0  0  0  0  0  0  0  0  0  # atno 17371 bound_to 10713
  140.8536  134.2924  157.5265 LP  0  0  0  0  0  0  0  0  0  0  0  0  # atno 17394 bound_to 11000
  139.8714  134.9481  156.3987 LP  0  0  0  0  0  0  0  0  0  0  0  0  # atno 17395 bound_to 11000

$$$$
