AV-unprocessed.smi:2861|AV-procd|sdf|11007|dock9
  -GOLD-   2272015463D 1   1.00000     0.00000
 Structure written by MMmdl.
 33 35  0  0  0  0  0  0  0  0  1 V2000
  151.3522  136.6776  156.3304 O   0  0  0  0  0  0  0  0  0  0  0  0
  150.9148  136.7839  155.1837 C   0  0  0  0  0  0  0  0  0  0  0  0
  151.2853  137.9934  154.3176 C   0  0  0  0  0  0  0  0  0  0  0  0
  150.9562  139.2830  155.0149 C   0  0  0  0  0  0  0  0  0  0  0  0
  150.0127  140.2083  154.6389 C   0  0  0  0  0  0  0  0  0  0  0  0
  149.9607  141.5680  155.7274 S   0  0  0  0  0  0  0  0  0  0  0  0
  151.2383  140.8132  156.6785 C   0  0  0  0  0  0  0  0  0  0  0  0
  151.7926  141.3995  157.8556 N   0  0  0  0  0  0  0  0  0  0  0  0
  151.2468  142.6298  158.4163 C   0  0  0  0  0  0  0  0  0  0  0  0
  152.2233  143.0611  159.5159 C   0  0  0  0  0  0  0  0  0  0  0  0
  153.0990  141.8385  159.7830 C   0  0  0  0  0  0  0  0  0  0  0  0
  152.8129  140.9305  158.5986 C   0  0  0  0  0  0  0  0  0  0  0  0
  153.4641  139.9048  158.4018 O   0  0  0  0  0  0  0  0  0  0  0  0
  151.6411  139.6376  156.1817 N   0  0  0  0  0  0  0  0  0  0  0  0
  150.0973  135.8816  154.6204 N   0  0  0  0  0  0  0  0  0  0  0  0
  149.6248  134.6874  155.2436 C   0  0  0  0  0  0  0  0  0  0  0  0
  150.0004  133.3671  154.6062 C   0  0  0  0  0  0  0  0  0  0  0  0
  148.5873  133.8711  154.5035 C   0  0  0  0  0  0  0  0  0  0  0  0
  152.3477  137.9624  154.0710 H   0  0  0  0  0  0  0  0  0  0  0  0
  150.7479  137.9152  153.3717 H   0  0  0  0  0  0  0  0  0  0  0  0
  149.3522  140.1754  153.7854 H   0  0  0  0  0  0  0  0  0  0  0  0
  151.1428  143.4052  157.6560 H   0  0  0  0  0  0  0  0  0  0  0  0
  150.2593  142.4265  158.8332 H   0  0  0  0  0  0  0  0  0  0  0  0
  152.8414  143.8888  159.1653 H   0  0  0  0  0  0  0  0  0  0  0  0
  151.7016  143.3970  160.4127 H   0  0  0  0  0  0  0  0  0  0  0  0
  154.1572  142.0947  159.8436 H   0  0  0  0  0  0  0  0  0  0  0  0
  152.8069  141.3335  160.7044 H   0  0  0  0  0  0  0  0  0  0  0  0
  149.7827  136.0546  153.6766 H   0  0  0  0  0  0  0  0  0  0  0  0
  149.5483  134.6862  156.3302 H   0  0  0  0  0  0  0  0  0  0  0  0
  150.6077  133.3907  153.7032 H   0  0  0  0  0  0  0  0  0  0  0  0
  150.1863  132.5252  155.2700 H   0  0  0  0  0  0  0  0  0  0  0  0
  147.8291  133.3664  155.0988 H   0  0  0  0  0  0  0  0  0  0  0  0
  148.2524  134.2318  153.5328 H   0  0  0  0  0  0  0  0  0  0  0  0
  1  2  2  0  0  0  0
  2  3  1  0  0  0  0
  2 15  1  0  0  0  0
  3  4  1  0  0  0  0
  3 19  1  0  0  0  0
  3 20  1  0  0  0  0
  4 14  1  0  0  0  0
  4  5  2  0  0  0  0
  5  6  1  0  0  0  0
  5 21  1  0  0  0  0
  6  7  1  0  0  0  0
  7  8  1  0  0  0  0
  7 14  2  0  0  0  0
  8 12  1  0  0  0  0
  8  9  1  0  0  0  0
  9 10  1  0  0  0  0
  9 22  1  0  0  0  0
  9 23  1  0  0  0  0
 10 11  1  0  0  0  0
 10 24  1  0  0  0  0
 10 25  1  0  0  0  0
 11 12  1  0  0  0  0
 11 26  1  0  0  0  0
 11 27  1  0  0  0  0
 12 13  2  0  0  0  0
 15 16  1  0  0  0  0
 15 28  1  0  0  0  0
 16 18  1  0  0  0  0
 16 17  1  0  0  0  0
 16 29  1  0  0  0  0
 17 18  1  0  0  0  0
 17 30  1  0  0  0  0
 17 31  1  0  0  0  0
 18 32  1  0  0  0  0
 18 33  1  0  0  0  0
M  END
> <s_m_source_file>
AV-unprocessed.smi

> <i_m_source_file_index>
2861

> <i_lp_mmshare_version>
43012

> <i_f3d_flags>
0

> <s_epik_input>
W0NIMl0xW0NIMl1bQ0hdMVtOSF1DKD1PKVtDSDJdYzJbY0hdc2MobjIpTjNbQ0gyXVtDSDJdW0NIMl1DMz1P

> <s_epik_cmdline>
J2VwaWtfcHl0aG9uJywgJy1waCcsICc3LjAnLCAnLXRuJywgJzgnLCAnLW1hJywgJzIwMCcsICctbWV0YWxfYmluZGluZycsICctaW1hZScsICc8aW5maWxlLm1hZT4nLCAnLW9tYWUnLCAnPG91dGZpbGUubWFlPic=

> <r_lp_tautomer_probability>
1

> <r_epik_Ionization_Penalty>
2.96745e-05

> <r_epik_Ionization_Penalty_Charging>
0

> <r_epik_Ionization_Penalty_Neutral>
2.96745e-05

> <r_epik_State_Penalty>
-0

> <r_epik_Charging_Adjusted_Penalty>
0

> <i_epik_Tot_Q>
0

> <i_epik_Tot_abs_Q>
0

> <r_epik_Metal_State_Penalty>
-0

> <b_epik_Metal_Only>
0

> <s_lp_Force_Field>
OPLS_2005

> <r_lp_Energy>
30.3521

> <b_lp_Chiralities_Consistent>
1

> <s_lp_Variant>
AV-unprocessed.smi:2861-1

> <Gold.Version>
5.8.1

> <Gold.Id.Protein>
6NUR|6NUR_protein|mol2

> <Gold.PLP.Fitness>
44.9152

> <Gold.PLP.PLP>
-36.0630

> <Gold.PLP.part.hbond>
-2.2131

> <Gold.PLP.part.metal>
0.0000

> <Gold.PLP.part.buried>
-1.6126

> <Gold.PLP.part.nonpolar>
-31.4869

> <Gold.PLP.part.repulsive>
0.0608

> <Gold.PLP.ligand.clash>
0.0000

> <Gold.PLP.ligand.torsion>
0.0947

> <Gold.PLP.Chemscore.Hbond>
2.0000

> <Gold.PLP.Chemscore.CHOScore>
1.0000

> <Gold.PLP.Chemscore.Metal>
0.0000

> <Gold.Chemscore.Hbonds>
donor molecule, donor type, donor heavy atom, donor atom, acceptor molecule, acceptor atom, score
      L1  H    15    28       P1  7948  0.95
      P1  H  7997  8008       L1    13  1.00
      L1  C     5    21       P1  7957  0.72

> <Gold.PLP.Chemscore.Internal.Correction>
0.0417

> <Gold.Rescore>
     Score         DG    S(hbond)    S(metal)    S(lipo)     H(rot)  DE(clash)    DE(int)     intcor
     14.06     -16.48       1.80        0.00      75.34       1.49       0.11       2.31       ----

> <Gold.Chemscore.Fitness>
14.0553

> <Gold.Chemscore.DG>
-16.4777

> <Gold.Chemscore.ZeroCoef>
-5.4800

> <Gold.Chemscore.Hbond>
1.7972

> <Gold.Chemscore.Metal>
0.0000

> <Gold.Chemscore.Lipo>
75.3372

> <Gold.Chemscore.Internal_Hbond>
0.0000

> <Gold.Chemscore.DEClash>
0.1106

> <Gold.Chemscore.DEInternal>
2.3118

> <Gold.Chemscore.Rot>
1.4920

> <Gold.Chemscore.Internal.Correction>
   9.000000E+99

> <Gold.Chemscore.Hbonds>
donor molecule, donor type, donor heavy atom, donor atom, acceptor molecule, acceptor atom, score
      L1  H    15    28       P1  7948  0.21
      P1  H  7997  8008       L1    13  0.90

> <Gold.Chemscore.Hbond.Weighted>
-6.0027

> <Gold.Chemscore.Metal.Weighted>
-0.0000

> <Gold.Chemscore.Lipo.Weighted>
-8.8145

> <Gold.Chemscore.Internal_Hbond.Weighted>
0.0000

> <Gold.Chemscore.DEClash.Weighted>
0.1106

> <Gold.Chemscore.DEInternal.Weighted>
2.3118

> <Gold.Chemscore.Rot.Weighted>
3.8194

> <Gold.Chemscore.Internal.Correction.Weighted>
   9.000000E+99

> <Gold.Protein.RotatedTorsions>
[ 6907 6896 6895 6894 ] final  167.00 input  -60.11 | X-H torsion
[ 7974 7965 7964 7962 ] final   35.56 input  175.53 | X-H torsion
[ 8008 7997 7996 7995 ] final -100.04 input   59.86 | X-H torsion
[ 10167 10162 10161 10158 ] final    7.01 input  -65.29 | X-H torsion
[ 10718 10713 10712 10709 ] final  106.77 input   66.30 | X-H torsion
[ 10763 10752 10751 10750 ] final  -39.22 input  -60.55 | X-H torsion
[ 11005 11000 10999 10996 ] final  -98.66 input  -57.11 | X-H torsion

> <Gold.Protein.ActiveResidues>
 VAL166  LYS551  ARG553  GLY616  TRP617  ASP618  TYR619  PRO620  LYS621  CYS622 
 ASP623  PHE694  ASN695  SER759  ASP760  ASP761  ALA762  ILE779  LEU786  VAL792 
 PHE793  MET794  SER795  GLU796  ALA797  LYS798  CYS799  TRP800  GLU811  SER814 

> <Gold.Protein.RotatedAtoms>
  151.8701  133.3474  159.3731 H   0  0  0  0  0  0  0  0  0  0  0  0  # atno 6907 bound_to 6896
  150.7155  134.5121  159.5622 H   0  0  0  0  0  0  0  0  0  0  0  0  # atno 6908 bound_to 6896
  152.2652  134.7992  160.0475 H   0  0  0  0  0  0  0  0  0  0  0  0  # atno 6909 bound_to 6896
  146.1274  139.6127  142.9249 H   0  0  0  0  0  0  0  0  0  0  0  0  # atno 7974 bound_to 7965
  154.8231  140.0443  157.1424 H   0  0  0  0  0  0  0  0  0  0  0  0  # atno 8008 bound_to 7997
  154.9237  140.3030  155.5183 H   0  0  0  0  0  0  0  0  0  0  0  0  # atno 8009 bound_to 7997
  156.2981  140.2336  156.4290 H   0  0  0  0  0  0  0  0  0  0  0  0  # atno 8010 bound_to 7997
  140.6396  143.7805  150.7409 H   0  0  0  0  0  0  0  0  0  0  0  0  # atno 10167 bound_to 10162
  157.6655  131.0858  150.6057 H   0  0  0  0  0  0  0  0  0  0  0  0  # atno 10718 bound_to 10713
  153.9257  135.6777  153.4746 H   0  0  0  0  0  0  0  0  0  0  0  0  # atno 10763 bound_to 10752
  153.1005  135.4830  154.8856 H   0  0  0  0  0  0  0  0  0  0  0  0  # atno 10764 bound_to 10752
  154.7454  135.3171  154.8610 H   0  0  0  0  0  0  0  0  0  0  0  0  # atno 10765 bound_to 10752
  141.1337  133.8262  157.0869 H   0  0  0  0  0  0  0  0  0  0  0  0  # atno 11005 bound_to 11000
  145.5335  141.0425  143.2370 LP  0  0  0  0  0  0  0  0  0  0  0  0  # atno 17320 bound_to 7965
  144.7656  139.6853  143.7216 LP  0  0  0  0  0  0  0  0  0  0  0  0  # atno 17321 bound_to 7965
  140.1434  143.4421  152.2179 LP  0  0  0  0  0  0  0  0  0  0  0  0  # atno 17342 bound_to 10162
  139.5605  144.7402  151.4168 LP  0  0  0  0  0  0  0  0  0  0  0  0  # atno 17343 bound_to 10162
  156.6358  130.4444  149.5770 LP  0  0  0  0  0  0  0  0  0  0  0  0  # atno 17370 bound_to 10713
  156.2247  130.6758  151.1404 LP  0  0  0  0  0  0  0  0  0  0  0  0  # atno 17371 bound_to 10713
  140.0416  134.9851  157.0973 LP  0  0  0  0  0  0  0  0  0  0  0  0  # atno 17394 bound_to 11000
  140.4126  134.1965  155.7163 LP  0  0  0  0  0  0  0  0  0  0  0  0  # atno 17395 bound_to 11000

$$$$
