AV-unprocessed.smi:11|AV-procd|sdf|58|dock7
  -GOLD-   2262015173D 1   1.00000     0.00000
 Structure written by MMmdl.
 34 36  0  0  0  0  0  0  0  0  2 V2000
  152.7915  144.7639  157.9646 C   0  0  0  0  0  0  0  0  0  0  0  0
  152.0978  143.7588  157.0294 C   0  0  0  0  0  0  0  0  0  0  0  0
  150.8129  143.1047  157.5959 C   0  0  2  0  0  0  0  0  0  0  0  0
  149.9540  144.1262  158.0635 O   0  0  0  0  0  0  0  0  0  0  0  0
  151.1339  142.1345  158.7416 C   0  0  0  0  0  0  0  0  0  0  0  0
  151.4106  140.8170  158.0203 C   0  0  0  0  0  0  0  0  0  0  0  0
  150.5319  140.8398  156.8598 N   0  0  0  0  0  0  0  0  0  0  0  0
  150.6636  139.8947  155.8224 C   0  0  0  0  0  0  0  0  0  0  0  0
  151.7925  139.1337  155.7939 N   0  0  0  0  0  0  0  0  0  0  0  0
  152.0172  138.2110  154.8478 C   0  0  0  0  0  0  0  0  0  0  0  0
  151.1500  137.9607  153.8623 N   0  3  0  0  0  0  0  0  0  0  0  0
  150.0031  138.6860  153.8591 C   0  0  0  0  0  0  0  0  0  0  0  0
  148.9479  138.6218  152.9735 N   0  0  0  0  0  0  0  0  0  0  0  0
  147.9678  139.5278  153.3396 C   0  0  0  0  0  0  0  0  0  0  0  0
  148.3745  140.1944  154.4682 C   0  0  0  0  0  0  0  0  0  0  0  0
  149.6767  139.6816  154.8161 C   0  0  0  0  0  0  0  0  0  0  0  0
  150.0885  142.1991  156.5809 C   0  0  0  0  0  0  0  0  0  0  0  0
  148.8677  138.0128  152.1715 H   0  0  0  0  0  0  0  0  0  0  0  0
  153.6995  145.1502  157.5012 H   0  0  0  0  0  0  0  0  0  0  0  0
  153.0807  144.3006  158.9081 H   0  0  0  0  0  0  0  0  0  0  0  0
  152.1560  145.6191  158.1913 H   0  0  0  0  0  0  0  0  0  0  0  0
  151.8688  144.2613  156.0891 H   0  0  0  0  0  0  0  0  0  0  0  0
  152.8150  142.9758  156.7792 H   0  0  0  0  0  0  0  0  0  0  0  0
  149.4747  144.4765  157.3284 H   0  0  0  0  0  0  0  0  0  0  0  0
  151.9639  142.4581  159.3705 H   0  0  0  0  0  0  0  0  0  0  0  0
  150.2620  142.0082  159.3861 H   0  0  0  0  0  0  0  0  0  0  0  0
  152.4521  140.7718  157.6987 H   0  0  0  0  0  0  0  0  0  0  0  0
  151.2094  139.9567  158.6595 H   0  0  0  0  0  0  0  0  0  0  0  0
  152.9280  137.6303  154.8561 H   0  0  0  0  0  0  0  0  0  0  0  0
  147.0559  139.6232  152.7675 H   0  0  0  0  0  0  0  0  0  0  0  0
  147.8236  140.9582  154.9965 H   0  0  0  0  0  0  0  0  0  0  0  0
  149.0085  142.2363  156.7297 H   0  0  0  0  0  0  0  0  0  0  0  0
  150.2938  142.4918  155.5522 H   0  0  0  0  0  0  0  0  0  0  0  0
  151.3310  137.2559  153.1476 H   0  0  0  0  0  0  0  0  0  0  0  0
  1  2  1  0  0  0  0
  1 19  1  0  0  0  0
  1 20  1  0  0  0  0
  1 21  1  0  0  0  0
  2  3  1  0  0  0  0
  2 22  1  0  0  0  0
  2 23  1  0  0  0  0
  3 17  1  0  0  0  0
  3  4  1  0  0  0  0
  3  5  1  0  0  0  0
  4 24  1  0  0  0  0
  5  6  1  0  0  0  0
  5 25  1  0  0  0  0
  5 26  1  0  0  0  0
  6  7  1  0  0  0  0
  6 27  1  0  0  0  0
  6 28  1  0  0  0  0
  7  8  1  0  0  0  0
  7 17  1  0  0  0  0
  8 16  1  0  0  0  0
  8  9  2  0  0  0  0
  9 10  1  0  0  0  0
 10 11  2  0  0  0  0
 10 29  1  0  0  0  0
 11 12  1  0  0  0  0
 11 34  1  0  0  0  0
 12 16  2  0  0  0  0
 12 13  1  0  0  0  0
 13 18  1  0  0  0  0
 13 14  1  0  0  0  0
 14 15  2  0  0  0  0
 14 30  1  0  0  0  0
 15 16  1  0  0  0  0
 15 31  1  0  0  0  0
 17 32  1  0  0  0  0
 17 33  1  0  0  0  0
M  CHG  1  11   1
M  END
> <s_m_source_file>
AV-unprocessed.smi

> <i_m_source_file_index>
11

> <i_lp_mmshare_version>
43012

> <i_f3d_flags>
0

> <s_epik_input>
W0NIM11bQ0gyXVtDQEBdMShbT0hdKVtDSDJdW0NIMl1OKFtDSDJdMSljKG5bY0hdbjIpYyhjMjMpW2NIXVtjSF1bbkhdMw==

> <s_epik_cmdline>
J2VwaWtfcHl0aG9uJywgJy1waCcsICc3LjAnLCAnLXRuJywgJzgnLCAnLW1hJywgJzIwMCcsICctbWV0YWxfYmluZGluZycsICctaW1hZScsICc8aW5maWxlLm1hZT4nLCAnLW9tYWUnLCAnPG91dGZpbGUubWFlPic=

> <r_lp_tautomer_probability>
1.75997e-05

> <r_epik_Ionization_Penalty>
1.53257

> <r_epik_Ionization_Penalty_Charging>
1.53255

> <r_epik_Ionization_Penalty_Neutral>
1.78556e-05

> <r_epik_State_Penalty>
1.6253

> <r_epik_Charging_Adjusted_Penalty>
3.15785

> <i_epik_Tot_Q>
1

> <i_epik_Tot_abs_Q>
1

> <r_epik_Metal_State_Penalty>
1.66891

> <b_epik_Metal_Only>
0

> <s_lp_Force_Field>
OPLS_2005

> <r_lp_Energy>
33.3454

> <b_lp_Chiralities_Consistent>
1

> <s_lp_Variant>
AV-unprocessed.smi:11-4

> <Gold.Version>
5.8.1

> <Gold.Id.Protein>
6NUR|6NUR_protein|mol2

> <Gold.PLP.Fitness>
43.9906

> <Gold.PLP.PLP>
-31.3441

> <Gold.PLP.part.hbond>
-4.7835

> <Gold.PLP.part.metal>
0.0000

> <Gold.PLP.part.buried>
-2.8696

> <Gold.PLP.part.nonpolar>
-24.4056

> <Gold.PLP.part.repulsive>
0.1925

> <Gold.PLP.ligand.clash>
0.0000

> <Gold.PLP.ligand.torsion>
0.4791

> <Gold.PLP.Chemscore.Hbond>
4.4539

> <Gold.PLP.Chemscore.CHOScore>
0.0000

> <Gold.PLP.Chemscore.Metal>
0.0000

> <Gold.Chemscore.Hbonds>
donor molecule, donor type, donor heavy atom, donor atom, acceptor molecule, acceptor atom, score
      L1  H     4    24       P1  8028  0.65
      L1  H    11    34       P1  7949  1.69
      L1  H    13    18       P1  7948  1.50

> <Gold.PLP.Chemscore.Internal.Correction>
0.2432

> <Gold.Rescore>
     Score         DG    S(hbond)    S(metal)    S(lipo)     H(rot)  DE(clash)    DE(int)     intcor
     13.68     -14.78       1.43        0.00      70.10       1.44       0.71       0.40       ----

> <Gold.Chemscore.Fitness>
13.6754

> <Gold.Chemscore.DG>
-14.7843

> <Gold.Chemscore.ZeroCoef>
-5.4800

> <Gold.Chemscore.Hbond>
1.4332

> <Gold.Chemscore.Metal>
0.0000

> <Gold.Chemscore.Lipo>
70.1016

> <Gold.Chemscore.Internal_Hbond>
0.0000

> <Gold.Chemscore.DEClash>
0.7119

> <Gold.Chemscore.DEInternal>
0.3970

> <Gold.Chemscore.Rot>
1.4392

> <Gold.Chemscore.Internal.Correction>
   9.000000E+99

> <Gold.Chemscore.Hbonds>
donor molecule, donor type, donor heavy atom, donor atom, acceptor molecule, acceptor atom, score
      L1  H     4    24       P1  8028  0.06
      L1  H    11    34       P1  7949  0.61
      L1  H    13    18       P1  7948  0.75

> <Gold.Chemscore.Hbond.Weighted>
-4.7868

> <Gold.Chemscore.Metal.Weighted>
-0.0000

> <Gold.Chemscore.Lipo.Weighted>
-8.2019

> <Gold.Chemscore.Internal_Hbond.Weighted>
0.0000

> <Gold.Chemscore.DEClash.Weighted>
0.7119

> <Gold.Chemscore.DEInternal.Weighted>
0.3970

> <Gold.Chemscore.Rot.Weighted>
3.6844

> <Gold.Chemscore.Internal.Correction.Weighted>
   9.000000E+99

> <Gold.Protein.RotatedTorsions>
[ 6907 6896 6895 6894 ] final  -76.41 input  -60.11 | X-H torsion
[ 7974 7965 7964 7962 ] final -107.79 input  175.53 | X-H torsion
[ 8008 7997 7996 7995 ] final  -73.74 input   59.86 | X-H torsion
[ 10167 10162 10161 10158 ] final  -86.18 input  -65.29 | X-H torsion
[ 10718 10713 10712 10709 ] final  120.74 input   66.30 | X-H torsion
[ 10763 10752 10751 10750 ] final  100.42 input  -60.55 | X-H torsion
[ 11005 11000 10999 10996 ] final  109.56 input  -57.11 | X-H torsion

> <Gold.Protein.ActiveResidues>
 VAL166  LYS551  ARG553  GLY616  TRP617  ASP618  TYR619  PRO620  LYS621  CYS622 
 ASP623  PHE694  ASN695  SER759  ASP760  ASP761  ALA762  ILE779  LEU786  VAL792 
 PHE793  MET794  SER795  GLU796  ALA797  LYS798  CYS799  TRP800  GLU811  SER814 

> <Gold.Protein.RotatedAtoms>
  150.7028  134.4576  159.5365 H   0  0  0  0  0  0  0  0  0  0  0  0  # atno 6907 bound_to 6896
  152.2257  134.8367  160.0489 H   0  0  0  0  0  0  0  0  0  0  0  0  # atno 6908 bound_to 6896
  151.9202  133.3548  159.3931 H   0  0  0  0  0  0  0  0  0  0  0  0  # atno 6909 bound_to 6896
  145.2009  140.9056  143.3370 H   0  0  0  0  0  0  0  0  0  0  0  0  # atno 7974 bound_to 7965
  154.5272  140.0774  156.8280 H   0  0  0  0  0  0  0  0  0  0  0  0  # atno 8008 bound_to 7997
  155.3450  140.3409  155.4221 H   0  0  0  0  0  0  0  0  0  0  0  0  # atno 8009 bound_to 7997
  156.1744  140.1630  156.8376 H   0  0  0  0  0  0  0  0  0  0  0  0  # atno 8010 bound_to 7997
  140.3966  143.2681  151.9196 H   0  0  0  0  0  0  0  0  0  0  0  0  # atno 10167 bound_to 10162
  157.5869  131.1069  150.8077 H   0  0  0  0  0  0  0  0  0  0  0  0  # atno 10718 bound_to 10713
  153.3138  135.4079  155.1358 H   0  0  0  0  0  0  0  0  0  0  0  0  # atno 10763 bound_to 10752
  154.8583  135.3571  154.5688 H   0  0  0  0  0  0  0  0  0  0  0  0  # atno 10764 bound_to 10752
  153.6118  135.7067  153.5402 H   0  0  0  0  0  0  0  0  0  0  0  0  # atno 10765 bound_to 10752
  139.8864  134.9461  156.6145 H   0  0  0  0  0  0  0  0  0  0  0  0  # atno 11005 bound_to 11000
  144.9949  139.3654  143.6196 LP  0  0  0  0  0  0  0  0  0  0  0  0  # atno 17320 bound_to 7965
  146.3418  139.9147  142.8775 LP  0  0  0  0  0  0  0  0  0  0  0  0  # atno 17321 bound_to 7965
  139.4786  144.5675  151.8141 LP  0  0  0  0  0  0  0  0  0  0  0  0  # atno 17342 bound_to 10162
  140.4784  144.1485  150.5928 LP  0  0  0  0  0  0  0  0  0  0  0  0  # atno 17343 bound_to 10162
  156.8509  130.5080  149.5312 LP  0  0  0  0  0  0  0  0  0  0  0  0  # atno 17370 bound_to 10713
  156.0919  130.5902  150.9747 LP  0  0  0  0  0  0  0  0  0  0  0  0  # atno 17371 bound_to 10713
  140.7786  133.8678  155.8549 LP  0  0  0  0  0  0  0  0  0  0  0  0  # atno 17394 bound_to 11000
  140.9780  134.1444  157.4519 LP  0  0  0  0  0  0  0  0  0  0  0  0  # atno 17395 bound_to 11000

$$$$
