#       Name:                AV-unprocessed.smi:325
#       Creating user name   scv26
#       Creation time:       Thu Mar 26 22:25:16 2020


#       File generated by GOLD software.
#

@<TRIPOS>MOLECULE
AV-unprocessed.smi:325
    53    54     1
SMALL
NO_CHARGES


@<TRIPOS>ATOM
      1 ****        -1.8250  -0.7993  -1.4894 C.3            1 S1                 0.0000
      2 ****        -1.4418   0.1551  -0.3722 C.2            1 S1                 0.0000
      3 ****        -1.9156   1.4661  -0.5057 N.2            1 S1                 0.0000
      4 ****        -1.6332   2.3580   0.3914 C.2            1 S1                 0.0000
      5 ****        -2.0443   3.6929   0.3765 N.pl3          1 S1                 0.0000
      6 ****        -1.1420   4.7766   0.7744 C.3            1 S1                 0.0000
      7 ****        -1.9243   6.0333   1.1918 C.3            1 S1                 0.0000
      8 ****        -2.7960   6.4271   0.1410 O.3            1 S1                 0.0000
      9 ****        -3.7512   5.4148  -0.1451 C.3            1 S1                 0.0000
     10 ****        -3.0304   4.1377  -0.6084 C.3            1 S1                 0.0000
     11 ****        -0.8632   2.0117   1.5073 N.am           1 S1                 0.0000
     12 ****        -0.3574   0.7780   1.7261 C.2            1 S1                 0.0000
     13 ****         0.3214   0.5512   2.7266 O.2            1 S1                 0.0000
     14 ****        -0.6798  -0.2196   0.6930 C.2            1 S1                 0.0000
     15 ****        -0.1494  -1.6380   0.8843 C.3            1 S1                 0.0000
     16 ****         1.2977  -1.7857   0.3772 C.3            1 S1                 0.0000
     17 ****         1.8469  -3.2085   0.5178 C.2            1 S1                 0.0000
     18 ****         1.4592  -3.9452   1.4252 O.2            1 S1                 0.0000
     19 ****         2.7616  -3.5792  -0.3919 N.am           1 S1                 0.0000
     20 ****         3.4339  -4.8743  -0.4400 C.3            1 S1                 0.0000
     21 ****         4.7887  -4.7176  -1.1434 C.3            1 S1                 0.0000
     22 ****         2.5486  -5.9172  -1.1405 C.3            1 S1                 0.0000
     23 ****        -0.6668   2.7231   2.1959 H              1 S1                 0.0000
     24 ****        -0.9429  -1.3011  -1.8879 H              1 S1                 0.0000
     25 ****        -2.3085  -0.2721  -2.3129 H              1 S1                 0.0000
     26 ****        -2.5185  -1.5557  -1.1215 H              1 S1                 0.0000
     27 ****        -0.4935   4.4808   1.5990 H              1 S1                 0.0000
     28 ****        -0.4887   5.0112  -0.0669 H              1 S1                 0.0000
     29 ****        -2.4927   5.8512   2.1052 H              1 S1                 0.0000
     30 ****        -1.2348   6.8504   1.4044 H              1 S1                 0.0000
     31 ****        -4.3652   5.2168   0.7350 H              1 S1                 0.0000
     32 ****        -4.4221   5.7714  -0.9268 H              1 S1                 0.0000
     33 ****        -2.5251   4.3179  -1.5583 H              1 S1                 0.0000
     34 ****        -3.7722   3.3575  -0.7857 H              1 S1                 0.0000
     35 ****        -0.2123  -1.9035   1.9409 H              1 S1                 0.0000
     36 ****        -0.7942  -2.3527   0.3731 H              1 S1                 0.0000
     37 ****         1.3473  -1.4856  -0.6707 H              1 S1                 0.0000
     38 ****         1.9569  -1.1120   0.9258 H              1 S1                 0.0000
     39 ****         3.0191  -2.9082  -1.1011 H              1 S1                 0.0000
     40 ****         3.6271  -5.2109   0.5801 H              1 S1                 0.0000
     41 ****         5.3309  -5.6633  -1.1628 H              1 S1                 0.0000
     42 ****         5.4168  -3.9895  -0.6286 H              1 S1                 0.0000
     43 ****         4.6661  -4.3828  -2.1741 H              1 S1                 0.0000
     44 ****         3.0413  -6.8893  -1.1724 H              1 S1                 0.0000
     45 ****         2.3252  -5.6235  -2.1667 H              1 S1                 0.0000
     46 ****         1.6008  -6.0488  -0.6175 H              1 S1                 0.0000
     47 ****        -2.4743   1.7153  -1.2968 LP             1 S1                 0.0000
     48 ****        -2.2551   6.6061  -0.6809 LP             1 S1                 0.0000
     49 ****        -3.2766   7.2611   0.4119 LP             1 S1                 0.0000
     50 ****         0.5021   1.2823   3.3845 LP             1 S1                 0.0000
     51 ****         0.6925  -0.3643   2.8820 LP             1 S1                 0.0000
     52 ****         0.7788  -3.6163   2.0800 LP             1 S1                 0.0000
     53 ****         1.8248  -4.8723   1.5072 LP             1 S1                 0.0000
@<TRIPOS>BOND
    1    1    2 1     
    2    1   24 1     
    3    1   25 1     
    4    1   26 1     
    5    2   14 2     
    6    2    3 1     
    7    3    4 2     
    8    4    5 1     
    9    4   11 1     
   10    5   10 1     
   11    5    6 1     
   12    6    7 1     
   13    6   27 1     
   14    6   28 1     
   15    7    8 1     
   16    7   29 1     
   17    7   30 1     
   18    8    9 1     
   19    9   10 1     
   20    9   31 1     
   21    9   32 1     
   22   10   33 1     
   23   10   34 1     
   24   11   23 1     
   25   11   12 am    
   26   12   13 2     
   27   12   14 1     
   28   14   15 1     
   29   15   16 1     
   30   15   35 1     
   31   15   36 1     
   32   16   17 1     
   33   16   37 1     
   34   16   38 1     
   35   17   18 2     
   36   17   19 am    
   37   19   20 1     
   38   19   39 1     
   39   20   21 1     
   40   20   22 1     
   41   20   40 1     
   42   21   41 1     
   43   21   42 1     
   44   21   43 1     
   45   22   44 1     
   46   22   45 1     
   47   22   46 1     
   48    3   47 1     
   49    8   48 1     
   50    8   49 1     
   51   13   50 1     
   52   13   51 1     
   53   18   52 1     
   54   18   53 1     
@<TRIPOS>SUBSTRUCTURE
      1 S1             1
@<TRIPOS>SET
LONE_PAIRS      STATIC     ATOMS    <user>   **** ""
7 47 48 49 50 51 52 53
DONOR_HYDROGENS      STATIC     ATOMS    <user>   **** ""
2 23 39
ATOM$BLUE        STATIC     ATOMS    COLORGROUP SYSTEM
7 47 48 49 50 51 52 53
ATOM$RED        STATIC     ATOMS    COLORGROUP SYSTEM
2 23 39
