AV-unprocessed.smi:1414|AV-procd|sdf|5761|dock5
  -GOLD-   22720 5403D 1   1.00000     0.00000
 Structure written by MMmdl.
 45 46  0  0  0  0  0  0  0  0  1 V2000
  153.0296  138.4262  154.6706 C   0  0  0  0  0  0  0  0  0  0  0  0
  151.8250  139.0554  155.3787 C   0  0  2  0  0  0  0  0  0  0  0  0
  150.8178  139.6598  154.3801 C   0  0  0  0  0  0  0  0  0  0  0  0
  149.7492  140.3944  155.0782 N   0  0  0  0  0  0  0  0  0  0  0  0
  148.1723  139.6811  155.2448 S   0  0  0  0  0  0  0  0  0  0  0  0
  148.3384  138.3579  155.8658 O   0  0  0  0  0  0  0  0  0  0  0  0
  147.2919  140.6727  155.8816 O   0  0  0  0  0  0  0  0  0  0  0  0
  147.6030  139.4334  153.5101 C   0  0  0  0  0  0  0  0  0  0  0  0
  146.3324  138.5716  153.4714 C   0  0  0  0  0  0  0  0  0  0  0  0
  146.5524  137.3208  152.7536 N   0  0  0  0  0  0  0  0  0  0  0  0
  145.5957  136.4369  152.4365 C   0  0  0  0  0  0  0  0  0  0  0  0
  144.4087  136.5927  152.7221 O   0  0  0  0  0  0  0  0  0  0  0  0
  146.1097  135.3758  151.7909 N   0  0  0  0  0  0  0  0  0  0  0  0
  145.4344  134.2342  151.2792 C   0  0  0  0  0  0  0  0  0  0  0  0
  146.0457  133.2322  150.4867 C   0  0  0  0  0  0  0  0  0  0  0  0
  145.2695  132.1395  150.0547 C   0  0  0  0  0  0  0  0  0  0  0  0
  143.9146  132.0842  150.4347 C   0  0  0  0  0  0  0  0  0  0  0  0
  143.3223  133.0243  151.2007 N   0  0  0  0  0  0  0  0  0  0  0  0
  144.0730  134.0685  151.6120 C   0  0  0  0  0  0  0  0  0  0  0  0
  150.2416  141.3315  156.1015 C   0  0  0  0  0  0  0  0  0  0  0  0
  151.2691  140.6532  157.0290 C   0  0  2  0  0  0  0  0  0  0  0  0
  151.9080  141.6481  158.0040 C   0  0  0  0  0  0  0  0  0  0  0  0
  152.3048  140.0751  156.2454 O   0  0  0  0  0  0  0  0  0  0  0  0
  152.7162  137.6259  154.0000 H   0  0  0  0  0  0  0  0  0  0  0  0
  153.7264  138.0002  155.3926 H   0  0  0  0  0  0  0  0  0  0  0  0
  153.5718  139.1654  154.0803 H   0  0  0  0  0  0  0  0  0  0  0  0
  151.3432  138.2810  155.9753 H   0  0  0  0  0  0  0  0  0  0  0  0
  151.3319  140.3580  153.7183 H   0  0  0  0  0  0  0  0  0  0  0  0
  150.3941  138.8834  153.7435 H   0  0  0  0  0  0  0  0  0  0  0  0
  147.4117  140.4117  153.0720 H   0  0  0  0  0  0  0  0  0  0  0  0
  148.4059  138.9573  152.9493 H   0  0  0  0  0  0  0  0  0  0  0  0
  146.0194  138.3285  154.4868 H   0  0  0  0  0  0  0  0  0  0  0  0
  145.5085  139.1243  153.0166 H   0  0  0  0  0  0  0  0  0  0  0  0
  147.5033  137.1101  152.4875 H   0  0  0  0  0  0  0  0  0  0  0  0
  147.1147  135.3590  151.6983 H   0  0  0  0  0  0  0  0  0  0  0  0
  147.0884  133.2691  150.2139 H   0  0  0  0  0  0  0  0  0  0  0  0
  145.7048  131.3593  149.4481 H   0  0  0  0  0  0  0  0  0  0  0  0
  143.2920  131.2599  150.1201 H   0  0  0  0  0  0  0  0  0  0  0  0
  143.5667  134.7994  152.2256 H   0  0  0  0  0  0  0  0  0  0  0  0
  150.7077  142.1758  155.5924 H   0  0  0  0  0  0  0  0  0  0  0  0
  149.4107  141.7366  156.6787 H   0  0  0  0  0  0  0  0  0  0  0  0
  150.7869  139.8696  157.6136 H   0  0  0  0  0  0  0  0  0  0  0  0
  151.1543  142.1160  158.6377 H   0  0  0  0  0  0  0  0  0  0  0  0
  152.4369  142.4393  157.4718 H   0  0  0  0  0  0  0  0  0  0  0  0
  152.6254  141.1481  158.6549 H   0  0  0  0  0  0  0  0  0  0  0  0
  1  2  1  0  0  0  0
  1 24  1  0  0  0  0
  1 25  1  0  0  0  0
  1 26  1  0  0  0  0
  2 23  1  0  0  0  0
  2  3  1  0  0  0  0
  2 27  1  0  0  0  0
  3  4  1  0  0  0  0
  3 28  1  0  0  0  0
  3 29  1  0  0  0  0
  4  5  1  0  0  0  0
  4 20  1  0  0  0  0
  5  6  2  0  0  0  0
  5  7  2  0  0  0  0
  5  8  1  0  0  0  0
  8  9  1  0  0  0  0
  8 30  1  0  0  0  0
  8 31  1  0  0  0  0
  9 10  1  0  0  0  0
  9 32  1  0  0  0  0
  9 33  1  0  0  0  0
 10 11  1  0  0  0  0
 10 34  1  0  0  0  0
 11 12  2  0  0  0  0
 11 13  1  0  0  0  0
 13 14  1  0  0  0  0
 13 35  1  0  0  0  0
 14 19  1  0  0  0  0
 14 15  2  0  0  0  0
 15 16  1  0  0  0  0
 15 36  1  0  0  0  0
 16 17  2  0  0  0  0
 16 37  1  0  0  0  0
 17 18  1  0  0  0  0
 17 38  1  0  0  0  0
 18 19  2  0  0  0  0
 19 39  1  0  0  0  0
 20 21  1  0  0  0  0
 20 40  1  0  0  0  0
 20 41  1  0  0  0  0
 21 22  1  0  0  0  0
 21 23  1  0  0  0  0
 21 42  1  0  0  0  0
 22 43  1  0  0  0  0
 22 44  1  0  0  0  0
 22 45  1  0  0  0  0
M  END
> <s_m_source_file>
AV-unprocessed.smi

> <i_m_source_file_index>
1414

> <i_lp_mmshare_version>
43012

> <i_f3d_flags>
0

> <s_epik_input>
W0NIM11bQ0BASF0xW0NIMl1OKFtDSDJdW0NASF0oTzEpW0NIM10pUyg9TykoPU8pW0NIMl1bQ0gyXVtOSF1DKD1PKVtOSF1jMltjSF1bY0hdW2NIXW5bY0hdMg==

> <s_epik_cmdline>
J2VwaWtfcHl0aG9uJywgJy1waCcsICc3LjAnLCAnLXRuJywgJzgnLCAnLW1hJywgJzIwMCcsICctbWV0YWxfYmluZGluZycsICctaW1hZScsICc8aW5maWxlLm1hZT4nLCAnLW9tYWUnLCAnPG91dGZpbGUubWFlPic=

> <r_epik_Ionization_Penalty>
0.00437531

> <r_epik_Ionization_Penalty_Charging>
0

> <r_epik_Ionization_Penalty_Neutral>
0.00437531

> <r_epik_State_Penalty>
0.00312896

> <r_epik_Charging_Adjusted_Penalty>
0.00312896

> <i_epik_Tot_Q>
0

> <i_epik_Tot_abs_Q>
0

> <r_epik_Metal_State_Penalty>
-0

> <b_epik_Metal_Only>
0

> <s_lp_Force_Field>
OPLS_2005

> <r_lp_Energy>
4.57438

> <b_lp_Chiralities_Consistent>
1

> <s_lp_Variant>
AV-unprocessed.smi:1414-2

> <Gold.Version>
5.8.1

> <Gold.Id.Protein>
6NUR|6NUR_protein|mol2

> <Gold.PLP.Fitness>
46.3163

> <Gold.PLP.PLP>
-36.6676

> <Gold.PLP.part.hbond>
-3.0000

> <Gold.PLP.part.metal>
0.0000

> <Gold.PLP.part.buried>
-2.7281

> <Gold.PLP.part.nonpolar>
-32.0791

> <Gold.PLP.part.repulsive>
0.5526

> <Gold.PLP.ligand.clash>
0.0000

> <Gold.PLP.ligand.torsion>
1.7037

> <Gold.PLP.Chemscore.Hbond>
2.9750

> <Gold.PLP.Chemscore.CHOScore>
0.6599

> <Gold.PLP.Chemscore.Metal>
0.0000

> <Gold.Chemscore.Hbonds>
donor molecule, donor type, donor heavy atom, donor atom, acceptor molecule, acceptor atom, score
      L1  H    10    34       P1  7948  1.00
      L1  H    13    35       P1  7948  1.00
      P1  H  7997  8010       L1    23  1.00
      L1  C    17    38       P1 10952  0.59

> <Gold.PLP.Chemscore.Internal.Correction>
2.1515

> <Gold.Rescore>
     Score         DG    S(hbond)    S(metal)    S(lipo)     H(rot)  DE(clash)    DE(int)     intcor
     17.95     -22.51       2.92        0.00      96.60       1.57       1.39       3.16       ----

> <Gold.Chemscore.Fitness>
17.9537

> <Gold.Chemscore.DG>
-22.5097

> <Gold.Chemscore.ZeroCoef>
-5.4800

> <Gold.Chemscore.Hbond>
2.9171

> <Gold.Chemscore.Metal>
0.0000

> <Gold.Chemscore.Lipo>
96.6030

> <Gold.Chemscore.Internal_Hbond>
0.0000

> <Gold.Chemscore.DEClash>
1.3926

> <Gold.Chemscore.DEInternal>
3.1635

> <Gold.Chemscore.Rot>
1.5687

> <Gold.Chemscore.Internal.Correction>
   9.000000E+99

> <Gold.Chemscore.Hbonds>
donor molecule, donor type, donor heavy atom, donor atom, acceptor molecule, acceptor atom, score
      L1  H    10    34       P1  7948  1.00
      L1  H    13    35       P1  7948  0.92
      P1  H  7997  8010       L1    23  0.76

> <Gold.Chemscore.Hbond.Weighted>
-9.7431

> <Gold.Chemscore.Metal.Weighted>
-0.0000

> <Gold.Chemscore.Lipo.Weighted>
-11.3026

> <Gold.Chemscore.Internal_Hbond.Weighted>
0.0000

> <Gold.Chemscore.DEClash.Weighted>
1.3926

> <Gold.Chemscore.DEInternal.Weighted>
3.1635

> <Gold.Chemscore.Rot.Weighted>
4.0160

> <Gold.Chemscore.Internal.Correction.Weighted>
   9.000000E+99

> <Gold.Protein.RotatedTorsions>
[ 6907 6896 6895 6894 ] final  -22.23 input  -60.11 | X-H torsion
[ 7974 7965 7964 7962 ] final  -62.87 input  175.53 | X-H torsion
[ 8008 7997 7996 7995 ] final   79.91 input   59.86 | X-H torsion
[ 10167 10162 10161 10158 ] final  133.18 input  -65.29 | X-H torsion
[ 10718 10713 10712 10709 ] final  128.40 input   66.30 | X-H torsion
[ 10763 10752 10751 10750 ] final   58.99 input  -60.55 | X-H torsion
[ 11005 11000 10999 10996 ] final  111.16 input  -57.11 | X-H torsion

> <Gold.Protein.ActiveResidues>
 VAL166  LYS551  ARG553  GLY616  TRP617  ASP618  TYR619  PRO620  LYS621  CYS622 
 ASP623  PHE694  ASN695  SER759  ASP760  ASP761  ALA762  ILE779  LEU786  VAL792 
 PHE793  MET794  SER795  GLU796  ALA797  LYS798  CYS799  TRP800  GLU811  SER814 

> <Gold.Protein.RotatedAtoms>
  151.2216  135.0520  159.8951 H   0  0  0  0  0  0  0  0  0  0  0  0  # atno 6907 bound_to 6896
  152.5415  134.0634  159.8172 H   0  0  0  0  0  0  0  0  0  0  0  0  # atno 6908 bound_to 6896
  151.0801  133.5348  159.2653 H   0  0  0  0  0  0  0  0  0  0  0  0  # atno 6909 bound_to 6896
  145.7860  140.8736  143.0305 H   0  0  0  0  0  0  0  0  0  0  0  0  # atno 7974 bound_to 7965
  155.8763  140.3446  155.5856 H   0  0  0  0  0  0  0  0  0  0  0  0  # atno 8008 bound_to 7997
  155.7771  140.0853  157.2097 H   0  0  0  0  0  0  0  0  0  0  0  0  # atno 8009 bound_to 7997
  154.4021  140.1507  156.2996 H   0  0  0  0  0  0  0  0  0  0  0  0  # atno 8010 bound_to 7997
  139.5308  144.6628  151.4959 H   0  0  0  0  0  0  0  0  0  0  0  0  # atno 10167 bound_to 10162
  157.5248  131.1098  150.9099 H   0  0  0  0  0  0  0  0  0  0  0  0  # atno 10718 bound_to 10713
  152.9883  135.5587  154.5641 H   0  0  0  0  0  0  0  0  0  0  0  0  # atno 10763 bound_to 10752
  154.5054  135.2799  155.1388 H   0  0  0  0  0  0  0  0  0  0  0  0  # atno 10764 bound_to 10752
  154.2802  135.6346  153.5397 H   0  0  0  0  0  0  0  0  0  0  0  0  # atno 10765 bound_to 10752
  139.8897  134.9501  156.6389 H   0  0  0  0  0  0  0  0  0  0  0  0  # atno 11005 bound_to 11000
  144.6789  140.0057  143.7484 LP  0  0  0  0  0  0  0  0  0  0  0  0  # atno 17320 bound_to 7965
  146.0025  139.3103  143.0919 LP  0  0  0  0  0  0  0  0  0  0  0  0  # atno 17321 bound_to 7965
  140.6484  143.8747  150.6760 LP  0  0  0  0  0  0  0  0  0  0  0  0  # atno 17342 bound_to 10162
  140.2104  143.3888  152.1723 LP  0  0  0  0  0  0  0  0  0  0  0  0  # atno 17343 bound_to 10162
  156.9699  130.5487  149.5290 LP  0  0  0  0  0  0  0  0  0  0  0  0  # atno 17370 bound_to 10713
  156.0379  130.5465  150.8699 LP  0  0  0  0  0  0  0  0  0  0  0  0  # atno 17371 bound_to 10713
  140.7609  133.8818  155.8417 LP  0  0  0  0  0  0  0  0  0  0  0  0  # atno 17394 bound_to 11000
  140.9923  134.1262  157.4397 LP  0  0  0  0  0  0  0  0  0  0  0  0  # atno 17395 bound_to 11000

$$$$
