AV-unprocessed.smi:2582|AV-procd|sdf|10134|dock4
  -GOLD-   2272014143D 1   1.00000     0.00000
 Structure written by MMmdl.
 36 38  0  0  0  0  0  0  0  0  2 V2000
  153.2379  139.5008  158.1578 O   0  0  0  0  0  0  0  0  0  0  0  0
  152.4225  140.2820  157.6685 C   0  0  0  0  0  0  0  0  0  0  0  0
  152.2579  141.6565  158.1481 C   0  0  0  0  0  0  0  0  0  0  0  0
  151.3741  142.5318  157.6119 C   0  0  0  0  0  0  0  0  0  0  0  0
  151.2734  143.8301  158.1279 N   0  0  0  0  0  0  0  0  0  0  0  0
  151.1023  144.0421  159.5630 C   0  0  0  0  0  0  0  0  0  0  0  0
  151.9148  145.3200  159.3847 C   0  0  0  0  0  0  0  0  0  0  0  0
  152.4532  144.6882  158.1058 C   0  0  0  0  0  0  0  0  0  0  0  0
  150.5675  142.0258  156.5113 C   0  0  0  0  0  0  0  0  0  0  0  0
  150.6791  140.8236  156.0597 N   0  0  0  0  0  0  0  0  0  0  0  0
  151.5932  139.9514  156.6309 N   0  0  0  0  0  0  0  0  0  0  0  0
  151.6146  138.6051  156.0244 C   0  0  1  0  0  0  0  0  0  0  0  0
  151.2460  137.5102  157.0495 C   0  0  0  0  0  0  0  0  0  0  0  0
  151.2619  136.1277  156.3792 C   0  0  0  0  0  0  0  0  0  0  0  0
  150.3524  136.1071  155.1389 C   0  0  0  0  0  0  0  0  0  0  0  0
  150.7367  137.1736  154.1883 N   0  3  0  0  0  0  0  0  0  0  0  0
  150.6917  138.5253  154.7876 C   0  0  0  0  0  0  0  0  0  0  0  0
  152.8789  141.9813  158.9710 H   0  0  0  0  0  0  0  0  0  0  0  0
  150.0668  144.2069  159.8619 H   0  0  0  0  0  0  0  0  0  0  0  0
  151.6011  143.3021  160.1897 H   0  0  0  0  0  0  0  0  0  0  0  0
  151.3019  146.2058  159.2087 H   0  0  0  0  0  0  0  0  0  0  0  0
  152.6672  145.4868  160.1560 H   0  0  0  0  0  0  0  0  0  0  0  0
  153.3891  144.1466  158.2532 H   0  0  0  0  0  0  0  0  0  0  0  0
  152.4924  145.3622  157.2495 H   0  0  0  0  0  0  0  0  0  0  0  0
  149.8502  142.7269  156.0852 H   0  0  0  0  0  0  0  0  0  0  0  0
  152.6187  138.3640  155.6718 H   0  0  0  0  0  0  0  0  0  0  0  0
  151.9456  137.5264  157.8860 H   0  0  0  0  0  0  0  0  0  0  0  0
  150.2549  137.6894  157.4679 H   0  0  0  0  0  0  0  0  0  0  0  0
  152.2824  135.8715  156.0911 H   0  0  0  0  0  0  0  0  0  0  0  0
  150.9411  135.3656  157.0900 H   0  0  0  0  0  0  0  0  0  0  0  0
  150.4187  135.1414  154.6370 H   0  0  0  0  0  0  0  0  0  0  0  0
  149.3101  136.2440  155.4299 H   0  0  0  0  0  0  0  0  0  0  0  0
  151.6784  136.9958  153.8689 H   0  0  0  0  0  0  0  0  0  0  0  0
  149.6579  138.7541  155.0495 H   0  0  0  0  0  0  0  0  0  0  0  0
  151.0000  139.2535  154.0368 H   0  0  0  0  0  0  0  0  0  0  0  0
  150.1129  137.1461  153.3944 H   0  0  0  0  0  0  0  0  0  0  0  0
  1  2  2  0  0  0  0
  2 11  1  0  0  0  0
  2  3  1  0  0  0  0
  3  4  2  0  0  0  0
  3 18  1  0  0  0  0
  4  5  1  0  0  0  0
  4  9  1  0  0  0  0
  5  8  1  0  0  0  0
  5  6  1  0  0  0  0
  6  7  1  0  0  0  0
  6 19  1  0  0  0  0
  6 20  1  0  0  0  0
  7  8  1  0  0  0  0
  7 21  1  0  0  0  0
  7 22  1  0  0  0  0
  8 23  1  0  0  0  0
  8 24  1  0  0  0  0
  9 10  2  0  0  0  0
  9 25  1  0  0  0  0
 10 11  1  0  0  0  0
 11 12  1  0  0  0  0
 12 17  1  0  0  0  0
 12 13  1  0  0  0  0
 12 26  1  0  0  0  0
 13 14  1  0  0  0  0
 13 27  1  0  0  0  0
 13 28  1  0  0  0  0
 14 15  1  0  0  0  0
 14 29  1  0  0  0  0
 14 30  1  0  0  0  0
 15 16  1  0  0  0  0
 15 31  1  0  0  0  0
 15 32  1  0  0  0  0
 16 17  1  0  0  0  0
 16 33  1  0  0  0  0
 16 36  1  0  0  0  0
 17 34  1  0  0  0  0
 17 35  1  0  0  0  0
M  CHG  1  16   1
M  END
> <s_m_source_file>
AV-unprocessed.smi

> <i_m_source_file_index>
2582

> <i_lp_mmshare_version>
43012

> <i_f3d_flags>
0

> <s_epik_input>
W0NIMl0xW0NIMl1bQ0gyXU4xYyhbY0hdYzI9TylbY0hdbm4yW0NAQEhdM1tDSDJdW0NIMl1bQ0gyXVtOSF1bQ0gyXTM=

> <s_epik_cmdline>
J2VwaWtfcHl0aG9uJywgJy1waCcsICc3LjAnLCAnLXRuJywgJzgnLCAnLW1hJywgJzIwMCcsICctbWV0YWxfYmluZGluZycsICctaW1hZScsICc8aW5maWxlLm1hZT4nLCAnLW9tYWUnLCAnPG91dGZpbGUubWFlPic=

> <r_lp_tautomer_probability>
1

> <r_epik_Ionization_Penalty>
0.00148886

> <r_epik_Ionization_Penalty_Charging>
0.0014053

> <r_epik_Ionization_Penalty_Neutral>
8.35615e-05

> <r_epik_State_Penalty>
-0

> <r_epik_Charging_Adjusted_Penalty>
0.0014053

> <i_epik_Tot_Q>
1

> <i_epik_Tot_abs_Q>
1

> <r_epik_Metal_State_Penalty>
-0

> <b_epik_Metal_Only>
0

> <s_lp_Force_Field>
OPLS_2005

> <r_lp_Energy>
54.8166

> <b_lp_Chiralities_Consistent>
1

> <s_lp_Variant>
AV-unprocessed.smi:2582-2

> <Gold.Version>
5.8.1

> <Gold.Id.Protein>
6NUR|6NUR_protein|mol2

> <Gold.PLP.Fitness>
44.3946

> <Gold.PLP.PLP>
-32.5006

> <Gold.PLP.part.hbond>
-3.0000

> <Gold.PLP.part.metal>
0.0000

> <Gold.PLP.part.buried>
-4.6858

> <Gold.PLP.part.nonpolar>
-25.1317

> <Gold.PLP.part.repulsive>
0.2464

> <Gold.PLP.ligand.clash>
0.0000

> <Gold.PLP.ligand.torsion>
0.1069

> <Gold.PLP.Chemscore.Hbond>
3.0000

> <Gold.PLP.Chemscore.CHOScore>
1.0000

> <Gold.PLP.Chemscore.Metal>
0.0000

> <Gold.Chemscore.Hbonds>
donor molecule, donor type, donor heavy atom, donor atom, acceptor molecule, acceptor atom, score
      L1  H    16    36       P1  7948  1.58
      P1  H  7997  8008       L1     1  0.95
      L1  C     9    25       P1  8028  1.00

> <Gold.PLP.Chemscore.Internal.Correction>
0.1077

> <Gold.Rescore>
     Score         DG    S(hbond)    S(metal)    S(lipo)     H(rot)  DE(clash)    DE(int)     intcor
     17.26     -17.66       1.59        0.00      85.03       1.20       0.21       0.18       ----

> <Gold.Chemscore.Fitness>
17.2640

> <Gold.Chemscore.DG>
-17.6597

> <Gold.Chemscore.ZeroCoef>
-5.4800

> <Gold.Chemscore.Hbond>
1.5896

> <Gold.Chemscore.Metal>
0.0000

> <Gold.Chemscore.Lipo>
85.0260

> <Gold.Chemscore.Internal_Hbond>
0.0000

> <Gold.Chemscore.DEClash>
0.2115

> <Gold.Chemscore.DEInternal>
0.1842

> <Gold.Chemscore.Rot>
1.2022

> <Gold.Chemscore.Internal.Correction>
   9.000000E+99

> <Gold.Chemscore.Hbonds>
donor molecule, donor type, donor heavy atom, donor atom, acceptor molecule, acceptor atom, score
      L1  H    16    36       P1  7948  0.15
      P1  H  7997  8008       L1     1  0.21

> <Gold.Chemscore.Hbond.Weighted>
-5.3093

> <Gold.Chemscore.Metal.Weighted>
-0.0000

> <Gold.Chemscore.Lipo.Weighted>
-9.9480

> <Gold.Chemscore.Internal_Hbond.Weighted>
0.0000

> <Gold.Chemscore.DEClash.Weighted>
0.2115

> <Gold.Chemscore.DEInternal.Weighted>
0.1842

> <Gold.Chemscore.Rot.Weighted>
3.0777

> <Gold.Chemscore.Internal.Correction.Weighted>
   9.000000E+99

> <Gold.Protein.RotatedTorsions>
[ 6907 6896 6895 6894 ] final -165.66 input  -60.11 | X-H torsion
[ 7974 7965 7964 7962 ] final  136.66 input  175.53 | X-H torsion
[ 8008 7997 7996 7995 ] final  -99.73 input   59.86 | X-H torsion
[ 10167 10162 10161 10158 ] final  157.17 input  -65.29 | X-H torsion
[ 10718 10713 10712 10709 ] final  -62.67 input   66.30 | X-H torsion
[ 10763 10752 10751 10750 ] final  106.81 input  -60.55 | X-H torsion
[ 11005 11000 10999 10996 ] final   53.78 input  -57.11 | X-H torsion

> <Gold.Protein.ActiveResidues>
 VAL166  LYS551  ARG553  GLY616  TRP617  ASP618  TYR619  PRO620  LYS621  CYS622 
 ASP623  PHE694  ASN695  SER759  ASP760  ASP761  ALA762  ILE779  LEU786  VAL792 
 PHE793  MET794  SER795  GLU796  ALA797  LYS798  CYS799  TRP800  GLU811  SER814 

> <Gold.Protein.RotatedAtoms>
  151.4313  133.3669  159.2768 H   0  0  0  0  0  0  0  0  0  0  0  0  # atno 6907 bound_to 6896
  150.9223  134.8642  159.7508 H   0  0  0  0  0  0  0  0  0  0  0  0  # atno 6908 bound_to 6896
  152.4988  134.4251  159.9546 H   0  0  0  0  0  0  0  0  0  0  0  0  # atno 6909 bound_to 6896
  144.9543  139.4783  143.5511 H   0  0  0  0  0  0  0  0  0  0  0  0  # atno 7974 bound_to 7965
  154.8188  140.0446  157.1396 H   0  0  0  0  0  0  0  0  0  0  0  0  # atno 8008 bound_to 7997
  154.9283  140.3036  155.5160 H   0  0  0  0  0  0  0  0  0  0  0  0  # atno 8009 bound_to 7997
  156.2978  140.2327  156.4341 H   0  0  0  0  0  0  0  0  0  0  0  0  # atno 8010 bound_to 7997
  139.4822  144.4942  151.8264 H   0  0  0  0  0  0  0  0  0  0  0  0  # atno 10167 bound_to 10162
  156.0840  130.4211  150.1167 H   0  0  0  0  0  0  0  0  0  0  0  0  # atno 10718 bound_to 10713
  153.3981  135.3865  155.1969 H   0  0  0  0  0  0  0  0  0  0  0  0  # atno 10763 bound_to 10752
  154.8726  135.3764  154.4653 H   0  0  0  0  0  0  0  0  0  0  0  0  # atno 10764 bound_to 10752
  153.5147  135.7087  153.5824 H   0  0  0  0  0  0  0  0  0  0  0  0  # atno 10765 bound_to 10752
  140.0739  134.5432  155.9017 H   0  0  0  0  0  0  0  0  0  0  0  0  # atno 11005 bound_to 11000
  146.3332  139.8649  142.8850 LP  0  0  0  0  0  0  0  0  0  0  0  0  # atno 17320 bound_to 7965
  145.2797  141.0134  143.3725 LP  0  0  0  0  0  0  0  0  0  0  0  0  # atno 17321 bound_to 7965
  140.4429  144.1961  150.5892 LP  0  0  0  0  0  0  0  0  0  0  0  0  # atno 17342 bound_to 10162
  140.4664  143.2429  151.9149 LP  0  0  0  0  0  0  0  0  0  0  0  0  # atno 17343 bound_to 10162
  156.9192  130.9677  151.3551 LP  0  0  0  0  0  0  0  0  0  0  0  0  # atno 17370 bound_to 10713
  157.5968  130.8483  149.8741 LP  0  0  0  0  0  0  0  0  0  0  0  0  # atno 17371 bound_to 10713
  141.2022  133.6623  156.5994 LP  0  0  0  0  0  0  0  0  0  0  0  0  # atno 17394 bound_to 11000
  140.3586  134.7707  157.4518 LP  0  0  0  0  0  0  0  0  0  0  0  0  # atno 17395 bound_to 11000

$$$$
