AV-unprocessed.smi:2502|AV-procd|sdf|9845|dock4
  -GOLD-   2272013473D 1   1.00000     0.00000
 Structure written by MMmdl.
 39 41  0  0  0  0  0  0  0  0  1 V2000
  149.7175  140.7823  153.5149 O   0  0  0  0  0  0  0  0  0  0  0  0
  149.3377  140.8170  154.8769 C   0  0  2  0  0  0  0  0  0  0  0  0
  147.8679  141.2549  154.9825 C   0  0  0  0  0  0  0  0  0  0  0  0
  147.6048  141.7744  156.2790 O   0  0  0  0  0  0  0  0  0  0  0  0
  146.2290  141.9971  156.5605 C   0  0  0  0  0  0  0  0  0  0  0  0
  145.4383  140.6778  156.6114 C   0  0  0  0  0  0  0  0  0  0  0  0
  143.9300  140.9579  156.7141 C   0  0  0  0  0  0  0  0  0  0  0  0
  143.5077  141.7722  155.6251 O   0  0  0  0  0  0  0  0  0  0  0  0
  144.1390  143.0482  155.6072 C   0  0  0  0  0  0  0  0  0  0  0  0
  145.6581  142.8787  155.4422 C   0  0  0  0  0  0  0  0  0  0  0  0
  150.3045  141.6817  155.7106 C   0  0  0  0  0  0  0  0  0  0  0  0
  151.2434  140.8793  156.4745 N   0  0  0  0  0  0  0  0  0  0  0  0
  151.6360  139.6676  155.9889 N   0  0  0  0  0  0  0  0  0  0  0  0
  152.4786  139.1377  156.8242 N   0  0  0  0  0  0  0  0  0  0  0  0
  152.6427  140.0159  157.8824 C   0  0  0  0  0  0  0  0  0  0  0  0
  153.4335  139.9458  159.0509 C   0  0  0  0  0  0  0  0  0  0  0  0
  153.4170  141.0014  159.9887 C   0  0  0  0  0  0  0  0  0  0  0  0
  154.3989  140.8787  161.4052 Cl  0  0  0  0  0  0  0  0  0  0  0  0
  152.6074  142.1417  159.7670 C   0  0  0  0  0  0  0  0  0  0  0  0
  152.5744  143.4410  160.9052 Cl  0  0  0  0  0  0  0  0  0  0  0  0
  151.8154  142.2263  158.6043 C   0  0  0  0  0  0  0  0  0  0  0  0
  151.8460  141.1645  157.6843 C   0  0  0  0  0  0  0  0  0  0  0  0
  149.2077  140.1177  153.0774 H   0  0  0  0  0  0  0  0  0  0  0  0
  149.3976  139.7875  155.2320 H   0  0  0  0  0  0  0  0  0  0  0  0
  147.6343  141.9811  154.2037 H   0  0  0  0  0  0  0  0  0  0  0  0
  147.2270  140.3880  154.8141 H   0  0  0  0  0  0  0  0  0  0  0  0
  146.1241  142.5301  157.5074 H   0  0  0  0  0  0  0  0  0  0  0  0
  145.6379  140.0934  155.7124 H   0  0  0  0  0  0  0  0  0  0  0  0
  145.7513  140.0672  157.4578 H   0  0  0  0  0  0  0  0  0  0  0  0
  143.3731  140.0212  156.6890 H   0  0  0  0  0  0  0  0  0  0  0  0
  143.6890  141.4451  157.6601 H   0  0  0  0  0  0  0  0  0  0  0  0
  143.7345  143.6287  154.7778 H   0  0  0  0  0  0  0  0  0  0  0  0
  143.9044  143.5946  156.5222 H   0  0  0  0  0  0  0  0  0  0  0  0
  146.1481  143.8528  155.4439 H   0  0  0  0  0  0  0  0  0  0  0  0
  145.8667  142.4253  154.4724 H   0  0  0  0  0  0  0  0  0  0  0  0
  150.8716  142.3557  155.0673 H   0  0  0  0  0  0  0  0  0  0  0  0
  149.7447  142.3118  156.4032 H   0  0  0  0  0  0  0  0  0  0  0  0
  154.0540  139.0792  159.2256 H   0  0  0  0  0  0  0  0  0  0  0  0
  151.1953  143.0917  158.4223 H   0  0  0  0  0  0  0  0  0  0  0  0
  1  2  1  0  0  0  0
  1 23  1  0  0  0  0
  2  3  1  0  0  0  0
  2 11  1  0  0  0  0
  2 24  1  0  0  0  0
  3  4  1  0  0  0  0
  3 25  1  0  0  0  0
  3 26  1  0  0  0  0
  4  5  1  0  0  0  0
  5 10  1  0  0  0  0
  5  6  1  0  0  0  0
  5 27  1  0  0  0  0
  6  7  1  0  0  0  0
  6 28  1  0  0  0  0
  6 29  1  0  0  0  0
  7  8  1  0  0  0  0
  7 30  1  0  0  0  0
  7 31  1  0  0  0  0
  8  9  1  0  0  0  0
  9 10  1  0  0  0  0
  9 32  1  0  0  0  0
  9 33  1  0  0  0  0
 10 34  1  0  0  0  0
 10 35  1  0  0  0  0
 11 12  1  0  0  0  0
 11 36  1  0  0  0  0
 11 37  1  0  0  0  0
 12 22  1  0  0  0  0
 12 13  1  0  0  0  0
 13 14  2  0  0  0  0
 14 15  1  0  0  0  0
 15 22  2  0  0  0  0
 15 16  1  0  0  0  0
 16 17  2  0  0  0  0
 16 38  1  0  0  0  0
 17 18  1  0  0  0  0
 17 19  1  0  0  0  0
 19 20  1  0  0  0  0
 19 21  2  0  0  0  0
 21 22  1  0  0  0  0
 21 39  1  0  0  0  0
M  END
> <s_m_source_file>
AV-unprocessed.smi

> <i_m_source_file_index>
2502

> <i_lp_mmshare_version>
43012

> <i_f3d_flags>
0

> <s_epik_input>
W2NIXTFjKENsKWMoQ2wpW2NIXWMoYzEyKW4obm4yKVtDSDJdW0NASF0oW09IXSlbQ0gyXU9bQ0hdM1tDSDJdW0NIMl1PW0NIMl1bQ0gyXTM=

> <s_epik_cmdline>
J2VwaWtfcHl0aG9uJywgJy1waCcsICc3LjAnLCAnLXRuJywgJzgnLCAnLW1hJywgJzIwMCcsICctbWV0YWxfYmluZGluZycsICctaW1hZScsICc8aW5maWxlLm1hZT4nLCAnLW9tYWUnLCAnPG91dGZpbGUubWFlPic=

> <r_lp_tautomer_probability>
1

> <r_epik_Ionization_Penalty>
2.65748e-06

> <r_epik_Ionization_Penalty_Charging>
0

> <r_epik_Ionization_Penalty_Neutral>
2.65748e-06

> <r_epik_State_Penalty>
-0

> <r_epik_Charging_Adjusted_Penalty>
0

> <i_epik_Tot_Q>
0

> <i_epik_Tot_abs_Q>
0

> <r_epik_Metal_State_Penalty>
-0

> <b_epik_Metal_Only>
0

> <s_lp_Force_Field>
OPLS_2005

> <r_lp_Energy>
14.9544

> <b_lp_Chiralities_Consistent>
1

> <s_lp_Variant>
AV-unprocessed.smi:2502-1

> <Gold.Version>
5.8.1

> <Gold.Id.Protein>
6NUR|6NUR_protein|mol2

> <Gold.PLP.Fitness>
41.7907

> <Gold.PLP.PLP>
-39.4720

> <Gold.PLP.part.hbond>
-2.5637

> <Gold.PLP.part.metal>
0.0000

> <Gold.PLP.part.buried>
-4.6769

> <Gold.PLP.part.nonpolar>
-30.9056

> <Gold.PLP.part.repulsive>
0.8318

> <Gold.PLP.ligand.clash>
0.0000

> <Gold.PLP.ligand.torsion>
1.3122

> <Gold.PLP.Chemscore.Hbond>
1.6240

> <Gold.PLP.Chemscore.CHOScore>
0.0000

> <Gold.PLP.Chemscore.Metal>
0.0000

> <Gold.Chemscore.Hbonds>
donor molecule, donor type, donor heavy atom, donor atom, acceptor molecule, acceptor atom, score
      L1  H     1    23       P1  7957  0.24
      P1  H  7989  7998       L1     1  0.37
      P1  H  8011  8017       L1     1  1.00

> <Gold.PLP.Chemscore.Internal.Correction>
0.0711

> <Gold.Rescore>
     Score         DG    S(hbond)    S(metal)    S(lipo)     H(rot)  DE(clash)    DE(int)     intcor
     14.81     -16.35       1.30        0.00     104.10       2.21       0.20       1.35       ----

> <Gold.Chemscore.Fitness>
14.8052

> <Gold.Chemscore.DG>
-16.3523

> <Gold.Chemscore.ZeroCoef>
-5.4800

> <Gold.Chemscore.Hbond>
1.2998

> <Gold.Chemscore.Metal>
0.0000

> <Gold.Chemscore.Lipo>
104.0978

> <Gold.Chemscore.Internal_Hbond>
0.0000

> <Gold.Chemscore.DEClash>
0.2013

> <Gold.Chemscore.DEInternal>
1.3458

> <Gold.Chemscore.Rot>
2.2065

> <Gold.Chemscore.Internal.Correction>
   9.000000E+99

> <Gold.Chemscore.Hbonds>
donor molecule, donor type, donor heavy atom, donor atom, acceptor molecule, acceptor atom, score
      L1  H     1    23       P1  7957  0.24
      P1  H  7989  7998       L1     1  0.22
      P1  H  8011  8017       L1     1  0.65

> <Gold.Chemscore.Hbond.Weighted>
-4.3414

> <Gold.Chemscore.Metal.Weighted>
-0.0000

> <Gold.Chemscore.Lipo.Weighted>
-12.1794

> <Gold.Chemscore.Internal_Hbond.Weighted>
0.0000

> <Gold.Chemscore.DEClash.Weighted>
0.2013

> <Gold.Chemscore.DEInternal.Weighted>
1.3458

> <Gold.Chemscore.Rot.Weighted>
5.6485

> <Gold.Chemscore.Internal.Correction.Weighted>
   9.000000E+99

> <Gold.Protein.RotatedTorsions>
[ 6907 6896 6895 6894 ] final -174.63 input  -60.11 | X-H torsion
[ 7974 7965 7964 7962 ] final  -18.63 input  175.53 | X-H torsion
[ 8008 7997 7996 7995 ] final  -68.05 input   59.86 | X-H torsion
[ 10167 10162 10161 10158 ] final  -97.06 input  -65.29 | X-H torsion
[ 10718 10713 10712 10709 ] final  123.20 input   66.30 | X-H torsion
[ 10763 10752 10751 10750 ] final   20.74 input  -60.55 | X-H torsion
[ 11005 11000 10999 10996 ] final    7.26 input  -57.11 | X-H torsion

> <Gold.Protein.ActiveResidues>
 VAL166  LYS551  ARG553  GLY616  TRP617  ASP618  TYR619  PRO620  LYS621  CYS622 
 ASP623  PHE694  ASN695  SER759  ASP760  ASP761  ALA762  ILE779  LEU786  VAL792 
 PHE793  MET794  SER795  GLU796  ALA797  LYS798  CYS799  TRP800  GLU811  SER814 

> <Gold.Protein.RotatedAtoms>
  151.5755  133.3384  159.2997 H   0  0  0  0  0  0  0  0  0  0  0  0  # atno 6907 bound_to 6896
  150.8343  134.7613  159.6891 H   0  0  0  0  0  0  0  0  0  0  0  0  # atno 6908 bound_to 6896
  152.4422  134.5574  159.9936 H   0  0  0  0  0  0  0  0  0  0  0  0  # atno 6909 bound_to 6896
  146.1883  140.3947  142.8468 H   0  0  0  0  0  0  0  0  0  0  0  0  # atno 7974 bound_to 7965
  154.4841  140.0880  156.7446 H   0  0  0  0  0  0  0  0  0  0  0  0  # atno 8008 bound_to 7997
  155.4395  140.3453  155.4270 H   0  0  0  0  0  0  0  0  0  0  0  0  # atno 8009 bound_to 7997
  156.1235  140.1481  156.9158 H   0  0  0  0  0  0  0  0  0  0  0  0  # atno 8010 bound_to 7997
  140.2873  143.3244  152.0381 H   0  0  0  0  0  0  0  0  0  0  0  0  # atno 10167 bound_to 10162
  157.5683  131.1085  150.8414 H   0  0  0  0  0  0  0  0  0  0  0  0  # atno 10718 bound_to 10713
  153.1052  135.6683  153.9600 H   0  0  0  0  0  0  0  0  0  0  0  0  # atno 10763 bound_to 10752
  153.9159  135.3020  155.3449 H   0  0  0  0  0  0  0  0  0  0  0  0  # atno 10764 bound_to 10752
  154.7473  135.5051  153.9303 H   0  0  0  0  0  0  0  0  0  0  0  0  # atno 10765 bound_to 10752
  140.5503  134.0290  155.7934 H   0  0  0  0  0  0  0  0  0  0  0  0  # atno 11005 bound_to 11000
  144.8437  140.6897  143.6212 LP  0  0  0  0  0  0  0  0  0  0  0  0  # atno 17320 bound_to 7965
  145.3872  139.1624  143.4248 LP  0  0  0  0  0  0  0  0  0  0  0  0  # atno 17321 bound_to 7965
  139.4947  144.6550  151.6593 LP  0  0  0  0  0  0  0  0  0  0  0  0  # atno 17342 bound_to 10162
  140.5762  144.0025  150.6243 LP  0  0  0  0  0  0  0  0  0  0  0  0  # atno 17343 bound_to 10162
  156.8892  130.5207  149.5287 LP  0  0  0  0  0  0  0  0  0  0  0  0  # atno 17370 bound_to 10713
  156.0730  130.5758  150.9419 LP  0  0  0  0  0  0  0  0  0  0  0  0  # atno 17371 bound_to 10713
  141.1176  133.9515  157.2793 LP  0  0  0  0  0  0  0  0  0  0  0  0  # atno 17394 bound_to 11000
  139.9459  135.0184  156.8849 LP  0  0  0  0  0  0  0  0  0  0  0  0  # atno 17395 bound_to 11000

$$$$
