#       Name:                AV-unprocessed.smi:1589
#       Creating user name   scv26
#       Creation time:       Fri Mar 27 07:02:54 2020


#       File generated by GOLD software.
#

@<TRIPOS>MOLECULE
AV-unprocessed.smi:1589
    49    50     1
SMALL
NO_CHARGES


@<TRIPOS>ATOM
      1 ****        -3.2488   1.7468   3.3464 C.3            1 S1                 0.0000
      2 ****        -2.6070   2.5776   2.2150 C.3            1 S1                 0.0000
      3 ****        -3.3480   3.9271   2.1148 C.3            1 S1                 0.0000
      4 ****        -2.5788   1.8482   0.9055 N.4            1 S1                 1.0000
      5 ****        -2.0025   0.4716   1.0023 C.3            1 S1                 0.0000
      6 ****        -1.9265  -0.2348  -0.3635 C.3            1 S1                 0.0000
      7 ****        -1.1704   0.6113  -1.2925 N.am           1 S1                 0.0000
      8 ****         0.1185   0.4327  -1.6787 C.2            1 S1                 0.0000
      9 ****         0.7683   1.3132  -2.2426 O.2            1 S1                 0.0000
     10 ****         0.6016  -0.8009  -1.4379 N.am           1 S1                 0.0000
     11 ****         1.9138  -1.2787  -1.6804 C.2            1 S1                 0.0000
     12 ****         3.0243  -0.6124  -2.2716 C.2            1 S1                 0.0000
     13 ****         4.0842  -1.4051  -2.3178 N.2            1 S1                 0.0000
     14 ****         3.6779  -2.5736  -1.7612 N.pl3          1 S1                 0.0000
     15 ****         4.6131  -3.6812  -1.6478 C.3            1 S1                 0.0000
     16 ****         5.1025  -3.8863  -0.2091 C.2            1 S1                 0.0000
     17 ****         5.4488  -5.1290   0.1359 N.am           1 S1                 0.0000
     18 ****         5.1740  -2.9469   0.5817 O.2            1 S1                 0.0000
     19 ****         2.3545  -2.5292  -1.3672 C.2            1 S1                 0.0000
     20 ****        -1.8859   1.8660  -1.5209 C.3            1 S1                 0.0000
     21 ****        -1.9606   2.6473  -0.1968 C.3            1 S1                 0.0000
     22 ****        -3.3532   2.3381   4.2566 H              1 S1                 0.0000
     23 ****        -2.6436   0.8821   3.6184 H              1 S1                 0.0000
     24 ****        -4.2433   1.3956   3.0687 H              1 S1                 0.0000
     25 ****        -1.5754   2.7841   2.5047 H              1 S1                 0.0000
     26 ****        -3.4519   4.3918   3.0958 H              1 S1                 0.0000
     27 ****        -4.3507   3.8006   1.7049 H              1 S1                 0.0000
     28 ****        -2.8149   4.6484   1.4960 H              1 S1                 0.0000
     29 ****        -1.0058   0.5274   1.4432 H              1 S1                 0.0000
     30 ****        -2.6101  -0.1505   1.6579 H              1 S1                 0.0000
     31 ****        -1.5114  -1.2349  -0.2382 H              1 S1                 0.0000
     32 ****        -2.9317  -0.3900  -0.7584 H              1 S1                 0.0000
     33 ****        -0.0306  -1.4569  -1.0033 H              1 S1                 0.0000
     34 ****         3.1065   0.3910  -2.6616 H              1 S1                 0.0000
     35 ****         4.1191  -4.5844  -2.0087 H              1 S1                 0.0000
     36 ****         5.4715  -3.5016  -2.2969 H              1 S1                 0.0000
     37 ****         5.7751  -5.3228   1.0716 H              1 S1                 0.0000
     38 ****         5.3792  -5.8734  -0.5430 H              1 S1                 0.0000
     39 ****         1.8589  -3.3701  -0.9047 H              1 S1                 0.0000
     40 ****        -1.4201   2.4803  -2.2930 H              1 S1                 0.0000
     41 ****        -2.8906   1.6503  -1.8877 H              1 S1                 0.0000
     42 ****        -2.5355   3.5534  -0.3816 H              1 S1                 0.0000
     43 ****        -0.9581   2.9589   0.1015 H              1 S1                 0.0000
     44 ****        -3.5435   1.7168   0.6372 H              1 S1                 0.0000
     45 ****         0.3483   2.2007  -2.4322 LP             1 S1                 0.0000
     46 ****         1.7160   1.1409  -2.5110 LP             1 S1                 0.0000
     47 ****         4.9892  -1.1889  -2.6841 LP             1 S1                 0.0000
     48 ****         4.9102  -2.0273   0.2908 LP             1 S1                 0.0000
     49 ****         5.4959  -3.1029   1.5155 LP             1 S1                 0.0000
@<TRIPOS>BOND
    1    1    2 1     
    2    1   22 1     
    3    1   23 1     
    4    1   24 1     
    5    2    3 1     
    6    2    4 1     
    7    2   25 1     
    8    3   26 1     
    9    3   27 1     
   10    3   28 1     
   11    4   21 1     
   12    4    5 1     
   13    4   44 1     
   14    5    6 1     
   15    5   29 1     
   16    5   30 1     
   17    6    7 1     
   18    6   31 1     
   19    6   32 1     
   20    7    8 am    
   21    7   20 1     
   22    8    9 2     
   23    8   10 am    
   24   10   11 1     
   25   10   33 1     
   26   11   19 2     
   27   11   12 1     
   28   12   13 2     
   29   12   34 1     
   30   13   14 1     
   31   14   15 1     
   32   14   19 1     
   33   15   16 1     
   34   15   35 1     
   35   15   36 1     
   36   16   17 am    
   37   16   18 2     
   38   17   37 1     
   39   17   38 1     
   40   19   39 1     
   41   20   21 1     
   42   20   40 1     
   43   20   41 1     
   44   21   42 1     
   45   21   43 1     
   46    9   45 1     
   47    9   46 1     
   48   13   47 1     
   49   18   48 1     
   50   18   49 1     
@<TRIPOS>SUBSTRUCTURE
      1 S1             1
@<TRIPOS>SET
LONE_PAIRS      STATIC     ATOMS    <user>   **** ""
5 45 46 47 48 49
DONOR_HYDROGENS      STATIC     ATOMS    <user>   **** ""
4 44 33 37 38
ATOM$BLUE        STATIC     ATOMS    COLORGROUP SYSTEM
5 45 46 47 48 49
ATOM$RED        STATIC     ATOMS    COLORGROUP SYSTEM
4 44 33 37 38
