AV-unprocessed.smi:1618|AV-procd|sdf|6486|dock3
  -GOLD-   22720 7143D 1   1.00000     0.00000
 Structure written by MMmdl.
 28 29  0  0  0  0  0  0  0  0  1 V2000
  153.6018  142.8303  163.4468 C   0  0  0  0  0  0  0  0  0  0  0  0
  153.7083  142.0462  162.2018 N   0  0  0  0  0  0  0  0  0  0  0  0
  152.7396  142.2113  161.2468 C   0  0  0  0  0  0  0  0  0  0  0  0
  151.7849  142.9838  161.3392 O   0  0  0  0  0  0  0  0  0  0  0  0
  152.9291  141.3758  160.0563 C   0  0  0  0  0  0  0  0  0  0  0  0
  153.9838  140.5361  159.9089 C   0  0  0  0  0  0  0  0  0  0  0  0
  153.9429  139.8759  158.6869 N   0  0  0  0  0  0  0  0  0  0  0  0
  152.8269  140.3705  158.1534 C   0  0  0  0  0  0  0  0  0  0  0  0
  152.2258  139.9539  156.5939 Cl  0  0  0  0  0  0  0  0  0  0  0  0
  152.1470  141.2669  158.9050 N   0  0  0  0  0  0  0  0  0  0  0  0
  150.9048  141.9562  158.5790 C   0  0  0  0  0  0  0  0  0  0  0  0
  151.0165  142.7250  157.2557 C   0  0  0  0  0  0  0  0  0  0  0  0
  151.1896  144.1005  157.5173 O   0  0  0  0  0  0  0  0  0  0  0  0
  154.9366  140.4486  160.9540 N   0  0  0  0  0  0  0  0  0  0  0  0
  156.0589  139.5256  160.7599 C   0  0  0  0  0  0  0  0  0  0  0  0
  154.7978  141.1978  162.0971 C   0  0  0  0  0  0  0  0  0  0  0  0
  155.6265  141.1164  163.0078 O   0  0  0  0  0  0  0  0  0  0  0  0
  152.7195  143.4676  163.5153 H   0  0  0  0  0  0  0  0  0  0  0  0
  154.4678  143.4846  163.5583 H   0  0  0  0  0  0  0  0  0  0  0  0
  153.5688  142.1676  164.3132 H   0  0  0  0  0  0  0  0  0  0  0  0
  150.0927  141.2310  158.5288 H   0  0  0  0  0  0  0  0  0  0  0  0
  150.6440  142.6273  159.3969 H   0  0  0  0  0  0  0  0  0  0  0  0
  151.8619  142.3658  156.6684 H   0  0  0  0  0  0  0  0  0  0  0  0
  150.1177  142.5883  156.6535 H   0  0  0  0  0  0  0  0  0  0  0  0
  150.3643  144.5395  157.3787 H   0  0  0  0  0  0  0  0  0  0  0  0
  156.7680  139.4958  161.5874 H   0  0  0  0  0  0  0  0  0  0  0  0
  156.6176  139.8029  159.8653 H   0  0  0  0  0  0  0  0  0  0  0  0
  155.6836  138.5115  160.6186 H   0  0  0  0  0  0  0  0  0  0  0  0
  1  2  1  0  0  0  0
  1 18  1  0  0  0  0
  1 19  1  0  0  0  0
  1 20  1  0  0  0  0
  2 16  1  0  0  0  0
  2  3  1  0  0  0  0
  3  4  2  0  0  0  0
  3  5  1  0  0  0  0
  5 10  1  0  0  0  0
  5  6  2  0  0  0  0
  6  7  1  0  0  0  0
  6 14  1  0  0  0  0
  7  8  2  0  0  0  0
  8  9  1  0  0  0  0
  8 10  1  0  0  0  0
 10 11  1  0  0  0  0
 11 12  1  0  0  0  0
 11 21  1  0  0  0  0
 11 22  1  0  0  0  0
 12 13  1  0  0  0  0
 12 23  1  0  0  0  0
 12 24  1  0  0  0  0
 13 25  1  0  0  0  0
 14 15  1  0  0  0  0
 14 16  1  0  0  0  0
 15 26  1  0  0  0  0
 15 27  1  0  0  0  0
 15 28  1  0  0  0  0
 16 17  2  0  0  0  0
M  END
> <s_m_source_file>
AV-unprocessed.smi

> <i_m_source_file_index>
1618

> <i_lp_mmshare_version>
43012

> <i_f3d_flags>
0

> <s_epik_input>
Tz1jMW4oW0NIM10pYyg9TyluKFtDSDNdKWMoYzEyKW5jKENsKW4yW0NIMl1bQ0gyXVtPSF0=

> <s_epik_cmdline>
J2VwaWtfcHl0aG9uJywgJy1waCcsICc3LjAnLCAnLXRuJywgJzgnLCAnLW1hJywgJzIwMCcsICctbWV0YWxfYmluZGluZycsICctaW1hZScsICc8aW5maWxlLm1hZT4nLCAnLW9tYWUnLCAnPG91dGZpbGUubWFlPic=

> <r_lp_tautomer_probability>
1

> <r_epik_Ionization_Penalty>
1.64879e-07

> <r_epik_Ionization_Penalty_Charging>
1.19961e-09

> <r_epik_Ionization_Penalty_Neutral>
1.63679e-07

> <r_epik_State_Penalty>
-0

> <r_epik_Charging_Adjusted_Penalty>
1.19961e-09

> <i_epik_Tot_Q>
0

> <i_epik_Tot_abs_Q>
0

> <r_epik_Metal_State_Penalty>
-0

> <b_epik_Metal_Only>
0

> <s_lp_Force_Field>
OPLS_2005

> <r_lp_Energy>
32.2378

> <b_lp_Chiralities_Consistent>
1

> <s_lp_Variant>
AV-unprocessed.smi:1618-1

> <Gold.Version>
5.8.1

> <Gold.Id.Protein>
6NUR|6NUR_protein|mol2

> <Gold.PLP.Fitness>
43.2677

> <Gold.PLP.PLP>
-37.9253

> <Gold.PLP.part.hbond>
-3.8515

> <Gold.PLP.part.metal>
0.0000

> <Gold.PLP.part.buried>
-2.8275

> <Gold.PLP.part.nonpolar>
-30.1249

> <Gold.PLP.part.repulsive>
0.0956

> <Gold.PLP.ligand.clash>
0.0000

> <Gold.PLP.ligand.torsion>
0.3169

> <Gold.PLP.Chemscore.Hbond>
1.9920

> <Gold.PLP.Chemscore.CHOScore>
0.0000

> <Gold.PLP.Chemscore.Metal>
0.0000

> <Gold.Chemscore.Hbonds>
donor molecule, donor type, donor heavy atom, donor atom, acceptor molecule, acceptor atom, score
      L1  H    13    25       P1  8028  0.36
      P1  H  6933  6945       L1     4  0.17
      P1  H  7997  8008       L1     7  0.90

> <Gold.PLP.Chemscore.Internal.Correction>
0.0003

> <Gold.Rescore>
     Score         DG    S(hbond)    S(metal)    S(lipo)     H(rot)  DE(clash)    DE(int)     intcor
      8.38      -8.72       0.89        0.00      45.79       1.99       0.03       0.31       ----

> <Gold.Chemscore.Fitness>
8.3797

> <Gold.Chemscore.DG>
-8.7220

> <Gold.Chemscore.ZeroCoef>
-5.4800

> <Gold.Chemscore.Hbond>
0.8919

> <Gold.Chemscore.Metal>
0.0000

> <Gold.Chemscore.Lipo>
45.7854

> <Gold.Chemscore.Internal_Hbond>
0.0000

> <Gold.Chemscore.DEClash>
0.0277

> <Gold.Chemscore.DEInternal>
0.3146

> <Gold.Chemscore.Rot>
1.9898

> <Gold.Chemscore.Internal.Correction>
   9.000000E+99

> <Gold.Chemscore.Hbonds>
donor molecule, donor type, donor heavy atom, donor atom, acceptor molecule, acceptor atom, score
      L1  H    13    25       P1  8028  0.18
      P1  H  6933  6945       L1     4  0.10
      P1  H  7997  8008       L1     7  0.17

> <Gold.Chemscore.Hbond.Weighted>
-2.9790

> <Gold.Chemscore.Metal.Weighted>
-0.0000

> <Gold.Chemscore.Lipo.Weighted>
-5.3569

> <Gold.Chemscore.Internal_Hbond.Weighted>
0.0000

> <Gold.Chemscore.DEClash.Weighted>
0.0277

> <Gold.Chemscore.DEInternal.Weighted>
0.3146

> <Gold.Chemscore.Rot.Weighted>
5.0939

> <Gold.Chemscore.Internal.Correction.Weighted>
   9.000000E+99

> <Gold.Protein.RotatedTorsions>
[ 6907 6896 6895 6894 ] final  -42.48 input  -60.11 | X-H torsion
[ 7974 7965 7964 7962 ] final   39.30 input  175.53 | X-H torsion
[ 8008 7997 7996 7995 ] final -112.68 input   59.86 | X-H torsion
[ 10167 10162 10161 10158 ] final  -73.46 input  -65.29 | X-H torsion
[ 10718 10713 10712 10709 ] final   73.35 input   66.30 | X-H torsion
[ 10763 10752 10751 10750 ] final  -38.10 input  -60.55 | X-H torsion
[ 11005 11000 10999 10996 ] final  153.66 input  -57.11 | X-H torsion

> <Gold.Protein.ActiveResidues>
 VAL166  LYS551  ARG553  GLY616  TRP617  ASP618  TYR619  PRO620  LYS621  CYS622 
 ASP623  PHE694  ASN695  SER759  ASP760  ASP761  ALA762  ILE779  LEU786  VAL792 
 PHE793  MET794  SER795  GLU796  ALA797  LYS798  CYS799  TRP800  GLU811  SER814 

> <Gold.Protein.RotatedAtoms>
  150.9547  134.8943  159.7693 H   0  0  0  0  0  0  0  0  0  0  0  0  # atno 6907 bound_to 6896
  152.5133  134.3756  159.9343 H   0  0  0  0  0  0  0  0  0  0  0  0  # atno 6908 bound_to 6896
  151.3771  133.3794  159.2740 H   0  0  0  0  0  0  0  0  0  0  0  0  # atno 6909 bound_to 6896
  146.0995  139.5669  142.9423 H   0  0  0  0  0  0  0  0  0  0  0  0  # atno 7974 bound_to 7965
  155.0090  140.0393  157.2391 H   0  0  0  0  0  0  0  0  0  0  0  0  # atno 8008 bound_to 7997
  154.7477  140.2761  155.6296 H   0  0  0  0  0  0  0  0  0  0  0  0  # atno 8009 bound_to 7997
  156.2878  140.2653  156.2222 H   0  0  0  0  0  0  0  0  0  0  0  0  # atno 8010 bound_to 7997
  140.5108  143.2345  151.7596 H   0  0  0  0  0  0  0  0  0  0  0  0  # atno 10167 bound_to 10162
  157.6543  130.9624  150.1057 H   0  0  0  0  0  0  0  0  0  0  0  0  # atno 10718 bound_to 10713
  153.9073  135.6796  153.4752 H   0  0  0  0  0  0  0  0  0  0  0  0  # atno 10763 bound_to 10752
  153.1097  135.4789  154.9011 H   0  0  0  0  0  0  0  0  0  0  0  0  # atno 10764 bound_to 10752
  154.7545  135.3193  154.8450 H   0  0  0  0  0  0  0  0  0  0  0  0  # atno 10765 bound_to 10752
  140.1418  134.8734  157.2341 H   0  0  0  0  0  0  0  0  0  0  0  0  # atno 11005 bound_to 11000
  145.5882  141.0373  143.2085 LP  0  0  0  0  0  0  0  0  0  0  0  0  # atno 17320 bound_to 7965
  144.7422  139.7419  143.7306 LP  0  0  0  0  0  0  0  0  0  0  0  0  # atno 17321 bound_to 7965
  139.4895  144.4393  151.9783 LP  0  0  0  0  0  0  0  0  0  0  0  0  # atno 17342 bound_to 10162
  140.3485  144.3117  150.5953 LP  0  0  0  0  0  0  0  0  0  0  0  0  # atno 17343 bound_to 10162
  156.1967  130.3658  149.8840 LP  0  0  0  0  0  0  0  0  0  0  0  0  # atno 17370 bound_to 10713
  156.6754  130.8837  151.3568 LP  0  0  0  0  0  0  0  0  0  0  0  0  # atno 17371 bound_to 10713
  140.2713  134.3457  155.7373 LP  0  0  0  0  0  0  0  0  0  0  0  0  # atno 17394 bound_to 11000
  141.2187  133.7425  156.9226 LP  0  0  0  0  0  0  0  0  0  0  0  0  # atno 17395 bound_to 11000

$$$$
