AV-unprocessed.smi:2026|AV-procd|sdf|8208|dock2
  -GOLD-   2272010473D 1   1.00000     0.00000
 Structure written by MMmdl.
 46 48  0  0  0  0  0  0  0  0  3 V2000
  152.5047  143.6717  161.3294 C   0  0  0  0  0  0  0  0  0  0  0  0
  152.2931  142.8722  160.0549 C   0  0  0  0  0  0  0  0  0  0  0  0
  151.4290  143.3945  159.0665 C   0  0  0  0  0  0  0  0  0  0  0  0
  151.2524  142.6379  157.9141 C   0  0  0  0  0  0  0  0  0  0  0  0
  150.4798  142.8759  156.7754 N   0  3  0  0  0  0  0  0  0  0  0  0
  150.6247  141.8397  155.9040 C   0  0  0  0  0  0  0  0  0  0  0  0
  151.4767  140.9427  156.4700 N   0  0  0  0  0  0  0  0  0  0  0  0
  151.9607  139.6577  155.9451 C   0  0  0  0  0  0  0  0  0  0  0  0
  150.8310  138.7958  155.3496 C   0  0  1  0  0  0  0  0  0  0  0  0
  150.3897  139.3954  154.1471 O   0  0  0  0  0  0  0  0  0  0  0  0
  151.3132  137.3624  155.0450 C   0  0  0  0  0  0  0  0  0  0  0  0
  150.6660  136.3700  155.9098 N   0  0  0  0  0  0  0  0  0  0  0  0
  151.3054  135.5629  156.7770 C   0  0  0  0  0  0  0  0  0  0  0  0
  152.5264  135.5942  156.9269 O   0  0  0  0  0  0  0  0  0  0  0  0
  150.4315  134.7538  157.4216 N   0  5  0  0  0  0  0  0  0  0  0  0
  149.0922  135.0339  156.9429 C   0  0  0  0  0  0  0  0  0  0  0  0
  148.4940  133.7802  156.2767 C   0  0  0  0  0  0  0  0  0  0  0  0
  148.2091  135.5382  158.1001 C   0  0  0  0  0  0  0  0  0  0  0  0
  149.3504  136.1309  155.9257 C   0  0  0  0  0  0  0  0  0  0  0  0
  148.4793  136.6765  155.2463 O   0  0  0  0  0  0  0  0  0  0  0  0
  151.8987  141.4006  157.7242 C   0  0  0  0  0  0  0  0  0  0  0  0
  152.7584  140.8748  158.6866 C   0  0  0  0  0  0  0  0  0  0  0  0
  152.9509  141.6292  159.8663 C   0  0  0  0  0  0  0  0  0  0  0  0
  153.8816  141.0798  160.9340 C   0  0  0  0  0  0  0  0  0  0  0  0
  151.9423  144.6057  161.3130 H   0  0  0  0  0  0  0  0  0  0  0  0
  153.5586  143.9201  161.4567 H   0  0  0  0  0  0  0  0  0  0  0  0
  152.1757  143.1002  162.1975 H   0  0  0  0  0  0  0  0  0  0  0  0
  150.9271  144.3415  159.2021 H   0  0  0  0  0  0  0  0  0  0  0  0
  150.1506  141.7453  154.9377 H   0  0  0  0  0  0  0  0  0  0  0  0
  152.7550  139.8317  155.2192 H   0  0  0  0  0  0  0  0  0  0  0  0
  152.4235  139.1314  156.7809 H   0  0  0  0  0  0  0  0  0  0  0  0
  149.9990  138.7748  156.0551 H   0  0  0  0  0  0  0  0  0  0  0  0
  149.6399  138.9161  153.8296 H   0  0  0  0  0  0  0  0  0  0  0  0
  151.1801  137.1204  153.9890 H   0  0  0  0  0  0  0  0  0  0  0  0
  152.3894  137.2973  155.2148 H   0  0  0  0  0  0  0  0  0  0  0  0
  147.4785  133.9661  155.9249 H   0  0  0  0  0  0  0  0  0  0  0  0
  148.4492  132.9456  156.9775 H   0  0  0  0  0  0  0  0  0  0  0  0
  149.0852  133.4559  155.4186 H   0  0  0  0  0  0  0  0  0  0  0  0
  147.1948  135.7491  157.7595 H   0  0  0  0  0  0  0  0  0  0  0  0
  148.6040  136.4546  158.5420 H   0  0  0  0  0  0  0  0  0  0  0  0
  148.1386  134.7950  158.8951 H   0  0  0  0  0  0  0  0  0  0  0  0
  153.2641  139.9316  158.5433 H   0  0  0  0  0  0  0  0  0  0  0  0
  154.2971  140.1146  160.6432 H   0  0  0  0  0  0  0  0  0  0  0  0
  153.3476  140.9427  161.8745 H   0  0  0  0  0  0  0  0  0  0  0  0
  154.7140  141.7632  161.1036 H   0  0  0  0  0  0  0  0  0  0  0  0
  149.8974  143.6853  156.6022 H   0  0  0  0  0  0  0  0  0  0  0  0
  1  2  1  0  0  0  0
  1 25  1  0  0  0  0
  1 26  1  0  0  0  0
  1 27  1  0  0  0  0
  2 23  1  0  0  0  0
  2  3  2  0  0  0  0
  3  4  1  0  0  0  0
  3 28  1  0  0  0  0
  4 21  2  0  0  0  0
  4  5  1  0  0  0  0
  5  6  2  0  0  0  0
  5 46  1  0  0  0  0
  6  7  1  0  0  0  0
  6 29  1  0  0  0  0
  7  8  1  0  0  0  0
  7 21  1  0  0  0  0
  8  9  1  0  0  0  0
  8 30  1  0  0  0  0
  8 31  1  0  0  0  0
  9 10  1  0  0  0  0
  9 11  1  0  0  0  0
  9 32  1  0  0  0  0
 10 33  1  0  0  0  0
 11 12  1  0  0  0  0
 11 34  1  0  0  0  0
 11 35  1  0  0  0  0
 12 19  1  0  0  0  0
 12 13  1  0  0  0  0
 13 14  2  0  0  0  0
 13 15  1  0  0  0  0
 15 16  1  0  0  0  0
 16 17  1  0  0  0  0
 16 18  1  0  0  0  0
 16 19  1  0  0  0  0
 17 36  1  0  0  0  0
 17 37  1  0  0  0  0
 17 38  1  0  0  0  0
 18 39  1  0  0  0  0
 18 40  1  0  0  0  0
 18 41  1  0  0  0  0
 19 20  2  0  0  0  0
 21 22  1  0  0  0  0
 22 23  2  0  0  0  0
 22 42  1  0  0  0  0
 23 24  1  0  0  0  0
 24 43  1  0  0  0  0
 24 44  1  0  0  0  0
 24 45  1  0  0  0  0
M  CHG  1   5   1
M  CHG  1  15  -1
M  END
> <s_m_source_file>
AV-unprocessed.smi

> <i_m_source_file_index>
2026

> <i_lp_mmshare_version>
43012

> <i_f3d_flags>
0

> <s_epik_input>
W0NIM11jKFtjSF0xKWMoW0NIM10pW2NIXWMoYzEyKW4oW2NIXW4yKVtDSDJdW0NASF0oW09IXSlbQ0gyXU4oQzM9TylDKD1PKVtOSF1DMyhbQ0gzXSlbQ0gzXQ==

> <s_epik_cmdline>
J2VwaWtfcHl0aG9uJywgJy1waCcsICc3LjAnLCAnLXRuJywgJzgnLCAnLW1hJywgJzIwMCcsICctbWV0YWxfYmluZGluZycsICctaW1hZScsICc8aW5maWxlLm1hZT4nLCAnLW9tYWUnLCAnPG91dGZpbGUubWFlPic=

> <r_lp_tautomer_probability>
1

> <r_epik_Ionization_Penalty>
6.70784

> <r_epik_Ionization_Penalty_Charging>
6.70784

> <r_epik_Ionization_Penalty_Neutral>
1.13852e-06

> <r_epik_State_Penalty>
6.78089

> <r_epik_Charging_Adjusted_Penalty>
13.4887

> <i_epik_Tot_Q>
0

> <i_epik_Tot_abs_Q>
2

> <r_epik_Metal_State_Penalty>
2.84685

> <b_epik_Metal_Only>
1

> <s_lp_Force_Field>
OPLS_2005

> <r_lp_Energy>
23.6038

> <b_lp_Chiralities_Consistent>
1

> <s_lp_Variant>
AV-unprocessed.smi:2026-8

> <Gold.Version>
5.8.1

> <Gold.Id.Protein>
6NUR|6NUR_protein|mol2

> <Gold.PLP.Fitness>
56.7806

> <Gold.PLP.PLP>
-43.0205

> <Gold.PLP.part.hbond>
-4.6190

> <Gold.PLP.part.metal>
0.0000

> <Gold.PLP.part.buried>
-7.1401

> <Gold.PLP.part.nonpolar>
-31.2861

> <Gold.PLP.part.repulsive>
0.1406

> <Gold.PLP.ligand.clash>
0.0000

> <Gold.PLP.ligand.torsion>
0.9533

> <Gold.PLP.Chemscore.Hbond>
5.2160

> <Gold.PLP.Chemscore.CHOScore>
0.0000

> <Gold.PLP.Chemscore.Metal>
0.0000

> <Gold.Chemscore.Hbonds>
donor molecule, donor type, donor heavy atom, donor atom, acceptor molecule, acceptor atom, score
      L1  H     5    46       P1  8028  2.00
      P1  H  6896  6907       L1    15  1.18
      P1  H  7989  7998       L1    10  1.00
      P1  H 10752 10765       L1    14  1.00

> <Gold.PLP.Chemscore.Internal.Correction>
0.0188

> <Gold.Rescore>
     Score         DG    S(hbond)    S(metal)    S(lipo)     H(rot)  DE(clash)    DE(int)     intcor
     21.18     -23.04       3.52        0.00     102.78       2.44       0.03       1.83       ----

> <Gold.Chemscore.Fitness>
21.1765

> <Gold.Chemscore.DG>
-23.0406

> <Gold.Chemscore.ZeroCoef>
-5.4800

> <Gold.Chemscore.Hbond>
3.5242

> <Gold.Chemscore.Metal>
0.0000

> <Gold.Chemscore.Lipo>
102.7801

> <Gold.Chemscore.Internal_Hbond>
0.0000

> <Gold.Chemscore.DEClash>
0.0344

> <Gold.Chemscore.DEInternal>
1.8298

> <Gold.Chemscore.Rot>
2.4357

> <Gold.Chemscore.Internal.Correction>
   9.000000E+99

> <Gold.Chemscore.Hbonds>
donor molecule, donor type, donor heavy atom, donor atom, acceptor molecule, acceptor atom, score
      L1  H     5    46       P1  8028  0.98
      P1  H  6896  6907       L1    15  0.54
      P1  H  7989  7998       L1    10  0.82
      P1  H 10752 10765       L1    14  0.78

> <Gold.Chemscore.Hbond.Weighted>
-11.7707

> <Gold.Chemscore.Metal.Weighted>
-0.0000

> <Gold.Chemscore.Lipo.Weighted>
-12.0253

> <Gold.Chemscore.Internal_Hbond.Weighted>
0.0000

> <Gold.Chemscore.DEClash.Weighted>
0.0344

> <Gold.Chemscore.DEInternal.Weighted>
1.8298

> <Gold.Chemscore.Rot.Weighted>
6.2353

> <Gold.Chemscore.Internal.Correction.Weighted>
   9.000000E+99

> <Gold.Protein.RotatedTorsions>
[ 6907 6896 6895 6894 ] final  -97.60 input  -60.11 | X-H torsion
[ 7974 7965 7964 7962 ] final  -35.04 input  175.53 | X-H torsion
[ 8008 7997 7996 7995 ] final -141.89 input   59.86 | X-H torsion
[ 10167 10162 10161 10158 ] final -133.35 input  -65.29 | X-H torsion
[ 10718 10713 10712 10709 ] final  -70.88 input   66.30 | X-H torsion
[ 10763 10752 10751 10750 ] final -129.19 input  -60.55 | X-H torsion
[ 11005 11000 10999 10996 ] final   84.72 input  -57.11 | X-H torsion

> <Gold.Protein.ActiveResidues>
 VAL166  LYS551  ARG553  GLY616  TRP617  ASP618  TYR619  PRO620  LYS621  CYS622 
 ASP623  PHE694  ASN695  SER759  ASP760  ASP761  ALA762  ILE779  LEU786  VAL792 
 PHE793  MET794  SER795  GLU796  ALA797  LYS798  CYS799  TRP800  GLU811  SER814 

> <Gold.Protein.RotatedAtoms>
  150.7021  134.1324  159.4074 H   0  0  0  0  0  0  0  0  0  0  0  0  # atno 6907 bound_to 6896
  151.9309  135.0254  160.0538 H   0  0  0  0  0  0  0  0  0  0  0  0  # atno 6908 bound_to 6896
  152.2176  133.4923  159.5181 H   0  0  0  0  0  0  0  0  0  0  0  0  # atno 6909 bound_to 6896
  146.0780  140.6111  142.8922 H   0  0  0  0  0  0  0  0  0  0  0  0  # atno 7974 bound_to 7965
  155.4853  140.0563  157.2961 H   0  0  0  0  0  0  0  0  0  0  0  0  # atno 8008 bound_to 7997
  154.4644  140.2012  156.0109 H   0  0  0  0  0  0  0  0  0  0  0  0  # atno 8009 bound_to 7997
  156.0948  140.3228  155.7868 H   0  0  0  0  0  0  0  0  0  0  0  0  # atno 8010 bound_to 7997
  139.8991  143.6629  152.2598 H   0  0  0  0  0  0  0  0  0  0  0  0  # atno 10167 bound_to 10162
  156.0388  130.4340  150.2361 H   0  0  0  0  0  0  0  0  0  0  0  0  # atno 10718 bound_to 10713
  154.8757  135.3904  154.3879 H   0  0  0  0  0  0  0  0  0  0  0  0  # atno 10763 bound_to 10752
  153.4618  135.7029  153.6051 H   0  0  0  0  0  0  0  0  0  0  0  0  # atno 10764 bound_to 10752
  153.4546  135.3826  155.2272 H   0  0  0  0  0  0  0  0  0  0  0  0  # atno 10765 bound_to 10752
  139.8992  134.8236  156.2483 H   0  0  0  0  0  0  0  0  0  0  0  0  # atno 11005 bound_to 11000
  144.7274  140.4567  143.6963 LP  0  0  0  0  0  0  0  0  0  0  0  0  # atno 17320 bound_to 7965
  145.6271  139.1531  143.2990 LP  0  0  0  0  0  0  0  0  0  0  0  0  # atno 17321 bound_to 7965
  139.7041  144.7630  151.1223 LP  0  0  0  0  0  0  0  0  0  0  0  0  # atno 17342 bound_to 10162
  140.7710  143.5418  150.9303 LP  0  0  0  0  0  0  0  0  0  0  0  0  # atno 17343 bound_to 10162
  157.0458  131.0048  151.3269 LP  0  0  0  0  0  0  0  0  0  0  0  0  # atno 17370 bound_to 10713
  157.5177  130.7978  149.7774 LP  0  0  0  0  0  0  0  0  0  0  0  0  # atno 17371 bound_to 10713
  141.0240  133.7025  156.1316 LP  0  0  0  0  0  0  0  0  0  0  0  0  # atno 17394 bound_to 11000
  140.7193  134.4376  157.5576 LP  0  0  0  0  0  0  0  0  0  0  0  0  # atno 17395 bound_to 11000

$$$$
