AV-unprocessed.smi:3183|AV-procd|sdf|12159|dock1
  -GOLD-   2272017593D 1   1.00000     0.00000
 Structure written by MMmdl.
 43 44  0  0  0  0  0  0  0  0  2 V2000
  151.7885  143.3288  161.3641 C   0  0  0  0  0  0  0  0  0  0  0  0
  152.7253  144.0128  160.3477 C   0  0  2  0  0  0  0  0  0  0  0  0
  152.0239  145.1807  159.6246 C   0  0  0  0  0  0  0  0  0  0  0  0
  150.9859  144.6984  158.5964 C   0  0  0  0  0  0  0  0  0  0  0  0
  151.6129  143.7329  157.5691 C   0  0  2  0  0  0  0  0  0  0  0  0
  150.6026  143.2118  156.6216 N   0  3  0  0  0  0  0  0  0  0  0  0
  149.9174  141.9729  157.0458 C   0  0  0  0  0  0  0  0  0  0  0  0
  149.4724  141.1472  155.8298 C   0  0  0  0  0  0  0  0  0  0  0  0
  150.4758  140.1311  155.3754 C   0  0  0  0  0  0  0  0  0  0  0  0
  151.8211  140.0266  155.6027 C   0  0  0  0  0  0  0  0  0  0  0  0
  152.2022  138.8475  154.9049 C   0  0  0  0  0  0  0  0  0  0  0  0
  151.1829  138.2680  154.2958 N   0  0  0  0  0  0  0  0  0  0  0  0
  150.1235  139.0534  154.5832 N   0  0  0  0  0  0  0  0  0  0  0  0
  148.8170  138.7010  154.0611 C   0  0  0  0  0  0  0  0  0  0  0  0
  152.3072  142.5589  158.2853 C   0  0  0  0  0  0  0  0  0  0  0  0
  153.3518  143.0473  159.3093 C   0  0  2  0  0  0  0  0  0  0  0  0
  154.1150  141.8761  159.9500 C   0  0  0  0  0  0  0  0  0  0  0  0
  150.9587  142.8147  160.8804 H   0  0  0  0  0  0  0  0  0  0  0  0
  151.3636  144.0599  162.0523 H   0  0  0  0  0  0  0  0  0  0  0  0
  152.3224  142.5980  161.9713 H   0  0  0  0  0  0  0  0  0  0  0  0
  153.5425  144.4443  160.9277 H   0  0  0  0  0  0  0  0  0  0  0  0
  151.5499  145.8434  160.3495 H   0  0  0  0  0  0  0  0  0  0  0  0
  152.7736  145.7855  159.1125 H   0  0  0  0  0  0  0  0  0  0  0  0
  150.1571  144.2096  159.1096 H   0  0  0  0  0  0  0  0  0  0  0  0
  150.5624  145.5683  158.0949 H   0  0  0  0  0  0  0  0  0  0  0  0
  152.3711  144.2688  156.9955 H   0  0  0  0  0  0  0  0  0  0  0  0
  149.8938  143.9230  156.5117 H   0  0  0  0  0  0  0  0  0  0  0  0
  150.5856  141.3775  157.6678 H   0  0  0  0  0  0  0  0  0  0  0  0
  149.0506  142.2335  157.6548 H   0  0  0  0  0  0  0  0  0  0  0  0
  148.5367  140.6385  156.0653 H   0  0  0  0  0  0  0  0  0  0  0  0
  149.2514  141.8217  155.0016 H   0  0  0  0  0  0  0  0  0  0  0  0
  152.4453  140.6913  156.1813 H   0  0  0  0  0  0  0  0  0  0  0  0
  153.1815  138.3991  154.8239 H   0  0  0  0  0  0  0  0  0  0  0  0
  148.1177  138.5613  154.8857 H   0  0  0  0  0  0  0  0  0  0  0  0
  148.8686  137.7769  153.4833 H   0  0  0  0  0  0  0  0  0  0  0  0
  148.4524  139.4997  153.4147 H   0  0  0  0  0  0  0  0  0  0  0  0
  151.5648  141.9323  158.7810 H   0  0  0  0  0  0  0  0  0  0  0  0
  152.7948  141.9218  157.5460 H   0  0  0  0  0  0  0  0  0  0  0  0
  154.0938  143.6235  158.7541 H   0  0  0  0  0  0  0  0  0  0  0  0
  153.4433  141.1842  160.4587 H   0  0  0  0  0  0  0  0  0  0  0  0
  154.8443  142.2328  160.6780 H   0  0  0  0  0  0  0  0  0  0  0  0
  154.6578  141.3062  159.1956 H   0  0  0  0  0  0  0  0  0  0  0  0
  151.0435  143.0593  155.7257 H   0  0  0  0  0  0  0  0  0  0  0  0
  1  2  1  0  0  0  0
  1 18  1  0  0  0  0
  1 19  1  0  0  0  0
  1 20  1  0  0  0  0
  2 16  1  0  0  0  0
  2  3  1  0  0  0  0
  2 21  1  0  0  0  0
  3  4  1  0  0  0  0
  3 22  1  0  0  0  0
  3 23  1  0  0  0  0
  4  5  1  0  0  0  0
  4 24  1  0  0  0  0
  4 25  1  0  0  0  0
  5  6  1  0  0  0  0
  5 15  1  0  0  0  0
  5 26  1  0  0  0  0
  6  7  1  0  0  0  0
  6 27  1  0  0  0  0
  6 43  1  0  0  0  0
  7  8  1  0  0  0  0
  7 28  1  0  0  0  0
  7 29  1  0  0  0  0
  8  9  1  0  0  0  0
  8 30  1  0  0  0  0
  8 31  1  0  0  0  0
  9 13  1  0  0  0  0
  9 10  2  0  0  0  0
 10 11  1  0  0  0  0
 10 32  1  0  0  0  0
 11 12  2  0  0  0  0
 11 33  1  0  0  0  0
 12 13  1  0  0  0  0
 13 14  1  0  0  0  0
 14 34  1  0  0  0  0
 14 35  1  0  0  0  0
 14 36  1  0  0  0  0
 15 16  1  0  0  0  0
 15 37  1  0  0  0  0
 15 38  1  0  0  0  0
 16 17  1  0  0  0  0
 16 39  1  0  0  0  0
 17 40  1  0  0  0  0
 17 41  1  0  0  0  0
 17 42  1  0  0  0  0
M  CHG  1   6   1
M  END
> <s_m_source_file>
AV-unprocessed.smi

> <i_m_source_file_index>
3183

> <i_lp_mmshare_version>
43012

> <i_f3d_flags>
0

> <s_epik_input>
W0NIM11bQ0BASF0xW0NIMl1bQ0gyXVtDQEhdKFtDSDJdW0NASF0xW0NIM10pW05IXVtDSDJdW0NIMl1jMltjSF1bY0hdbm4yW0NIM10=

> <s_epik_cmdline>
J2VwaWtfcHl0aG9uJywgJy1waCcsICc3LjAnLCAnLXRuJywgJzgnLCAnLW1hJywgJzIwMCcsICctbWV0YWxfYmluZGluZycsICctaW1hZScsICc8aW5maWxlLm1hZT4nLCAnLW9tYWUnLCAnPG91dGZpbGUubWFlPic=

> <r_lp_tautomer_probability>
1

> <r_epik_Ionization_Penalty>
0.000327718

> <r_epik_Ionization_Penalty_Charging>
0.000294043

> <r_epik_Ionization_Penalty_Neutral>
3.36755e-05

> <r_epik_State_Penalty>
-0

> <r_epik_Charging_Adjusted_Penalty>
0.000294043

> <i_epik_Tot_Q>
1

> <i_epik_Tot_abs_Q>
1

> <r_epik_Metal_State_Penalty>
-0

> <b_epik_Metal_Only>
0

> <s_lp_Force_Field>
OPLS_2005

> <r_lp_Energy>
14.2939

> <b_lp_Chiralities_Consistent>
1

> <s_lp_Variant>
AV-unprocessed.smi:3183-7

> <Gold.Version>
5.8.1

> <Gold.Id.Protein>
6NUR|6NUR_protein|mol2

> <Gold.PLP.Fitness>
45.4166

> <Gold.PLP.PLP>
-41.3654

> <Gold.PLP.part.hbond>
-0.8209

> <Gold.PLP.part.metal>
0.0000

> <Gold.PLP.part.buried>
-4.1667

> <Gold.PLP.part.nonpolar>
-37.1913

> <Gold.PLP.part.repulsive>
0.2501

> <Gold.PLP.ligand.clash>
0.0000

> <Gold.PLP.ligand.torsion>
0.9800

> <Gold.PLP.Chemscore.Hbond>
2.0000

> <Gold.PLP.Chemscore.CHOScore>
0.0000

> <Gold.PLP.Chemscore.Metal>
0.0000

> <Gold.Chemscore.Hbonds>
donor molecule, donor type, donor heavy atom, donor atom, acceptor molecule, acceptor atom, score
      L1  H     6    27       P1  8028  1.98

> <Gold.PLP.Chemscore.Internal.Correction>
0.0111

> <Gold.Rescore>
     Score         DG    S(hbond)    S(metal)    S(lipo)     H(rot)  DE(clash)    DE(int)     intcor
     19.20     -20.19       0.95        0.00     128.80       1.38       0.07       0.93       ----

> <Gold.Chemscore.Fitness>
19.1952

> <Gold.Chemscore.DG>
-20.1934

> <Gold.Chemscore.ZeroCoef>
-5.4800

> <Gold.Chemscore.Hbond>
0.9485

> <Gold.Chemscore.Metal>
0.0000

> <Gold.Chemscore.Lipo>
128.8034

> <Gold.Chemscore.Internal_Hbond>
0.0000

> <Gold.Chemscore.DEClash>
0.0686

> <Gold.Chemscore.DEInternal>
0.9296

> <Gold.Chemscore.Rot>
1.3768

> <Gold.Chemscore.Internal.Correction>
   9.000000E+99

> <Gold.Chemscore.Hbonds>
donor molecule, donor type, donor heavy atom, donor atom, acceptor molecule, acceptor atom, score
      L1  H     6    27       P1  8028  0.91

> <Gold.Chemscore.Hbond.Weighted>
-3.1681

> <Gold.Chemscore.Metal.Weighted>
-0.0000

> <Gold.Chemscore.Lipo.Weighted>
-15.0700

> <Gold.Chemscore.Internal_Hbond.Weighted>
0.0000

> <Gold.Chemscore.DEClash.Weighted>
0.0686

> <Gold.Chemscore.DEInternal.Weighted>
0.9296

> <Gold.Chemscore.Rot.Weighted>
3.5247

> <Gold.Chemscore.Internal.Correction.Weighted>
   9.000000E+99

> <Gold.Protein.RotatedTorsions>
[ 6907 6896 6895 6894 ] final   50.26 input  -60.11 | X-H torsion
[ 7974 7965 7964 7962 ] final   21.50 input  175.53 | X-H torsion
[ 8008 7997 7996 7995 ] final   41.87 input   59.86 | X-H torsion
[ 10167 10162 10161 10158 ] final  120.93 input  -65.29 | X-H torsion
[ 10718 10713 10712 10709 ] final   38.00 input   66.30 | X-H torsion
[ 10763 10752 10751 10750 ] final -152.12 input  -60.55 | X-H torsion
[ 11005 11000 10999 10996 ] final -132.23 input  -57.11 | X-H torsion

> <Gold.Protein.ActiveResidues>
 VAL166  LYS551  ARG553  GLY616  TRP617  ASP618  TYR619  PRO620  LYS621  CYS622 
 ASP623  PHE694  ASN695  SER759  ASP760  ASP761  ALA762  ILE779  LEU786  VAL792 
 PHE793  MET794  SER795  GLU796  ALA797  LYS798  CYS799  TRP800  GLU811  SER814 

> <Gold.Protein.RotatedAtoms>
  152.2999  134.7623  160.0359 H   0  0  0  0  0  0  0  0  0  0  0  0  # atno 6907 bound_to 6896
  151.8140  133.3380  159.3572 H   0  0  0  0  0  0  0  0  0  0  0  0  # atno 6908 bound_to 6896
  150.7269  134.5566  159.5866 H   0  0  0  0  0  0  0  0  0  0  0  0  # atno 6909 bound_to 6896
  146.2068  139.8018  142.8719 H   0  0  0  0  0  0  0  0  0  0  0  0  # atno 7974 bound_to 7965
  155.2768  140.3369  155.4261 H   0  0  0  0  0  0  0  0  0  0  0  0  # atno 8008 bound_to 7997
  156.2108  140.1769  156.7740 H   0  0  0  0  0  0  0  0  0  0  0  0  # atno 8009 bound_to 7997
  154.5684  140.0674  156.8911 H   0  0  0  0  0  0  0  0  0  0  0  0  # atno 8010 bound_to 7997
  139.5951  144.7039  151.3196 H   0  0  0  0  0  0  0  0  0  0  0  0  # atno 10167 bound_to 10162
  157.3536  130.7612  149.6996 H   0  0  0  0  0  0  0  0  0  0  0  0  # atno 10718 bound_to 10713
  154.8014  135.3243  154.7539 H   0  0  0  0  0  0  0  0  0  0  0  0  # atno 10763 bound_to 10752
  153.8207  135.6888  153.4832 H   0  0  0  0  0  0  0  0  0  0  0  0  # atno 10764 bound_to 10752
  153.1734  135.4614  154.9876 H   0  0  0  0  0  0  0  0  0  0  0  0  # atno 10765 bound_to 10752
  140.9189  134.1471  157.4330 H   0  0  0  0  0  0  0  0  0  0  0  0  # atno 11005 bound_to 11000
  145.3288  141.0261  143.3458 LP  0  0  0  0  0  0  0  0  0  0  0  0  # atno 17320 bound_to 7965
  144.8814  139.4899  143.6721 LP  0  0  0  0  0  0  0  0  0  0  0  0  # atno 17321 bound_to 7965
  140.7205  143.7148  150.7741 LP  0  0  0  0  0  0  0  0  0  0  0  0  # atno 17342 bound_to 10162
  140.0713  143.5059  152.2578 LP  0  0  0  0  0  0  0  0  0  0  0  0  # atno 17343 bound_to 10162
  155.9725  130.4133  150.4078 LP  0  0  0  0  0  0  0  0  0  0  0  0  # atno 17370 bound_to 10713
  157.2144  131.0468  151.2581 LP  0  0  0  0  0  0  0  0  0  0  0  0  # atno 17371 bound_to 10713
  139.8771  134.9964  156.5792 LP  0  0  0  0  0  0  0  0  0  0  0  0  # atno 17394 bound_to 11000
  140.8014  133.8502  155.8730 LP  0  0  0  0  0  0  0  0  0  0  0  0  # atno 17395 bound_to 11000

$$$$
