AV-unprocessed.smi:1433|AV-procd|sdf|5839|dock2
  -GOLD-   22720 5503D 1   1.00000     0.00000
 Structure written by MMmdl.
 44 45  0  0  0  0  0  0  0  0  1 V2000
  150.7953  142.0624  156.4152 C   0  0  0  0  0  0  0  0  0  0  0  0
  151.0242  142.6640  157.8057 C   0  0  1  0  0  0  0  0  0  0  0  0
  151.9760  141.8048  158.6590 C   0  0  0  0  0  0  0  0  0  0  0  0
  152.2671  142.4184  159.9553 N   0  0  0  0  0  0  0  0  0  0  0  0
  153.1329  141.5847  160.8168 C   0  0  2  0  0  0  0  0  0  0  0  0
  153.5743  142.2875  162.1213 C   0  0  0  0  0  0  0  0  0  0  0  0
  154.4066  141.0636  160.1004 C   0  0  0  0  0  0  0  0  0  0  0  0
  154.7686  139.7197  160.5477 N   0  0  0  0  0  0  0  0  0  0  0  0
  155.7156  138.9379  160.0055 C   0  0  0  0  0  0  0  0  0  0  0  0
  156.3693  139.2452  159.0093 O   0  0  0  0  0  0  0  0  0  0  0  0
  155.9774  137.6032  160.7038 C   0  0  0  0  0  0  0  0  0  0  0  0
  155.1427  137.4507  161.8822 N   0  0  0  0  0  0  0  0  0  0  0  0
  153.8379  137.0090  161.9567 C   0  0  0  0  0  0  0  0  0  0  0  0
  153.4745  137.0343  163.2727 C   0  0  0  0  0  0  0  0  0  0  0  0
  154.6402  137.5103  163.9360 C   0  0  0  0  0  0  0  0  0  0  0  0
  155.6366  137.7594  163.1015 N   0  0  0  0  0  0  0  0  0  0  0  0
  152.8344  143.7463  159.7050 C   0  0  0  0  0  0  0  0  0  0  0  0
  151.9187  144.6391  158.8470 C   0  0  2  0  0  0  0  0  0  0  0  0
  150.6766  145.1372  159.6067 C   0  0  0  0  0  0  0  0  0  0  0  0
  151.5730  143.9681  157.6363 O   0  0  0  0  0  0  0  0  0  0  0  0
  150.3686  141.0616  156.4859 H   0  0  0  0  0  0  0  0  0  0  0  0
  151.7296  141.9898  155.8578 H   0  0  0  0  0  0  0  0  0  0  0  0
  150.1075  142.6767  155.8337 H   0  0  0  0  0  0  0  0  0  0  0  0
  150.0591  142.7412  158.3072 H   0  0  0  0  0  0  0  0  0  0  0  0
  151.5016  140.8340  158.7931 H   0  0  0  0  0  0  0  0  0  0  0  0
  152.9061  141.6299  158.1157 H   0  0  0  0  0  0  0  0  0  0  0  0
  152.5607  140.7056  161.1175 H   0  0  0  0  0  0  0  0  0  0  0  0
  154.3001  141.6856  162.6689 H   0  0  0  0  0  0  0  0  0  0  0  0
  152.7396  142.4456  162.8035 H   0  0  0  0  0  0  0  0  0  0  0  0
  154.0345  143.2557  161.9202 H   0  0  0  0  0  0  0  0  0  0  0  0
  154.2282  141.0130  159.0260 H   0  0  0  0  0  0  0  0  0  0  0  0
  155.2366  141.7623  160.2035 H   0  0  0  0  0  0  0  0  0  0  0  0
  154.2858  139.3713  161.3635 H   0  0  0  0  0  0  0  0  0  0  0  0
  155.7710  136.7779  160.0211 H   0  0  0  0  0  0  0  0  0  0  0  0
  157.0296  137.5311  160.9845 H   0  0  0  0  0  0  0  0  0  0  0  0
  153.2835  136.7189  161.0760 H   0  0  0  0  0  0  0  0  0  0  0  0
  152.5218  136.7549  163.6971 H   0  0  0  0  0  0  0  0  0  0  0  0
  154.7911  137.6811  164.9917 H   0  0  0  0  0  0  0  0  0  0  0  0
  153.0330  144.2722  160.6355 H   0  0  0  0  0  0  0  0  0  0  0  0
  153.7977  143.6391  159.2039 H   0  0  0  0  0  0  0  0  0  0  0  0
  152.4885  145.5217  158.5553 H   0  0  0  0  0  0  0  0  0  0  0  0
  150.9659  145.7405  160.4674 H   0  0  0  0  0  0  0  0  0  0  0  0
  150.0664  144.3148  159.9799 H   0  0  0  0  0  0  0  0  0  0  0  0
  150.0495  145.7560  158.9649 H   0  0  0  0  0  0  0  0  0  0  0  0
  1  2  1  0  0  0  0
  1 21  1  0  0  0  0
  1 22  1  0  0  0  0
  1 23  1  0  0  0  0
  2 20  1  0  0  0  0
  2  3  1  0  0  0  0
  2 24  1  0  0  0  0
  3  4  1  0  0  0  0
  3 25  1  0  0  0  0
  3 26  1  0  0  0  0
  4  5  1  0  0  0  0
  4 17  1  0  0  0  0
  5  6  1  0  0  0  0
  5  7  1  0  0  0  0
  5 27  1  0  0  0  0
  6 28  1  0  0  0  0
  6 29  1  0  0  0  0
  6 30  1  0  0  0  0
  7  8  1  0  0  0  0
  7 31  1  0  0  0  0
  7 32  1  0  0  0  0
  8  9  1  0  0  0  0
  8 33  1  0  0  0  0
  9 10  2  0  0  0  0
  9 11  1  0  0  0  0
 11 12  1  0  0  0  0
 11 34  1  0  0  0  0
 11 35  1  0  0  0  0
 12 16  1  0  0  0  0
 12 13  1  0  0  0  0
 13 14  2  0  0  0  0
 13 36  1  0  0  0  0
 14 15  1  0  0  0  0
 14 37  1  0  0  0  0
 15 16  2  0  0  0  0
 15 38  1  0  0  0  0
 17 18  1  0  0  0  0
 17 39  1  0  0  0  0
 17 40  1  0  0  0  0
 18 19  1  0  0  0  0
 18 20  1  0  0  0  0
 18 41  1  0  0  0  0
 19 42  1  0  0  0  0
 19 43  1  0  0  0  0
 19 44  1  0  0  0  0
M  END
> <s_m_source_file>
AV-unprocessed.smi

> <i_m_source_file_index>
1433

> <i_lp_mmshare_version>
43012

> <i_f3d_flags>
0

> <s_epik_input>
W0NIM11bQ0BASF0xW0NIMl1OKFtDSDJdW0NASF0oTzEpW0NIM10pW0NASF0oW0NIM10pW0NIMl1bTkhdQyg9TylbQ0gyXW4yW2NIXVtjSF1bY0hdbjI=

> <s_epik_cmdline>
J2VwaWtfcHl0aG9uJywgJy1waCcsICc3LjAnLCAnLXRuJywgJzgnLCAnLW1hJywgJzIwMCcsICctbWV0YWxfYmluZGluZycsICctaW1hZScsICc8aW5maWxlLm1hZT4nLCAnLW9tYWUnLCAnPG91dGZpbGUubWFlPic=

> <r_lp_tautomer_probability>
1

> <r_epik_Ionization_Penalty>
0.196927

> <r_epik_Ionization_Penalty_Charging>
0

> <r_epik_Ionization_Penalty_Neutral>
0.196927

> <r_epik_State_Penalty>
0.186684

> <r_epik_Charging_Adjusted_Penalty>
0.186684

> <i_epik_Tot_Q>
0

> <i_epik_Tot_abs_Q>
0

> <r_epik_Metal_State_Penalty>
0.186682

> <b_epik_Metal_Only>
0

> <s_lp_Force_Field>
OPLS_2005

> <r_lp_Energy>
34.0923

> <b_lp_Chiralities_Consistent>
1

> <s_lp_Variant>
AV-unprocessed.smi:1433-5

> <Gold.Version>
5.8.1

> <Gold.Id.Protein>
6NUR|6NUR_protein|mol2

> <Gold.PLP.Fitness>
44.0489

> <Gold.PLP.PLP>
-42.7598

> <Gold.PLP.part.hbond>
-1.0000

> <Gold.PLP.part.metal>
0.0000

> <Gold.PLP.part.buried>
-7.2007

> <Gold.PLP.part.nonpolar>
-34.9069

> <Gold.PLP.part.repulsive>
0.2327

> <Gold.PLP.ligand.clash>
0.0000

> <Gold.PLP.ligand.torsion>
0.8812

> <Gold.PLP.Chemscore.Hbond>
0.9920

> <Gold.PLP.Chemscore.CHOScore>
0.0000

> <Gold.PLP.Chemscore.Metal>
0.0000

> <Gold.Chemscore.Hbonds>
donor molecule, donor type, donor heavy atom, donor atom, acceptor molecule, acceptor atom, score
      P1  H  7997  8008       L1    10  0.71

> <Gold.PLP.Chemscore.Internal.Correction>
0.0756

> <Gold.Rescore>
     Score         DG    S(hbond)    S(metal)    S(lipo)     H(rot)  DE(clash)    DE(int)     intcor
     17.27     -18.05       0.99        0.00     118.58       1.80       0.04       0.73       ----

> <Gold.Chemscore.Fitness>
17.2748

> <Gold.Chemscore.DG>
-18.0477

> <Gold.Chemscore.ZeroCoef>
-5.4800

> <Gold.Chemscore.Hbond>
0.9914

> <Gold.Chemscore.Metal>
0.0000

> <Gold.Chemscore.Lipo>
118.5824

> <Gold.Chemscore.Internal_Hbond>
0.0000

> <Gold.Chemscore.DEClash>
0.0416

> <Gold.Chemscore.DEInternal>
0.7314

> <Gold.Chemscore.Rot>
1.8038

> <Gold.Chemscore.Internal.Correction>
   9.000000E+99

> <Gold.Chemscore.Hbonds>
donor molecule, donor type, donor heavy atom, donor atom, acceptor molecule, acceptor atom, score
      P1  H  7997  8008       L1    10  0.68

> <Gold.Chemscore.Hbond.Weighted>
-3.3113

> <Gold.Chemscore.Metal.Weighted>
-0.0000

> <Gold.Chemscore.Lipo.Weighted>
-13.8741

> <Gold.Chemscore.Internal_Hbond.Weighted>
0.0000

> <Gold.Chemscore.DEClash.Weighted>
0.0416

> <Gold.Chemscore.DEInternal.Weighted>
0.7314

> <Gold.Chemscore.Rot.Weighted>
4.6178

> <Gold.Chemscore.Internal.Correction.Weighted>
   9.000000E+99

> <Gold.Protein.RotatedTorsions>
[ 6907 6896 6895 6894 ] final  -23.26 input  -60.11 | X-H torsion
[ 7974 7965 7964 7962 ] final  129.28 input  175.53 | X-H torsion
[ 8008 7997 7996 7995 ] final -178.56 input   59.86 | X-H torsion
[ 10167 10162 10161 10158 ] final  102.19 input  -65.29 | X-H torsion
[ 10718 10713 10712 10709 ] final  -67.54 input   66.30 | X-H torsion
[ 10763 10752 10751 10750 ] final  -69.68 input  -60.55 | X-H torsion
[ 11005 11000 10999 10996 ] final   91.87 input  -57.11 | X-H torsion

> <Gold.Protein.ActiveResidues>
 VAL166  LYS551  ARG553  GLY616  TRP617  ASP618  TYR619  PRO620  LYS621  CYS622 
 ASP623  PHE694  ASN695  SER759  ASP760  ASP761  ALA762  ILE779  LEU786  VAL792 
 PHE793  MET794  SER795  GLU796  ALA797  LYS798  CYS799  TRP800  GLU811  SER814 

> <Gold.Protein.RotatedAtoms>
  151.2066  135.0464  159.8893 H   0  0  0  0  0  0  0  0  0  0  0  0  # atno 6907 bound_to 6896
  152.5428  134.0791  159.8238 H   0  0  0  0  0  0  0  0  0  0  0  0  # atno 6908 bound_to 6896
  151.0939  133.5247  159.2645 H   0  0  0  0  0  0  0  0  0  0  0  0  # atno 6909 bound_to 6896
  145.0304  139.4051  143.5152 H   0  0  0  0  0  0  0  0  0  0  0  0  # atno 7974 bound_to 7965
  156.0203  140.1259  157.0364 H   0  0  0  0  0  0  0  0  0  0  0  0  # atno 8008 bound_to 7997
  154.4309  140.1070  156.6023 H   0  0  0  0  0  0  0  0  0  0  0  0  # atno 8009 bound_to 7997
  155.5955  140.3470  155.4581 H   0  0  0  0  0  0  0  0  0  0  0  0  # atno 8010 bound_to 7997
  139.7372  144.7021  151.0631 H   0  0  0  0  0  0  0  0  0  0  0  0  # atno 10167 bound_to 10162
  156.0552  130.4279  150.1870 H   0  0  0  0  0  0  0  0  0  0  0  0  # atno 10718 bound_to 10713
  154.4069  135.6018  153.5929 H   0  0  0  0  0  0  0  0  0  0  0  0  # atno 10763 bound_to 10752
  152.9789  135.5920  154.4117 H   0  0  0  0  0  0  0  0  0  0  0  0  # atno 10764 bound_to 10752
  154.3924  135.2842  155.2125 H   0  0  0  0  0  0  0  0  0  0  0  0  # atno 10765 bound_to 10752
  139.8832  134.8699  156.3490 H   0  0  0  0  0  0  0  0  0  0  0  0  # atno 11005 bound_to 11000
  146.3498  139.9851  142.8691 LP  0  0  0  0  0  0  0  0  0  0  0  0  # atno 17320 bound_to 7965
  145.1778  140.9752  143.4284 LP  0  0  0  0  0  0  0  0  0  0  0  0  # atno 17321 bound_to 7965
  140.7780  143.4969  150.9821 LP  0  0  0  0  0  0  0  0  0  0  0  0  # atno 17342 bound_to 10162
  139.8658  143.7256  152.3170 LP  0  0  0  0  0  0  0  0  0  0  0  0  # atno 17343 bound_to 10162
  156.9947  130.9904  151.3406 LP  0  0  0  0  0  0  0  0  0  0  0  0  # atno 17370 bound_to 10713
  157.5515  130.8185  149.8151 LP  0  0  0  0  0  0  0  0  0  0  0  0  # atno 17371 bound_to 10713
  140.9607  133.7390  156.0397 LP  0  0  0  0  0  0  0  0  0  0  0  0  # atno 17394 bound_to 11000
  140.7993  134.3528  157.5444 LP  0  0  0  0  0  0  0  0  0  0  0  0  # atno 17395 bound_to 11000

$$$$
