AV-unprocessed.smi:3050|AV-procd|sdf|11632|dock6
  -GOLD-   2272017 23D 1   1.00000     0.00000
 Structure written by MMmdl.
 45 46  0  0  0  0  0  0  0  0  1 V2000
  147.4086  141.7947  154.2400 C   0  0  0  0  0  0  0  0  0  0  0  0
  147.1042  140.7036  153.2060 C   0  0  0  0  0  0  0  0  0  0  0  0
  147.6303  139.3197  153.6299 C   0  0  1  0  0  0  0  0  0  0  0  0
  148.2108  139.4491  154.9271 O   0  0  0  0  0  0  0  0  0  0  0  0
  149.6226  139.6397  154.9752 C   0  0  0  0  0  0  0  0  0  0  0  0
  150.3393  138.3018  154.8089 C   0  0  0  0  0  0  0  0  0  0  0  0
  151.7346  138.5435  155.3898 C   0  0  0  0  0  0  0  0  0  0  0  0
  151.5659  139.6419  156.4512 C   0  0  0  0  0  0  0  0  0  0  0  0
  150.1170  140.1352  156.3385 C   0  0  0  0  0  0  0  0  0  0  0  0
  146.4994  138.2797  153.6590 C   0  0  0  0  0  0  0  0  0  0  0  0
  145.4697  138.4962  154.2982 O   0  0  0  0  0  0  0  0  0  0  0  0
  146.7073  137.1557  152.9569 N   0  0  0  0  0  0  0  0  0  0  0  0
  145.7390  136.0756  152.7964 C   0  0  0  0  0  0  0  0  0  0  0  0
  145.4139  135.7930  151.3170 C   0  0  0  0  0  0  0  0  0  0  0  0
  145.1976  134.3281  151.0410 C   0  0  0  0  0  0  0  0  0  0  0  0
  144.3147  133.7368  150.0930 C   0  0  0  0  0  0  0  0  0  0  0  0
  144.3495  132.4143  150.1131 N   0  0  0  0  0  0  0  0  0  0  0  0
  145.2537  132.1164  151.0687 N   0  0  0  0  0  0  0  0  0  0  0  0
  145.5471  130.7308  151.3659 C   0  0  0  0  0  0  0  0  0  0  0  0
  145.7839  133.2508  151.6438 C   0  0  0  0  0  0  0  0  0  0  0  0
  147.0293  142.7608  153.9067 H   0  0  0  0  0  0  0  0  0  0  0  0
  148.4820  141.8962  154.4009 H   0  0  0  0  0  0  0  0  0  0  0  0
  146.9452  141.5698  155.2008 H   0  0  0  0  0  0  0  0  0  0  0  0
  146.0274  140.6583  153.0363 H   0  0  0  0  0  0  0  0  0  0  0  0
  147.5528  140.9928  152.2543 H   0  0  0  0  0  0  0  0  0  0  0  0
  148.3865  139.0083  152.9074 H   0  0  0  0  0  0  0  0  0  0  0  0
  149.9662  140.3124  154.1883 H   0  0  0  0  0  0  0  0  0  0  0  0
  149.8296  137.5347  155.3938 H   0  0  0  0  0  0  0  0  0  0  0  0
  150.3666  137.9651  153.7721 H   0  0  0  0  0  0  0  0  0  0  0  0
  152.1668  137.6315  155.8025 H   0  0  0  0  0  0  0  0  0  0  0  0
  152.4039  138.8957  154.6038 H   0  0  0  0  0  0  0  0  0  0  0  0
  151.7687  139.2639  157.4539 H   0  0  0  0  0  0  0  0  0  0  0  0
  152.2670  140.4558  156.2627 H   0  0  0  0  0  0  0  0  0  0  0  0
  150.0380  141.2176  156.4448 H   0  0  0  0  0  0  0  0  0  0  0  0
  149.5192  139.6818  157.1306 H   0  0  0  0  0  0  0  0  0  0  0  0
  147.5847  137.0586  152.4667 H   0  0  0  0  0  0  0  0  0  0  0  0
  146.1696  135.1827  153.2502 H   0  0  0  0  0  0  0  0  0  0  0  0
  144.8272  136.2952  153.3540 H   0  0  0  0  0  0  0  0  0  0  0  0
  144.5343  136.3704  151.0319 H   0  0  0  0  0  0  0  0  0  0  0  0
  146.2246  136.1778  150.6971 H   0  0  0  0  0  0  0  0  0  0  0  0
  143.6485  134.2282  149.3993 H   0  0  0  0  0  0  0  0  0  0  0  0
  146.2549  130.6671  152.1929 H   0  0  0  0  0  0  0  0  0  0  0  0
  145.9820  130.2499  150.4890 H   0  0  0  0  0  0  0  0  0  0  0  0
  144.6303  130.2097  151.6437 H   0  0  0  0  0  0  0  0  0  0  0  0
  146.5221  133.2006  152.4309 H   0  0  0  0  0  0  0  0  0  0  0  0
  1  2  1  0  0  0  0
  1 21  1  0  0  0  0
  1 22  1  0  0  0  0
  1 23  1  0  0  0  0
  2  3  1  0  0  0  0
  2 24  1  0  0  0  0
  2 25  1  0  0  0  0
  3  4  1  0  0  0  0
  3 10  1  0  0  0  0
  3 26  1  0  0  0  0
  4  5  1  0  0  0  0
  5  9  1  0  0  0  0
  5  6  1  0  0  0  0
  5 27  1  0  0  0  0
  6  7  1  0  0  0  0
  6 28  1  0  0  0  0
  6 29  1  0  0  0  0
  7  8  1  0  0  0  0
  7 30  1  0  0  0  0
  7 31  1  0  0  0  0
  8  9  1  0  0  0  0
  8 32  1  0  0  0  0
  8 33  1  0  0  0  0
  9 34  1  0  0  0  0
  9 35  1  0  0  0  0
 10 11  2  0  0  0  0
 10 12  1  0  0  0  0
 12 13  1  0  0  0  0
 12 36  1  0  0  0  0
 13 14  1  0  0  0  0
 13 37  1  0  0  0  0
 13 38  1  0  0  0  0
 14 15  1  0  0  0  0
 14 39  1  0  0  0  0
 14 40  1  0  0  0  0
 15 20  2  0  0  0  0
 15 16  1  0  0  0  0
 16 17  2  0  0  0  0
 16 41  1  0  0  0  0
 17 18  1  0  0  0  0
 18 19  1  0  0  0  0
 18 20  1  0  0  0  0
 19 42  1  0  0  0  0
 19 43  1  0  0  0  0
 19 44  1  0  0  0  0
 20 45  1  0  0  0  0
M  END
> <s_m_source_file>
AV-unprocessed.smi

> <i_m_source_file_index>
3050

> <i_lp_mmshare_version>
43012

> <i_f3d_flags>
0

> <s_epik_input>
W0NIMl0xW0NIMl1bQ0gyXVtDSDJdW0NIXTFPW0NAQEhdKFtDSDJdW0NIM10pQyg9TylbTkhdW0NIMl1bQ0gyXWMyW2NIXW5uKFtDSDNdKVtjSF0y

> <s_epik_cmdline>
J2VwaWtfcHl0aG9uJywgJy1waCcsICc3LjAnLCAnLXRuJywgJzgnLCAnLW1hJywgJzIwMCcsICctbWV0YWxfYmluZGluZycsICctaW1hZScsICc8aW5maWxlLm1hZT4nLCAnLW9tYWUnLCAnPG91dGZpbGUubWFlPic=

> <r_lp_tautomer_probability>
1

> <r_epik_Ionization_Penalty>
0.000440265

> <r_epik_Ionization_Penalty_Charging>
0

> <r_epik_Ionization_Penalty_Neutral>
0.000440265

> <r_epik_State_Penalty>
-0

> <r_epik_Charging_Adjusted_Penalty>
0

> <i_epik_Tot_Q>
0

> <i_epik_Tot_abs_Q>
0

> <r_epik_Metal_State_Penalty>
-0

> <b_epik_Metal_Only>
0

> <s_lp_Force_Field>
OPLS_2005

> <r_lp_Energy>
20.8184

> <b_lp_Chiralities_Consistent>
1

> <s_lp_Variant>
AV-unprocessed.smi:3050-2

> <Gold.Version>
5.8.1

> <Gold.Id.Protein>
6NUR|6NUR_protein|mol2

> <Gold.PLP.Fitness>
41.6093

> <Gold.PLP.PLP>
-39.7203

> <Gold.PLP.part.hbond>
-0.9250

> <Gold.PLP.part.metal>
0.0000

> <Gold.PLP.part.buried>
-4.5676

> <Gold.PLP.part.nonpolar>
-35.0046

> <Gold.PLP.part.repulsive>
0.3966

> <Gold.PLP.ligand.clash>
0.0000

> <Gold.PLP.ligand.torsion>
2.1138

> <Gold.PLP.Chemscore.Hbond>
0.9600

> <Gold.PLP.Chemscore.CHOScore>
1.0000

> <Gold.PLP.Chemscore.Metal>
0.0000

> <Gold.Chemscore.Hbonds>
donor molecule, donor type, donor heavy atom, donor atom, acceptor molecule, acceptor atom, score
      L1  H    12    36       P1  7948  1.00
      L1  C    16    41       P1 10186  0.69

> <Gold.PLP.Chemscore.Internal.Correction>
0.2365

> <Gold.Rescore>
     Score         DG    S(hbond)    S(metal)    S(lipo)     H(rot)  DE(clash)    DE(int)     intcor
     12.33     -14.88       0.93        0.00      93.74       1.83       0.08       2.47       ----

> <Gold.Chemscore.Fitness>
12.3278

> <Gold.Chemscore.DG>
-14.8829

> <Gold.Chemscore.ZeroCoef>
-5.4800

> <Gold.Chemscore.Hbond>
0.9332

> <Gold.Chemscore.Metal>
0.0000

> <Gold.Chemscore.Lipo>
93.7374

> <Gold.Chemscore.Internal_Hbond>
0.0000

> <Gold.Chemscore.DEClash>
0.0836

> <Gold.Chemscore.DEInternal>
2.4715

> <Gold.Chemscore.Rot>
1.8286

> <Gold.Chemscore.Internal.Correction>
   9.000000E+99

> <Gold.Chemscore.Hbonds>
donor molecule, donor type, donor heavy atom, donor atom, acceptor molecule, acceptor atom, score
      L1  H    12    36       P1  7948  0.99

> <Gold.Chemscore.Hbond.Weighted>
-3.1167

> <Gold.Chemscore.Metal.Weighted>
-0.0000

> <Gold.Chemscore.Lipo.Weighted>
-10.9673

> <Gold.Chemscore.Internal_Hbond.Weighted>
0.0000

> <Gold.Chemscore.DEClash.Weighted>
0.0836

> <Gold.Chemscore.DEInternal.Weighted>
2.4715

> <Gold.Chemscore.Rot.Weighted>
4.6811

> <Gold.Chemscore.Internal.Correction.Weighted>
   9.000000E+99

> <Gold.Protein.RotatedTorsions>
[ 6907 6896 6895 6894 ] final  -27.72 input  -60.11 | X-H torsion
[ 7974 7965 7964 7962 ] final   52.60 input  175.53 | X-H torsion
[ 8008 7997 7996 7995 ] final   94.88 input   59.86 | X-H torsion
[ 10167 10162 10161 10158 ] final  115.83 input  -65.29 | X-H torsion
[ 10718 10713 10712 10709 ] final    2.60 input   66.30 | X-H torsion
[ 10763 10752 10751 10750 ] final -146.06 input  -60.55 | X-H torsion
[ 11005 11000 10999 10996 ] final  -35.74 input  -57.11 | X-H torsion

> <Gold.Protein.ActiveResidues>
 VAL166  LYS551  ARG553  GLY616  TRP617  ASP618  TYR619  PRO620  LYS621  CYS622 
 ASP623  PHE694  ASN695  SER759  ASP760  ASP761  ALA762  ILE779  LEU786  VAL792 
 PHE793  MET794  SER795  GLU796  ALA797  LYS798  CYS799  TRP800  GLU811  SER814 

> <Gold.Protein.RotatedAtoms>
  151.1430  135.0189  159.8633 H   0  0  0  0  0  0  0  0  0  0  0  0  # atno 6907 bound_to 6896
  152.5452  134.1477  159.8515 H   0  0  0  0  0  0  0  0  0  0  0  0  # atno 6908 bound_to 6896
  151.1555  133.4834  159.2627 H   0  0  0  0  0  0  0  0  0  0  0  0  # atno 6909 bound_to 6896
  145.9797  139.4230  143.0140 H   0  0  0  0  0  0  0  0  0  0  0  0  # atno 7974 bound_to 7965
  156.0628  140.3294  155.7482 H   0  0  0  0  0  0  0  0  0  0  0  0  # atno 8008 bound_to 7997
  155.5428  140.0603  157.2884 H   0  0  0  0  0  0  0  0  0  0  0  0  # atno 8009 bound_to 7997
  154.4490  140.1908  156.0596 H   0  0  0  0  0  0  0  0  0  0  0  0  # atno 8010 bound_to 7997
  139.6290  144.7112  151.2473 H   0  0  0  0  0  0  0  0  0  0  0  0  # atno 10167 bound_to 10162
  156.8654  130.5601  149.5660 H   0  0  0  0  0  0  0  0  0  0  0  0  # atno 10718 bound_to 10713
  154.8354  135.3396  154.6601 H   0  0  0  0  0  0  0  0  0  0  0  0  # atno 10763 bound_to 10752
  153.7217  135.6957  153.5016 H   0  0  0  0  0  0  0  0  0  0  0  0  # atno 10764 bound_to 10752
  153.2377  135.4395  155.0617 H   0  0  0  0  0  0  0  0  0  0  0  0  # atno 10765 bound_to 10752
  140.9820  133.7051  156.1700 H   0  0  0  0  0  0  0  0  0  0  0  0  # atno 11005 bound_to 11000
  145.7788  140.9865  143.1110 LP  0  0  0  0  0  0  0  0  0  0  0  0  # atno 17320 bound_to 7965
  144.6858  139.9538  143.7478 LP  0  0  0  0  0  0  0  0  0  0  0  0  # atno 17321 bound_to 7965
  140.7428  143.6515  150.8244 LP  0  0  0  0  0  0  0  0  0  0  0  0  # atno 17342 bound_to 10162
  140.0137  143.5615  152.2828 LP  0  0  0  0  0  0  0  0  0  0  0  0  # atno 17343 bound_to 10162
  156.0754  130.5777  150.9464 LP  0  0  0  0  0  0  0  0  0  0  0  0  # atno 17370 bound_to 10713
  157.6226  131.0928  150.8594 LP  0  0  0  0  0  0  0  0  0  0  0  0  # atno 17371 bound_to 10713
  140.7172  134.4398  157.5577 LP  0  0  0  0  0  0  0  0  0  0  0  0  # atno 17394 bound_to 11000
  139.8954  134.8683  156.2132 LP  0  0  0  0  0  0  0  0  0  0  0  0  # atno 17395 bound_to 11000

$$$$
