#       Name:                AV-unprocessed.smi:1930
#       Creating user name   scv26
#       Creation time:       Fri Mar 27 09:55:23 2020


#       File generated by GOLD software.
#

@<TRIPOS>MOLECULE
AV-unprocessed.smi:1930
    44    45     1
SMALL
NO_CHARGES


@<TRIPOS>ATOM
      1 ****        -4.2580   1.7970   1.0747 C.3            1 S1                 0.0000
      2 ****        -4.4168   2.2167  -0.7090 S.o2           1 S1                 0.0000
      3 ****        -5.3648   1.2734  -1.3215 O.2            1 S1                 0.0000
      4 ****        -4.6517   3.6643  -0.8227 O.2            1 S1                 0.0000
      5 ****        -2.8372   1.8804  -1.3545 N.pl3          1 S1                 0.0000
      6 ****        -2.4282   0.4738  -1.5723 C.3            1 S1                 0.0000
      7 ****        -1.4338  -0.0011  -0.4947 C.3            1 S1                 0.0000
      8 ****        -0.3011   0.9335  -0.4503 N.am           1 S1                 0.0000
      9 ****         0.9460   0.7203  -0.9378 C.2            1 S1                 0.0000
     10 ****         1.7921   1.6093  -1.0390 O.2            1 S1                 0.0000
     11 ****         1.2112  -0.5569  -1.2603 N.am           1 S1                 0.0000
     12 ****         2.4848  -1.0533  -1.7741 C.3            1 S1                 0.0000
     13 ****         3.5922  -1.1040  -0.7022 C.3            1 S1                 0.0000
     14 ****         3.1663  -1.7955   0.5815 C.ar           1 S1                 0.0000
     15 ****         3.0645  -3.2030   0.6398 C.ar           1 S1                 0.0000
     16 ****         2.6614  -3.8179   1.8434 C.ar           1 S1                 0.0000
     17 ****         2.3690  -3.0111   2.9621 C.ar           1 S1                 0.0000
     18 ****         2.4782  -1.6675   2.8693 N.pl3          1 S1                 1.0000
     19 ****         2.8621  -1.0408   1.7357 C.ar           1 S1                 0.0000
     20 ****        -0.7593   2.2554  -0.0181 C.3            1 S1                 0.0000
     21 ****        -1.7268   2.8199  -1.0767 C.3            1 S1                 0.0000
     22 ****        -5.2108   1.9807   1.5706 H              1 S1                 0.0000
     23 ****        -3.4928   2.4205   1.5343 H              1 S1                 0.0000
     24 ****        -3.9980   0.7453   1.1846 H              1 S1                 0.0000
     25 ****        -3.3011  -0.1780  -1.5945 H              1 S1                 0.0000
     26 ****        -1.9639   0.3993  -2.5562 H              1 S1                 0.0000
     27 ****        -1.9159  -0.0256   0.4826 H              1 S1                 0.0000
     28 ****        -1.1460  -1.0331  -0.6938 H              1 S1                 0.0000
     29 ****         0.4719  -1.2347  -1.1450 H              1 S1                 0.0000
     30 ****         2.3072  -2.0583  -2.1581 H              1 S1                 0.0000
     31 ****         2.8068  -0.4519  -2.6258 H              1 S1                 0.0000
     32 ****         4.4678  -1.6148  -1.1044 H              1 S1                 0.0000
     33 ****         3.9215  -0.0916  -0.4647 H              1 S1                 0.0000
     34 ****         3.2911  -3.8052  -0.2280 H              1 S1                 0.0000
     35 ****         2.5786  -4.8931   1.9073 H              1 S1                 0.0000
     36 ****         2.0542  -3.3963   3.9210 H              1 S1                 0.0000
     37 ****         2.9090   0.0377   1.7847 H              1 S1                 0.0000
     38 ****        -1.2548   2.1696   0.9489 H              1 S1                 0.0000
     39 ****         0.0644   2.9533   0.1391 H              1 S1                 0.0000
     40 ****        -1.1864   2.9971  -2.0075 H              1 S1                 0.0000
     41 ****        -2.1149   3.7868  -0.7579 H              1 S1                 0.0000
     42 ****         2.2640  -1.1022   3.6912 H              1 S1                 0.0000
     43 ****         1.5731   2.5427  -0.7545 LP             1 S1                 0.0000
     44 ****         2.6980   1.3979  -1.4058 LP             1 S1                 0.0000
@<TRIPOS>BOND
    1    1    2 1     
    2    1   22 1     
    3    1   23 1     
    4    1   24 1     
    5    2    3 2     
    6    2    4 2     
    7    2    5 1     
    8    5   21 1     
    9    5    6 1     
   10    6    7 1     
   11    6   25 1     
   12    6   26 1     
   13    7    8 1     
   14    7   27 1     
   15    7   28 1     
   16    8    9 am    
   17    8   20 1     
   18    9   10 2     
   19    9   11 am    
   20   11   12 1     
   21   11   29 1     
   22   12   13 1     
   23   12   30 1     
   24   12   31 1     
   25   13   14 1     
   26   13   32 1     
   27   13   33 1     
   28   14   19 ar    
   29   14   15 ar    
   30   15   16 ar    
   31   15   34 1     
   32   16   17 ar    
   33   16   35 1     
   34   17   18 ar    
   35   17   36 1     
   36   18   19 ar    
   37   18   42 1     
   38   19   37 1     
   39   20   21 1     
   40   20   38 1     
   41   20   39 1     
   42   21   40 1     
   43   21   41 1     
   44   10   43 1     
   45   10   44 1     
@<TRIPOS>SUBSTRUCTURE
      1 S1             1
@<TRIPOS>SET
LONE_PAIRS      STATIC     ATOMS    <user>   **** ""
4 3 4 43 44
DONOR_HYDROGENS      STATIC     ATOMS    <user>   **** ""
2 29 42
ATOM$BLUE        STATIC     ATOMS    COLORGROUP SYSTEM
4 3 4 43 44
ATOM$RED        STATIC     ATOMS    COLORGROUP SYSTEM
2 29 42
