AV-unprocessed.smi:711|AV-procd|sdf|3466|dock8
  -GOLD-   22720 0453D 1   1.00000     0.00000
 Structure written by MMmdl.
 28 29  0  0  0  0  0  0  0  0  2 V2000
  147.9546  139.7114  152.5769 O   0  0  0  0  0  0  0  0  0  0  0  0
  148.7933  140.0680  153.4032 C   0  0  0  0  0  0  0  0  0  0  0  0
  149.8106  139.2572  153.8171 N   0  5  0  0  0  0  0  0  0  0  0  0
  150.7514  139.6343  154.7367 C   0  0  0  0  0  0  0  0  0  0  0  0
  151.6531  138.8785  155.0987 O   0  0  0  0  0  0  0  0  0  0  0  0
  150.6799  140.8890  155.2749 N   0  0  0  0  0  0  0  0  0  0  0  0
  151.6275  141.3866  156.2850 C   0  0  0  0  0  0  0  0  0  0  0  0
  151.0603  142.5759  157.0925 C   0  0  2  0  0  0  0  0  0  0  0  0
  151.3355  143.7667  156.3823 O   0  0  0  0  0  0  0  0  0  0  0  0
  151.5742  142.6240  158.5273 C   0  0  0  0  0  0  0  0  0  0  0  0
  152.4319  141.6092  159.0075 C   0  0  0  0  0  0  0  0  0  0  0  0
  152.8898  141.6340  160.3387 C   0  0  0  0  0  0  0  0  0  0  0  0
  152.4923  142.6733  161.2005 C   0  0  0  0  0  0  0  0  0  0  0  0
  152.9325  142.6976  162.4808 F   0  0  0  0  0  0  0  0  0  0  0  0
  151.6361  143.6868  160.7303 C   0  0  0  0  0  0  0  0  0  0  0  0
  151.1765  143.6641  159.3990 C   0  0  0  0  0  0  0  0  0  0  0  0
  150.3445  144.6428  158.9679 F   0  0  0  0  0  0  0  0  0  0  0  0
  149.6536  141.7633  154.8799 C   0  0  0  0  0  0  0  0  0  0  0  0
  148.7177  141.4092  153.9784 C   0  0  0  0  0  0  0  0  0  0  0  0
  147.4637  142.5050  153.5186 Cl  0  0  0  0  0  0  0  0  0  0  0  0
  151.9368  140.5911  156.9649 H   0  0  0  0  0  0  0  0  0  0  0  0
  152.5452  141.6931  155.7804 H   0  0  0  0  0  0  0  0  0  0  0  0
  149.9736  142.4917  157.1158 H   0  0  0  0  0  0  0  0  0  0  0  0
  150.5142  144.1588  156.1287 H   0  0  0  0  0  0  0  0  0  0  0  0
  152.7328  140.8006  158.3575 H   0  0  0  0  0  0  0  0  0  0  0  0
  153.5423  140.8527  160.6994 H   0  0  0  0  0  0  0  0  0  0  0  0
  151.3273  144.4817  161.3929 H   0  0  0  0  0  0  0  0  0  0  0  0
  149.6726  142.7314  155.3590 H   0  0  0  0  0  0  0  0  0  0  0  0
  1  2  2  0  0  0  0
  2 19  1  0  0  0  0
  2  3  1  0  0  0  0
  3  4  1  0  0  0  0
  4  5  2  0  0  0  0
  4  6  1  0  0  0  0
  6  7  1  0  0  0  0
  6 18  1  0  0  0  0
  7  8  1  0  0  0  0
  7 21  1  0  0  0  0
  7 22  1  0  0  0  0
  8  9  1  0  0  0  0
  8 10  1  0  0  0  0
  8 23  1  0  0  0  0
  9 24  1  0  0  0  0
 10 16  1  0  0  0  0
 10 11  2  0  0  0  0
 11 12  1  0  0  0  0
 11 25  1  0  0  0  0
 12 13  2  0  0  0  0
 12 26  1  0  0  0  0
 13 14  1  0  0  0  0
 13 15  1  0  0  0  0
 15 16  2  0  0  0  0
 15 27  1  0  0  0  0
 16 17  1  0  0  0  0
 18 19  2  0  0  0  0
 18 28  1  0  0  0  0
 19 20  1  0  0  0  0
M  CHG  1   3  -1
M  END
> <s_m_source_file>
AV-unprocessed.smi

> <i_m_source_file_index>
711

> <i_lp_mmshare_version>
43012

> <i_f3d_flags>
0

> <s_epik_input>
Tz1jMVtuSF1jKD1PKW4oW2NIXWMxQ2wpW0NIMl1bQ0BIXShbT0hdKWMyW2NIXVtjSF1jKEYpW2NIXWMyRg==

> <s_epik_cmdline>
J2VwaWtfcHl0aG9uJywgJy1waCcsICc3LjAnLCAnLXRuJywgJzgnLCAnLW1hJywgJzIwMCcsICctbWV0YWxfYmluZGluZycsICctaW1hZScsICc8aW5maWxlLm1hZT4nLCAnLW9tYWUnLCAnPG91dGZpbGUubWFlPic=

> <r_epik_Ionization_Penalty>
1.7979

> <r_epik_Ionization_Penalty_Charging>
3.23819e-08

> <r_epik_Ionization_Penalty_Neutral>
1.7979

> <r_epik_State_Penalty>
1.91135

> <r_epik_Charging_Adjusted_Penalty>
1.91135

> <i_epik_Tot_Q>
-1

> <i_epik_Tot_abs_Q>
1

> <r_epik_Metal_State_Penalty>
0.014155

> <b_epik_Metal_Only>
0

> <s_lp_Force_Field>
OPLS_2005

> <r_lp_Energy>
19.2938

> <b_lp_Chiralities_Consistent>
1

> <s_lp_Variant>
AV-unprocessed.smi:711-3

> <Gold.Version>
5.8.1

> <Gold.Id.Protein>
6NUR|6NUR_protein|mol2

> <Gold.PLP.Fitness>
50.5343

> <Gold.PLP.PLP>
-46.0552

> <Gold.PLP.part.hbond>
-1.0000

> <Gold.PLP.part.metal>
0.0000

> <Gold.PLP.part.buried>
-4.3311

> <Gold.PLP.part.nonpolar>
-40.3315

> <Gold.PLP.part.repulsive>
1.0873

> <Gold.PLP.ligand.clash>
0.1829

> <Gold.PLP.ligand.torsion>
0.6787

> <Gold.PLP.Chemscore.Hbond>
1.0000

> <Gold.PLP.Chemscore.CHOScore>
1.0000

> <Gold.PLP.Chemscore.Metal>
0.0000

> <Gold.Chemscore.Hbonds>
donor molecule, donor type, donor heavy atom, donor atom, acceptor molecule, acceptor atom, score
      L1  H     9    24       P1  8028  1.00
      L1  C    18    28       P1  8028  1.00

> <Gold.PLP.Chemscore.Internal.Correction>
0.0194

> <Gold.Rescore>
     Score         DG    S(hbond)    S(metal)    S(lipo)     H(rot)  DE(clash)    DE(int)     intcor
     12.14     -14.54       1.00        0.00      99.61       2.32       0.51       1.90       ----

> <Gold.Chemscore.Fitness>
12.1398

> <Gold.Chemscore.DG>
-14.5439

> <Gold.Chemscore.ZeroCoef>
-5.4800

> <Gold.Chemscore.Hbond>
0.9997

> <Gold.Chemscore.Metal>
0.0000

> <Gold.Chemscore.Lipo>
99.6150

> <Gold.Chemscore.Internal_Hbond>
0.0000

> <Gold.Chemscore.DEClash>
0.5076

> <Gold.Chemscore.DEInternal>
1.8964

> <Gold.Chemscore.Rot>
2.3164

> <Gold.Chemscore.Internal.Correction>
   9.000000E+99

> <Gold.Chemscore.Hbonds>
donor molecule, donor type, donor heavy atom, donor atom, acceptor molecule, acceptor atom, score
      L1  H     9    24       P1  8028  1.00

> <Gold.Chemscore.Hbond.Weighted>
-3.3391

> <Gold.Chemscore.Metal.Weighted>
-0.0000

> <Gold.Chemscore.Lipo.Weighted>
-11.6550

> <Gold.Chemscore.Internal_Hbond.Weighted>
0.0000

> <Gold.Chemscore.DEClash.Weighted>
0.5076

> <Gold.Chemscore.DEInternal.Weighted>
1.8964

> <Gold.Chemscore.Rot.Weighted>
5.9301

> <Gold.Chemscore.Internal.Correction.Weighted>
   9.000000E+99

> <Gold.Protein.RotatedTorsions>
[ 6907 6896 6895 6894 ] final -161.18 input  -60.11 | X-H torsion
[ 7974 7965 7964 7962 ] final -101.06 input  175.53 | X-H torsion
[ 8008 7997 7996 7995 ] final  117.59 input   59.86 | X-H torsion
[ 10167 10162 10161 10158 ] final   -9.61 input  -65.29 | X-H torsion
[ 10718 10713 10712 10709 ] final   -3.96 input   66.30 | X-H torsion
[ 10763 10752 10751 10750 ] final -126.04 input  -60.55 | X-H torsion
[ 11005 11000 10999 10996 ] final -127.00 input  -57.11 | X-H torsion

> <Gold.Protein.ActiveResidues>
 VAL166  LYS551  ARG553  GLY616  TRP617  ASP618  TYR619  PRO620  LYS621  CYS622 
 ASP623  PHE694  ASN695  SER759  ASP760  ASP761  ALA762  ILE779  LEU786  VAL792 
 PHE793  MET794  SER795  GLU796  ALA797  LYS798  CYS799  TRP800  GLU811  SER814 

> <Gold.Protein.RotatedAtoms>
  151.3606  133.3891  159.2689 H   0  0  0  0  0  0  0  0  0  0  0  0  # atno 6907 bound_to 6896
  150.9728  134.9099  159.7809 H   0  0  0  0  0  0  0  0  0  0  0  0  # atno 6908 bound_to 6896
  152.5190  134.3569  159.9323 H   0  0  0  0  0  0  0  0  0  0  0  0  # atno 6909 bound_to 6896
  145.2865  140.9341  143.2902 H   0  0  0  0  0  0  0  0  0  0  0  0  # atno 7974 bound_to 7965
  156.2502  140.2893  156.0703 H   0  0  0  0  0  0  0  0  0  0  0  0  # atno 8008 bound_to 7997
  155.1679  140.0401  157.2874 H   0  0  0  0  0  0  0  0  0  0  0  0  # atno 8009 bound_to 7997
  154.6347  140.2508  155.7399 H   0  0  0  0  0  0  0  0  0  0  0  0  # atno 8010 bound_to 7997
  140.7092  143.5839  150.8963 H   0  0  0  0  0  0  0  0  0  0  0  0  # atno 10167 bound_to 10162
  156.7684  130.5292  149.5772 H   0  0  0  0  0  0  0  0  0  0  0  0  # atno 10718 bound_to 10713
  154.8742  135.4009  154.3367 H   0  0  0  0  0  0  0  0  0  0  0  0  # atno 10763 bound_to 10752
  153.4172  135.7022  153.6324 H   0  0  0  0  0  0  0  0  0  0  0  0  # atno 10764 bound_to 10752
  153.5001  135.3729  155.2506 H   0  0  0  0  0  0  0  0  0  0  0  0  # atno 10765 bound_to 10752
  140.9636  134.0903  157.3943 H   0  0  0  0  0  0  0  0  0  0  0  0  # atno 11005 bound_to 11000
  144.9209  139.4413  143.6542 LP  0  0  0  0  0  0  0  0  0  0  0  0  # atno 17320 bound_to 7965
  146.3199  139.8068  142.8954 LP  0  0  0  0  0  0  0  0  0  0  0  0  # atno 17321 bound_to 7965
  139.9565  143.6212  152.3014 LP  0  0  0  0  0  0  0  0  0  0  0  0  # atno 17342 bound_to 10162
  139.6750  144.7659  151.1714 LP  0  0  0  0  0  0  0  0  0  0  0  0  # atno 17343 bound_to 10162
  156.1294  130.6167  151.0311 LP  0  0  0  0  0  0  0  0  0  0  0  0  # atno 17370 bound_to 10713
  157.6702  131.0863  150.7630 LP  0  0  0  0  0  0  0  0  0  0  0  0  # atno 17371 bound_to 10713
  139.8886  135.0099  156.6632 LP  0  0  0  0  0  0  0  0  0  0  0  0  # atno 17394 bound_to 11000
  140.7432  133.8960  155.8293 LP  0  0  0  0  0  0  0  0  0  0  0  0  # atno 17395 bound_to 11000

$$$$
