AV-unprocessed.smi:1|AV-procd|sdf|22|dock1
  -GOLD-   2262015123D 1   1.00000     0.00000
 Structure written by MMmdl.
 56 61  0  0  0  0  0  0  0  0  2 V2000
  147.4478  133.8386  153.9938 O   0  0  0  0  0  0  0  0  0  0  0  0
  147.6882  132.6577  153.7339 C   0  0  0  0  0  0  0  0  0  0  0  0
  148.7093  131.8933  154.1973 N   0  5  0  0  0  0  0  0  0  0  0  0
  149.5060  132.3530  155.1741 C   0  0  0  0  0  0  0  0  0  0  0  0
  149.9001  131.5315  156.1800 N   0  0  0  0  0  0  0  0  0  0  0  0
  150.6750  131.9953  157.1673 C   0  0  0  0  0  0  0  0  0  0  0  0
  151.1575  133.2283  157.3480 N   0  0  0  0  0  0  0  0  0  0  0  0
  150.7678  134.0660  156.3427 C   0  0  0  0  0  0  0  0  0  0  0  0
  149.9482  133.7033  155.2342 C   0  0  0  0  0  0  0  0  0  0  0  0
  149.7367  134.7916  154.4005 N   0  0  0  0  0  0  0  0  0  0  0  0
  150.4260  135.7447  155.0230 C   0  0  0  0  0  0  0  0  0  0  0  0
  151.0581  135.4103  156.1652 N   0  0  0  0  0  0  0  0  0  0  0  0
  151.8867  136.3033  157.0319 C   0  0  1  0  0  0  0  0  0  0  0  0
  152.0464  137.5283  156.3887 O   0  0  0  0  0  0  0  0  0  0  0  0
  152.1915  138.5394  157.3724 C   0  0  1  0  0  0  0  0  0  0  0  0
  151.9357  139.9288  156.7740 C   0  0  0  0  0  0  0  0  0  0  0  0
  151.7654  140.8630  157.8315 O   0  0  0  0  0  0  0  0  0  0  0  0
  152.7288  141.0521  158.7580 C   0  0  0  0  0  0  0  0  0  0  0  0
  153.6844  140.2914  158.9222 O   0  0  0  0  0  0  0  0  0  0  0  0
  152.5130  142.2844  159.5706 C   0  0  0  0  0  0  0  0  0  0  0  0
  152.0884  143.4718  158.9295 C   0  0  0  0  0  0  0  0  0  0  0  0
  151.8740  144.6503  159.6704 C   0  0  0  0  0  0  0  0  0  0  0  0
  152.0796  144.6555  161.0622 C   0  0  0  0  0  0  0  0  0  0  0  0
  152.5010  143.4809  161.7121 C   0  0  0  0  0  0  0  0  0  0  0  0
  152.7175  142.3017  160.9725 C   0  0  0  0  0  0  0  0  0  0  0  0
  151.2221  138.1127  158.4770 C   0  0  1  0  0  0  0  0  0  0  0  0
  149.9060  138.5715  158.2222 O   0  0  0  0  0  0  0  0  0  0  0  0
  148.8442  137.3446  158.6069 S   0  0  0  0  0  0  0  0  0  0  0  0
  148.4614  137.5012  160.0186 O   0  0  0  0  0  0  0  0  0  0  0  0
  147.8511  137.2235  157.5295 O   0  0  0  0  0  0  0  0  0  0  0  0
  149.9118  136.0648  158.5018 O   0  0  0  0  0  0  0  0  0  0  0  0
  151.2344  136.5762  158.4018 C   0  0  1  0  0  0  0  0  0  0  0  0
  146.8136  131.9399  152.7401 C   0  0  0  0  0  0  0  0  0  0  0  0
  146.8109  130.5267  152.7007 C   0  0  0  0  0  0  0  0  0  0  0  0
  146.0185  129.8373  151.7620 C   0  0  0  0  0  0  0  0  0  0  0  0
  145.2263  130.5539  150.8459 C   0  0  0  0  0  0  0  0  0  0  0  0
  145.2312  131.9610  150.8656 C   0  0  0  0  0  0  0  0  0  0  0  0
  146.0234  132.6511  151.8038 C   0  0  0  0  0  0  0  0  0  0  0  0
  150.9438  131.2746  157.9251 H   0  0  0  0  0  0  0  0  0  0  0  0
  150.4753  136.7473  154.6242 H   0  0  0  0  0  0  0  0  0  0  0  0
  152.8505  135.7992  157.1163 H   0  0  0  0  0  0  0  0  0  0  0  0
  153.2141  138.4836  157.7501 H   0  0  0  0  0  0  0  0  0  0  0  0
  152.7900  140.2395  156.1723 H   0  0  0  0  0  0  0  0  0  0  0  0
  151.0759  139.8893  156.1040 H   0  0  0  0  0  0  0  0  0  0  0  0
  151.9237  143.4923  157.8618 H   0  0  0  0  0  0  0  0  0  0  0  0
  151.5513  145.5512  159.1695 H   0  0  0  0  0  0  0  0  0  0  0  0
  151.9143  145.5590  161.6304 H   0  0  0  0  0  0  0  0  0  0  0  0
  152.6587  143.4836  162.7807 H   0  0  0  0  0  0  0  0  0  0  0  0
  153.0386  141.4176  161.5035 H   0  0  0  0  0  0  0  0  0  0  0  0
  151.5343  138.4795  159.4554 H   0  0  0  0  0  0  0  0  0  0  0  0
  151.8641  136.1444  159.1802 H   0  0  0  0  0  0  0  0  0  0  0  0
  147.4143  129.9612  153.3962 H   0  0  0  0  0  0  0  0  0  0  0  0
  146.0194  128.7575  151.7454 H   0  0  0  0  0  0  0  0  0  0  0  0
  144.6188  130.0254  150.1263 H   0  0  0  0  0  0  0  0  0  0  0  0
  144.6293  132.5131  150.1590 H   0  0  0  0  0  0  0  0  0  0  0  0
  146.0204  133.7316  151.7949 H   0  0  0  0  0  0  0  0  0  0  0  0
  1  2  2  0  0  0  0
  2  3  1  0  0  0  0
  2 33  1  0  0  0  0
  3  4  1  0  0  0  0
  4  9  1  0  0  0  0
  4  5  2  0  0  0  0
  5  6  1  0  0  0  0
  6  7  2  0  0  0  0
  6 39  1  0  0  0  0
  7  8  1  0  0  0  0
  8 12  1  0  0  0  0
  8  9  2  0  0  0  0
  9 10  1  0  0  0  0
 10 11  2  0  0  0  0
 11 12  1  0  0  0  0
 11 40  1  0  0  0  0
 12 13  1  0  0  0  0
 13 32  1  0  0  0  0
 13 14  1  0  0  0  0
 13 41  1  0  0  0  0
 14 15  1  0  0  0  0
 15 16  1  0  0  0  0
 15 26  1  0  0  0  0
 15 42  1  0  0  0  0
 16 17  1  0  0  0  0
 16 43  1  0  0  0  0
 16 44  1  0  0  0  0
 17 18  1  0  0  0  0
 18 19  2  0  0  0  0
 18 20  1  0  0  0  0
 20 25  1  0  0  0  0
 20 21  2  0  0  0  0
 21 22  1  0  0  0  0
 21 45  1  0  0  0  0
 22 23  2  0  0  0  0
 22 46  1  0  0  0  0
 23 24  1  0  0  0  0
 23 47  1  0  0  0  0
 24 25  2  0  0  0  0
 24 48  1  0  0  0  0
 25 49  1  0  0  0  0
 26 32  1  0  0  0  0
 26 27  1  0  0  0  0
 26 50  1  0  0  0  0
 27 28  1  0  0  0  0
 28 29  2  0  0  0  0
 28 30  2  0  0  0  0
 28 31  1  0  0  0  0
 31 32  1  0  0  0  0
 32 51  1  0  0  0  0
 33 38  1  0  0  0  0
 33 34  2  0  0  0  0
 34 35  1  0  0  0  0
 34 52  1  0  0  0  0
 35 36  2  0  0  0  0
 35 53  1  0  0  0  0
 36 37  1  0  0  0  0
 36 54  1  0  0  0  0
 37 38  2  0  0  0  0
 37 55  1  0  0  0  0
 38 56  1  0  0  0  0
M  CHG  1   3  -1
M  END
> <s_m_source_file>
AV-unprocessed.smi

> <i_m_source_file_index>
1

> <i_lp_mmshare_version>
43012

> <i_f3d_flags>
0

> <s_epik_input>
W2NIXTFbY0hdW2NIXVtjSF1bY0hdYzFDKD1PKVtOSF1jKG5bY0hdbjIpYyhjMjMpbltjSF1uM1tDQEBIXShbQ0BIXShbQ0BIXTQ1KU9TKE81KSg9Tyk9TylPW0NASF00W0NIMl1PQyg9TyljNltjSF1bY0hdW2NIXVtjSF1bY0hdNg==

> <s_epik_cmdline>
J2VwaWtfcHl0aG9uJywgJy1waCcsICc3LjAnLCAnLXRuJywgJzgnLCAnLW1hJywgJzIwMCcsICctbWV0YWxfYmluZGluZycsICctaW1hZScsICc8aW5maWxlLm1hZT4nLCAnLW9tYWUnLCAnPG91dGZpbGUubWFlPic=

> <r_lp_tautomer_probability>
1

> <r_epik_Ionization_Penalty>
4.39121

> <r_epik_Ionization_Penalty_Charging>
3.39398

> <r_epik_Ionization_Penalty_Neutral>
0.997232

> <r_epik_State_Penalty>
3.39839

> <r_epik_Charging_Adjusted_Penalty>
6.79237

> <i_epik_Tot_Q>
-1

> <i_epik_Tot_abs_Q>
1

> <r_epik_Metal_State_Penalty>
0.497663

> <b_epik_Metal_Only>
1

> <s_epik_Chemistry_Notes>
This compound has an ester and may undergo hydrolysis at high or low pH. This compound contains an acetal/aminal-like group ( X-CH(R)-Y where X, Y are N, S, or O) that may be acid/base labile, releasing an aldehyde.

> <s_lp_Force_Field>
OPLS_2005

> <r_lp_Energy>
46.5931

> <b_lp_Chiralities_Consistent>
1

> <s_lp_Variant>
AV-unprocessed.smi:1-22

> <Gold.Version>
5.8.1

> <Gold.Id.Protein>
6NUR|6NUR_protein|mol2

> <Gold.PLP.Fitness>
62.7168

> <Gold.PLP.PLP>
-57.5625

> <Gold.PLP.part.hbond>
-5.0000

> <Gold.PLP.part.metal>
0.0000

> <Gold.PLP.part.buried>
-5.3689

> <Gold.PLP.part.nonpolar>
-48.7259

> <Gold.PLP.part.repulsive>
1.2627

> <Gold.PLP.ligand.clash>
0.0000

> <Gold.PLP.ligand.torsion>
1.5564

> <Gold.PLP.Chemscore.Hbond>
2.3881

> <Gold.PLP.Chemscore.CHOScore>
0.0000

> <Gold.PLP.Chemscore.Metal>
0.0000

> <Gold.Chemscore.Hbonds>
donor molecule, donor type, donor heavy atom, donor atom, acceptor molecule, acceptor atom, score
      P1  H  6896  6907       L1     7  0.82
      P1  H  6931  6943       L1    29  0.38
      P1  H  6934  6947       L1    29  0.30
      P1  H  7997  8010       L1    19  0.82

> <Gold.PLP.Chemscore.Internal.Correction>
1.1028

> <Gold.Rescore>
     Score         DG    S(hbond)    S(metal)    S(lipo)     H(rot)  DE(clash)    DE(int)     intcor
     13.41     -23.62       2.12        0.00     140.85       2.11       2.82       7.39       ----

> <Gold.Chemscore.Fitness>
13.4136

> <Gold.Chemscore.DG>
-23.6188

> <Gold.Chemscore.ZeroCoef>
-5.4800

> <Gold.Chemscore.Hbond>
2.1168

> <Gold.Chemscore.Metal>
0.0000

> <Gold.Chemscore.Lipo>
140.8492

> <Gold.Chemscore.Internal_Hbond>
0.0000

> <Gold.Chemscore.DEClash>
2.8162

> <Gold.Chemscore.DEInternal>
7.3889

> <Gold.Chemscore.Rot>
2.1136

> <Gold.Chemscore.Internal.Correction>
   9.000000E+99

> <Gold.Chemscore.Hbonds>
donor molecule, donor type, donor heavy atom, donor atom, acceptor molecule, acceptor atom, score
      P1  H  6896  6907       L1     7  0.41
      P1  H  6931  6943       L1    29  0.37
      P1  H  6934  6947       L1    29  0.29
      P1  H  7997  8010       L1    19  0.68

> <Gold.Chemscore.Hbond.Weighted>
-7.0702

> <Gold.Chemscore.Metal.Weighted>
-0.0000

> <Gold.Chemscore.Lipo.Weighted>
-16.4794

> <Gold.Chemscore.Internal_Hbond.Weighted>
0.0000

> <Gold.Chemscore.DEClash.Weighted>
2.8162

> <Gold.Chemscore.DEInternal.Weighted>
7.3889

> <Gold.Chemscore.Rot.Weighted>
5.4107

> <Gold.Chemscore.Internal.Correction.Weighted>
   9.000000E+99

> <Gold.Protein.RotatedTorsions>
[ 6907 6896 6895 6894 ] final -151.45 input  -60.11 | X-H torsion
[ 7974 7965 7964 7962 ] final -161.15 input  175.53 | X-H torsion
[ 8008 7997 7996 7995 ] final   15.23 input   59.86 | X-H torsion
[ 10167 10162 10161 10158 ] final   10.77 input  -65.29 | X-H torsion
[ 10718 10713 10712 10709 ] final -173.17 input   66.30 | X-H torsion
[ 10763 10752 10751 10750 ] final  174.27 input  -60.55 | X-H torsion
[ 11005 11000 10999 10996 ] final  -13.82 input  -57.11 | X-H torsion

> <Gold.Protein.ActiveResidues>
 VAL166  LYS551  ARG553  GLY616  TRP617  ASP618  TYR619  PRO620  LYS621  CYS622 
 ASP623  PHE694  ASN695  SER759  ASP760  ASP761  ALA762  ILE779  LEU786  VAL792 
 PHE793  MET794  SER795  GLU796  ALA797  LYS798  CYS799  TRP800  GLU811  SER814 

> <Gold.Protein.RotatedAtoms>
  151.2133  133.4544  159.2598 H   0  0  0  0  0  0  0  0  0  0  0  0  # atno 6907 bound_to 6896
  151.0956  134.9942  159.8434 H   0  0  0  0  0  0  0  0  0  0  0  0  # atno 6908 bound_to 6896
  152.5439  134.2063  159.8785 H   0  0  0  0  0  0  0  0  0  0  0  0  # atno 6909 bound_to 6896
  144.7401  140.3438  143.6129 H   0  0  0  0  0  0  0  0  0  0  0  0  # atno 7974 bound_to 7965
  154.8598  140.2942  155.5546 H   0  0  0  0  0  0  0  0  0  0  0  0  # atno 8008 bound_to 7997
  156.3019  140.2480  156.3502 H   0  0  0  0  0  0  0  0  0  0  0  0  # atno 8009 bound_to 7997
  154.8931  140.0394  157.1839 H   0  0  0  0  0  0  0  0  0  0  0  0  # atno 8010 bound_to 7997
  140.6173  143.8280  150.7133 H   0  0  0  0  0  0  0  0  0  0  0  0  # atno 10167 bound_to 10162
  156.7664  130.9432  151.3119 H   0  0  0  0  0  0  0  0  0  0  0  0  # atno 10718 bound_to 10713
  154.4517  135.2765  155.1777 H   0  0  0  0  0  0  0  0  0  0  0  0  # atno 10763 bound_to 10752
  154.3601  135.6131  153.5690 H   0  0  0  0  0  0  0  0  0  0  0  0  # atno 10764 bound_to 10752
  152.9847  135.5832  154.4862 H   0  0  0  0  0  0  0  0  0  0  0  0  # atno 10765 bound_to 10752
  140.7801  133.8370  155.9284 H   0  0  0  0  0  0  0  0  0  0  0  0  # atno 11005 bound_to 11000
  145.7346  139.1746  143.2410 LP  0  0  0  0  0  0  0  0  0  0  0  0  # atno 17320 bound_to 7965
  146.1180  140.7345  142.9471 LP  0  0  0  0  0  0  0  0  0  0  0  0  # atno 17321 bound_to 7965
  140.1862  143.4074  152.1897 LP  0  0  0  0  0  0  0  0  0  0  0  0  # atno 17342 bound_to 10162
  139.5409  144.7255  151.4737 LP  0  0  0  0  0  0  0  0  0  0  0  0  # atno 17343 bound_to 10162
  157.6711  130.9052  150.0043 LP  0  0  0  0  0  0  0  0  0  0  0  0  # atno 17370 bound_to 10713
  156.1306  130.3643  149.9738 LP  0  0  0  0  0  0  0  0  0  0  0  0  # atno 17371 bound_to 10713
  140.9491  134.1802  157.4741 LP  0  0  0  0  0  0  0  0  0  0  0  0  # atno 17394 bound_to 11000
  139.8744  134.9902  156.5492 LP  0  0  0  0  0  0  0  0  0  0  0  0  # atno 17395 bound_to 11000

$$$$
