AV-unprocessed.smi:1587|AV-procd|sdf|6388|dock8
  -GOLD-   22720 7 23D 1   1.00000     0.00000
 Structure written by MMmdl.
 37 38  0  0  0  0  0  0  0  0  2 V2000
  150.4899  140.4490  156.4605 O   0  0  0  0  0  0  0  0  0  0  0  0
  150.0114  141.5283  156.1103 C   0  0  0  0  0  0  0  0  0  0  0  0
  149.0911  141.6436  155.1418 N   0  0  0  0  0  0  0  0  0  0  0  0
  148.5361  140.5257  154.3871 C   0  0  0  0  0  0  0  0  0  0  0  0
  147.3717  140.9764  153.4840 C   0  0  0  0  0  0  0  0  0  0  0  0
  146.4357  139.8681  153.1715 N   0  3  0  0  0  0  0  0  0  0  0  0
  146.9360  138.9992  152.0792 C   0  0  0  0  0  0  0  0  0  0  0  0
  145.9163  137.8937  151.7584 C   0  0  0  0  0  0  0  0  0  0  0  0
  145.6473  137.1385  152.9326 O   0  0  0  0  0  0  0  0  0  0  0  0
  145.0822  137.9402  153.9621 C   0  0  0  0  0  0  0  0  0  0  0  0
  146.0710  139.0508  154.3559 C   0  0  0  0  0  0  0  0  0  0  0  0
  150.3301  142.7276  156.6288 N   0  0  0  0  0  0  0  0  0  0  0  0
  151.2649  143.0171  157.6585 C   0  0  0  0  0  0  0  0  0  0  0  0
  151.5940  144.3840  157.8023 C   0  0  0  0  0  0  0  0  0  0  0  0
  152.5144  144.7745  158.7943 C   0  0  0  0  0  0  0  0  0  0  0  0
  153.0826  143.7867  159.6181 C   0  0  0  0  0  0  0  0  0  0  0  0
  152.7008  142.4487  159.4090 C   0  0  0  0  0  0  0  0  0  0  0  0
  151.8192  142.0722  158.4587 N   0  0  0  0  0  0  0  0  0  0  0  0
  148.7476  142.5657  154.9151 H   0  0  0  0  0  0  0  0  0  0  0  0
  149.3326  140.0562  153.8091 H   0  0  0  0  0  0  0  0  0  0  0  0
  148.1862  139.7769  155.0983 H   0  0  0  0  0  0  0  0  0  0  0  0
  146.8284  141.7674  154.0034 H   0  0  0  0  0  0  0  0  0  0  0  0
  147.7384  141.4156  152.5550 H   0  0  0  0  0  0  0  0  0  0  0  0
  147.1209  139.5956  151.1848 H   0  0  0  0  0  0  0  0  0  0  0  0
  147.8890  138.5549  152.3715 H   0  0  0  0  0  0  0  0  0  0  0  0
  144.9917  138.3179  151.3633 H   0  0  0  0  0  0  0  0  0  0  0  0
  146.3135  137.2271  150.9929 H   0  0  0  0  0  0  0  0  0  0  0  0
  144.1320  138.3629  153.6313 H   0  0  0  0  0  0  0  0  0  0  0  0
  144.8663  137.3074  154.8232 H   0  0  0  0  0  0  0  0  0  0  0  0
  146.9707  138.6093  154.7875 H   0  0  0  0  0  0  0  0  0  0  0  0
  145.6203  139.6739  155.1275 H   0  0  0  0  0  0  0  0  0  0  0  0
  149.8505  143.5271  156.2425 H   0  0  0  0  0  0  0  0  0  0  0  0
  151.1481  145.1306  157.1613 H   0  0  0  0  0  0  0  0  0  0  0  0
  152.7791  145.8140  158.9200 H   0  0  0  0  0  0  0  0  0  0  0  0
  153.7918  144.0470  160.3897 H   0  0  0  0  0  0  0  0  0  0  0  0
  153.1139  141.6596  160.0197 H   0  0  0  0  0  0  0  0  0  0  0  0
  145.5856  140.2929  152.8290 H   0  0  0  0  0  0  0  0  0  0  0  0
  1  2  2  0  0  0  0
  2  3  1  0  0  0  0
  2 12  1  0  0  0  0
  3  4  1  0  0  0  0
  3 19  1  0  0  0  0
  4  5  1  0  0  0  0
  4 20  1  0  0  0  0
  4 21  1  0  0  0  0
  5  6  1  0  0  0  0
  5 22  1  0  0  0  0
  5 23  1  0  0  0  0
  6 11  1  0  0  0  0
  6  7  1  0  0  0  0
  6 37  1  0  0  0  0
  7  8  1  0  0  0  0
  7 24  1  0  0  0  0
  7 25  1  0  0  0  0
  8  9  1  0  0  0  0
  8 26  1  0  0  0  0
  8 27  1  0  0  0  0
  9 10  1  0  0  0  0
 10 11  1  0  0  0  0
 10 28  1  0  0  0  0
 10 29  1  0  0  0  0
 11 30  1  0  0  0  0
 11 31  1  0  0  0  0
 12 13  1  0  0  0  0
 12 32  1  0  0  0  0
 13 18  1  0  0  0  0
 13 14  2  0  0  0  0
 14 15  1  0  0  0  0
 14 33  1  0  0  0  0
 15 16  2  0  0  0  0
 15 34  1  0  0  0  0
 16 17  1  0  0  0  0
 16 35  1  0  0  0  0
 17 18  2  0  0  0  0
 17 36  1  0  0  0  0
M  CHG  1   6   1
M  END
> <s_m_source_file>
AV-unprocessed.smi

> <i_m_source_file_index>
1587

> <i_lp_mmshare_version>
43012

> <i_f3d_flags>
0

> <s_epik_input>
bjFbY0hdW2NIXVtjSF1bY0hdYzFbTkhdQyg9TylbTkhdW0NIMl1bQ0gyXU4yW0NIMl1bQ0gyXU9bQ0gyXVtDSDJdMg==

> <s_epik_cmdline>
J2VwaWtfcHl0aG9uJywgJy1waCcsICc3LjAnLCAnLXRuJywgJzgnLCAnLW1hJywgJzIwMCcsICctbWV0YWxfYmluZGluZycsICctaW1hZScsICc8aW5maWxlLm1hZT4nLCAnLW9tYWUnLCAnPG91dGZpbGUubWFlPic=

> <r_epik_Ionization_Penalty>
0.602565

> <r_epik_Ionization_Penalty_Charging>
0.602531

> <r_epik_Ionization_Penalty_Neutral>
3.41998e-05

> <r_epik_State_Penalty>
0.617039

> <r_epik_Charging_Adjusted_Penalty>
1.21957

> <i_epik_Tot_Q>
1

> <i_epik_Tot_abs_Q>
1

> <r_epik_Metal_State_Penalty>
0.617041

> <b_epik_Metal_Only>
0

> <s_lp_Force_Field>
OPLS_2005

> <r_lp_Energy>
15.9912

> <b_lp_Chiralities_Consistent>
1

> <s_lp_Variant>
AV-unprocessed.smi:1587-2

> <Gold.Version>
5.8.1

> <Gold.Id.Protein>
6NUR|6NUR_protein|mol2

> <Gold.PLP.Fitness>
45.4163

> <Gold.PLP.PLP>
-36.0841

> <Gold.PLP.part.hbond>
-2.7103

> <Gold.PLP.part.metal>
0.0000

> <Gold.PLP.part.buried>
-1.7930

> <Gold.PLP.part.nonpolar>
-32.6881

> <Gold.PLP.part.repulsive>
0.4362

> <Gold.PLP.ligand.clash>
0.0000

> <Gold.PLP.ligand.torsion>
0.3495

> <Gold.PLP.Chemscore.Hbond>
3.3380

> <Gold.PLP.Chemscore.CHOScore>
0.0000

> <Gold.PLP.Chemscore.Metal>
0.0000

> <Gold.Chemscore.Hbonds>
donor molecule, donor type, donor heavy atom, donor atom, acceptor molecule, acceptor atom, score
      L1  H     3    19       P1  8028  0.34
      L1  H     6    37       P1 10175  2.00
      L1  H    12    32       P1  8028  1.00

> <Gold.PLP.Chemscore.Internal.Correction>
0.0171

> <Gold.Rescore>
     Score         DG    S(hbond)    S(metal)    S(lipo)     H(rot)  DE(clash)    DE(int)     intcor
     18.36     -19.93       2.59        0.00      84.65       1.60       0.04       1.52       ----

> <Gold.Chemscore.Fitness>
18.3640

> <Gold.Chemscore.DG>
-19.9308

> <Gold.Chemscore.ZeroCoef>
-5.4800

> <Gold.Chemscore.Hbond>
2.5862

> <Gold.Chemscore.Metal>
0.0000

> <Gold.Chemscore.Lipo>
84.6496

> <Gold.Chemscore.Internal_Hbond>
0.0000

> <Gold.Chemscore.DEClash>
0.0448

> <Gold.Chemscore.DEInternal>
1.5220

> <Gold.Chemscore.Rot>
1.5981

> <Gold.Chemscore.Internal.Correction>
   9.000000E+99

> <Gold.Chemscore.Hbonds>
donor molecule, donor type, donor heavy atom, donor atom, acceptor molecule, acceptor atom, score
      L1  H     3    19       P1  8028  0.34
      L1  H     6    37       P1 10175  0.89
      L1  H    12    32       P1  8028  1.00

> <Gold.Chemscore.Hbond.Weighted>
-8.6379

> <Gold.Chemscore.Metal.Weighted>
-0.0000

> <Gold.Chemscore.Lipo.Weighted>
-9.9040

> <Gold.Chemscore.Internal_Hbond.Weighted>
0.0000

> <Gold.Chemscore.DEClash.Weighted>
0.0448

> <Gold.Chemscore.DEInternal.Weighted>
1.5220

> <Gold.Chemscore.Rot.Weighted>
4.0911

> <Gold.Chemscore.Internal.Correction.Weighted>
   9.000000E+99

> <Gold.Protein.RotatedTorsions>
[ 6907 6896 6895 6894 ] final  -55.71 input  -60.11 | X-H torsion
[ 7974 7965 7964 7962 ] final -173.43 input  175.53 | X-H torsion
[ 8008 7997 7996 7995 ] final -115.33 input   59.86 | X-H torsion
[ 10167 10162 10161 10158 ] final  -59.65 input  -65.29 | X-H torsion
[ 10718 10713 10712 10709 ] final  -42.19 input   66.30 | X-H torsion
[ 10763 10752 10751 10750 ] final   76.91 input  -60.55 | X-H torsion
[ 11005 11000 10999 10996 ] final  -15.59 input  -57.11 | X-H torsion

> <Gold.Protein.ActiveResidues>
 VAL166  LYS551  ARG553  GLY616  TRP617  ASP618  TYR619  PRO620  LYS621  CYS622 
 ASP623  PHE694  ASN695  SER759  ASP760  ASP761  ALA762  ILE779  LEU786  VAL792 
 PHE793  MET794  SER795  GLU796  ALA797  LYS798  CYS799  TRP800  GLU811  SER814 

> <Gold.Protein.RotatedAtoms>
  150.8229  134.7445  159.6787 H   0  0  0  0  0  0  0  0  0  0  0  0  # atno 6907 bound_to 6896
  152.4343  134.5714  159.9932 H   0  0  0  0  0  0  0  0  0  0  0  0  # atno 6908 bound_to 6896
  151.5894  133.3331  159.3060 H   0  0  0  0  0  0  0  0  0  0  0  0  # atno 6909 bound_to 6896
  144.7138  140.1623  143.6375 H   0  0  0  0  0  0  0  0  0  0  0  0  # atno 7974 bound_to 7965
  155.0503  140.0393  157.2541 H   0  0  0  0  0  0  0  0  0  0  0  0  # atno 8008 bound_to 7997
  154.7143  140.2699  155.6576 H   0  0  0  0  0  0  0  0  0  0  0  0  # atno 8009 bound_to 7997
  156.2798  140.2715  156.1794 H   0  0  0  0  0  0  0  0  0  0  0  0  # atno 8010 bound_to 7997
  140.6122  143.2391  151.5683 H   0  0  0  0  0  0  0  0  0  0  0  0  # atno 10167 bound_to 10162
  156.2622  130.4198  149.8530 H   0  0  0  0  0  0  0  0  0  0  0  0  # atno 10718 bound_to 10713
  153.0759  135.4934  154.8404 H   0  0  0  0  0  0  0  0  0  0  0  0  # atno 10763 bound_to 10752
  154.7087  135.3015  154.9233 H   0  0  0  0  0  0  0  0  0  0  0  0  # atno 10764 bound_to 10752
  153.9933  135.6775  153.4808 H   0  0  0  0  0  0  0  0  0  0  0  0  # atno 10765 bound_to 10752
  140.7982  133.8234  155.9445 H   0  0  0  0  0  0  0  0  0  0  0  0  # atno 11005 bound_to 11000
  145.9019  139.2435  143.1488 LP  0  0  0  0  0  0  0  0  0  0  0  0  # atno 17320 bound_to 7965
  145.9802  140.8689  143.0118 LP  0  0  0  0  0  0  0  0  0  0  0  0  # atno 17321 bound_to 7965
  139.5370  144.2753  152.1272 LP  0  0  0  0  0  0  0  0  0  0  0  0  # atno 17342 bound_to 10162
  140.1955  144.4709  150.6457 LP  0  0  0  0  0  0  0  0  0  0  0  0  # atno 17343 bound_to 10162
  156.6041  130.8559  151.3439 LP  0  0  0  0  0  0  0  0  0  0  0  0  # atno 17370 bound_to 10713
  157.7254  130.9616  150.1615 LP  0  0  0  0  0  0  0  0  0  0  0  0  # atno 17371 bound_to 10713
  140.9321  134.2008  157.4856 LP  0  0  0  0  0  0  0  0  0  0  0  0  # atno 17394 bound_to 11000
  139.8724  134.9837  156.5209 LP  0  0  0  0  0  0  0  0  0  0  0  0  # atno 17395 bound_to 11000

$$$$
