AV-unprocessed.smi:1847|AV-procd|sdf|7516|dock3
  -GOLD-   22720 9223D 1   1.00000     0.00000
 Structure written by MMmdl.
 26 27  0  0  0  0  0  0  0  0  2 V2000
  152.5609  140.2061  157.5332 O   0  0  0  0  0  0  0  0  0  0  0  0
  151.8008  141.1676  157.4111 C   0  0  0  0  0  0  0  0  0  0  0  0
  150.8097  141.2300  156.5010 N   0  0  0  0  0  0  0  0  0  0  0  0
  150.4376  140.2678  155.5239 C   0  0  0  0  0  0  0  0  0  0  0  0
  149.1502  140.3792  154.9532 C   0  0  0  0  0  0  0  0  0  0  0  0
  148.7419  139.4524  153.9725 C   0  0  0  0  0  0  0  0  0  0  0  0
  149.5858  138.4750  153.5779 N   0  3  0  0  0  0  0  0  0  0  0  0
  150.8315  138.3392  154.0808 C   0  0  0  0  0  0  0  0  0  0  0  0
  151.2956  139.2364  155.0645 C   0  0  0  0  0  0  0  0  0  0  0  0
  151.8401  142.3677  158.2378 C   0  0  0  0  0  0  0  0  0  0  0  0
  152.6881  142.4232  159.2907 C   0  0  0  0  0  0  0  0  0  0  0  0
  152.8257  143.5213  160.1021 O   0  0  0  0  0  0  0  0  0  0  0  0
  152.2000  144.7018  159.6134 C   0  0  0  0  0  0  0  0  0  0  0  0
  150.8314  144.3671  159.0025 C   0  0  0  0  0  0  0  0  0  0  0  0
  150.9789  143.4073  157.9610 O   0  0  0  0  0  0  0  0  0  0  0  0
  150.2101  142.0402  156.5665 H   0  0  0  0  0  0  0  0  0  0  0  0
  148.4752  141.1624  155.2681 H   0  0  0  0  0  0  0  0  0  0  0  0
  147.7731  139.4644  153.4950 H   0  0  0  0  0  0  0  0  0  0  0  0
  151.4191  137.5258  153.6806 H   0  0  0  0  0  0  0  0  0  0  0  0
  152.3018  139.1226  155.4377 H   0  0  0  0  0  0  0  0  0  0  0  0
  153.3689  141.6338  159.5764 H   0  0  0  0  0  0  0  0  0  0  0  0
  152.0890  145.4123  160.4328 H   0  0  0  0  0  0  0  0  0  0  0  0
  152.8460  145.1682  158.8682 H   0  0  0  0  0  0  0  0  0  0  0  0
  150.1599  143.9701  159.7651 H   0  0  0  0  0  0  0  0  0  0  0  0
  150.3638  145.2649  158.5977 H   0  0  0  0  0  0  0  0  0  0  0  0
  149.2708  137.8142  152.8666 H   0  0  0  0  0  0  0  0  0  0  0  0
  1  2  2  0  0  0  0
  2  3  1  0  0  0  0
  2 10  1  0  0  0  0
  3  4  1  0  0  0  0
  3 16  1  0  0  0  0
  4  9  1  0  0  0  0
  4  5  2  0  0  0  0
  5  6  1  0  0  0  0
  5 17  1  0  0  0  0
  6  7  2  0  0  0  0
  6 18  1  0  0  0  0
  7  8  1  0  0  0  0
  7 26  1  0  0  0  0
  8  9  2  0  0  0  0
  8 19  1  0  0  0  0
  9 20  1  0  0  0  0
 10 15  1  0  0  0  0
 10 11  2  0  0  0  0
 11 12  1  0  0  0  0
 11 21  1  0  0  0  0
 12 13  1  0  0  0  0
 13 14  1  0  0  0  0
 13 22  1  0  0  0  0
 13 23  1  0  0  0  0
 14 15  1  0  0  0  0
 14 24  1  0  0  0  0
 14 25  1  0  0  0  0
M  CHG  1   7   1
M  END
> <s_m_source_file>
AV-unprocessed.smi

> <i_m_source_file_index>
1847

> <i_lp_mmshare_version>
43012

> <i_f3d_flags>
0

> <s_epik_input>
TzFbQ0gyXVtDSDJdT1tDSF09QzFDKD1PKVtOSF1jMltjSF1bY0hdbltjSF1bY0hdMg==

> <s_epik_cmdline>
J2VwaWtfcHl0aG9uJywgJy1waCcsICc3LjAnLCAnLXRuJywgJzgnLCAnLW1hJywgJzIwMCcsICctbWV0YWxfYmluZGluZycsICctaW1hZScsICc8aW5maWxlLm1hZT4nLCAnLW9tYWUnLCAnPG91dGZpbGUubWFlPic=

> <r_epik_Ionization_Penalty>
1.62337

> <r_epik_Ionization_Penalty_Charging>
1.62336

> <r_epik_Ionization_Penalty_Neutral>
7.67397e-06

> <r_epik_State_Penalty>
1.72329

> <r_epik_Charging_Adjusted_Penalty>
3.34665

> <i_epik_Tot_Q>
1

> <i_epik_Tot_abs_Q>
1

> <r_epik_Metal_State_Penalty>
1.82278

> <b_epik_Metal_Only>
0

> <s_lp_Force_Field>
OPLS_2005

> <r_lp_Energy>
12.9835

> <b_lp_Chiralities_Consistent>
1

> <s_lp_Variant>
AV-unprocessed.smi:1847-2

> <Gold.Version>
5.8.1

> <Gold.Id.Protein>
6NUR|6NUR_protein|mol2

> <Gold.PLP.Fitness>
39.6321

> <Gold.PLP.PLP>
-30.8132

> <Gold.PLP.part.hbond>
-3.0000

> <Gold.PLP.part.metal>
0.0000

> <Gold.PLP.part.buried>
-4.3937

> <Gold.PLP.part.nonpolar>
-23.5807

> <Gold.PLP.part.repulsive>
0.2941

> <Gold.PLP.ligand.clash>
0.0000

> <Gold.PLP.ligand.torsion>
0.0916

> <Gold.PLP.Chemscore.Hbond>
3.0000

> <Gold.PLP.Chemscore.CHOScore>
0.0000

> <Gold.PLP.Chemscore.Metal>
0.0000

> <Gold.Chemscore.Hbonds>
donor molecule, donor type, donor heavy atom, donor atom, acceptor molecule, acceptor atom, score
      L1  H     7    26       P1  7948  2.00
      P1  H  7997  8010       L1     1  1.00

> <Gold.PLP.Chemscore.Internal.Correction>
0.0021

> <Gold.Rescore>
     Score         DG    S(hbond)    S(metal)    S(lipo)     H(rot)  DE(clash)    DE(int)     intcor
     19.92     -21.21       1.94        0.00      78.97       0.00       0.02       1.28       ----

> <Gold.Chemscore.Fitness>
19.9159

> <Gold.Chemscore.DG>
-21.2135

> <Gold.Chemscore.ZeroCoef>
-5.4800

> <Gold.Chemscore.Hbond>
1.9445

> <Gold.Chemscore.Metal>
0.0000

> <Gold.Chemscore.Lipo>
78.9658

> <Gold.Chemscore.Internal_Hbond>
0.0000

> <Gold.Chemscore.DEClash>
0.0199

> <Gold.Chemscore.DEInternal>
1.2776

> <Gold.Chemscore.Rot>
0.0000

> <Gold.Chemscore.Internal.Correction>
   9.000000E+99

> <Gold.Chemscore.Hbonds>
donor molecule, donor type, donor heavy atom, donor atom, acceptor molecule, acceptor atom, score
      L1  H     7    26       P1  7948  0.96
      P1  H  7997  8010       L1     1  0.91

> <Gold.Chemscore.Hbond.Weighted>
-6.4945

> <Gold.Chemscore.Metal.Weighted>
-0.0000

> <Gold.Chemscore.Lipo.Weighted>
-9.2390

> <Gold.Chemscore.Internal_Hbond.Weighted>
0.0000

> <Gold.Chemscore.DEClash.Weighted>
0.0199

> <Gold.Chemscore.DEInternal.Weighted>
1.2776

> <Gold.Chemscore.Rot.Weighted>
0.0000

> <Gold.Chemscore.Internal.Correction.Weighted>
   9.000000E+99

> <Gold.Protein.RotatedTorsions>
[ 6907 6896 6895 6894 ] final    2.17 input  -60.11 | X-H torsion
[ 7974 7965 7964 7962 ] final -144.99 input  175.53 | X-H torsion
[ 8008 7997 7996 7995 ] final   51.53 input   59.86 | X-H torsion
[ 10167 10162 10161 10158 ] final -152.95 input  -65.29 | X-H torsion
[ 10718 10713 10712 10709 ] final  113.30 input   66.30 | X-H torsion
[ 10763 10752 10751 10750 ] final  144.60 input  -60.55 | X-H torsion
[ 11005 11000 10999 10996 ] final  -92.63 input  -57.11 | X-H torsion

> <Gold.Protein.ActiveResidues>
 VAL166  LYS551  ARG553  GLY616  TRP617  ASP618  TYR619  PRO620  LYS621  CYS622 
 ASP623  PHE694  ASN695  SER759  ASP760  ASP761  ALA762  ILE779  LEU786  VAL792 
 PHE793  MET794  SER795  GLU796  ALA797  LYS798  CYS799  TRP800  GLU811  SER814 

> <Gold.Protein.RotatedAtoms>
  151.6046  135.1045  160.0067 H   0  0  0  0  0  0  0  0  0  0  0  0  # atno 6907 bound_to 6896
  152.4240  133.7160  159.6516 H   0  0  0  0  0  0  0  0  0  0  0  0  # atno 6908 bound_to 6896
  150.8128  133.8318  159.3196 H   0  0  0  0  0  0  0  0  0  0  0  0  # atno 6909 bound_to 6896
  144.8258  140.5640  143.5548 H   0  0  0  0  0  0  0  0  0  0  0  0  # atno 7974 bound_to 7965
  155.4368  140.3453  155.4286 H   0  0  0  0  0  0  0  0  0  0  0  0  # atno 8008 bound_to 7997
  156.1303  140.1512  156.9106 H   0  0  0  0  0  0  0  0  0  0  0  0  # atno 8009 bound_to 7997
  154.4889  140.0847  156.7530 H   0  0  0  0  0  0  0  0  0  0  0  0  # atno 8010 bound_to 7997
  139.7138  143.9065  152.2478 H   0  0  0  0  0  0  0  0  0  0  0  0  # atno 10167 bound_to 10162
  157.6346  131.0981  150.7020 H   0  0  0  0  0  0  0  0  0  0  0  0  # atno 10718 bound_to 10713
  153.9916  135.2931  155.3411 H   0  0  0  0  0  0  0  0  0  0  0  0  # atno 10763 bound_to 10752
  154.7211  135.5108  153.8817 H   0  0  0  0  0  0  0  0  0  0  0  0  # atno 10764 bound_to 10752
  153.0807  135.6678  154.0167 H   0  0  0  0  0  0  0  0  0  0  0  0  # atno 10765 bound_to 10752
  141.1517  133.7834  157.0047 H   0  0  0  0  0  0  0  0  0  0  0  0  # atno 11005 bound_to 11000
  145.5003  139.1484  143.3661 LP  0  0  0  0  0  0  0  0  0  0  0  0  # atno 17320 bound_to 7965
  146.2564  140.5142  142.8872 LP  0  0  0  0  0  0  0  0  0  0  0  0  # atno 17321 bound_to 7965
  139.8942  144.6948  150.8736 LP  0  0  0  0  0  0  0  0  0  0  0  0  # atno 17342 bound_to 10162
  140.7739  143.3563  151.1915 LP  0  0  0  0  0  0  0  0  0  0  0  0  # atno 17343 bound_to 10162
  156.7354  130.4722  149.5490 LP  0  0  0  0  0  0  0  0  0  0  0  0  # atno 17370 bound_to 10713
  156.1575  130.6351  151.0675 LP  0  0  0  0  0  0  0  0  0  0  0  0  # atno 17371 bound_to 10713
  140.0917  134.9588  157.1786 LP  0  0  0  0  0  0  0  0  0  0  0  0  # atno 17394 bound_to 11000
  140.3437  134.2675  155.7208 LP  0  0  0  0  0  0  0  0  0  0  0  0  # atno 17395 bound_to 11000

$$$$
