AV-unprocessed.smi:2617|AV-procd|sdf|10217|dock4
  -GOLD-   2272014223D 1   1.00000     0.00000
 Structure written by MMmdl.
 35 35  0  0  0  0  0  0  0  0  1 V2000
  152.3593  144.8378  158.8808 C   0  0  0  0  0  0  0  0  0  0  0  0
  153.0545  143.4937  159.1170 C   0  0  0  0  0  0  0  0  0  0  0  0
  152.0527  142.3484  159.3404 C   0  0  0  0  0  0  0  0  0  0  0  0
  151.5974  141.7546  158.0991 N   0  0  0  0  0  0  0  0  0  0  0  0
  150.5764  142.2928  157.3109 C   0  0  0  0  0  0  0  0  0  0  0  0
  149.9476  143.4479  157.7515 N   0  0  0  0  0  0  0  0  0  0  0  0
  150.1679  141.7022  156.1513 C   0  0  0  0  0  0  0  0  0  0  0  0
  149.1552  142.2506  155.3704 N   0  0  0  0  0  0  0  0  0  0  0  0
  148.6399  141.7104  154.1207 C   0  0  0  0  0  0  0  0  0  0  0  0
  147.7538  140.4858  154.3722 C   0  0  0  0  0  0  0  0  0  0  0  0
  147.2079  140.0482  153.1383 O   0  0  0  0  0  0  0  0  0  0  0  0
  146.4025  138.8916  153.2801 C   0  0  0  0  0  0  0  0  0  0  0  0
  150.8175  140.4705  155.6796 C   0  0  0  0  0  0  0  0  0  0  0  0
  150.5723  139.8775  154.6296 O   0  0  0  0  0  0  0  0  0  0  0  0
  151.8045  139.9669  156.5239 N   0  0  0  0  0  0  0  0  0  0  0  0
  152.2171  140.5403  157.7211 C   0  0  0  0  0  0  0  0  0  0  0  0
  153.0881  139.9829  158.3900 O   0  0  0  0  0  0  0  0  0  0  0  0
  152.2597  139.1113  156.2412 H   0  0  0  0  0  0  0  0  0  0  0  0
  153.0905  145.6318  158.7269 H   0  0  0  0  0  0  0  0  0  0  0  0
  151.7403  145.1158  159.7342 H   0  0  0  0  0  0  0  0  0  0  0  0
  151.7190  144.7992  157.9991 H   0  0  0  0  0  0  0  0  0  0  0  0
  153.6931  143.2669  158.2625 H   0  0  0  0  0  0  0  0  0  0  0  0
  153.7147  143.5778  159.9810 H   0  0  0  0  0  0  0  0  0  0  0  0
  152.4881  141.5463  159.9357 H   0  0  0  0  0  0  0  0  0  0  0  0
  151.1757  142.6732  159.9034 H   0  0  0  0  0  0  0  0  0  0  0  0
  150.2151  143.8932  158.6172 H   0  0  0  0  0  0  0  0  0  0  0  0
  149.3611  143.9925  157.1360 H   0  0  0  0  0  0  0  0  0  0  0  0
  148.4429  142.7310  155.9003 H   0  0  0  0  0  0  0  0  0  0  0  0
  148.0620  142.4924  153.6277 H   0  0  0  0  0  0  0  0  0  0  0  0
  149.4495  141.4372  153.4432 H   0  0  0  0  0  0  0  0  0  0  0  0
  148.3278  139.6886  154.8476 H   0  0  0  0  0  0  0  0  0  0  0  0
  146.9436  140.7551  155.0514 H   0  0  0  0  0  0  0  0  0  0  0  0
  146.0074  138.5990  152.3075 H   0  0  0  0  0  0  0  0  0  0  0  0
  145.5582  139.0780  153.9451 H   0  0  0  0  0  0  0  0  0  0  0  0
  146.9808  138.0547  153.6740 H   0  0  0  0  0  0  0  0  0  0  0  0
  1  2  1  0  0  0  0
  1 19  1  0  0  0  0
  1 20  1  0  0  0  0
  1 21  1  0  0  0  0
  2  3  1  0  0  0  0
  2 22  1  0  0  0  0
  2 23  1  0  0  0  0
  3  4  1  0  0  0  0
  3 24  1  0  0  0  0
  3 25  1  0  0  0  0
  4 16  1  0  0  0  0
  4  5  1  0  0  0  0
  5  6  1  0  0  0  0
  5  7  2  0  0  0  0
  6 26  1  0  0  0  0
  6 27  1  0  0  0  0
  7  8  1  0  0  0  0
  7 13  1  0  0  0  0
  8  9  1  0  0  0  0
  8 28  1  0  0  0  0
  9 10  1  0  0  0  0
  9 29  1  0  0  0  0
  9 30  1  0  0  0  0
 10 11  1  0  0  0  0
 10 31  1  0  0  0  0
 10 32  1  0  0  0  0
 11 12  1  0  0  0  0
 12 33  1  0  0  0  0
 12 34  1  0  0  0  0
 12 35  1  0  0  0  0
 13 14  2  0  0  0  0
 13 15  1  0  0  0  0
 15 18  1  0  0  0  0
 15 16  1  0  0  0  0
 16 17  2  0  0  0  0
M  END
> <s_m_source_file>
AV-unprocessed.smi

> <i_m_source_file_index>
2617

> <i_lp_mmshare_version>
43012

> <i_f3d_flags>
0

> <s_epik_input>
W0NIM11bQ0gyXVtDSDJdbjFjKFtOSDJdKWMoYyg9TylbbkhdYzE9TylbTkhdW0NIMl1bQ0gyXU9bQ0gzXQ==

> <s_epik_cmdline>
J2VwaWtfcHl0aG9uJywgJy1waCcsICc3LjAnLCAnLXRuJywgJzgnLCAnLW1hJywgJzIwMCcsICctbWV0YWxfYmluZGluZycsICctaW1hZScsICc8aW5maWxlLm1hZT4nLCAnLW9tYWUnLCAnPG91dGZpbGUubWFlPic=

> <r_lp_tautomer_probability>
1

> <r_epik_Ionization_Penalty>
1.06398e-05

> <r_epik_Ionization_Penalty_Charging>
2.62604e-06

> <r_epik_Ionization_Penalty_Neutral>
8.01376e-06

> <r_epik_State_Penalty>
-0

> <r_epik_Charging_Adjusted_Penalty>
2.62604e-06

> <i_epik_Tot_Q>
0

> <i_epik_Tot_abs_Q>
0

> <r_epik_Metal_State_Penalty>
-0

> <b_epik_Metal_Only>
0

> <s_epik_Chemistry_Notes>
This compound has an imine and may undergo hydrolysis.

> <s_lp_Force_Field>
OPLS_2005

> <r_lp_Energy>
15.6594

> <b_lp_Chiralities_Consistent>
1

> <s_lp_Variant>
AV-unprocessed.smi:2617-1

> <Gold.Version>
5.8.1

> <Gold.Id.Protein>
6NUR|6NUR_protein|mol2

> <Gold.PLP.Fitness>
42.2203

> <Gold.PLP.PLP>
-34.0986

> <Gold.PLP.part.hbond>
-4.4456

> <Gold.PLP.part.metal>
0.0000

> <Gold.PLP.part.buried>
-3.3772

> <Gold.PLP.part.nonpolar>
-27.7522

> <Gold.PLP.part.repulsive>
1.3123

> <Gold.PLP.ligand.clash>
1.3886

> <Gold.PLP.ligand.torsion>
0.5371

> <Gold.PLP.Chemscore.Hbond>
3.0499

> <Gold.PLP.Chemscore.CHOScore>
0.0000

> <Gold.PLP.Chemscore.Metal>
0.0000

> <Gold.Chemscore.Hbonds>
donor molecule, donor type, donor heavy atom, donor atom, acceptor molecule, acceptor atom, score
      L1  H     6    27       P1  8028  1.00
      L1  H     8    28       P1  8028  0.09
      P1  H  7989  7998       L1    14  0.95
      P1  H  7997  8009       L1    17  1.00

> <Gold.PLP.Chemscore.Internal.Correction>
1.4347

> <Gold.Rescore>
     Score         DG    S(hbond)    S(metal)    S(lipo)     H(rot)  DE(clash)    DE(int)     intcor
      9.32     -12.60       1.53        0.00      64.81       2.17       0.47       2.81       ----

> <Gold.Chemscore.Fitness>
9.3201

> <Gold.Chemscore.DG>
-12.5968

> <Gold.Chemscore.ZeroCoef>
-5.4800

> <Gold.Chemscore.Hbond>
1.5259

> <Gold.Chemscore.Metal>
0.0000

> <Gold.Chemscore.Lipo>
64.8119

> <Gold.Chemscore.Internal_Hbond>
0.0000

> <Gold.Chemscore.DEClash>
0.4703

> <Gold.Chemscore.DEInternal>
2.8064

> <Gold.Chemscore.Rot>
2.1730

> <Gold.Chemscore.Internal.Correction>
   9.000000E+99

> <Gold.Chemscore.Hbonds>
donor molecule, donor type, donor heavy atom, donor atom, acceptor molecule, acceptor atom, score
      L1  H     6    27       P1  8028  0.44
      L1  H     8    28       P1  8028  0.11
      P1  H  7989  7998       L1    14  0.22
      P1  H  7997  8009       L1    17  0.23

> <Gold.Chemscore.Hbond.Weighted>
-5.0965

> <Gold.Chemscore.Metal.Weighted>
-0.0000

> <Gold.Chemscore.Lipo.Weighted>
-7.5830

> <Gold.Chemscore.Internal_Hbond.Weighted>
0.0000

> <Gold.Chemscore.DEClash.Weighted>
0.4703

> <Gold.Chemscore.DEInternal.Weighted>
2.8064

> <Gold.Chemscore.Rot.Weighted>
5.5628

> <Gold.Chemscore.Internal.Correction.Weighted>
   9.000000E+99

> <Gold.Protein.RotatedTorsions>
[ 6907 6896 6895 6894 ] final  152.90 input  -60.11 | X-H torsion
[ 7974 7965 7964 7962 ] final  -18.92 input  175.53 | X-H torsion
[ 8008 7997 7996 7995 ] final  149.98 input   59.86 | X-H torsion
[ 10167 10162 10161 10158 ] final -171.83 input  -65.29 | X-H torsion
[ 10718 10713 10712 10709 ] final  -85.68 input   66.30 | X-H torsion
[ 10763 10752 10751 10750 ] final -154.30 input  -60.55 | X-H torsion
[ 11005 11000 10999 10996 ] final  -46.58 input  -57.11 | X-H torsion

> <Gold.Protein.ActiveResidues>
 VAL166  LYS551  ARG553  GLY616  TRP617  ASP618  TYR619  PRO620  LYS621  CYS622 
 ASP623  PHE694  ASN695  SER759  ASP760  ASP761  ALA762  ILE779  LEU786  VAL792 
 PHE793  MET794  SER795  GLU796  ALA797  LYS798  CYS799  TRP800  GLU811  SER814 

> <Gold.Protein.RotatedAtoms>
  152.0802  133.4149  159.4497 H   0  0  0  0  0  0  0  0  0  0  0  0  # atno 6907 bound_to 6896
  150.6862  134.2991  159.4708 H   0  0  0  0  0  0  0  0  0  0  0  0  # atno 6908 bound_to 6896
  152.0832  134.9457  160.0624 H   0  0  0  0  0  0  0  0  0  0  0  0  # atno 6909 bound_to 6896
  146.1868  140.3989  142.8473 H   0  0  0  0  0  0  0  0  0  0  0  0  # atno 7974 bound_to 7965
  156.2734  140.2087  156.5944 H   0  0  0  0  0  0  0  0  0  0  0  0  # atno 8008 bound_to 7997
  154.6956  140.0526  157.0431 H   0  0  0  0  0  0  0  0  0  0  0  0  # atno 8009 bound_to 7997
  155.0805  140.3186  155.4606 H   0  0  0  0  0  0  0  0  0  0  0  0  # atno 8010 bound_to 7997
  139.5780  144.1489  152.1476 H   0  0  0  0  0  0  0  0  0  0  0  0  # atno 10167 bound_to 10162
  155.9995  130.4739  150.4599 H   0  0  0  0  0  0  0  0  0  0  0  0  # atno 10718 bound_to 10713
  154.7868  135.3193  154.7868 H   0  0  0  0  0  0  0  0  0  0  0  0  # atno 10763 bound_to 10752
  153.8566  135.6857  153.4791 H   0  0  0  0  0  0  0  0  0  0  0  0  # atno 10764 bound_to 10752
  153.1522  135.4694  154.9593 H   0  0  0  0  0  0  0  0  0  0  0  0  # atno 10765 bound_to 10752
  141.0587  133.6716  156.3175 H   0  0  0  0  0  0  0  0  0  0  0  0  # atno 11005 bound_to 11000
  144.8412  140.6859  143.6228 LP  0  0  0  0  0  0  0  0  0  0  0  0  # atno 17320 bound_to 7965
  145.3915  139.1616  143.4227 LP  0  0  0  0  0  0  0  0  0  0  0  0  # atno 17321 bound_to 7965
  140.1036  144.5518  150.6972 LP  0  0  0  0  0  0  0  0  0  0  0  0  # atno 17342 bound_to 10162
  140.7061  143.2469  151.4723 LP  0  0  0  0  0  0  0  0  0  0  0  0  # atno 17343 bound_to 10162
  157.2625  131.0570  151.2311 LP  0  0  0  0  0  0  0  0  0  0  0  0  # atno 17370 bound_to 10713
  157.3421  130.7038  149.6388 LP  0  0  0  0  0  0  0  0  0  0  0  0  # atno 17371 bound_to 10713
  140.5911  134.5649  157.5500 LP  0  0  0  0  0  0  0  0  0  0  0  0  # atno 17394 bound_to 11000
  139.9413  134.7781  156.0671 LP  0  0  0  0  0  0  0  0  0  0  0  0  # atno 17395 bound_to 11000

$$$$
