#       Name:                AV-unprocessed.smi:459
#       Creating user name   scv26
#       Creation time:       Thu Mar 26 23:02:39 2020


#       File generated by GOLD software.
#

@<TRIPOS>MOLECULE
AV-unprocessed.smi:459
    50    52     1
SMALL
NO_CHARGES


@<TRIPOS>ATOM
      1 ****        -6.1361   3.0514   0.7260 C.3            1 S1                 0.0000
      2 ****        -5.5411   2.0759   1.5696 O.3            1 S1                 0.0000
      3 ****        -4.2170   1.7565   1.3578 C.ar           1 S1                 0.0000
      4 ****        -3.4080   2.3368   0.3503 C.ar           1 S1                 0.0000
      5 ****        -2.0619   1.9491   0.2072 C.ar           1 S1                 0.0000
      6 ****        -1.4923   0.9804   1.0566 C.ar           1 S1                 0.0000
      7 ****        -0.1689   0.6623   0.8440 O.3            1 S1                 0.0000
      8 ****         0.4270  -0.3343   1.6642 C.3            1 S1                 0.0000
      9 ****         1.8826  -0.5544   1.2287 C.3            1 S1                 0.0000
     10 ****         1.9788  -0.9411  -0.1719 N.pl3          1 S1                 0.0000
     11 ****         2.2122  -0.1593  -1.2581 C.2            1 S1                 0.0000
     12 ****         2.4341   1.3231  -1.1659 C.3            1 S1                 0.0000
     13 ****         3.9177   1.7208  -1.2201 C.3            1 S1                 0.0000
     14 ****         4.5766   1.3862  -0.0166 O.3            1 S1                 0.0000
     15 ****         2.2427  -0.7941  -2.4311 N.2            1 S1                 0.0000
     16 ****         2.0024  -2.1064  -2.0752 C.ar           1 S1                 0.0000
     17 ****         1.9075  -3.2710  -2.8703 C.ar           1 S1                 0.0000
     18 ****         1.6492  -4.5229  -2.2744 C.ar           1 S1                 0.0000
     19 ****         1.4818  -4.6278  -0.8783 C.ar           1 S1                 0.0000
     20 ****         1.5729  -3.4796  -0.0682 C.ar           1 S1                 0.0000
     21 ****         1.8320  -2.2325  -0.6679 C.ar           1 S1                 0.0000
     22 ****        -2.3010   0.4000   2.0640 C.ar           1 S1                 0.0000
     23 ****        -3.6469   0.7881   2.2074 C.ar           1 S1                 0.0000
     24 ****        -7.1757   3.1955   1.0203 H              1 S1                 0.0000
     25 ****        -6.1301   2.7328  -0.3174 H              1 S1                 0.0000
     26 ****        -5.6325   4.0152   0.8131 H              1 S1                 0.0000
     27 ****        -3.7962   3.0823  -0.3266 H              1 S1                 0.0000
     28 ****        -1.4586   2.4009  -0.5666 H              1 S1                 0.0000
     29 ****         0.4039  -0.0262   2.7104 H              1 S1                 0.0000
     30 ****        -0.1241  -1.2720   1.5763 H              1 S1                 0.0000
     31 ****         2.4750   0.3416   1.4071 H              1 S1                 0.0000
     32 ****         2.3363  -1.3387   1.8354 H              1 S1                 0.0000
     33 ****         1.9193   1.7833  -2.0101 H              1 S1                 0.0000
     34 ****         1.9551   1.7361  -0.2790 H              1 S1                 0.0000
     35 ****         4.4207   1.2497  -2.0650 H              1 S1                 0.0000
     36 ****         4.0037   2.7990  -1.3562 H              1 S1                 0.0000
     37 ****         5.4796   1.6573  -0.0834 H              1 S1                 0.0000
     38 ****         2.0329  -3.2004  -3.9405 H              1 S1                 0.0000
     39 ****         1.5789  -5.4065  -2.8916 H              1 S1                 0.0000
     40 ****         1.2836  -5.5902  -0.4296 H              1 S1                 0.0000
     41 ****         1.4450  -3.5563   1.0013 H              1 S1                 0.0000
     42 ****        -1.9130  -0.3454   2.7411 H              1 S1                 0.0000
     43 ****        -4.2497   0.3356   2.9812 H              1 S1                 0.0000
     44 ****        -6.0699   1.2332   1.4684 LP             1 S1                 0.0000
     45 ****        -5.6199   2.4080   2.5096 LP             1 S1                 0.0000
     46 ****         0.3604   1.5017   0.9670 LP             1 S1                 0.0000
     47 ****        -0.0877   0.3528  -0.1034 LP             1 S1                 0.0000
     48 ****         4.5311   0.3979   0.1294 LP             1 S1                 0.0000
     49 ****         4.1390   1.8568   0.7496 LP             1 S1                 0.0000
     50 ****         2.4005  -0.4138  -3.3423 LP             1 S1                 0.0000
@<TRIPOS>BOND
    1    1    2 1     
    2    1   24 1     
    3    1   25 1     
    4    1   26 1     
    5    2    3 1     
    6    3   23 ar    
    7    3    4 ar    
    8    4    5 ar    
    9    4   27 1     
   10    5    6 ar    
   11    5   28 1     
   12    6    7 1     
   13    6   22 ar    
   14    7    8 1     
   15    8    9 1     
   16    8   29 1     
   17    8   30 1     
   18    9   10 1     
   19    9   31 1     
   20    9   32 1     
   21   10   21 1     
   22   10   11 1     
   23   11   12 1     
   24   11   15 2     
   25   12   13 1     
   26   12   33 1     
   27   12   34 1     
   28   13   14 1     
   29   13   35 1     
   30   13   36 1     
   31   14   37 1     
   32   15   16 1     
   33   16   21 ar    
   34   16   17 ar    
   35   17   18 ar    
   36   17   38 1     
   37   18   19 ar    
   38   18   39 1     
   39   19   20 ar    
   40   19   40 1     
   41   20   21 ar    
   42   20   41 1     
   43   22   23 ar    
   44   22   42 1     
   45   23   43 1     
   46    2   44 1     
   47    2   45 1     
   48    7   46 1     
   49    7   47 1     
   50   14   48 1     
   51   14   49 1     
   52   15   50 1     
@<TRIPOS>SUBSTRUCTURE
      1 S1             1
@<TRIPOS>SET
LONE_PAIRS      STATIC     ATOMS    <user>   **** ""
7 44 45 46 47 48 49 50
DONOR_HYDROGENS      STATIC     ATOMS    <user>   **** ""
1 37
ATOM$BLUE        STATIC     ATOMS    COLORGROUP SYSTEM
7 44 45 46 47 48 49 50
ATOM$RED        STATIC     ATOMS    COLORGROUP SYSTEM
1 37
