AV-unprocessed.smi:2040|AV-procd|sdf|8288|dock5
  -GOLD-   2272010553D 1   1.00000     0.00000
 Structure written by MMmdl.
 38 39  0  0  0  0  0  0  0  0  1 V2000
  150.6181  141.6683  156.8059 C   0  0  0  0  0  0  0  0  0  0  0  0
  150.3334  140.5016  155.9068 C   0  0  0  0  0  0  0  0  0  0  0  0
  149.1091  140.1752  155.2541 C   0  0  0  0  0  0  0  0  0  0  0  0
  149.4243  139.0274  154.5793 C   0  0  0  0  0  0  0  0  0  0  0  0
  148.6373  138.2661  153.7733 N   0  0  0  0  0  0  0  0  0  0  0  0
  147.3018  138.3066  153.6236 C   0  0  0  0  0  0  0  0  0  0  0  0
  146.5388  139.0650  154.2224 O   0  0  0  0  0  0  0  0  0  0  0  0
  146.8880  137.3965  152.7302 N   0  0  0  0  0  0  0  0  0  0  0  0
  145.5015  137.1792  152.3244 C   0  0  2  0  0  0  0  0  0  0  0  0
  144.6615  136.7782  153.5496 C   0  0  0  0  0  0  0  0  0  0  0  0
  145.4615  136.1100  151.2158 C   0  0  1  0  0  0  0  0  0  0  0  0
  146.0302  134.7461  151.6188 C   0  0  0  0  0  0  0  0  0  0  0  0
  145.2545  133.7520  150.7657 C   0  0  0  0  0  0  0  0  0  0  0  0
  144.1588  134.5946  150.1107 C   0  0  0  0  0  0  0  0  0  0  0  0
  144.1206  135.7878  150.8778 O   0  0  0  0  0  0  0  0  0  0  0  0
  150.7435  138.7163  154.8227 N   0  0  0  0  0  0  0  0  0  0  0  0
  151.5328  137.6034  154.3321 C   0  0  0  0  0  0  0  0  0  0  0  0
  151.3012  139.6296  155.6469 N   0  0  0  0  0  0  0  0  0  0  0  0
  149.7641  142.3439  156.8567 H   0  0  0  0  0  0  0  0  0  0  0  0
  151.4733  142.2423  156.4478 H   0  0  0  0  0  0  0  0  0  0  0  0
  150.8392  141.3364  157.8207 H   0  0  0  0  0  0  0  0  0  0  0  0
  148.1712  140.7085  155.2873 H   0  0  0  0  0  0  0  0  0  0  0  0
  149.1250  137.5719  153.2266 H   0  0  0  0  0  0  0  0  0  0  0  0
  147.5845  136.8190  152.2824 H   0  0  0  0  0  0  0  0  0  0  0  0
  145.1006  138.1085  151.9151 H   0  0  0  0  0  0  0  0  0  0  0  0
  143.6122  136.6457  153.2860 H   0  0  0  0  0  0  0  0  0  0  0  0
  144.7039  137.5432  154.3256 H   0  0  0  0  0  0  0  0  0  0  0  0
  145.0161  135.8433  153.9846 H   0  0  0  0  0  0  0  0  0  0  0  0
  145.9702  136.4710  150.3193 H   0  0  0  0  0  0  0  0  0  0  0  0
  147.1074  134.6843  151.4613 H   0  0  0  0  0  0  0  0  0  0  0  0
  145.8351  134.5474  152.6736 H   0  0  0  0  0  0  0  0  0  0  0  0
  145.8852  133.2752  150.0146 H   0  0  0  0  0  0  0  0  0  0  0  0
  144.8268  132.9680  151.3917 H   0  0  0  0  0  0  0  0  0  0  0  0
  144.4252  134.8392  149.0812 H   0  0  0  0  0  0  0  0  0  0  0  0
  143.1904  134.0939  150.1027 H   0  0  0  0  0  0  0  0  0  0  0  0
  151.0871  136.6648  154.6620 H   0  0  0  0  0  0  0  0  0  0  0  0
  152.5549  137.6611  154.7088 H   0  0  0  0  0  0  0  0  0  0  0  0
  151.5565  137.6241  153.2424 H   0  0  0  0  0  0  0  0  0  0  0  0
  1  2  1  0  0  0  0
  1 19  1  0  0  0  0
  1 20  1  0  0  0  0
  1 21  1  0  0  0  0
  2 18  2  0  0  0  0
  2  3  1  0  0  0  0
  3  4  2  0  0  0  0
  3 22  1  0  0  0  0
  4  5  1  0  0  0  0
  4 16  1  0  0  0  0
  5  6  1  0  0  0  0
  5 23  1  0  0  0  0
  6  7  2  0  0  0  0
  6  8  1  0  0  0  0
  8  9  1  0  0  0  0
  8 24  1  0  0  0  0
  9 10  1  0  0  0  0
  9 11  1  0  0  0  0
  9 25  1  0  0  0  0
 10 26  1  0  0  0  0
 10 27  1  0  0  0  0
 10 28  1  0  0  0  0
 11 15  1  0  0  0  0
 11 12  1  0  0  0  0
 11 29  1  0  0  0  0
 12 13  1  0  0  0  0
 12 30  1  0  0  0  0
 12 31  1  0  0  0  0
 13 14  1  0  0  0  0
 13 32  1  0  0  0  0
 13 33  1  0  0  0  0
 14 15  1  0  0  0  0
 14 34  1  0  0  0  0
 14 35  1  0  0  0  0
 16 17  1  0  0  0  0
 16 18  1  0  0  0  0
 17 36  1  0  0  0  0
 17 37  1  0  0  0  0
 17 38  1  0  0  0  0
M  END
> <s_m_source_file>
AV-unprocessed.smi

> <i_m_source_file_index>
2040

> <i_lp_mmshare_version>
43012

> <i_f3d_flags>
0

> <s_epik_input>
W0NIM11jMVtjSF1jKG4objEpW0NIM10pW05IXUMoPU8pW05IXVtDQEhdKFtDSDNdKVtDQEBIXTJbQ0gyXVtDSDJdW0NIMl1PMg==

> <s_epik_cmdline>
J2VwaWtfcHl0aG9uJywgJy1waCcsICc3LjAnLCAnLXRuJywgJzgnLCAnLW1hJywgJzIwMCcsICctbWV0YWxfYmluZGluZycsICctaW1hZScsICc8aW5maWxlLm1hZT4nLCAnLW9tYWUnLCAnPG91dGZpbGUubWFlPic=

> <r_lp_tautomer_probability>
1

> <r_epik_Ionization_Penalty>
9.09088e-05

> <r_epik_Ionization_Penalty_Charging>
0

> <r_epik_Ionization_Penalty_Neutral>
9.09088e-05

> <r_epik_State_Penalty>
-0

> <r_epik_Charging_Adjusted_Penalty>
0

> <i_epik_Tot_Q>
0

> <i_epik_Tot_abs_Q>
0

> <r_epik_Metal_State_Penalty>
-0

> <b_epik_Metal_Only>
0

> <s_lp_Force_Field>
OPLS_2005

> <r_lp_Energy>
19.5885

> <b_lp_Chiralities_Consistent>
1

> <s_lp_Variant>
AV-unprocessed.smi:2040-3

> <Gold.Version>
5.8.1

> <Gold.Id.Protein>
6NUR|6NUR_protein|mol2

> <Gold.PLP.Fitness>
37.0697

> <Gold.PLP.PLP>
-31.0287

> <Gold.PLP.part.hbond>
-3.8515

> <Gold.PLP.part.metal>
0.0000

> <Gold.PLP.part.buried>
-2.8681

> <Gold.PLP.part.nonpolar>
-26.5085

> <Gold.PLP.part.repulsive>
0.4897

> <Gold.PLP.ligand.clash>
0.0000

> <Gold.PLP.ligand.torsion>
0.0629

> <Gold.PLP.Chemscore.Hbond>
2.0490

> <Gold.PLP.Chemscore.CHOScore>
0.0000

> <Gold.PLP.Chemscore.Metal>
0.0000

> <Gold.Chemscore.Hbonds>
donor molecule, donor type, donor heavy atom, donor atom, acceptor molecule, acceptor atom, score
      L1  H     5    23       P1  7948  0.93
      L1  H     8    24       P1  7948  1.00

> <Gold.PLP.Chemscore.Internal.Correction>
0.0198

> <Gold.Rescore>
     Score         DG    S(hbond)    S(metal)    S(lipo)     H(rot)  DE(clash)    DE(int)     intcor
     14.64     -15.81       1.90        0.00      61.19       1.23       0.01       1.17       ----

> <Gold.Chemscore.Fitness>
14.6359

> <Gold.Chemscore.DG>
-15.8108

> <Gold.Chemscore.ZeroCoef>
-5.4800

> <Gold.Chemscore.Hbond>
1.8953

> <Gold.Chemscore.Metal>
0.0000

> <Gold.Chemscore.Lipo>
61.1886

> <Gold.Chemscore.Internal_Hbond>
0.0000

> <Gold.Chemscore.DEClash>
0.0057

> <Gold.Chemscore.DEInternal>
1.1692

> <Gold.Chemscore.Rot>
1.2338

> <Gold.Chemscore.Internal.Correction>
   9.000000E+99

> <Gold.Chemscore.Hbonds>
donor molecule, donor type, donor heavy atom, donor atom, acceptor molecule, acceptor atom, score
      L1  H     5    23       P1  7948  0.89
      L1  H     8    24       P1  7948  0.93

> <Gold.Chemscore.Hbond.Weighted>
-6.3302

> <Gold.Chemscore.Metal.Weighted>
-0.0000

> <Gold.Chemscore.Lipo.Weighted>
-7.1591

> <Gold.Chemscore.Internal_Hbond.Weighted>
0.0000

> <Gold.Chemscore.DEClash.Weighted>
0.0057

> <Gold.Chemscore.DEInternal.Weighted>
1.1692

> <Gold.Chemscore.Rot.Weighted>
3.1584

> <Gold.Chemscore.Internal.Correction.Weighted>
   9.000000E+99

> <Gold.Protein.RotatedTorsions>
[ 6907 6896 6895 6894 ] final   96.28 input  -60.11 | X-H torsion
[ 7974 7965 7964 7962 ] final   57.50 input  175.53 | X-H torsion
[ 8008 7997 7996 7995 ] final -169.34 input   59.86 | X-H torsion
[ 10167 10162 10161 10158 ] final  -34.76 input  -65.29 | X-H torsion
[ 10718 10713 10712 10709 ] final  131.32 input   66.30 | X-H torsion
[ 10763 10752 10751 10750 ] final   62.77 input  -60.55 | X-H torsion
[ 11005 11000 10999 10996 ] final  -99.66 input  -57.11 | X-H torsion

> <Gold.Protein.ActiveResidues>
 VAL166  LYS551  ARG553  GLY616  TRP617  ASP618  TYR619  PRO620  LYS621  CYS622 
 ASP623  PHE694  ASN695  SER759  ASP760  ASP761  ALA762  ILE779  LEU786  VAL792 
 PHE793  MET794  SER795  GLU796  ALA797  LYS798  CYS799  TRP800  GLU811  SER814 

> <Gold.Protein.RotatedAtoms>
  152.5436  134.0910  159.8276 H   0  0  0  0  0  0  0  0  0  0  0  0  # atno 6907 bound_to 6896
  151.0999  133.5244  159.2618 H   0  0  0  0  0  0  0  0  0  0  0  0  # atno 6908 bound_to 6896
  151.2002  135.0448  159.8923 H   0  0  0  0  0  0  0  0  0  0  0  0  # atno 6909 bound_to 6896
  145.9284  139.3787  143.0436 H   0  0  0  0  0  0  0  0  0  0  0  0  # atno 7974 bound_to 7965
  155.9036  140.1045  157.1332 H   0  0  0  0  0  0  0  0  0  0  0  0  # atno 8008 bound_to 7997
  154.4029  140.1288  156.4532 H   0  0  0  0  0  0  0  0  0  0  0  0  # atno 8009 bound_to 7997
  155.7393  140.3467  155.5099 H   0  0  0  0  0  0  0  0  0  0  0  0  # atno 8010 bound_to 7997
  140.7179  143.3525  151.2126 H   0  0  0  0  0  0  0  0  0  0  0  0  # atno 10167 bound_to 10162
  157.4978  131.1093  150.9469 H   0  0  0  0  0  0  0  0  0  0  0  0  # atno 10718 bound_to 10713
  152.9994  135.5453  154.6246 H   0  0  0  0  0  0  0  0  0  0  0  0  # atno 10763 bound_to 10752
  154.5538  135.2828  155.0986 H   0  0  0  0  0  0  0  0  0  0  0  0  # atno 10764 bound_to 10752
  154.2216  135.6449  153.5199 H   0  0  0  0  0  0  0  0  0  0  0  0  # atno 10765 bound_to 10752
  141.1300  133.8338  157.1000 H   0  0  0  0  0  0  0  0  0  0  0  0  # atno 11005 bound_to 11000
  145.8458  140.9556  143.0775 LP  0  0  0  0  0  0  0  0  0  0  0  0  # atno 17320 bound_to 7965
  144.6761  140.0343  143.7482 LP  0  0  0  0  0  0  0  0  0  0  0  0  # atno 17321 bound_to 7965
  139.7059  143.9456  152.2926 LP  0  0  0  0  0  0  0  0  0  0  0  0  # atno 17342 bound_to 10162
  139.9164  144.6826  150.8507 LP  0  0  0  0  0  0  0  0  0  0  0  0  # atno 17343 bound_to 10162
  157.0149  130.5651  149.5325 LP  0  0  0  0  0  0  0  0  0  0  0  0  # atno 17370 bound_to 10713
  156.0211  130.5306  150.8277 LP  0  0  0  0  0  0  0  0  0  0  0  0  # atno 17371 bound_to 10713
  140.0339  134.9888  157.0833 LP  0  0  0  0  0  0  0  0  0  0  0  0  # atno 17394 bound_to 11000
  140.4241  134.1849  155.7165 LP  0  0  0  0  0  0  0  0  0  0  0  0  # atno 17395 bound_to 11000

$$$$
