AV-unprocessed.smi:1610|AV-procd|sdf|6471|dock2
  -GOLD-   22720 7123D 1   1.00000     0.00000
 Structure written by MMmdl.
 45 46  0  0  0  0  0  0  0  0  2 V2000
  147.2606  139.6914  151.5325 C   0  0  0  0  0  0  0  0  0  0  0  0
  146.9985  139.1083  153.2570 S   0  0  0  0  0  0  0  0  0  0  0  0
  146.8693  140.2792  154.1379 O   0  0  0  0  0  0  0  0  0  0  0  0
  145.9551  138.0723  153.2402 O   0  0  0  0  0  0  0  0  0  0  0  0
  148.4896  138.3250  153.6327 N   0  0  0  0  0  0  0  0  0  0  0  0
  149.7399  139.0795  153.7418 C   0  0  0  0  0  0  0  0  0  0  0  0
  150.8896  138.1448  154.1733 C   0  0  0  0  0  0  0  0  0  0  0  0
  152.1656  138.9498  154.4762 C   0  0  0  0  0  0  0  0  0  0  0  0
  151.8565  139.9546  155.5081 N   0  0  0  0  0  0  0  0  0  0  0  0
  152.2425  139.9182  156.8090 C   0  0  0  0  0  0  0  0  0  0  0  0
  153.0690  139.1170  157.2475 O   0  0  0  0  0  0  0  0  0  0  0  0
  151.6528  140.8319  157.5972 N   0  0  0  0  0  0  0  0  0  0  0  0
  151.9075  140.9850  159.0225 C   0  0  0  0  0  0  0  0  0  0  0  0
  152.6477  142.2999  159.2999 C   0  0  0  0  0  0  0  0  0  0  0  0
  152.9203  142.4993  160.7781 C   0  0  0  0  0  0  0  0  0  0  0  0
  152.3368  143.5787  161.4778 C   0  0  0  0  0  0  0  0  0  0  0  0
  152.6130  143.7422  162.8513 C   0  0  0  0  0  0  0  0  0  0  0  0
  153.4670  142.8227  163.4943 C   0  0  0  0  0  0  0  0  0  0  0  0
  154.0075  141.8027  162.7919 N   0  3  0  0  0  0  0  0  0  0  0  0
  153.7682  141.6119  161.4758 C   0  0  0  0  0  0  0  0  0  0  0  0
  150.9027  140.9524  155.0064 C   0  0  0  0  0  0  0  0  0  0  0  0
  149.5588  140.2556  154.7238 C   0  0  0  0  0  0  0  0  0  0  0  0
  146.3470  140.1605  151.1685 H   0  0  0  0  0  0  0  0  0  0  0  0
  147.5116  138.8450  150.8937 H   0  0  0  0  0  0  0  0  0  0  0  0
  148.0704  140.4200  151.5100 H   0  0  0  0  0  0  0  0  0  0  0  0
  148.5762  137.3770  153.2670 H   0  0  0  0  0  0  0  0  0  0  0  0
  149.9852  139.4967  152.7642 H   0  0  0  0  0  0  0  0  0  0  0  0
  150.5998  137.5838  155.0632 H   0  0  0  0  0  0  0  0  0  0  0  0
  151.0922  137.4084  153.3957 H   0  0  0  0  0  0  0  0  0  0  0  0
  152.9775  138.2735  154.7436 H   0  0  0  0  0  0  0  0  0  0  0  0
  152.5047  139.4586  153.5725 H   0  0  0  0  0  0  0  0  0  0  0  0
  150.9845  141.4613  157.1769 H   0  0  0  0  0  0  0  0  0  0  0  0
  150.9567  140.9658  159.5572 H   0  0  0  0  0  0  0  0  0  0  0  0
  152.4989  140.1414  159.3833 H   0  0  0  0  0  0  0  0  0  0  0  0
  153.5951  142.3176  158.7591 H   0  0  0  0  0  0  0  0  0  0  0  0
  152.0653  143.1441  158.9279 H   0  0  0  0  0  0  0  0  0  0  0  0
  151.6866  144.2756  160.9687 H   0  0  0  0  0  0  0  0  0  0  0  0
  152.1766  144.5618  163.4032 H   0  0  0  0  0  0  0  0  0  0  0  0
  153.7328  142.8720  164.5404 H   0  0  0  0  0  0  0  0  0  0  0  0
  154.2602  140.7622  161.0250 H   0  0  0  0  0  0  0  0  0  0  0  0
  150.7522  141.7810  155.6998 H   0  0  0  0  0  0  0  0  0  0  0  0
  151.2928  141.4013  154.0917 H   0  0  0  0  0  0  0  0  0  0  0  0
  148.8434  140.9732  154.3204 H   0  0  0  0  0  0  0  0  0  0  0  0
  149.1385  139.8946  155.6639 H   0  0  0  0  0  0  0  0  0  0  0  0
  154.6234  141.1489  163.2760 H   0  0  0  0  0  0  0  0  0  0  0  0
  1  2  1  0  0  0  0
  1 23  1  0  0  0  0
  1 24  1  0  0  0  0
  1 25  1  0  0  0  0
  2  3  2  0  0  0  0
  2  4  2  0  0  0  0
  2  5  1  0  0  0  0
  5  6  1  0  0  0  0
  5 26  1  0  0  0  0
  6 22  1  0  0  0  0
  6  7  1  0  0  0  0
  6 27  1  0  0  0  0
  7  8  1  0  0  0  0
  7 28  1  0  0  0  0
  7 29  1  0  0  0  0
  8  9  1  0  0  0  0
  8 30  1  0  0  0  0
  8 31  1  0  0  0  0
  9 10  1  0  0  0  0
  9 21  1  0  0  0  0
 10 11  2  0  0  0  0
 10 12  1  0  0  0  0
 12 13  1  0  0  0  0
 12 32  1  0  0  0  0
 13 14  1  0  0  0  0
 13 33  1  0  0  0  0
 13 34  1  0  0  0  0
 14 15  1  0  0  0  0
 14 35  1  0  0  0  0
 14 36  1  0  0  0  0
 15 20  1  0  0  0  0
 15 16  2  0  0  0  0
 16 17  1  0  0  0  0
 16 37  1  0  0  0  0
 17 18  2  0  0  0  0
 17 38  1  0  0  0  0
 18 19  1  0  0  0  0
 18 39  1  0  0  0  0
 19 20  2  0  0  0  0
 19 45  1  0  0  0  0
 20 40  1  0  0  0  0
 21 22  1  0  0  0  0
 21 41  1  0  0  0  0
 21 42  1  0  0  0  0
 22 43  1  0  0  0  0
 22 44  1  0  0  0  0
M  CHG  1  19   1
M  END
> <s_m_source_file>
AV-unprocessed.smi

> <i_m_source_file_index>
1610

> <i_lp_mmshare_version>
43012

> <i_f3d_flags>
0

> <s_epik_input>
W0NIM11TKD1PKSg9TylbTkhdW0NIXTFbQ0gyXVtDSDJdTihbQ0gyXVtDSDJdMSlDKD1PKVtOSF1bQ0gyXVtDSDJdYzJbY0hdW2NIXVtjSF1uW2NIXTI=

> <s_epik_cmdline>
J2VwaWtfcHl0aG9uJywgJy1waCcsICc3LjAnLCAnLXRuJywgJzgnLCAnLW1hJywgJzIwMCcsICctbWV0YWxfYmluZGluZycsICctaW1hZScsICc8aW5maWxlLm1hZT4nLCAnLW9tYWUnLCAnPG91dGZpbGUubWFlPic=

> <r_epik_Ionization_Penalty>
2.20747

> <r_epik_Ionization_Penalty_Charging>
2.20741

> <r_epik_Ionization_Penalty_Neutral>
6.06433e-05

> <r_epik_State_Penalty>
2.35137

> <r_epik_Charging_Adjusted_Penalty>
4.55877

> <i_epik_Tot_Q>
1

> <i_epik_Tot_abs_Q>
1

> <r_epik_Metal_State_Penalty>
2.37242

> <b_epik_Metal_Only>
0

> <s_lp_Force_Field>
OPLS_2005

> <r_lp_Energy>
29.2562

> <b_lp_Chiralities_Consistent>
1

> <s_lp_Variant>
AV-unprocessed.smi:1610-2

> <Gold.Version>
5.8.1

> <Gold.Id.Protein>
6NUR|6NUR_protein|mol2

> <Gold.PLP.Fitness>
51.0388

> <Gold.PLP.PLP>
-48.1892

> <Gold.PLP.part.hbond>
-3.0000

> <Gold.PLP.part.metal>
0.0000

> <Gold.PLP.part.buried>
1.3749

> <Gold.PLP.part.nonpolar>
-43.9270

> <Gold.PLP.part.repulsive>
0.2744

> <Gold.PLP.ligand.clash>
1.8064

> <Gold.PLP.ligand.torsion>
0.6354

> <Gold.PLP.Chemscore.Hbond>
1.6240

> <Gold.PLP.Chemscore.CHOScore>
0.0000

> <Gold.PLP.Chemscore.Metal>
0.0000

> <Gold.Chemscore.Hbonds>
donor molecule, donor type, donor heavy atom, donor atom, acceptor molecule, acceptor atom, score
      L1  H     5    26       P1  7948  0.98
      P1  H  7997  8009       L1    11  0.85

> <Gold.PLP.Chemscore.Internal.Correction>
1.0548

> <Gold.Rescore>
     Score         DG    S(hbond)    S(metal)    S(lipo)     H(rot)  DE(clash)    DE(int)     intcor
     16.16     -21.09       1.80        0.00     121.56       1.81       2.46       2.47       ----

> <Gold.Chemscore.Fitness>
16.1634

> <Gold.Chemscore.DG>
-21.0877

> <Gold.Chemscore.ZeroCoef>
-5.4800

> <Gold.Chemscore.Hbond>
1.8038

> <Gold.Chemscore.Metal>
0.0000

> <Gold.Chemscore.Lipo>
121.5592

> <Gold.Chemscore.Internal_Hbond>
0.0000

> <Gold.Chemscore.DEClash>
2.4559

> <Gold.Chemscore.DEInternal>
2.4684

> <Gold.Chemscore.Rot>
1.8123

> <Gold.Chemscore.Internal.Correction>
   9.000000E+99

> <Gold.Chemscore.Hbonds>
donor molecule, donor type, donor heavy atom, donor atom, acceptor molecule, acceptor atom, score
      L1  H     5    26       P1  7948  0.93
      P1  H  7997  8009       L1    11  0.15

> <Gold.Chemscore.Hbond.Weighted>
-6.0248

> <Gold.Chemscore.Metal.Weighted>
-0.0000

> <Gold.Chemscore.Lipo.Weighted>
-14.2224

> <Gold.Chemscore.Internal_Hbond.Weighted>
0.0000

> <Gold.Chemscore.DEClash.Weighted>
2.4559

> <Gold.Chemscore.DEInternal.Weighted>
2.4684

> <Gold.Chemscore.Rot.Weighted>
4.6395

> <Gold.Chemscore.Internal.Correction.Weighted>
   9.000000E+99

> <Gold.Protein.RotatedTorsions>
[ 6907 6896 6895 6894 ] final -141.02 input  -60.11 | X-H torsion
[ 7974 7965 7964 7962 ] final  170.27 input  175.53 | X-H torsion
[ 8008 7997 7996 7995 ] final  166.24 input   59.86 | X-H torsion
[ 10167 10162 10161 10158 ] final   14.59 input  -65.29 | X-H torsion
[ 10718 10713 10712 10709 ] final  -79.90 input   66.30 | X-H torsion
[ 10763 10752 10751 10750 ] final  -43.51 input  -60.55 | X-H torsion
[ 11005 11000 10999 10996 ] final   -9.77 input  -57.11 | X-H torsion

> <Gold.Protein.ActiveResidues>
 VAL166  LYS551  ARG553  GLY616  TRP617  ASP618  TYR619  PRO620  LYS621  CYS622 
 ASP623  PHE694  ASN695  SER759  ASP760  ASP761  ALA762  ILE779  LEU786  VAL792 
 PHE793  MET794  SER795  GLU796  ALA797  LYS798  CYS799  TRP800  GLU811  SER814 

> <Gold.Protein.RotatedAtoms>
  151.0684  133.5486  159.2628 H   0  0  0  0  0  0  0  0  0  0  0  0  # atno 6907 bound_to 6896
  151.2435  135.0596  159.9044 H   0  0  0  0  0  0  0  0  0  0  0  0  # atno 6908 bound_to 6896
  152.5408  134.0455  159.8140 H   0  0  0  0  0  0  0  0  0  0  0  0  # atno 6909 bound_to 6896
  144.7329  139.9177  143.6418 H   0  0  0  0  0  0  0  0  0  0  0  0  # atno 7974 bound_to 7965
  156.1735  140.1648  156.8405 H   0  0  0  0  0  0  0  0  0  0  0  0  # atno 8008 bound_to 7997
  154.5282  140.0763  156.8330 H   0  0  0  0  0  0  0  0  0  0  0  0  # atno 8009 bound_to 7997
  155.3463  140.3387  155.4241 H   0  0  0  0  0  0  0  0  0  0  0  0  # atno 8010 bound_to 7997
  140.5925  143.8766  150.6887 H   0  0  0  0  0  0  0  0  0  0  0  0  # atno 10167 bound_to 10162
  156.0082  130.4559  150.3718 H   0  0  0  0  0  0  0  0  0  0  0  0  # atno 10718 bound_to 10713
  153.9968  135.6698  153.4757 H   0  0  0  0  0  0  0  0  0  0  0  0  # atno 10763 bound_to 10752
  153.0680  135.4990  154.8239 H   0  0  0  0  0  0  0  0  0  0  0  0  # atno 10764 bound_to 10752
  154.7076  135.3091  154.9209 H   0  0  0  0  0  0  0  0  0  0  0  0  # atno 10765 bound_to 10752
  140.7377  133.8696  155.8943 H   0  0  0  0  0  0  0  0  0  0  0  0  # atno 11005 bound_to 11000
  146.0953  139.3945  143.0380 LP  0  0  0  0  0  0  0  0  0  0  0  0  # atno 17320 bound_to 7965
  145.7654  140.9918  143.1178 LP  0  0  0  0  0  0  0  0  0  0  0  0  # atno 17321 bound_to 7965
  140.2293  143.3748  152.1579 LP  0  0  0  0  0  0  0  0  0  0  0  0  # atno 17342 bound_to 10162
  139.5237  144.7074  151.5311 LP  0  0  0  0  0  0  0  0  0  0  0  0  # atno 17343 bound_to 10162
  157.1802  131.0390  151.2752 LP  0  0  0  0  0  0  0  0  0  0  0  0  # atno 17370 bound_to 10713
  157.4152  130.7407  149.6870 LP  0  0  0  0  0  0  0  0  0  0  0  0  # atno 17371 bound_to 10713
  140.9865  134.1336  157.4448 LP  0  0  0  0  0  0  0  0  0  0  0  0  # atno 17394 bound_to 11000
  139.8812  135.0027  156.6142 LP  0  0  0  0  0  0  0  0  0  0  0  0  # atno 17395 bound_to 11000

$$$$
