AV-unprocessed.smi:2013|AV-procd|sdf|8159|dock6
  -GOLD-   2272010403D 1   1.00000     0.00000
 Structure written by MMmdl.
 50 51  0  0  0  0  0  0  0  0  1 V2000
  147.0218  133.2029  152.1121 C   0  0  0  0  0  0  0  0  0  0  0  0
  148.2861  133.2417  152.9883 C   0  0  0  0  0  0  0  0  0  0  0  0
  148.7423  131.8183  153.3726 C   0  0  0  0  0  0  0  0  0  0  0  0
  148.1830  134.2840  154.1490 C   0  0  2  0  0  0  0  0  0  0  0  0
  149.5339  134.5597  154.8623 C   0  0  0  0  0  0  0  0  0  0  0  0
  150.1436  135.8020  154.4042 N   0  0  0  0  0  0  0  0  0  0  0  0
  151.2815  136.3153  154.8904 C   0  0  0  0  0  0  0  0  0  0  0  0
  151.9212  135.7892  155.8023 O   0  0  0  0  0  0  0  0  0  0  0  0
  151.7486  137.6287  154.2474 C   0  0  0  0  0  0  0  0  0  0  0  0
  150.9544  138.7962  154.6525 N   0  0  0  0  0  0  0  0  0  0  0  0
  149.6287  138.8858  154.2700 C   0  0  0  0  0  0  0  0  0  0  0  0
  148.8230  139.9151  154.6102 C   0  0  0  0  0  0  0  0  0  0  0  0
  149.3222  141.0204  155.4190 C   0  0  0  0  0  0  0  0  0  0  0  0
  148.6177  141.9675  155.7706 O   0  0  0  0  0  0  0  0  0  0  0  0
  150.6858  140.9127  155.7829 N   0  0  0  0  0  0  0  0  0  0  0  0
  151.2567  141.9578  156.6072 C   0  0  0  0  0  0  0  0  0  0  0  0
  151.5185  139.8237  155.4393 C   0  0  0  0  0  0  0  0  0  0  0  0
  152.6926  139.7546  155.8114 O   0  0  0  0  0  0  0  0  0  0  0  0
  147.0300  134.0999  155.0535 N   0  0  0  0  0  0  0  0  0  0  0  0
  146.8518  135.2058  155.9928 C   0  0  0  0  0  0  0  0  0  0  0  0
  145.5657  135.0498  156.8207 C   0  0  0  0  0  0  0  0  0  0  0  0
  145.5950  133.8039  157.5087 O   0  0  0  0  0  0  0  0  0  0  0  0
  145.7175  132.6938  156.6259 C   0  0  0  0  0  0  0  0  0  0  0  0
  146.9967  132.8329  155.7815 C   0  0  0  0  0  0  0  0  0  0  0  0
  146.1751  132.7738  152.6485 H   0  0  0  0  0  0  0  0  0  0  0  0
  147.1832  132.5996  151.2185 H   0  0  0  0  0  0  0  0  0  0  0  0
  146.7385  134.2038  151.7849 H   0  0  0  0  0  0  0  0  0  0  0  0
  149.0727  133.6156  152.3316 H   0  0  0  0  0  0  0  0  0  0  0  0
  147.9991  131.2741  153.9499 H   0  0  0  0  0  0  0  0  0  0  0  0
  149.6727  131.8214  153.9391 H   0  0  0  0  0  0  0  0  0  0  0  0
  148.9280  131.2283  152.4747 H   0  0  0  0  0  0  0  0  0  0  0  0
  147.9690  135.2115  153.6149 H   0  0  0  0  0  0  0  0  0  0  0  0
  149.3919  134.6359  155.9403 H   0  0  0  0  0  0  0  0  0  0  0  0
  150.2350  133.7410  154.6982 H   0  0  0  0  0  0  0  0  0  0  0  0
  149.6744  136.2965  153.6591 H   0  0  0  0  0  0  0  0  0  0  0  0
  152.8013  137.7918  154.4841 H   0  0  0  0  0  0  0  0  0  0  0  0
  151.7062  137.5116  153.1636 H   0  0  0  0  0  0  0  0  0  0  0  0
  149.2102  138.0889  153.6724 H   0  0  0  0  0  0  0  0  0  0  0  0
  147.7939  139.9193  154.2825 H   0  0  0  0  0  0  0  0  0  0  0  0
  152.3014  142.1037  156.3283 H   0  0  0  0  0  0  0  0  0  0  0  0
  151.1612  141.6307  157.6435 H   0  0  0  0  0  0  0  0  0  0  0  0
  150.7297  142.8973  156.4366 H   0  0  0  0  0  0  0  0  0  0  0  0
  147.6976  135.2630  156.6776 H   0  0  0  0  0  0  0  0  0  0  0  0
  146.8183  136.1529  155.4534 H   0  0  0  0  0  0  0  0  0  0  0  0
  145.4825  135.8571  157.5484 H   0  0  0  0  0  0  0  0  0  0  0  0
  144.6836  135.1019  156.1805 H   0  0  0  0  0  0  0  0  0  0  0  0
  145.7479  131.7746  157.2106 H   0  0  0  0  0  0  0  0  0  0  0  0
  144.8378  132.6350  155.9834 H   0  0  0  0  0  0  0  0  0  0  0  0
  147.0336  131.9948  155.0930 H   0  0  0  0  0  0  0  0  0  0  0  0
  147.8658  132.7506  156.4347 H   0  0  0  0  0  0  0  0  0  0  0  0
  1  2  1  0  0  0  0
  1 25  1  0  0  0  0
  1 26  1  0  0  0  0
  1 27  1  0  0  0  0
  2  3  1  0  0  0  0
  2  4  1  0  0  0  0
  2 28  1  0  0  0  0
  3 29  1  0  0  0  0
  3 30  1  0  0  0  0
  3 31  1  0  0  0  0
  4  5  1  0  0  0  0
  4 19  1  0  0  0  0
  4 32  1  0  0  0  0
  5  6  1  0  0  0  0
  5 33  1  0  0  0  0
  5 34  1  0  0  0  0
  6  7  1  0  0  0  0
  6 35  1  0  0  0  0
  7  8  2  0  0  0  0
  7  9  1  0  0  0  0
  9 10  1  0  0  0  0
  9 36  1  0  0  0  0
  9 37  1  0  0  0  0
 10 17  1  0  0  0  0
 10 11  1  0  0  0  0
 11 12  2  0  0  0  0
 11 38  1  0  0  0  0
 12 13  1  0  0  0  0
 12 39  1  0  0  0  0
 13 14  2  0  0  0  0
 13 15  1  0  0  0  0
 15 16  1  0  0  0  0
 15 17  1  0  0  0  0
 16 40  1  0  0  0  0
 16 41  1  0  0  0  0
 16 42  1  0  0  0  0
 17 18  2  0  0  0  0
 19 24  1  0  0  0  0
 19 20  1  0  0  0  0
 20 21  1  0  0  0  0
 20 43  1  0  0  0  0
 20 44  1  0  0  0  0
 21 22  1  0  0  0  0
 21 45  1  0  0  0  0
 21 46  1  0  0  0  0
 22 23  1  0  0  0  0
 23 24  1  0  0  0  0
 23 47  1  0  0  0  0
 23 48  1  0  0  0  0
 24 49  1  0  0  0  0
 24 50  1  0  0  0  0
M  END
> <s_m_source_file>
AV-unprocessed.smi

> <i_m_source_file_index>
2013

> <i_lp_mmshare_version>
43012

> <i_f3d_flags>
0

> <s_epik_input>
W0NIMl0xW0NIMl1PW0NIMl1bQ0gyXU4xW0NASF0oW0NIXShbQ0gzXSlbQ0gzXSlbQ0gyXVtOSF1DKD1PKVtDSDJdbjJbY0hdW2NIXWMoPU8pbihbQ0gzXSljMj1P

> <s_epik_cmdline>
J2VwaWtfcHl0aG9uJywgJy1waCcsICc3LjAnLCAnLXRuJywgJzgnLCAnLW1hJywgJzIwMCcsICctbWV0YWxfYmluZGluZycsICctaW1hZScsICc8aW5maWxlLm1hZT4nLCAnLW9tYWUnLCAnPG91dGZpbGUubWFlPic=

> <r_lp_tautomer_probability>
1

> <r_epik_Ionization_Penalty>
0.45351

> <r_epik_Ionization_Penalty_Charging>
1.24653e-08

> <r_epik_Ionization_Penalty_Neutral>
0.45351

> <r_epik_State_Penalty>
0.456487

> <r_epik_Charging_Adjusted_Penalty>
0.456487

> <i_epik_Tot_Q>
0

> <i_epik_Tot_abs_Q>
0

> <r_epik_Metal_State_Penalty>
0.456449

> <b_epik_Metal_Only>
0

> <s_lp_Force_Field>
OPLS_2005

> <r_lp_Energy>
47.2128

> <b_lp_Chiralities_Consistent>
1

> <s_lp_Variant>
AV-unprocessed.smi:2013-3

> <Gold.Version>
5.8.1

> <Gold.Id.Protein>
6NUR|6NUR_protein|mol2

> <Gold.PLP.Fitness>
45.4840

> <Gold.PLP.PLP>
-35.0730

> <Gold.PLP.part.hbond>
-3.6239

> <Gold.PLP.part.metal>
0.0000

> <Gold.PLP.part.buried>
0.7060

> <Gold.PLP.part.nonpolar>
-34.0951

> <Gold.PLP.part.repulsive>
2.1731

> <Gold.PLP.ligand.clash>
0.0000

> <Gold.PLP.ligand.torsion>
1.0419

> <Gold.PLP.Chemscore.Hbond>
3.0000

> <Gold.PLP.Chemscore.CHOScore>
1.0000

> <Gold.PLP.Chemscore.Metal>
0.0000

> <Gold.Chemscore.Hbonds>
donor molecule, donor type, donor heavy atom, donor atom, acceptor molecule, acceptor atom, score
      L1  H     6    35       P1  7948  0.93
      P1  H  7997  8010       L1    18  1.00
      P1  H 10752 10763       L1     8  0.99
      L1  C    11    38       P1  7948  0.87

> <Gold.PLP.Chemscore.Internal.Correction>
0.4948

> <Gold.Rescore>
     Score         DG    S(hbond)    S(metal)    S(lipo)     H(rot)  DE(clash)    DE(int)     intcor
     13.20     -14.82       2.52        0.00      55.98       2.20       0.29       1.33       ----

> <Gold.Chemscore.Fitness>
13.1984

> <Gold.Chemscore.DG>
-14.8201

> <Gold.Chemscore.ZeroCoef>
-5.4800

> <Gold.Chemscore.Hbond>
2.5248

> <Gold.Chemscore.Metal>
0.0000

> <Gold.Chemscore.Lipo>
55.9759

> <Gold.Chemscore.Internal_Hbond>
0.0000

> <Gold.Chemscore.DEClash>
0.2892

> <Gold.Chemscore.DEInternal>
1.3324

> <Gold.Chemscore.Rot>
2.2039

> <Gold.Chemscore.Internal.Correction>
   9.000000E+99

> <Gold.Chemscore.Hbonds>
donor molecule, donor type, donor heavy atom, donor atom, acceptor molecule, acceptor atom, score
      L1  H     6    35       P1  7948  0.40
      P1  H  7997  8010       L1    18  1.00
      P1  H 10752 10763       L1     8  0.44

> <Gold.Chemscore.Hbond.Weighted>
-8.4329

> <Gold.Chemscore.Metal.Weighted>
-0.0000

> <Gold.Chemscore.Lipo.Weighted>
-6.5492

> <Gold.Chemscore.Internal_Hbond.Weighted>
0.0000

> <Gold.Chemscore.DEClash.Weighted>
0.2892

> <Gold.Chemscore.DEInternal.Weighted>
1.3324

> <Gold.Chemscore.Rot.Weighted>
5.6420

> <Gold.Chemscore.Internal.Correction.Weighted>
   9.000000E+99

> <Gold.Protein.RotatedTorsions>
[ 6907 6896 6895 6894 ] final   -7.00 input  -60.11 | X-H torsion
[ 7974 7965 7964 7962 ] final -127.47 input  175.53 | X-H torsion
[ 8008 7997 7996 7995 ] final   93.38 input   59.86 | X-H torsion
[ 10167 10162 10161 10158 ] final  102.72 input  -65.29 | X-H torsion
[ 10718 10713 10712 10709 ] final   21.20 input   66.30 | X-H torsion
[ 10763 10752 10751 10750 ] final  102.40 input  -60.55 | X-H torsion
[ 11005 11000 10999 10996 ] final   42.06 input  -57.11 | X-H torsion

> <Gold.Protein.ActiveResidues>
 VAL166  LYS551  ARG553  GLY616  TRP617  ASP618  TYR619  PRO620  LYS621  CYS622 
 ASP623  PHE694  ASN695  SER759  ASP760  ASP761  ALA762  ILE779  LEU786  VAL792 
 PHE793  MET794  SER795  GLU796  ALA797  LYS798  CYS799  TRP800  GLU811  SER814 

> <Gold.Protein.RotatedAtoms>
  151.4566  135.1034  159.9712 H   0  0  0  0  0  0  0  0  0  0  0  0  # atno 6907 bound_to 6896
  152.4868  133.8391  159.7154 H   0  0  0  0  0  0  0  0  0  0  0  0  # atno 6908 bound_to 6896
  150.8985  133.7089  159.2912 H   0  0  0  0  0  0  0  0  0  0  0  0  # atno 6909 bound_to 6896
  144.9768  140.7601  143.4637 H   0  0  0  0  0  0  0  0  0  0  0  0  # atno 7974 bound_to 7965
  156.0460  140.3313  155.7297 H   0  0  0  0  0  0  0  0  0  0  0  0  # atno 8008 bound_to 7997
  155.5672  140.0624  157.2832 H   0  0  0  0  0  0  0  0  0  0  0  0  # atno 8009 bound_to 7997
  154.4414  140.1867  156.0831 H   0  0  0  0  0  0  0  0  0  0  0  0  # atno 8010 bound_to 7997
  139.7325  144.7032  151.0700 H   0  0  0  0  0  0  0  0  0  0  0  0  # atno 10167 bound_to 10162
  157.1352  130.6608  149.5964 H   0  0  0  0  0  0  0  0  0  0  0  0  # atno 10718 bound_to 10713
  153.3391  135.4012  155.1557 H   0  0  0  0  0  0  0  0  0  0  0  0  # atno 10763 bound_to 10752
  154.8640  135.3629  154.5369 H   0  0  0  0  0  0  0  0  0  0  0  0  # atno 10764 bound_to 10752
  153.5813  135.7076  153.5522 H   0  0  0  0  0  0  0  0  0  0  0  0  # atno 10765 bound_to 10752
  140.1775  134.4145  155.8220 H   0  0  0  0  0  0  0  0  0  0  0  0  # atno 11005 bound_to 11000
  145.2479  139.2044  143.4958 LP  0  0  0  0  0  0  0  0  0  0  0  0  # atno 17320 bound_to 7965
  146.3397  140.2386  142.8595 LP  0  0  0  0  0  0  0  0  0  0  0  0  # atno 17321 bound_to 7965
  140.7773  143.5025  150.9753 LP  0  0  0  0  0  0  0  0  0  0  0  0  # atno 17342 bound_to 10162
  139.8714  143.7188  152.3166 LP  0  0  0  0  0  0  0  0  0  0  0  0  # atno 17343 bound_to 10162
  155.9800  130.4797  150.6746 LP  0  0  0  0  0  0  0  0  0  0  0  0  # atno 17370 bound_to 10713
  157.4357  131.0855  151.0994 LP  0  0  0  0  0  0  0  0  0  0  0  0  # atno 17371 bound_to 10713
  141.2221  133.6985  156.7872 LP  0  0  0  0  0  0  0  0  0  0  0  0  # atno 17394 bound_to 11000
  140.2306  134.8689  157.3472 LP  0  0  0  0  0  0  0  0  0  0  0  0  # atno 17395 bound_to 11000

$$$$
