AV-unprocessed.smi:1421|AV-procd|sdf|5791|dock3
  -GOLD-   22720 5443D 1   1.00000     0.00000
 Structure written by MMmdl.
 44 45  0  0  0  0  0  0  0  0  2 V2000
  145.6268  137.3062  162.4862 C   0  0  0  0  0  0  0  0  0  0  0  0
  146.9147  136.1992  161.7678 S   0  0  0  0  0  0  0  0  0  0  0  0
  147.6703  135.6974  162.9252 O   0  0  0  0  0  0  0  0  0  0  0  0
  146.1945  135.1986  160.9623 O   0  0  0  0  0  0  0  0  0  0  0  0
  147.8139  137.2312  160.8889 N   0  5  0  0  0  0  0  0  0  0  0  0
  147.8353  137.1660  159.4347 C   0  0  0  0  0  0  0  0  0  0  0  0
  149.2732  136.8821  158.9483 C   0  0  0  0  0  0  0  0  0  0  0  0
  149.9508  138.0921  158.2873 C   0  0  0  0  0  0  0  0  0  0  0  0
  149.7917  138.3285  157.0874 O   0  0  0  0  0  0  0  0  0  0  0  0
  150.7405  138.8362  159.0769 N   0  0  0  0  0  0  0  0  0  0  0  0
  151.4605  140.0263  158.6442 C   0  0  0  0  0  0  0  0  0  0  0  0
  152.7391  140.2649  159.4439 C   0  0  0  0  0  0  0  0  0  0  0  0
  153.5625  139.1669  159.7816 C   0  0  0  0  0  0  0  0  0  0  0  0
  154.7235  139.3815  160.5454 C   0  0  0  0  0  0  0  0  0  0  0  0
  155.0171  140.6939  160.9540 C   0  0  0  0  0  0  0  0  0  0  0  0
  154.2404  141.7528  160.6473 N   0  0  0  0  0  0  0  0  0  0  0  0
  153.1209  141.5532  159.9092 C   0  0  0  0  0  0  0  0  0  0  0  0
  152.3548  142.6882  159.5887 N   0  0  0  0  0  0  0  0  0  0  0  0
  151.8807  143.5018  160.7031 C   0  0  0  0  0  0  0  0  0  0  0  0
  150.9002  144.5686  160.1861 C   0  0  0  0  0  0  0  0  0  0  0  0
  151.5351  145.3505  159.1778 O   0  0  0  0  0  0  0  0  0  0  0  0
  151.9393  144.5621  158.0612 C   0  0  0  0  0  0  0  0  0  0  0  0
  152.9403  143.4878  158.5201 C   0  0  0  0  0  0  0  0  0  0  0  0
  145.0153  136.7350  163.1836 H   0  0  0  0  0  0  0  0  0  0  0  0
  144.9895  137.7018  161.6964 H   0  0  0  0  0  0  0  0  0  0  0  0
  146.1075  138.1274  163.0169 H   0  0  0  0  0  0  0  0  0  0  0  0
  147.1719  136.3876  159.0562 H   0  0  0  0  0  0  0  0  0  0  0  0
  147.4848  138.0988  158.9906 H   0  0  0  0  0  0  0  0  0  0  0  0
  149.8868  136.5427  159.7848 H   0  0  0  0  0  0  0  0  0  0  0  0
  149.2640  136.0636  158.2271 H   0  0  0  0  0  0  0  0  0  0  0  0
  150.8362  138.5671  160.0453 H   0  0  0  0  0  0  0  0  0  0  0  0
  151.6515  139.9358  157.5757 H   0  0  0  0  0  0  0  0  0  0  0  0
  150.8226  140.9022  158.7718 H   0  0  0  0  0  0  0  0  0  0  0  0
  153.3077  138.1656  159.4660 H   0  0  0  0  0  0  0  0  0  0  0  0
  155.3699  138.5598  160.8158 H   0  0  0  0  0  0  0  0  0  0  0  0
  155.8981  140.9001  161.5435 H   0  0  0  0  0  0  0  0  0  0  0  0
  151.3920  142.8682  161.4441 H   0  0  0  0  0  0  0  0  0  0  0  0
  152.7251  143.9877  161.1942 H   0  0  0  0  0  0  0  0  0  0  0  0
  149.9963  144.1054  159.7870 H   0  0  0  0  0  0  0  0  0  0  0  0
  150.5909  145.2224  161.0016 H   0  0  0  0  0  0  0  0  0  0  0  0
  151.0673  144.1046  157.5910 H   0  0  0  0  0  0  0  0  0  0  0  0
  152.3997  145.2106  157.3158 H   0  0  0  0  0  0  0  0  0  0  0  0
  153.8534  143.9600  158.8853 H   0  0  0  0  0  0  0  0  0  0  0  0
  153.2226  142.8548  157.6780 H   0  0  0  0  0  0  0  0  0  0  0  0
  1  2  1  0  0  0  0
  1 24  1  0  0  0  0
  1 25  1  0  0  0  0
  1 26  1  0  0  0  0
  2  3  2  0  0  0  0
  2  4  2  0  0  0  0
  2  5  1  0  0  0  0
  5  6  1  0  0  0  0
  6  7  1  0  0  0  0
  6 27  1  0  0  0  0
  6 28  1  0  0  0  0
  7  8  1  0  0  0  0
  7 29  1  0  0  0  0
  7 30  1  0  0  0  0
  8  9  2  0  0  0  0
  8 10  1  0  0  0  0
 10 11  1  0  0  0  0
 10 31  1  0  0  0  0
 11 12  1  0  0  0  0
 11 32  1  0  0  0  0
 11 33  1  0  0  0  0
 12 17  1  0  0  0  0
 12 13  2  0  0  0  0
 13 14  1  0  0  0  0
 13 34  1  0  0  0  0
 14 15  2  0  0  0  0
 14 35  1  0  0  0  0
 15 16  1  0  0  0  0
 15 36  1  0  0  0  0
 16 17  2  0  0  0  0
 17 18  1  0  0  0  0
 18 23  1  0  0  0  0
 18 19  1  0  0  0  0
 19 20  1  0  0  0  0
 19 37  1  0  0  0  0
 19 38  1  0  0  0  0
 20 21  1  0  0  0  0
 20 39  1  0  0  0  0
 20 40  1  0  0  0  0
 21 22  1  0  0  0  0
 22 23  1  0  0  0  0
 22 41  1  0  0  0  0
 22 42  1  0  0  0  0
 23 43  1  0  0  0  0
 23 44  1  0  0  0  0
M  CHG  1   5  -1
M  END
> <s_m_source_file>
AV-unprocessed.smi

> <i_m_source_file_index>
1421

> <i_lp_mmshare_version>
43012

> <i_f3d_flags>
0

> <s_epik_input>
W0NIM11TKD1PKSg9TylbTkhdW0NIMl1bQ0gyXUMoPU8pW05IXVtDSDJdYzFbY0hdW2NIXVtjSF1uYzFOMltDSDJdW0NIMl1PW0NIMl1bQ0gyXTI=

> <s_epik_cmdline>
J2VwaWtfcHl0aG9uJywgJy1waCcsICc3LjAnLCAnLXRuJywgJzgnLCAnLW1hJywgJzIwMCcsICctbWV0YWxfYmluZGluZycsICctaW1hZScsICc8aW5maWxlLm1hZT4nLCAnLW9tYWUnLCAnPG91dGZpbGUubWFlPic=

> <r_lp_tautomer_probability>
1

> <r_epik_Ionization_Penalty>
6.31253

> <r_epik_Ionization_Penalty_Charging>
6.30704

> <r_epik_Ionization_Penalty_Neutral>
0.00548981

> <r_epik_State_Penalty>
6.31049

> <r_epik_Charging_Adjusted_Penalty>
12.6175

> <i_epik_Tot_Q>
-1

> <i_epik_Tot_abs_Q>
1

> <r_epik_Metal_State_Penalty>
2.24651

> <b_epik_Metal_Only>
1

> <s_lp_Force_Field>
OPLS_2005

> <r_lp_Energy>
12.571

> <b_lp_Chiralities_Consistent>
1

> <s_lp_Variant>
AV-unprocessed.smi:1421-2

> <Gold.Version>
5.8.1

> <Gold.Id.Protein>
6NUR|6NUR_protein|mol2

> <Gold.PLP.Fitness>
48.1843

> <Gold.PLP.PLP>
-40.8660

> <Gold.PLP.part.hbond>
-2.9659

> <Gold.PLP.part.metal>
0.0000

> <Gold.PLP.part.buried>
-6.0231

> <Gold.PLP.part.nonpolar>
-32.6744

> <Gold.PLP.part.repulsive>
0.3170

> <Gold.PLP.ligand.clash>
0.0000

> <Gold.PLP.ligand.torsion>
1.8649

> <Gold.PLP.Chemscore.Hbond>
3.2640

> <Gold.PLP.Chemscore.CHOScore>
0.0000

> <Gold.PLP.Chemscore.Metal>
0.0000

> <Gold.Chemscore.Hbonds>
donor molecule, donor type, donor heavy atom, donor atom, acceptor molecule, acceptor atom, score
      P1  H  6931  6943       L1     5  1.73
      P1  H  6934  6947       L1     5  1.16

> <Gold.PLP.Chemscore.Internal.Correction>
1.2561

> <Gold.Rescore>
     Score         DG    S(hbond)    S(metal)    S(lipo)     H(rot)  DE(clash)    DE(int)     intcor
     11.20     -13.20       0.91        0.00      94.03       2.46       0.08       1.92       ----

> <Gold.Chemscore.Fitness>
11.2020

> <Gold.Chemscore.DG>
-13.2004

> <Gold.Chemscore.ZeroCoef>
-5.4800

> <Gold.Chemscore.Hbond>
0.9050

> <Gold.Chemscore.Metal>
0.0000

> <Gold.Chemscore.Lipo>
94.0311

> <Gold.Chemscore.Internal_Hbond>
0.0000

> <Gold.Chemscore.DEClash>
0.0781

> <Gold.Chemscore.DEInternal>
1.9204

> <Gold.Chemscore.Rot>
2.4625

> <Gold.Chemscore.Internal.Correction>
   9.000000E+99

> <Gold.Chemscore.Hbonds>
donor molecule, donor type, donor heavy atom, donor atom, acceptor molecule, acceptor atom, score
      P1  H  6931  6943       L1     5  0.76
      P1  H  6934  6947       L1     5  0.05

> <Gold.Chemscore.Hbond.Weighted>
-3.0228

> <Gold.Chemscore.Metal.Weighted>
-0.0000

> <Gold.Chemscore.Lipo.Weighted>
-11.0016

> <Gold.Chemscore.Internal_Hbond.Weighted>
0.0000

> <Gold.Chemscore.DEClash.Weighted>
0.0781

> <Gold.Chemscore.DEInternal.Weighted>
1.9204

> <Gold.Chemscore.Rot.Weighted>
6.3040

> <Gold.Chemscore.Internal.Correction.Weighted>
   9.000000E+99

> <Gold.Protein.RotatedTorsions>
[ 6907 6896 6895 6894 ] final  -42.32 input  -60.11 | X-H torsion
[ 7974 7965 7964 7962 ] final -150.29 input  175.53 | X-H torsion
[ 8008 7997 7996 7995 ] final  149.93 input   59.86 | X-H torsion
[ 10167 10162 10161 10158 ] final  175.46 input  -65.29 | X-H torsion
[ 10718 10713 10712 10709 ] final  105.98 input   66.30 | X-H torsion
[ 10763 10752 10751 10750 ] final  -34.64 input  -60.55 | X-H torsion
[ 11005 11000 10999 10996 ] final  -41.79 input  -57.11 | X-H torsion

> <Gold.Protein.ActiveResidues>
 VAL166  LYS551  ARG553  GLY616  TRP617  ASP618  TYR619  PRO620  LYS621  CYS622 
 ASP623  PHE694  ASN695  SER759  ASP760  ASP761  ALA762  ILE779  LEU786  VAL792 
 PHE793  MET794  SER795  GLU796  ALA797  LYS798  CYS799  TRP800  GLU811  SER814 

> <Gold.Protein.RotatedAtoms>
  150.9565  134.8959  159.7704 H   0  0  0  0  0  0  0  0  0  0  0  0  # atno 6907 bound_to 6896
  152.5140  134.3732  159.9335 H   0  0  0  0  0  0  0  0  0  0  0  0  # atno 6908 bound_to 6896
  151.3746  133.3802  159.2738 H   0  0  0  0  0  0  0  0  0  0  0  0  # atno 6909 bound_to 6896
  144.7916  140.4952  143.5768 H   0  0  0  0  0  0  0  0  0  0  0  0  # atno 7974 bound_to 7965
  156.2736  140.2088  156.5937 H   0  0  0  0  0  0  0  0  0  0  0  0  # atno 8008 bound_to 7997
  154.6962  140.0525  157.0436 H   0  0  0  0  0  0  0  0  0  0  0  0  # atno 8009 bound_to 7997
  155.0798  140.3185  155.4608 H   0  0  0  0  0  0  0  0  0  0  0  0  # atno 8010 bound_to 7997
  139.5178  144.3029  152.0362 H   0  0  0  0  0  0  0  0  0  0  0  0  # atno 10167 bound_to 10162
  157.6685  131.0840  150.5939 H   0  0  0  0  0  0  0  0  0  0  0  0  # atno 10718 bound_to 10713
  153.8501  135.6849  153.4793 H   0  0  0  0  0  0  0  0  0  0  0  0  # atno 10763 bound_to 10752
  153.1402  135.4660  154.9482 H   0  0  0  0  0  0  0  0  0  0  0  0  # atno 10764 bound_to 10752
  154.7806  135.3267  154.7946 H   0  0  0  0  0  0  0  0  0  0  0  0  # atno 10765 bound_to 10752
  141.0271  133.6836  156.2506 H   0  0  0  0  0  0  0  0  0  0  0  0  # atno 11005 bound_to 11000
  145.5779  139.1487  143.3252 LP  0  0  0  0  0  0  0  0  0  0  0  0  # atno 17320 bound_to 7965
  146.2170  140.5910  142.9034 LP  0  0  0  0  0  0  0  0  0  0  0  0  # atno 17321 bound_to 7965
  140.2476  144.4203  150.6234 LP  0  0  0  0  0  0  0  0  0  0  0  0  # atno 17342 bound_to 10162
  140.6247  143.2180  151.6621 LP  0  0  0  0  0  0  0  0  0  0  0  0  # atno 17343 bound_to 10162
  156.6239  130.4413  149.5812 LP  0  0  0  0  0  0  0  0  0  0  0  0  # atno 17370 bound_to 10713
  156.2334  130.6808  151.1486 LP  0  0  0  0  0  0  0  0  0  0  0  0  # atno 17371 bound_to 10713
  140.6473  134.5104  157.5574 LP  0  0  0  0  0  0  0  0  0  0  0  0  # atno 17394 bound_to 11000
  139.9183  134.8201  156.1294 LP  0  0  0  0  0  0  0  0  0  0  0  0  # atno 17395 bound_to 11000

$$$$
