AV-unprocessed.smi:229|AV-procd|sdf|1761|dock7
  -GOLD-   2262020293D 1   1.00000     0.00000
 Structure written by MMmdl.
 58 62  0  0  0  0  0  0  0  0  1 V2000
  152.6802  142.9079  159.9061 C   0  0  0  0  0  0  0  0  0  0  0  0
  152.9596  141.9232  158.7639 C   0  0  0  0  0  0  0  0  0  0  0  0
  152.8659  140.4546  159.2040 C   0  0  2  0  0  0  0  0  0  0  0  0
  153.8361  140.1374  160.3552 C   0  0  0  0  0  0  0  0  0  0  0  0
  153.7870  138.7132  160.6647 N   0  0  0  0  0  0  0  0  0  0  0  0
  154.3450  138.2867  161.8245 C   0  0  0  0  0  0  0  0  0  0  0  0
  154.1988  136.9925  162.2161 N   0  0  0  0  0  0  0  0  0  0  0  0
  154.7387  136.5699  163.3634 C   0  0  0  0  0  0  0  0  0  0  0  0
  155.4557  137.2598  164.2526 N   0  0  0  0  0  0  0  0  0  0  0  0
  155.6137  138.5560  163.8597 C   0  0  0  0  0  0  0  0  0  0  0  0
  155.0952  139.1479  162.6737 C   0  0  0  0  0  0  0  0  0  0  0  0
  155.4692  140.4856  162.6103 N   0  0  0  0  0  0  0  0  0  0  0  0
  156.1646  140.6745  163.6986 C   0  0  0  0  0  0  0  0  0  0  0  0
  156.3062  139.5660  164.5024 N   0  0  0  0  0  0  0  0  0  0  0  0
  157.0295  139.4871  165.7598 C   0  0  0  0  0  0  0  0  0  0  0  0
  156.3531  140.2990  166.8863 C   0  0  1  0  0  0  0  0  0  0  0  0
  157.2221  140.3110  168.0033 O   0  0  0  0  0  0  0  0  0  0  0  0
  156.0696  141.7627  166.4928 C   0  0  1  0  0  0  0  0  0  0  0  0
  155.5888  142.6544  167.6386 C   0  0  0  0  0  0  0  0  0  0  0  0
  155.9466  144.0533  167.1682 C   0  0  0  0  0  0  0  0  0  0  0  0
  157.0473  143.8176  166.1310 C   0  0  0  0  0  0  0  0  0  0  0  0
  157.2809  142.4151  166.1394 O   0  0  0  0  0  0  0  0  0  0  0  0
  154.0599  137.8679  159.5083 C   0  0  0  0  0  0  0  0  0  0  0  0
  153.1189  138.2205  158.3354 C   0  0  2  0  0  0  0  0  0  0  0  0
  151.6754  137.7520  158.5502 C   0  0  0  0  0  0  0  0  0  0  0  0
  151.5692  136.5017  157.6890 C   0  0  0  0  0  0  0  0  0  0  0  0
  152.3531  136.8475  156.5628 O   0  0  0  0  0  0  0  0  0  0  0  0
  153.5302  137.4768  157.0499 C   0  0  0  0  0  0  0  0  0  0  0  0
  153.1837  139.6276  158.0829 O   0  0  0  0  0  0  0  0  0  0  0  0
  152.7751  143.9379  159.5621 H   0  0  0  0  0  0  0  0  0  0  0  0
  153.3809  142.7659  160.7292 H   0  0  0  0  0  0  0  0  0  0  0  0
  151.6709  142.7819  160.2993 H   0  0  0  0  0  0  0  0  0  0  0  0
  152.2635  142.1076  157.9447 H   0  0  0  0  0  0  0  0  0  0  0  0
  153.9572  142.1187  158.3693 H   0  0  0  0  0  0  0  0  0  0  0  0
  151.8454  140.2564  159.5345 H   0  0  0  0  0  0  0  0  0  0  0  0
  154.8547  140.4145  160.0793 H   0  0  0  0  0  0  0  0  0  0  0  0
  153.5651  140.7217  161.2359 H   0  0  0  0  0  0  0  0  0  0  0  0
  154.5721  135.5300  163.6025 H   0  0  0  0  0  0  0  0  0  0  0  0
  156.6023  141.6320  163.9426 H   0  0  0  0  0  0  0  0  0  0  0  0
  157.1164  138.4383  166.0476 H   0  0  0  0  0  0  0  0  0  0  0  0
  158.0435  139.8460  165.5809 H   0  0  0  0  0  0  0  0  0  0  0  0
  155.4201  139.8119  167.1733 H   0  0  0  0  0  0  0  0  0  0  0  0
  158.0955  140.1102  167.7042 H   0  0  0  0  0  0  0  0  0  0  0  0
  155.3620  141.8177  165.6629 H   0  0  0  0  0  0  0  0  0  0  0  0
  154.5249  142.5403  167.8488 H   0  0  0  0  0  0  0  0  0  0  0  0
  156.1413  142.4236  168.5506 H   0  0  0  0  0  0  0  0  0  0  0  0
  155.0883  144.5394  166.7029 H   0  0  0  0  0  0  0  0  0  0  0  0
  156.2828  144.6802  167.9948 H   0  0  0  0  0  0  0  0  0  0  0  0
  156.7132  144.1244  165.1390 H   0  0  0  0  0  0  0  0  0  0  0  0
  157.9633  144.3609  166.3647 H   0  0  0  0  0  0  0  0  0  0  0  0
  155.0970  138.0268  159.2090 H   0  0  0  0  0  0  0  0  0  0  0  0
  153.9656  136.8101  159.7528 H   0  0  0  0  0  0  0  0  0  0  0  0
  151.4248  137.5651  159.5950 H   0  0  0  0  0  0  0  0  0  0  0  0
  150.9762  138.4976  158.1691 H   0  0  0  0  0  0  0  0  0  0  0  0
  152.0024  135.6366  158.1942 H   0  0  0  0  0  0  0  0  0  0  0  0
  150.5422  136.2652  157.4108 H   0  0  0  0  0  0  0  0  0  0  0  0
  153.9541  138.1392  156.2944 H   0  0  0  0  0  0  0  0  0  0  0  0
  154.2702  136.7031  157.2603 H   0  0  0  0  0  0  0  0  0  0  0  0
  1  2  1  0  0  0  0
  1 30  1  0  0  0  0
  1 31  1  0  0  0  0
  1 32  1  0  0  0  0
  2  3  1  0  0  0  0
  2 33  1  0  0  0  0
  2 34  1  0  0  0  0
  3 29  1  0  0  0  0
  3  4  1  0  0  0  0
  3 35  1  0  0  0  0
  4  5  1  0  0  0  0
  4 36  1  0  0  0  0
  4 37  1  0  0  0  0
  5  6  1  0  0  0  0
  5 23  1  0  0  0  0
  6 11  1  0  0  0  0
  6  7  2  0  0  0  0
  7  8  1  0  0  0  0
  8  9  2  0  0  0  0
  8 38  1  0  0  0  0
  9 10  1  0  0  0  0
 10 14  1  0  0  0  0
 10 11  2  0  0  0  0
 11 12  1  0  0  0  0
 12 13  2  0  0  0  0
 13 14  1  0  0  0  0
 13 39  1  0  0  0  0
 14 15  1  0  0  0  0
 15 16  1  0  0  0  0
 15 40  1  0  0  0  0
 15 41  1  0  0  0  0
 16 17  1  0  0  0  0
 16 18  1  0  0  0  0
 16 42  1  0  0  0  0
 17 43  1  0  0  0  0
 18 22  1  0  0  0  0
 18 19  1  0  0  0  0
 18 44  1  0  0  0  0
 19 20  1  0  0  0  0
 19 45  1  0  0  0  0
 19 46  1  0  0  0  0
 20 21  1  0  0  0  0
 20 47  1  0  0  0  0
 20 48  1  0  0  0  0
 21 22  1  0  0  0  0
 21 49  1  0  0  0  0
 21 50  1  0  0  0  0
 23 24  1  0  0  0  0
 23 51  1  0  0  0  0
 23 52  1  0  0  0  0
 24 28  1  0  0  0  0
 24 25  1  0  0  0  0
 24 29  1  0  0  0  0
 25 26  1  0  0  0  0
 25 53  1  0  0  0  0
 25 54  1  0  0  0  0
 26 27  1  0  0  0  0
 26 55  1  0  0  0  0
 26 56  1  0  0  0  0
 27 28  1  0  0  0  0
 28 57  1  0  0  0  0
 28 58  1  0  0  0  0
M  END
> <s_m_source_file>
AV-unprocessed.smi

> <i_m_source_file_index>
229

> <i_lp_mmshare_version>
43012

> <i_f3d_flags>
0

> <s_epik_input>
W0NIMl0xT1tDSDJdW0NIMl1bQ0BdMTJbQ0gyXU4oW0NIMl1bQ0BIXShPMilbQ0gyXVtDSDNdKWMobltjSF1uMyljKGMzNCluW2NIXW40W0NIMl1bQ0BIXShbT0hdKVtDQEBIXTVbQ0gyXVtDSDJdW0NIMl1PNQ==

> <s_epik_cmdline>
J2VwaWtfcHl0aG9uJywgJy1waCcsICc3LjAnLCAnLXRuJywgJzgnLCAnLW1hJywgJzIwMCcsICctbWV0YWxfYmluZGluZycsICctaW1hZScsICc8aW5maWxlLm1hZT4nLCAnLW9tYWUnLCAnPG91dGZpbGUubWFlPic=

> <r_lp_tautomer_probability>
1

> <r_epik_Ionization_Penalty>
0.00318402

> <r_epik_Ionization_Penalty_Charging>
0

> <r_epik_Ionization_Penalty_Neutral>
0.00318402

> <r_epik_State_Penalty>
0.00215642

> <r_epik_Charging_Adjusted_Penalty>
0.00215642

> <i_epik_Tot_Q>
0

> <i_epik_Tot_abs_Q>
0

> <r_epik_Metal_State_Penalty>
-0

> <b_epik_Metal_Only>
0

> <s_lp_Force_Field>
OPLS_2005

> <r_lp_Energy>
54.7562

> <b_lp_Chiralities_Consistent>
1

> <s_lp_Variant>
AV-unprocessed.smi:229-15

> <Gold.Version>
5.8.1

> <Gold.Id.Protein>
6NUR|6NUR_protein|mol2

> <Gold.PLP.Fitness>
48.8627

> <Gold.PLP.PLP>
-44.0414

> <Gold.PLP.part.hbond>
-3.4779

> <Gold.PLP.part.metal>
0.0000

> <Gold.PLP.part.buried>
-6.1896

> <Gold.PLP.part.nonpolar>
-32.9671

> <Gold.PLP.part.repulsive>
0.0581

> <Gold.PLP.ligand.clash>
0.0000

> <Gold.PLP.ligand.torsion>
0.2874

> <Gold.PLP.Chemscore.Hbond>
1.6739

> <Gold.PLP.Chemscore.CHOScore>
0.0000

> <Gold.PLP.Chemscore.Metal>
0.0000

> <Gold.Chemscore.Hbonds>
donor molecule, donor type, donor heavy atom, donor atom, acceptor molecule, acceptor atom, score
      P1  H  7997  8009       L1    29  1.00
      P1  H 10752 10764       L1    27  0.45

> <Gold.PLP.Chemscore.Internal.Correction>
0.3744

> <Gold.Rescore>
     Score         DG    S(hbond)    S(metal)    S(lipo)     H(rot)  DE(clash)    DE(int)     intcor
     12.56     -15.39       1.42        0.00      97.89       2.46       0.10       2.73       ----

> <Gold.Chemscore.Fitness>
12.5572

> <Gold.Chemscore.DG>
-15.3866

> <Gold.Chemscore.ZeroCoef>
-5.4800

> <Gold.Chemscore.Hbond>
1.4219

> <Gold.Chemscore.Metal>
0.0000

> <Gold.Chemscore.Lipo>
97.8860

> <Gold.Chemscore.Internal_Hbond>
0.0000

> <Gold.Chemscore.DEClash>
0.1041

> <Gold.Chemscore.DEInternal>
2.7253

> <Gold.Chemscore.Rot>
2.4591

> <Gold.Chemscore.Internal.Correction>
   9.000000E+99

> <Gold.Chemscore.Hbonds>
donor molecule, donor type, donor heavy atom, donor atom, acceptor molecule, acceptor atom, score
      P1  H  7997  8009       L1    29  0.81
      P1  H 10752 10764       L1    27  0.22

> <Gold.Chemscore.Hbond.Weighted>
-4.7493

> <Gold.Chemscore.Metal.Weighted>
-0.0000

> <Gold.Chemscore.Lipo.Weighted>
-11.4527

> <Gold.Chemscore.Internal_Hbond.Weighted>
0.0000

> <Gold.Chemscore.DEClash.Weighted>
0.1041

> <Gold.Chemscore.DEInternal.Weighted>
2.7253

> <Gold.Chemscore.Rot.Weighted>
6.2953

> <Gold.Chemscore.Internal.Correction.Weighted>
   9.000000E+99

> <Gold.Protein.RotatedTorsions>
[ 6907 6896 6895 6894 ] final  -27.17 input  -60.11 | X-H torsion
[ 7974 7965 7964 7962 ] final -178.64 input  175.53 | X-H torsion
[ 8008 7997 7996 7995 ] final  162.12 input   59.86 | X-H torsion
[ 10167 10162 10161 10158 ] final  -90.58 input  -65.29 | X-H torsion
[ 10718 10713 10712 10709 ] final   14.03 input   66.30 | X-H torsion
[ 10763 10752 10751 10750 ] final  -41.46 input  -60.55 | X-H torsion
[ 11005 11000 10999 10996 ] final -175.63 input  -57.11 | X-H torsion

> <Gold.Protein.ActiveResidues>
 VAL166  LYS551  ARG553  GLY616  TRP617  ASP618  TYR619  PRO620  LYS621  CYS622 
 ASP623  PHE694  ASN695  SER759  ASP760  ASP761  ALA762  ILE779  LEU786  VAL792 
 PHE793  MET794  SER795  GLU796  ALA797  LYS798  CYS799  TRP800  GLU811  SER814 

> <Gold.Protein.RotatedAtoms>
  151.1506  135.0225  159.8666 H   0  0  0  0  0  0  0  0  0  0  0  0  # atno 6907 bound_to 6896
  152.5452  134.1392  159.8482 H   0  0  0  0  0  0  0  0  0  0  0  0  # atno 6908 bound_to 6896
  151.1477  133.4882  159.2628 H   0  0  0  0  0  0  0  0  0  0  0  0  # atno 6909 bound_to 6896
  144.7132  140.0837  143.6424 H   0  0  0  0  0  0  0  0  0  0  0  0  # atno 7974 bound_to 7965
  156.2054  140.1759  156.7810 H   0  0  0  0  0  0  0  0  0  0  0  0  # atno 8008 bound_to 7997
  154.5648  140.0693  156.8905 H   0  0  0  0  0  0  0  0  0  0  0  0  # atno 8009 bound_to 7997
  155.2781  140.3347  155.4262 H   0  0  0  0  0  0  0  0  0  0  0  0  # atno 8010 bound_to 7997
  140.3534  143.2879  151.9699 H   0  0  0  0  0  0  0  0  0  0  0  0  # atno 10167 bound_to 10162
  157.0332  130.6201  149.5739 H   0  0  0  0  0  0  0  0  0  0  0  0  # atno 10718 bound_to 10713
  153.9628  135.6737  153.4745 H   0  0  0  0  0  0  0  0  0  0  0  0  # atno 10763 bound_to 10752
  153.0830  135.4913  154.8537 H   0  0  0  0  0  0  0  0  0  0  0  0  # atno 10764 bound_to 10752
  154.7263  135.3128  154.8925 H   0  0  0  0  0  0  0  0  0  0  0  0  # atno 10765 bound_to 10752
  140.4611  134.6253  157.4843 H   0  0  0  0  0  0  0  0  0  0  0  0  # atno 11005 bound_to 11000
  145.9680  139.2848  143.1116 LP  0  0  0  0  0  0  0  0  0  0  0  0  # atno 17320 bound_to 7965
  145.9148  140.9155  143.0435 LP  0  0  0  0  0  0  0  0  0  0  0  0  # atno 17321 bound_to 7965
  139.4823  144.6056  151.7528 LP  0  0  0  0  0  0  0  0  0  0  0  0  # atno 17342 bound_to 10162
  140.5197  144.0899  150.6019 LP  0  0  0  0  0  0  0  0  0  0  0  0  # atno 17343 bound_to 10162
  156.0062  130.5149  150.7838 LP  0  0  0  0  0  0  0  0  0  0  0  0  # atno 17370 bound_to 10713
  157.5161  131.0928  151.0137 LP  0  0  0  0  0  0  0  0  0  0  0  0  # atno 17371 bound_to 10713
  139.9944  134.6934  155.9634 LP  0  0  0  0  0  0  0  0  0  0  0  0  # atno 17394 bound_to 11000
  141.1621  133.6538  156.4353 LP  0  0  0  0  0  0  0  0  0  0  0  0  # atno 17395 bound_to 11000

$$$$
