AV-unprocessed.smi:2198|AV-procd|sdf|8917|dock5
  -GOLD-   2272012133D 1   1.00000     0.00000
 Structure written by MMmdl.
 43 44  0  0  0  0  0  0  0  0  1 V2000
  150.2485  134.2300  155.0540 C   0  0  0  0  0  0  0  0  0  0  0  0
  150.3624  135.7363  154.9624 C   0  0  0  0  0  0  0  0  0  0  0  0
  149.1413  136.3892  154.9867 N   0  0  0  0  0  0  0  0  0  0  0  0
  149.1440  137.7710  154.9136 C   0  0  0  0  0  0  0  0  0  0  0  0
  147.7653  138.4069  154.9540 C   0  0  0  0  0  0  0  0  0  0  0  0
  150.3052  138.4670  154.8145 C   0  0  0  0  0  0  0  0  0  0  0  0
  150.3513  139.9914  154.7301 C   0  0  0  0  0  0  0  0  0  0  0  0
  151.1021  140.6839  155.8687 C   0  0  0  0  0  0  0  0  0  0  0  0
  152.2954  140.4453  156.0525 O   0  0  0  0  0  0  0  0  0  0  0  0
  150.3951  141.5433  156.6188 N   0  0  0  0  0  0  0  0  0  0  0  0
  150.9220  142.3219  157.7350 C   0  0  2  0  0  0  0  0  0  0  0  0
  151.6673  143.5705  157.2229 C   0  0  0  0  0  0  0  0  0  0  0  0
  152.2944  144.3599  158.3822 C   0  0  0  0  0  0  0  0  0  0  0  0
  153.2195  143.4711  159.2283 C   0  0  0  0  0  0  0  0  0  0  0  0
  152.4811  142.2245  159.7520 C   0  0  2  0  0  0  0  0  0  0  0  0
  153.4070  141.3358  160.5945 C   0  0  0  0  0  0  0  0  0  0  0  0
  151.8556  141.4382  158.5832 C   0  0  0  0  0  0  0  0  0  0  0  0
  151.5803  137.7118  154.7825 C   0  0  0  0  0  0  0  0  0  0  0  0
  152.6650  138.2828  154.6783 O   0  0  0  0  0  0  0  0  0  0  0  0
  151.5227  136.3113  154.8694 N   0  0  0  0  0  0  0  0  0  0  0  0
  148.2552  135.9099  155.0565 H   0  0  0  0  0  0  0  0  0  0  0  0
  151.2334  133.7687  155.1371 H   0  0  0  0  0  0  0  0  0  0  0  0
  149.7597  133.8322  154.1643 H   0  0  0  0  0  0  0  0  0  0  0  0
  149.6645  133.9433  155.9291 H   0  0  0  0  0  0  0  0  0  0  0  0
  147.6770  139.0746  155.8111 H   0  0  0  0  0  0  0  0  0  0  0  0
  146.9788  137.6555  155.0352 H   0  0  0  0  0  0  0  0  0  0  0  0
  147.5838  138.9830  154.0465 H   0  0  0  0  0  0  0  0  0  0  0  0
  149.3441  140.4065  154.6852 H   0  0  0  0  0  0  0  0  0  0  0  0
  150.8039  140.2713  153.7781 H   0  0  0  0  0  0  0  0  0  0  0  0
  149.4199  141.6755  156.3933 H   0  0  0  0  0  0  0  0  0  0  0  0
  150.0929  142.6417  158.3694 H   0  0  0  0  0  0  0  0  0  0  0  0
  152.4495  143.2739  156.5226 H   0  0  0  0  0  0  0  0  0  0  0  0
  150.9852  144.2165  156.6690 H   0  0  0  0  0  0  0  0  0  0  0  0
  152.8520  145.2121  157.9924 H   0  0  0  0  0  0  0  0  0  0  0  0
  151.5045  144.7698  159.0127 H   0  0  0  0  0  0  0  0  0  0  0  0
  154.0793  143.1674  158.6292 H   0  0  0  0  0  0  0  0  0  0  0  0
  153.6148  144.0491  160.0643 H   0  0  0  0  0  0  0  0  0  0  0  0
  151.6713  142.5619  160.4009 H   0  0  0  0  0  0  0  0  0  0  0  0
  154.2432  140.9607  160.0036 H   0  0  0  0  0  0  0  0  0  0  0  0
  152.8691  140.4754  160.9936 H   0  0  0  0  0  0  0  0  0  0  0  0
  153.8180  141.8878  161.4402 H   0  0  0  0  0  0  0  0  0  0  0  0
  151.2994  140.5831  158.9701 H   0  0  0  0  0  0  0  0  0  0  0  0
  152.6479  141.0304  157.9533 H   0  0  0  0  0  0  0  0  0  0  0  0
  1 22  1  0  0  0  0
  1 23  1  0  0  0  0
  1 24  1  0  0  0  0
  1  2  1  0  0  0  0
  2  3  1  0  0  0  0
  2 20  2  0  0  0  0
  3  4  1  0  0  0  0
  3 21  1  0  0  0  0
  4  6  2  0  0  0  0
  4  5  1  0  0  0  0
  5 25  1  0  0  0  0
  5 26  1  0  0  0  0
  5 27  1  0  0  0  0
  6 18  1  0  0  0  0
  6  7  1  0  0  0  0
  7  8  1  0  0  0  0
  7 28  1  0  0  0  0
  7 29  1  0  0  0  0
  8  9  2  0  0  0  0
  8 10  1  0  0  0  0
 10 11  1  0  0  0  0
 10 30  1  0  0  0  0
 11 17  1  0  0  0  0
 11 12  1  0  0  0  0
 11 31  1  0  0  0  0
 12 13  1  0  0  0  0
 12 32  1  0  0  0  0
 12 33  1  0  0  0  0
 13 14  1  0  0  0  0
 13 34  1  0  0  0  0
 13 35  1  0  0  0  0
 14 15  1  0  0  0  0
 14 36  1  0  0  0  0
 14 37  1  0  0  0  0
 15 16  1  0  0  0  0
 15 17  1  0  0  0  0
 15 38  1  0  0  0  0
 16 39  1  0  0  0  0
 16 40  1  0  0  0  0
 16 41  1  0  0  0  0
 17 42  1  0  0  0  0
 17 43  1  0  0  0  0
 18 19  2  0  0  0  0
 18 20  1  0  0  0  0
M  END
> <s_m_source_file>
AV-unprocessed.smi

> <i_m_source_file_index>
2198

> <i_lp_mmshare_version>
43012

> <i_f3d_flags>
0

> <s_epik_input>
W0NIM11jMW5jKFtDSDNdKWMoYyg9TylbbkhdMSlbQ0gyXUMoPU8pW05IXVtDQEBIXTJbQ0gyXVtDSDJdW0NIMl1bQ0BASF0oW0NIM10pW0NIMl0y

> <s_epik_cmdline>
J2VwaWtfcHl0aG9uJywgJy1waCcsICc3LjAnLCAnLXRuJywgJzgnLCAnLW1hJywgJzIwMCcsICctbWV0YWxfYmluZGluZycsICctaW1hZScsICc8aW5maWxlLm1hZT4nLCAnLW9tYWUnLCAnPG91dGZpbGUubWFlPic=

> <r_lp_tautomer_probability>
0.156392

> <r_epik_Ionization_Penalty>
0.0136514

> <r_epik_Ionization_Penalty_Charging>
0.0135207

> <r_epik_Ionization_Penalty_Neutral>
0.000130657

> <r_epik_State_Penalty>
1.15342

> <r_epik_Charging_Adjusted_Penalty>
1.16694

> <i_epik_Tot_Q>
0

> <i_epik_Tot_abs_Q>
0

> <r_epik_Metal_State_Penalty>
1.31404

> <b_epik_Metal_Only>
0

> <s_lp_Force_Field>
OPLS_2005

> <r_lp_Energy>
14.0485

> <b_lp_Chiralities_Consistent>
1

> <s_lp_Variant>
AV-unprocessed.smi:2198-7

> <Gold.Version>
5.8.1

> <Gold.Id.Protein>
6NUR|6NUR_protein|mol2

> <Gold.PLP.Fitness>
44.6577

> <Gold.PLP.PLP>
-39.4612

> <Gold.PLP.part.hbond>
-2.5943

> <Gold.PLP.part.metal>
0.0000

> <Gold.PLP.part.buried>
-2.2990

> <Gold.PLP.part.nonpolar>
-34.9855

> <Gold.PLP.part.repulsive>
0.2259

> <Gold.PLP.ligand.clash>
0.0000

> <Gold.PLP.ligand.torsion>
0.2694

> <Gold.PLP.Chemscore.Hbond>
1.9100

> <Gold.PLP.Chemscore.CHOScore>
0.0000

> <Gold.PLP.Chemscore.Metal>
0.0000

> <Gold.Chemscore.Hbonds>
donor molecule, donor type, donor heavy atom, donor atom, acceptor molecule, acceptor atom, score
      P1  H  7997  8010       L1     9  0.89
      P1  H 10752 10763       L1    20  1.00

> <Gold.PLP.Chemscore.Internal.Correction>
0.0054

> <Gold.Rescore>
     Score         DG    S(hbond)    S(metal)    S(lipo)     H(rot)  DE(clash)    DE(int)     intcor
     14.41     -19.18       1.81        0.00      97.84       1.48       1.38       3.38       ----

> <Gold.Chemscore.Fitness>
14.4108

> <Gold.Chemscore.DG>
-19.1791

> <Gold.Chemscore.ZeroCoef>
-5.4800

> <Gold.Chemscore.Hbond>
1.8086

> <Gold.Chemscore.Metal>
0.0000

> <Gold.Chemscore.Lipo>
97.8405

> <Gold.Chemscore.Internal_Hbond>
0.0000

> <Gold.Chemscore.DEClash>
1.3837

> <Gold.Chemscore.DEInternal>
3.3846

> <Gold.Chemscore.Rot>
1.4801

> <Gold.Chemscore.Internal.Correction>
   9.000000E+99

> <Gold.Chemscore.Hbonds>
donor molecule, donor type, donor heavy atom, donor atom, acceptor molecule, acceptor atom, score
      P1  H  7997  8010       L1     9  0.82
      P1  H 10752 10763       L1    20  0.81

> <Gold.Chemscore.Hbond.Weighted>
-6.0409

> <Gold.Chemscore.Metal.Weighted>
-0.0000

> <Gold.Chemscore.Lipo.Weighted>
-11.4473

> <Gold.Chemscore.Internal_Hbond.Weighted>
0.0000

> <Gold.Chemscore.DEClash.Weighted>
1.3837

> <Gold.Chemscore.DEInternal.Weighted>
3.3846

> <Gold.Chemscore.Rot.Weighted>
3.7891

> <Gold.Chemscore.Internal.Correction.Weighted>
   9.000000E+99

> <Gold.Protein.RotatedTorsions>
[ 6907 6896 6895 6894 ] final   40.81 input  -60.11 | X-H torsion
[ 7974 7965 7964 7962 ] final  -51.44 input  175.53 | X-H torsion
[ 8008 7997 7996 7995 ] final   84.99 input   59.86 | X-H torsion
[ 10167 10162 10161 10158 ] final  -73.12 input  -65.29 | X-H torsion
[ 10718 10713 10712 10709 ] final  -30.71 input   66.30 | X-H torsion
[ 10763 10752 10751 10750 ] final   51.69 input  -60.55 | X-H torsion
[ 11005 11000 10999 10996 ] final  -26.98 input  -57.11 | X-H torsion

> <Gold.Protein.ActiveResidues>
 VAL166  LYS551  ARG553  GLY616  TRP617  ASP618  TYR619  PRO620  LYS621  CYS622 
 ASP623  PHE694  ASN695  SER759  ASP760  ASP761  ALA762  ILE779  LEU786  VAL792 
 PHE793  MET794  SER795  GLU796  ALA797  LYS798  CYS799  TRP800  GLU811  SER814 

> <Gold.Protein.RotatedAtoms>
  152.1873  134.8702  160.0520 H   0  0  0  0  0  0  0  0  0  0  0  0  # atno 6907 bound_to 6896
  151.9604  133.3688  159.4041 H   0  0  0  0  0  0  0  0  0  0  0  0  # atno 6908 bound_to 6896
  150.6928  134.4170  159.5231 H   0  0  0  0  0  0  0  0  0  0  0  0  # atno 6909 bound_to 6896
  145.9189  140.7851  142.9657 H   0  0  0  0  0  0  0  0  0  0  0  0  # atno 7974 bound_to 7965
  155.9442  140.3406  155.6353 H   0  0  0  0  0  0  0  0  0  0  0  0  # atno 8008 bound_to 7997
  155.7002  140.0759  157.2432 H   0  0  0  0  0  0  0  0  0  0  0  0  # atno 8009 bound_to 7997
  154.4108  140.1641  156.2169 H   0  0  0  0  0  0  0  0  0  0  0  0  # atno 8010 bound_to 7997
  140.5136  143.2341  151.7551 H   0  0  0  0  0  0  0  0  0  0  0  0  # atno 10167 bound_to 10162
  156.3964  130.4382  149.7355 H   0  0  0  0  0  0  0  0  0  0  0  0  # atno 10718 bound_to 10713
  152.9786  135.5837  154.4456 H   0  0  0  0  0  0  0  0  0  0  0  0  # atno 10763 bound_to 10752
  154.4051  135.2769  155.2074 H   0  0  0  0  0  0  0  0  0  0  0  0  # atno 10764 bound_to 10752
  154.3888  135.6130  153.5885 H   0  0  0  0  0  0  0  0  0  0  0  0  # atno 10765 bound_to 10752
  140.9078  133.7481  156.0630 H   0  0  0  0  0  0  0  0  0  0  0  0  # atno 11005 bound_to 11000
  144.6751  140.1944  143.7393 LP  0  0  0  0  0  0  0  0  0  0  0  0  # atno 17320 bound_to 7965
  145.8575  139.2206  143.1736 LP  0  0  0  0  0  0  0  0  0  0  0  0  # atno 17321 bound_to 7965
  139.4903  144.4355  151.9824 LP  0  0  0  0  0  0  0  0  0  0  0  0  # atno 17342 bound_to 10162
  140.3449  144.3159  150.5960 LP  0  0  0  0  0  0  0  0  0  0  0  0  # atno 17343 bound_to 10162
  156.4389  130.7851  151.2872 LP  0  0  0  0  0  0  0  0  0  0  0  0  # atno 17370 bound_to 10713
  157.7502  131.0131  150.3411 LP  0  0  0  0  0  0  0  0  0  0  0  0  # atno 17371 bound_to 10713
  140.8148  134.3357  157.5400 LP  0  0  0  0  0  0  0  0  0  0  0  0  # atno 17394 bound_to 11000
  139.8752  134.9275  156.3427 LP  0  0  0  0  0  0  0  0  0  0  0  0  # atno 17395 bound_to 11000

$$$$
