AV-unprocessed.smi:3033|AV-procd|sdf|11576|dock1
  -GOLD-   2272016543D 1   1.00000     0.00000
 Structure written by MMmdl.
 32 33  0  0  0  0  0  0  0  0  2 V2000
  154.3760  140.9899  160.2918 C   0  0  0  0  0  0  0  0  0  0  0  0
  153.9498  142.3427  160.3643 O   0  0  0  0  0  0  0  0  0  0  0  0
  152.9009  142.7359  159.5609 C   0  0  0  0  0  0  0  0  0  0  0  0
  152.5023  144.0856  159.6435 C   0  0  0  0  0  0  0  0  0  0  0  0
  151.4442  144.5732  158.8540 C   0  0  0  0  0  0  0  0  0  0  0  0
  150.7677  143.7105  157.9727 C   0  0  0  0  0  0  0  0  0  0  0  0
  151.1455  142.3536  157.8813 C   0  0  0  0  0  0  0  0  0  0  0  0
  150.4327  141.4068  156.9262 C   0  0  1  0  0  0  0  0  0  0  0  0
  149.3564  142.0437  156.2647 O   0  0  0  0  0  0  0  0  0  0  0  0
  151.4101  140.8578  155.8656 C   0  0  0  0  0  0  0  0  0  0  0  0
  151.1535  139.4438  155.5549 N   0  0  0  0  0  0  0  0  0  0  0  0
  149.8533  138.9582  155.7719 C   0  0  0  0  0  0  0  0  0  0  0  0
  149.5161  137.6788  155.5183 C   0  0  0  0  0  0  0  0  0  0  0  0
  147.9091  137.1088  155.7975 Cl  0  0  0  0  0  0  0  0  0  0  0  0
  150.5518  136.7861  155.0016 C   0  0  0  0  0  0  0  0  0  0  0  0
  150.2767  135.6132  154.7532 O   0  0  0  0  0  0  0  0  0  0  0  0
  151.8012  137.3050  154.8156 N   0  5  0  0  0  0  0  0  0  0  0  0
  152.1256  138.6076  155.0830 C   0  0  0  0  0  0  0  0  0  0  0  0
  153.2625  139.0510  154.9163 O   0  0  0  0  0  0  0  0  0  0  0  0
  152.2128  141.8735  158.6702 C   0  0  0  0  0  0  0  0  0  0  0  0
  155.2078  140.8375  160.9792 H   0  0  0  0  0  0  0  0  0  0  0  0
  154.7251  140.7355  159.2900 H   0  0  0  0  0  0  0  0  0  0  0  0
  153.5789  140.3042  160.5821 H   0  0  0  0  0  0  0  0  0  0  0  0
  153.0161  144.7556  160.3170 H   0  0  0  0  0  0  0  0  0  0  0  0
  151.1531  145.6109  158.9236 H   0  0  0  0  0  0  0  0  0  0  0  0
  149.9610  144.0956  157.3663 H   0  0  0  0  0  0  0  0  0  0  0  0
  150.0144  140.5878  157.5129 H   0  0  0  0  0  0  0  0  0  0  0  0
  149.4604  142.9779  156.3590 H   0  0  0  0  0  0  0  0  0  0  0  0
  151.3897  141.4761  154.9665 H   0  0  0  0  0  0  0  0  0  0  0  0
  152.4340  140.9436  156.2354 H   0  0  0  0  0  0  0  0  0  0  0  0
  149.1537  139.6841  156.1599 H   0  0  0  0  0  0  0  0  0  0  0  0
  152.4910  140.8349  158.5731 H   0  0  0  0  0  0  0  0  0  0  0  0
  1  2  1  0  0  0  0
  1 21  1  0  0  0  0
  1 22  1  0  0  0  0
  1 23  1  0  0  0  0
  2  3  1  0  0  0  0
  3 20  1  0  0  0  0
  3  4  2  0  0  0  0
  4  5  1  0  0  0  0
  4 24  1  0  0  0  0
  5  6  2  0  0  0  0
  5 25  1  0  0  0  0
  6  7  1  0  0  0  0
  6 26  1  0  0  0  0
  7  8  1  0  0  0  0
  7 20  2  0  0  0  0
  8  9  1  0  0  0  0
  8 10  1  0  0  0  0
  8 27  1  0  0  0  0
  9 28  1  0  0  0  0
 10 11  1  0  0  0  0
 10 29  1  0  0  0  0
 10 30  1  0  0  0  0
 11 18  1  0  0  0  0
 11 12  1  0  0  0  0
 12 13  2  0  0  0  0
 12 31  1  0  0  0  0
 13 14  1  0  0  0  0
 13 15  1  0  0  0  0
 15 16  2  0  0  0  0
 15 17  1  0  0  0  0
 17 18  1  0  0  0  0
 18 19  2  0  0  0  0
 20 32  1  0  0  0  0
M  CHG  1  17  -1
M  END
> <s_m_source_file>
AV-unprocessed.smi

> <i_m_source_file_index>
3033

> <i_lp_mmshare_version>
43012

> <i_f3d_flags>
0

> <s_epik_input>
W0NIM11PYzFbY0hdW2NIXVtjSF1jKFtjSF0xKVtDQEhdKFtPSF0pW0NIMl1uMltjSF1jKENsKWMoPU8pW25IXWMyPU8=

> <s_epik_cmdline>
J2VwaWtfcHl0aG9uJywgJy1waCcsICc3LjAnLCAnLXRuJywgJzgnLCAnLW1hJywgJzIwMCcsICctbWV0YWxfYmluZGluZycsICctaW1hZScsICc8aW5maWxlLm1hZT4nLCAnLW9tYWUnLCAnPG91dGZpbGUubWFlPic=

> <r_lp_tautomer_probability>
1

> <r_epik_Ionization_Penalty>
1.7979

> <r_epik_Ionization_Penalty_Charging>
3.23819e-08

> <r_epik_Ionization_Penalty_Neutral>
1.7979

> <r_epik_State_Penalty>
1.91135

> <r_epik_Charging_Adjusted_Penalty>
1.91135

> <i_epik_Tot_Q>
-1

> <i_epik_Tot_abs_Q>
1

> <r_epik_Metal_State_Penalty>
0.014155

> <b_epik_Metal_Only>
0

> <s_lp_Force_Field>
OPLS_2005

> <r_lp_Energy>
25.1118

> <b_lp_Chiralities_Consistent>
1

> <s_lp_Variant>
AV-unprocessed.smi:3033-4

> <Gold.Version>
5.8.1

> <Gold.Id.Protein>
6NUR|6NUR_protein|mol2

> <Gold.PLP.Fitness>
48.6566

> <Gold.PLP.PLP>
-39.1649

> <Gold.PLP.part.hbond>
-3.0000

> <Gold.PLP.part.metal>
0.0000

> <Gold.PLP.part.buried>
-5.4960

> <Gold.PLP.part.nonpolar>
-31.7057

> <Gold.PLP.part.repulsive>
0.4717

> <Gold.PLP.ligand.clash>
0.0000

> <Gold.PLP.ligand.torsion>
0.8736

> <Gold.PLP.Chemscore.Hbond>
3.7120

> <Gold.PLP.Chemscore.CHOScore>
0.0000

> <Gold.PLP.Chemscore.Metal>
0.0000

> <Gold.Chemscore.Hbonds>
donor molecule, donor type, donor heavy atom, donor atom, acceptor molecule, acceptor atom, score
      L1  H     9    28       P1  8028  0.88
      P1  H  7997  8009       L1    19  1.00
      P1  H 10752 10765       L1    17  1.90

> <Gold.PLP.Chemscore.Internal.Correction>
0.1030

> <Gold.Rescore>
     Score         DG    S(hbond)    S(metal)    S(lipo)     H(rot)  DE(clash)    DE(int)     intcor
     17.32     -18.33       2.48        0.00      92.70       2.45       0.10       0.91       ----

> <Gold.Chemscore.Fitness>
17.3212

> <Gold.Chemscore.DG>
-18.3330

> <Gold.Chemscore.ZeroCoef>
-5.4800

> <Gold.Chemscore.Hbond>
2.4781

> <Gold.Chemscore.Metal>
0.0000

> <Gold.Chemscore.Lipo>
92.6997

> <Gold.Chemscore.Internal_Hbond>
0.0000

> <Gold.Chemscore.DEClash>
0.1004

> <Gold.Chemscore.DEInternal>
0.9114

> <Gold.Chemscore.Rot>
2.4491

> <Gold.Chemscore.Internal.Correction>
   9.000000E+99

> <Gold.Chemscore.Hbonds>
donor molecule, donor type, donor heavy atom, donor atom, acceptor molecule, acceptor atom, score
      L1  H     9    28       P1  8028  0.85
      P1  H  7997  8009       L1    19  0.95
      P1  H 10752 10765       L1    17  0.34

> <Gold.Chemscore.Hbond.Weighted>
-8.2767

> <Gold.Chemscore.Metal.Weighted>
-0.0000

> <Gold.Chemscore.Lipo.Weighted>
-10.8459

> <Gold.Chemscore.Internal_Hbond.Weighted>
0.0000

> <Gold.Chemscore.DEClash.Weighted>
0.1004

> <Gold.Chemscore.DEInternal.Weighted>
0.9114

> <Gold.Chemscore.Rot.Weighted>
6.2696

> <Gold.Chemscore.Internal.Correction.Weighted>
   9.000000E+99

> <Gold.Protein.RotatedTorsions>
[ 6907 6896 6895 6894 ] final  113.29 input  -60.11 | X-H torsion
[ 7974 7965 7964 7962 ] final   59.00 input  175.53 | X-H torsion
[ 8008 7997 7996 7995 ] final -148.95 input   59.86 | X-H torsion
[ 10167 10162 10161 10158 ] final   49.24 input  -65.29 | X-H torsion
[ 10718 10713 10712 10709 ] final  109.94 input   66.30 | X-H torsion
[ 10763 10752 10751 10750 ] final  173.90 input  -60.55 | X-H torsion
[ 11005 11000 10999 10996 ] final  179.58 input  -57.11 | X-H torsion

> <Gold.Protein.ActiveResidues>
 VAL166  LYS551  ARG553  GLY616  TRP617  ASP618  TYR619  PRO620  LYS621  CYS622 
 ASP623  PHE694  ASN695  SER759  ASP760  ASP761  ALA762  ILE779  LEU786  VAL792 
 PHE793  MET794  SER795  GLU796  ALA797  LYS798  CYS799  TRP800  GLU811  SER814 

> <Gold.Protein.RotatedAtoms>
  152.4869  133.8396  159.7145 H   0  0  0  0  0  0  0  0  0  0  0  0  # atno 6907 bound_to 6896
  150.8963  133.7167  159.2897 H   0  0  0  0  0  0  0  0  0  0  0  0  # atno 6908 bound_to 6896
  151.4623  135.1043  159.9780 H   0  0  0  0  0  0  0  0  0  0  0  0  # atno 6909 bound_to 6896
  145.9120  139.3661  143.0530 H   0  0  0  0  0  0  0  0  0  0  0  0  # atno 7974 bound_to 7965
  155.5998  140.0661  157.2736 H   0  0  0  0  0  0  0  0  0  0  0  0  # atno 8008 bound_to 7997
  154.4282  140.1820  156.1208 H   0  0  0  0  0  0  0  0  0  0  0  0  # atno 8009 bound_to 7997
  156.0168  140.3321  155.7001 H   0  0  0  0  0  0  0  0  0  0  0  0  # atno 8010 bound_to 7997
  140.2850  144.3113  150.6254 H   0  0  0  0  0  0  0  0  0  0  0  0  # atno 10167 bound_to 10162
  157.6518  131.0923  150.6528 H   0  0  0  0  0  0  0  0  0  0  0  0  # atno 10718 bound_to 10713
  154.4464  135.2763  155.1811 H   0  0  0  0  0  0  0  0  0  0  0  0  # atno 10763 bound_to 10752
  154.3656  135.6120  153.5717 H   0  0  0  0  0  0  0  0  0  0  0  0  # atno 10764 bound_to 10752
  152.9844  135.5845  154.4801 H   0  0  0  0  0  0  0  0  0  0  0  0  # atno 10765 bound_to 10752
  140.4077  134.6720  157.4597 H   0  0  0  0  0  0  0  0  0  0  0  0  # atno 11005 bound_to 11000
  145.8659  140.9448  143.0675 LP  0  0  0  0  0  0  0  0  0  0  0  0  # atno 17320 bound_to 7965
  144.6744  140.0592  143.7476 LP  0  0  0  0  0  0  0  0  0  0  0  0  # atno 17321 bound_to 7965
  140.5780  143.2175  151.7480 LP  0  0  0  0  0  0  0  0  0  0  0  0  # atno 17342 bound_to 10162
  139.4952  144.4121  152.0069 LP  0  0  0  0  0  0  0  0  0  0  0  0  # atno 17343 bound_to 10162
  156.6839  130.4575  149.5619 LP  0  0  0  0  0  0  0  0  0  0  0  0  # atno 17370 bound_to 10713
  156.1910  130.6559  151.1061 LP  0  0  0  0  0  0  0  0  0  0  0  0  # atno 17371 bound_to 10713
  140.0290  134.6434  155.9133 LP  0  0  0  0  0  0  0  0  0  0  0  0  # atno 17394 bound_to 11000
  141.1833  133.6550  156.5110 LP  0  0  0  0  0  0  0  0  0  0  0  0  # atno 17395 bound_to 11000

$$$$
