AV-unprocessed.smi:2181|AV-procd|sdf|8862|dock5
  -GOLD-   2272012 53D 1   1.00000     0.00000
 Structure written by MMmdl.
 38 39  0  0  0  0  0  0  0  0  1 V2000
  154.3000  136.7017  157.9263 C   0  0  0  0  0  0  0  0  0  0  0  0
  153.5484  137.4946  156.8953 C   0  0  0  0  0  0  0  0  0  0  0  0
  154.0880  137.6773  155.7020 N   0  0  0  0  0  0  0  0  0  0  0  0
  153.1606  138.4266  154.9718 O   0  0  0  0  0  0  0  0  0  0  0  0
  152.0851  138.6678  155.7635 C   0  0  0  0  0  0  0  0  0  0  0  0
  150.9691  139.4506  155.1586 C   0  0  0  0  0  0  0  0  0  0  0  0
  152.2644  138.1058  156.9975 C   0  0  0  0  0  0  0  0  0  0  0  0
  151.3258  138.1193  158.1771 C   0  0  0  0  0  0  0  0  0  0  0  0
  150.8264  139.5428  158.4199 C   0  0  0  0  0  0  0  0  0  0  0  0
  149.6237  139.7945  158.3544 O   0  0  0  0  0  0  0  0  0  0  0  0
  151.7628  140.4609  158.7064 N   0  0  0  0  0  0  0  0  0  0  0  0
  151.5234  141.8774  158.9807 C   0  0  1  0  0  0  0  0  0  0  0  0
  152.8502  142.5771  159.3522 C   0  0  0  0  0  0  0  0  0  0  0  0
  152.6682  143.8707  160.1627 C   0  0  0  0  0  0  0  0  0  0  0  0
  151.9151  144.9914  159.4305 C   0  0  0  0  0  0  0  0  0  0  0  0
  150.4473  144.6500  159.1207 C   0  0  0  0  0  0  0  0  0  0  0  0
  150.3073  143.7880  157.9536 N   0  0  0  0  0  0  0  0  0  0  0  0
  150.7704  142.5369  157.8097 C   0  0  0  0  0  0  0  0  0  0  0  0
  150.6040  141.9270  156.7534 O   0  0  0  0  0  0  0  0  0  0  0  0
  154.1749  135.6316  157.7601 H   0  0  0  0  0  0  0  0  0  0  0  0
  153.9498  136.9229  158.9342 H   0  0  0  0  0  0  0  0  0  0  0  0
  155.3676  136.9213  157.8958 H   0  0  0  0  0  0  0  0  0  0  0  0
  150.1579  138.7894  154.8537 H   0  0  0  0  0  0  0  0  0  0  0  0
  151.3063  140.0014  154.2804 H   0  0  0  0  0  0  0  0  0  0  0  0
  150.5680  140.1694  155.8730 H   0  0  0  0  0  0  0  0  0  0  0  0
  150.4701  137.4623  158.0191 H   0  0  0  0  0  0  0  0  0  0  0  0
  151.8184  137.7565  159.0802 H   0  0  0  0  0  0  0  0  0  0  0  0
  152.7260  140.1587  158.7313 H   0  0  0  0  0  0  0  0  0  0  0  0
  150.8537  141.9235  159.8416 H   0  0  0  0  0  0  0  0  0  0  0  0
  153.4628  141.9036  159.9531 H   0  0  0  0  0  0  0  0  0  0  0  0
  153.4332  142.7776  158.4520 H   0  0  0  0  0  0  0  0  0  0  0  0
  152.1594  143.6429  161.1002 H   0  0  0  0  0  0  0  0  0  0  0  0
  153.6537  144.2430  160.4441 H   0  0  0  0  0  0  0  0  0  0  0  0
  151.9327  145.8775  160.0657 H   0  0  0  0  0  0  0  0  0  0  0  0
  152.4416  145.2696  158.5165 H   0  0  0  0  0  0  0  0  0  0  0  0
  149.9542  144.2040  159.9856 H   0  0  0  0  0  0  0  0  0  0  0  0
  149.9062  145.5707  158.9018 H   0  0  0  0  0  0  0  0  0  0  0  0
  149.8159  144.1856  157.1660 H   0  0  0  0  0  0  0  0  0  0  0  0
  1  2  1  0  0  0  0
  1 20  1  0  0  0  0
  1 21  1  0  0  0  0
  1 22  1  0  0  0  0
  2  7  1  0  0  0  0
  2  3  2  0  0  0  0
  3  4  1  0  0  0  0
  4  5  1  0  0  0  0
  5  6  1  0  0  0  0
  5  7  2  0  0  0  0
  6 23  1  0  0  0  0
  6 24  1  0  0  0  0
  6 25  1  0  0  0  0
  7  8  1  0  0  0  0
  8  9  1  0  0  0  0
  8 26  1  0  0  0  0
  8 27  1  0  0  0  0
  9 10  2  0  0  0  0
  9 11  1  0  0  0  0
 11 12  1  0  0  0  0
 11 28  1  0  0  0  0
 12 18  1  0  0  0  0
 12 13  1  0  0  0  0
 12 29  1  0  0  0  0
 13 14  1  0  0  0  0
 13 30  1  0  0  0  0
 13 31  1  0  0  0  0
 14 15  1  0  0  0  0
 14 32  1  0  0  0  0
 14 33  1  0  0  0  0
 15 16  1  0  0  0  0
 15 34  1  0  0  0  0
 15 35  1  0  0  0  0
 16 17  1  0  0  0  0
 16 36  1  0  0  0  0
 16 37  1  0  0  0  0
 17 18  1  0  0  0  0
 17 38  1  0  0  0  0
 18 19  2  0  0  0  0
M  END
> <s_m_source_file>
AV-unprocessed.smi

> <i_m_source_file_index>
2181

> <i_lp_mmshare_version>
43012

> <i_f3d_flags>
0

> <s_epik_input>
W0NIM11jMW5vYyhbQ0gzXSljMVtDSDJdQyg9TylbTkhdW0NAQEhdMltDSDJdW0NIMl1bQ0gyXVtDSDJdW05IXUMyPU8=

> <s_epik_cmdline>
J2VwaWtfcHl0aG9uJywgJy1waCcsICc3LjAnLCAnLXRuJywgJzgnLCAnLW1hJywgJzIwMCcsICctbWV0YWxfYmluZGluZycsICctaW1hZScsICc8aW5maWxlLm1hZT4nLCAnLW9tYWUnLCAnPG91dGZpbGUubWFlPic=

> <r_lp_tautomer_probability>
1

> <r_epik_Ionization_Penalty>
5.91376e-08

> <r_epik_Ionization_Penalty_Charging>
0

> <r_epik_Ionization_Penalty_Neutral>
5.91376e-08

> <r_epik_State_Penalty>
-0

> <r_epik_Charging_Adjusted_Penalty>
0

> <i_epik_Tot_Q>
0

> <i_epik_Tot_abs_Q>
0

> <r_epik_Metal_State_Penalty>
-0

> <b_epik_Metal_Only>
0

> <s_lp_Force_Field>
OPLS_2005

> <r_lp_Energy>
4.12188

> <b_lp_Chiralities_Consistent>
1

> <s_lp_Variant>
AV-unprocessed.smi:2181-2

> <Gold.Version>
5.8.1

> <Gold.Id.Protein>
6NUR|6NUR_protein|mol2

> <Gold.PLP.Fitness>
38.4702

> <Gold.PLP.PLP>
-34.3030

> <Gold.PLP.part.hbond>
-4.0000

> <Gold.PLP.part.metal>
0.0000

> <Gold.PLP.part.buried>
-5.2589

> <Gold.PLP.part.nonpolar>
-25.8249

> <Gold.PLP.part.repulsive>
0.2336

> <Gold.PLP.ligand.clash>
0.0000

> <Gold.PLP.ligand.torsion>
0.1427

> <Gold.PLP.Chemscore.Hbond>
1.4752

> <Gold.PLP.Chemscore.CHOScore>
0.0000

> <Gold.PLP.Chemscore.Metal>
0.0000

> <Gold.Chemscore.Hbonds>
donor molecule, donor type, donor heavy atom, donor atom, acceptor molecule, acceptor atom, score
      L1  H    17    38       P1  8028  1.00

> <Gold.PLP.Chemscore.Internal.Correction>
0.0269

> <Gold.Rescore>
     Score         DG    S(hbond)    S(metal)    S(lipo)     H(rot)  DE(clash)    DE(int)     intcor
     14.28     -15.29       0.98        0.00      88.52       1.49       0.00       1.00       ----

> <Gold.Chemscore.Fitness>
14.2837

> <Gold.Chemscore.DG>
-15.2855

> <Gold.Chemscore.ZeroCoef>
-5.4800

> <Gold.Chemscore.Hbond>
0.9808

> <Gold.Chemscore.Metal>
0.0000

> <Gold.Chemscore.Lipo>
88.5182

> <Gold.Chemscore.Internal_Hbond>
0.0000

> <Gold.Chemscore.DEClash>
0.0004

> <Gold.Chemscore.DEInternal>
1.0014

> <Gold.Chemscore.Rot>
1.4949

> <Gold.Chemscore.Internal.Correction>
   9.000000E+99

> <Gold.Chemscore.Hbonds>
donor molecule, donor type, donor heavy atom, donor atom, acceptor molecule, acceptor atom, score
      L1  H    17    38       P1  8028  0.60

> <Gold.Chemscore.Hbond.Weighted>
-3.2758

> <Gold.Chemscore.Metal.Weighted>
-0.0000

> <Gold.Chemscore.Lipo.Weighted>
-10.3566

> <Gold.Chemscore.Internal_Hbond.Weighted>
0.0000

> <Gold.Chemscore.DEClash.Weighted>
0.0004

> <Gold.Chemscore.DEInternal.Weighted>
1.0014

> <Gold.Chemscore.Rot.Weighted>
3.8269

> <Gold.Chemscore.Internal.Correction.Weighted>
   9.000000E+99

> <Gold.Protein.RotatedTorsions>
[ 6907 6896 6895 6894 ] final  -17.04 input  -60.11 | X-H torsion
[ 7974 7965 7964 7962 ] final   57.95 input  175.53 | X-H torsion
[ 8008 7997 7996 7995 ] final  120.27 input   59.86 | X-H torsion
[ 10167 10162 10161 10158 ] final -115.07 input  -65.29 | X-H torsion
[ 10718 10713 10712 10709 ] final   73.21 input   66.30 | X-H torsion
[ 10763 10752 10751 10750 ] final  -66.93 input  -60.55 | X-H torsion
[ 11005 11000 10999 10996 ] final   82.72 input  -57.11 | X-H torsion

> <Gold.Protein.ActiveResidues>
 VAL166  LYS551  ARG553  GLY616  TRP617  ASP618  TYR619  PRO620  LYS621  CYS622 
 ASP623  PHE694  ASN695  SER759  ASP760  ASP761  ALA762  ILE779  LEU786  VAL792 
 PHE793  MET794  SER795  GLU796  ALA797  LYS798  CYS799  TRP800  GLU811  SER814 

> <Gold.Protein.RotatedAtoms>
  151.2995  135.0764  159.9232 H   0  0  0  0  0  0  0  0  0  0  0  0  # atno 6907 bound_to 6896
  152.5300  133.9848  159.7834 H   0  0  0  0  0  0  0  0  0  0  0  0  # atno 6908 bound_to 6896
  151.0132  133.5894  159.2710 H   0  0  0  0  0  0  0  0  0  0  0  0  # atno 6909 bound_to 6896
  145.9234  139.3748  143.0464 H   0  0  0  0  0  0  0  0  0  0  0  0  # atno 7974 bound_to 7965
  156.2635  140.2834  156.1124 H   0  0  0  0  0  0  0  0  0  0  0  0  # atno 8008 bound_to 7997
  155.1243  140.0393  157.2776 H   0  0  0  0  0  0  0  0  0  0  0  0  # atno 8009 bound_to 7997
  154.6647  140.2574  155.7077 H   0  0  0  0  0  0  0  0  0  0  0  0  # atno 8010 bound_to 7997
  140.0941  143.4672  152.1852 H   0  0  0  0  0  0  0  0  0  0  0  0  # atno 10167 bound_to 10162
  157.6537  130.9617  150.1037 H   0  0  0  0  0  0  0  0  0  0  0  0  # atno 10718 bound_to 10713
  154.3670  135.6103  153.5720 H   0  0  0  0  0  0  0  0  0  0  0  0  # atno 10763 bound_to 10752
  152.9791  135.5829  154.4566 H   0  0  0  0  0  0  0  0  0  0  0  0  # atno 10764 bound_to 10752
  154.4314  135.2848  155.1887 H   0  0  0  0  0  0  0  0  0  0  0  0  # atno 10765 bound_to 10752
  139.9054  134.8092  156.2213 H   0  0  0  0  0  0  0  0  0  0  0  0  # atno 11005 bound_to 11000
  145.8520  140.9523  143.0745 LP  0  0  0  0  0  0  0  0  0  0  0  0  # atno 17320 bound_to 7965
  144.6755  140.0419  143.7480 LP  0  0  0  0  0  0  0  0  0  0  0  0  # atno 17321 bound_to 7965
  139.5708  144.7461  151.3897 LP  0  0  0  0  0  0  0  0  0  0  0  0  # atno 17342 bound_to 10162
  140.7013  143.7625  150.7407 LP  0  0  0  0  0  0  0  0  0  0  0  0  # atno 17343 bound_to 10162
  156.1952  130.3657  149.8858 LP  0  0  0  0  0  0  0  0  0  0  0  0  # atno 17370 bound_to 10713
  156.6776  130.8845  151.3571 LP  0  0  0  0  0  0  0  0  0  0  0  0  # atno 17371 bound_to 10713
  141.0404  133.6941  156.1588 LP  0  0  0  0  0  0  0  0  0  0  0  0  # atno 17394 bound_to 11000
  140.6964  134.4611  157.5587 LP  0  0  0  0  0  0  0  0  0  0  0  0  # atno 17395 bound_to 11000

$$$$
