AV-unprocessed.smi:213|AV-procd|sdf|1642|dock1
  -GOLD-   2262020 13D 1   1.00000     0.00000
 Structure written by MMmdl.
 58 61  0  0  0  0  0  0  0  0  1 V2000
  148.7851  135.5384  157.0660 C   0  0  0  0  0  0  0  0  0  0  0  0
  149.9479  134.7355  156.4545 C   0  0  1  0  0  0  0  0  0  0  0  0
  149.7209  134.2509  155.0014 C   0  0  0  0  0  0  0  0  0  0  0  0
  149.3529  132.8421  154.8340 N   0  0  0  0  0  0  0  0  0  0  0  0
  150.3962  131.9673  155.3630 C   0  0  0  0  0  0  0  0  0  0  0  0
  150.0390  130.4790  155.2071 C   0  0  0  0  0  0  0  0  0  0  0  0
  149.8018  130.1877  153.8345 O   0  0  0  0  0  0  0  0  0  0  0  0
  148.7650  130.9886  153.2787 C   0  0  0  0  0  0  0  0  0  0  0  0
  149.1205  132.4776  153.4365 C   0  0  0  0  0  0  0  0  0  0  0  0
  151.1799  135.5250  156.5294 N   0  0  0  0  0  0  0  0  0  0  0  0
  152.4091  134.9639  157.0837 C   0  0  0  0  0  0  0  0  0  0  0  0
  151.2246  136.7700  155.9899 C   0  0  0  0  0  0  0  0  0  0  0  0
  151.4344  136.8861  154.6518 N   0  0  0  0  0  0  0  0  0  0  0  0
  151.4752  138.0903  154.0748 C   0  0  0  0  0  0  0  0  0  0  0  0
  151.3427  139.2912  154.6403 N   0  0  0  0  0  0  0  0  0  0  0  0
  151.1512  139.1841  155.9858 C   0  0  0  0  0  0  0  0  0  0  0  0
  151.0786  137.9760  156.7367 C   0  0  0  0  0  0  0  0  0  0  0  0
  150.8930  138.2734  158.0832 N   0  0  0  0  0  0  0  0  0  0  0  0
  150.8495  139.5768  158.1232 C   0  0  0  0  0  0  0  0  0  0  0  0
  150.9974  140.2038  156.9076 N   0  0  0  0  0  0  0  0  0  0  0  0
  150.9962  141.6341  156.6571 C   0  0  0  0  0  0  0  0  0  0  0  0
  150.2013  142.4146  157.7219 C   0  0  2  0  0  0  0  0  0  0  0  0
  148.8388  142.5149  157.3528 O   0  0  0  0  0  0  0  0  0  0  0  0
  150.7889  143.8121  158.0022 C   0  0  2  0  0  0  0  0  0  0  0  0
  152.2419  143.8546  158.4843 C   0  0  0  0  0  0  0  0  0  0  0  0
  152.2742  145.1797  159.2121 C   0  0  0  0  0  0  0  0  0  0  0  0
  150.8969  145.2054  159.8696 C   0  0  0  0  0  0  0  0  0  0  0  0
  150.0239  144.5261  158.9710 O   0  0  0  0  0  0  0  0  0  0  0  0
  147.9450  134.8993  157.3286 H   0  0  0  0  0  0  0  0  0  0  0  0
  148.4297  136.3165  156.3903 H   0  0  0  0  0  0  0  0  0  0  0  0
  149.0951  136.0209  157.9936 H   0  0  0  0  0  0  0  0  0  0  0  0
  150.0674  133.8561  157.0864 H   0  0  0  0  0  0  0  0  0  0  0  0
  149.0064  134.8933  154.4854 H   0  0  0  0  0  0  0  0  0  0  0  0
  150.6675  134.4109  154.4827 H   0  0  0  0  0  0  0  0  0  0  0  0
  151.3411  132.1680  154.8555 H   0  0  0  0  0  0  0  0  0  0  0  0
  150.5588  132.1823  156.4199 H   0  0  0  0  0  0  0  0  0  0  0  0
  150.8545  129.8524  155.5687 H   0  0  0  0  0  0  0  0  0  0  0  0
  149.1559  130.2298  155.7975 H   0  0  0  0  0  0  0  0  0  0  0  0
  148.6467  130.7367  152.2246 H   0  0  0  0  0  0  0  0  0  0  0  0
  147.8175  130.7635  153.7710 H   0  0  0  0  0  0  0  0  0  0  0  0
  148.3152  133.0652  153.0084 H   0  0  0  0  0  0  0  0  0  0  0  0
  150.0104  132.6967  152.8442 H   0  0  0  0  0  0  0  0  0  0  0  0
  152.9638  135.7196  157.6412 H   0  0  0  0  0  0  0  0  0  0  0  0
  153.0485  134.5843  156.2863 H   0  0  0  0  0  0  0  0  0  0  0  0
  152.1932  134.1410  157.7648 H   0  0  0  0  0  0  0  0  0  0  0  0
  151.6367  138.0912  153.0069 H   0  0  0  0  0  0  0  0  0  0  0  0
  150.7141  140.1198  159.0472 H   0  0  0  0  0  0  0  0  0  0  0  0
  152.0318  141.9757  156.6337 H   0  0  0  0  0  0  0  0  0  0  0  0
  150.5859  141.8128  155.6624 H   0  0  0  0  0  0  0  0  0  0  0  0
  150.2278  141.8507  158.6550 H   0  0  0  0  0  0  0  0  0  0  0  0
  148.7113  143.3404  156.9106 H   0  0  0  0  0  0  0  0  0  0  0  0
  150.7278  144.3992  157.0844 H   0  0  0  0  0  0  0  0  0  0  0  0
  152.4582  143.0487  159.1862 H   0  0  0  0  0  0  0  0  0  0  0  0
  152.9619  143.7964  157.6676 H   0  0  0  0  0  0  0  0  0  0  0  0
  153.0915  145.2561  159.9296 H   0  0  0  0  0  0  0  0  0  0  0  0
  152.3666  145.9987  158.4976 H   0  0  0  0  0  0  0  0  0  0  0  0
  150.9170  144.6563  160.8119 H   0  0  0  0  0  0  0  0  0  0  0  0
  150.5498  146.2180  160.0756 H   0  0  0  0  0  0  0  0  0  0  0  0
  1  2  1  0  0  0  0
  1 29  1  0  0  0  0
  1 30  1  0  0  0  0
  1 31  1  0  0  0  0
  2  3  1  0  0  0  0
  2 10  1  0  0  0  0
  2 32  1  0  0  0  0
  3  4  1  0  0  0  0
  3 33  1  0  0  0  0
  3 34  1  0  0  0  0
  4  9  1  0  0  0  0
  4  5  1  0  0  0  0
  5  6  1  0  0  0  0
  5 35  1  0  0  0  0
  5 36  1  0  0  0  0
  6  7  1  0  0  0  0
  6 37  1  0  0  0  0
  6 38  1  0  0  0  0
  7  8  1  0  0  0  0
  8  9  1  0  0  0  0
  8 39  1  0  0  0  0
  8 40  1  0  0  0  0
  9 41  1  0  0  0  0
  9 42  1  0  0  0  0
 10 11  1  0  0  0  0
 10 12  1  0  0  0  0
 11 43  1  0  0  0  0
 11 44  1  0  0  0  0
 11 45  1  0  0  0  0
 12 17  1  0  0  0  0
 12 13  2  0  0  0  0
 13 14  1  0  0  0  0
 14 15  2  0  0  0  0
 14 46  1  0  0  0  0
 15 16  1  0  0  0  0
 16 20  1  0  0  0  0
 16 17  2  0  0  0  0
 17 18  1  0  0  0  0
 18 19  2  0  0  0  0
 19 20  1  0  0  0  0
 19 47  1  0  0  0  0
 20 21  1  0  0  0  0
 21 22  1  0  0  0  0
 21 48  1  0  0  0  0
 21 49  1  0  0  0  0
 22 23  1  0  0  0  0
 22 24  1  0  0  0  0
 22 50  1  0  0  0  0
 23 51  1  0  0  0  0
 24 28  1  0  0  0  0
 24 25  1  0  0  0  0
 24 52  1  0  0  0  0
 25 26  1  0  0  0  0
 25 53  1  0  0  0  0
 25 54  1  0  0  0  0
 26 27  1  0  0  0  0
 26 55  1  0  0  0  0
 26 56  1  0  0  0  0
 27 28  1  0  0  0  0
 27 57  1  0  0  0  0
 27 58  1  0  0  0  0
M  END
> <s_m_source_file>
AV-unprocessed.smi

> <i_m_source_file_index>
213

> <i_lp_mmshare_version>
43012

> <i_f3d_flags>
0

> <s_epik_input>
W0NIMl0xW0NIMl1PW0NIMl1bQ0gyXU4xW0NIMl1bQ0BASF0oW0NIM10pTihbQ0gzXSljKG5bY0hdbjIpYyhjMjMpbltjSF1uM1tDSDJdW0NASF0oW09IXSlbQ0BASF00W0NIMl1bQ0gyXVtDSDJdTzQ=

> <s_epik_cmdline>
J2VwaWtfcHl0aG9uJywgJy1waCcsICc3LjAnLCAnLXRuJywgJzgnLCAnLW1hJywgJzIwMCcsICctbWV0YWxfYmluZGluZycsICctaW1hZScsICc8aW5maWxlLm1hZT4nLCAnLW9tYWUnLCAnPG91dGZpbGUubWFlPic=

> <r_lp_tautomer_probability>
1

> <r_epik_Ionization_Penalty>
0.423322

> <r_epik_Ionization_Penalty_Charging>
0

> <r_epik_Ionization_Penalty_Neutral>
0.423322

> <r_epik_State_Penalty>
0.569486

> <r_epik_Charging_Adjusted_Penalty>
0.569486

> <i_epik_Tot_Q>
0

> <i_epik_Tot_abs_Q>
0

> <r_epik_Metal_State_Penalty>
0.568671

> <b_epik_Metal_Only>
0

> <s_lp_Force_Field>
OPLS_2005

> <r_lp_Energy>
55.7593

> <b_lp_Chiralities_Consistent>
1

> <s_lp_Variant>
AV-unprocessed.smi:213-10

> <Gold.Version>
5.8.1

> <Gold.Id.Protein>
6NUR|6NUR_protein|mol2

> <Gold.PLP.Fitness>
48.1012

> <Gold.PLP.PLP>
-41.9447

> <Gold.PLP.part.hbond>
-3.0000

> <Gold.PLP.part.metal>
0.0000

> <Gold.PLP.part.buried>
-3.9880

> <Gold.PLP.part.nonpolar>
-36.8914

> <Gold.PLP.part.repulsive>
0.8272

> <Gold.PLP.ligand.clash>
0.0000

> <Gold.PLP.ligand.torsion>
3.0995

> <Gold.PLP.Chemscore.Hbond>
3.0000

> <Gold.PLP.Chemscore.CHOScore>
0.9192

> <Gold.PLP.Chemscore.Metal>
0.0000

> <Gold.Chemscore.Hbonds>
donor molecule, donor type, donor heavy atom, donor atom, acceptor molecule, acceptor atom, score
      L1  H    23    51       P1  8028  1.00
      P1  H  7989  7998       L1    15  1.00
      P1  H 10752 10765       L1    13  1.00
      L1  C    14    46       P1  7949  0.66

> <Gold.PLP.Chemscore.Internal.Correction>
0.5981

> <Gold.Rescore>
     Score         DG    S(hbond)    S(metal)    S(lipo)     H(rot)  DE(clash)    DE(int)     intcor
     15.08     -19.04       2.57        0.00     102.61       2.74       0.88       3.08       ----

> <Gold.Chemscore.Fitness>
15.0807

> <Gold.Chemscore.DG>
-19.0433

> <Gold.Chemscore.ZeroCoef>
-5.4800

> <Gold.Chemscore.Hbond>
2.5650

> <Gold.Chemscore.Metal>
0.0000

> <Gold.Chemscore.Lipo>
102.6056

> <Gold.Chemscore.Internal_Hbond>
0.0000

> <Gold.Chemscore.DEClash>
0.8830

> <Gold.Chemscore.DEInternal>
3.0797

> <Gold.Chemscore.Rot>
2.7378

> <Gold.Chemscore.Internal.Correction>
   9.000000E+99

> <Gold.Chemscore.Hbonds>
donor molecule, donor type, donor heavy atom, donor atom, acceptor molecule, acceptor atom, score
      L1  H    23    51       P1  8028  0.55
      P1  H  7989  7998       L1    15  0.93
      P1  H 10752 10765       L1    13  0.50

> <Gold.Chemscore.Hbond.Weighted>
-8.5671

> <Gold.Chemscore.Metal.Weighted>
-0.0000

> <Gold.Chemscore.Lipo.Weighted>
-12.0049

> <Gold.Chemscore.Internal_Hbond.Weighted>
0.0000

> <Gold.Chemscore.DEClash.Weighted>
0.8830

> <Gold.Chemscore.DEInternal.Weighted>
3.0797

> <Gold.Chemscore.Rot.Weighted>
7.0087

> <Gold.Chemscore.Internal.Correction.Weighted>
   9.000000E+99

> <Gold.Protein.RotatedTorsions>
[ 6907 6896 6895 6894 ] final  -92.76 input  -60.11 | X-H torsion
[ 7974 7965 7964 7962 ] final  -89.44 input  175.53 | X-H torsion
[ 8008 7997 7996 7995 ] final  174.85 input   59.86 | X-H torsion
[ 10167 10162 10161 10158 ] final -144.50 input  -65.29 | X-H torsion
[ 10718 10713 10712 10709 ] final   65.02 input   66.30 | X-H torsion
[ 10763 10752 10751 10750 ] final  154.12 input  -60.55 | X-H torsion
[ 11005 11000 10999 10996 ] final -148.05 input  -57.11 | X-H torsion

> <Gold.Protein.ActiveResidues>
 VAL166  LYS551  ARG553  GLY616  TRP617  ASP618  TYR619  PRO620  LYS621  CYS622 
 ASP623  PHE694  ASN695  SER759  ASP760  ASP761  ALA762  ILE779  LEU786  VAL792 
 PHE793  MET794  SER795  GLU796  ALA797  LYS798  CYS799  TRP800  GLU811  SER814 

> <Gold.Protein.RotatedAtoms>
  150.6911  134.2073  159.4345 H   0  0  0  0  0  0  0  0  0  0  0  0  # atno 6907 bound_to 6896
  152.0036  134.9912  160.0575 H   0  0  0  0  0  0  0  0  0  0  0  0  # atno 6908 bound_to 6896
  152.1555  133.4514  159.4871 H   0  0  0  0  0  0  0  0  0  0  0  0  # atno 6909 bound_to 6896
  145.4397  140.9558  143.2082 H   0  0  0  0  0  0  0  0  0  0  0  0  # atno 7974 bound_to 7965
  156.0931  140.1424  156.9566 H   0  0  0  0  0  0  0  0  0  0  0  0  # atno 8008 bound_to 7997
  154.4654  140.0928  156.7054 H   0  0  0  0  0  0  0  0  0  0  0  0  # atno 8009 bound_to 7997
  155.4886  140.3447  155.4353 H   0  0  0  0  0  0  0  0  0  0  0  0  # atno 8010 bound_to 7997
  139.7893  143.7988  152.2648 H   0  0  0  0  0  0  0  0  0  0  0  0  # atno 10167 bound_to 10162
  157.6078  130.9192  149.9922 H   0  0  0  0  0  0  0  0  0  0  0  0  # atno 10718 bound_to 10713
  154.1472  135.2817  155.3145 H   0  0  0  0  0  0  0  0  0  0  0  0  # atno 10763 bound_to 10752
  154.6244  135.5456  153.7614 H   0  0  0  0  0  0  0  0  0  0  0  0  # atno 10764 bound_to 10752
  153.0232  135.6447  154.1617 H   0  0  0  0  0  0  0  0  0  0  0  0  # atno 10765 bound_to 10752
  140.7653  134.3252  157.5090 H   0  0  0  0  0  0  0  0  0  0  0  0  # atno 11005 bound_to 11000
  144.8129  139.5929  143.7021 LP  0  0  0  0  0  0  0  0  0  0  0  0  # atno 17320 bound_to 7965
  146.2563  139.6309  142.9393 LP  0  0  0  0  0  0  0  0  0  0  0  0  # atno 17321 bound_to 7965
  139.8075  144.7349  150.9742 LP  0  0  0  0  0  0  0  0  0  0  0  0  # atno 17342 bound_to 10162
  140.7820  143.4283  151.0733 LP  0  0  0  0  0  0  0  0  0  0  0  0  # atno 17343 bound_to 10162
  156.1170  130.3647  149.9951 LP  0  0  0  0  0  0  0  0  0  0  0  0  # atno 17370 bound_to 10713
  156.8038  130.9300  151.3645 LP  0  0  0  0  0  0  0  0  0  0  0  0  # atno 17371 bound_to 10713
  139.8764  134.9227  156.3307 LP  0  0  0  0  0  0  0  0  0  0  0  0  # atno 17394 bound_to 11000
  140.9625  133.7379  156.0421 LP  0  0  0  0  0  0  0  0  0  0  0  0  # atno 17395 bound_to 11000

$$$$
