AV-unprocessed.smi:1236|AV-procd|sdf|5179|dock6
  -GOLD-   22720 4263D 1   1.00000     0.00000
 Structure written by MMmdl.
 39 40  0  0  0  0  0  0  0  0  1 V2000
  148.3487  140.1842  154.1819 C   0  0  0  0  0  0  0  0  0  0  0  0
  147.5519  141.3401  154.8012 C   0  0  2  0  0  0  0  0  0  0  0  0
  146.7873  142.1342  153.7202 C   0  0  0  0  0  0  0  0  0  0  0  0
  145.9597  143.2377  154.2102 N   0  0  0  0  0  0  0  0  0  0  0  0
  144.8341  142.7833  155.0237 C   0  0  0  0  0  0  0  0  0  0  0  0
  143.9762  143.9603  155.5187 C   0  0  0  0  0  0  0  0  0  0  0  0
  143.5222  144.7230  154.4051 O   0  0  0  0  0  0  0  0  0  0  0  0
  144.5917  145.2198  153.6071 C   0  0  0  0  0  0  0  0  0  0  0  0
  145.4506  144.0454  153.1076 C   0  0  0  0  0  0  0  0  0  0  0  0
  148.4702  142.2218  155.5210 N   0  0  0  0  0  0  0  0  0  0  0  0
  149.3788  141.8368  156.4300 C   0  0  0  0  0  0  0  0  0  0  0  0
  149.5710  140.6629  156.7488 O   0  0  0  0  0  0  0  0  0  0  0  0
  150.0328  142.8958  156.9386 N   0  0  0  0  0  0  0  0  0  0  0  0
  151.0533  142.9062  157.9267 C   0  0  0  0  0  0  0  0  0  0  0  0
  151.7292  144.1384  158.0758 C   0  0  0  0  0  0  0  0  0  0  0  0
  152.7584  144.2531  159.0303 C   0  0  0  0  0  0  0  0  0  0  0  0
  153.0866  143.1308  159.8114 C   0  0  0  0  0  0  0  0  0  0  0  0
  152.3653  141.9415  159.5990 C   0  0  0  0  0  0  0  0  0  0  0  0
  151.3784  141.8296  158.6854 N   0  0  0  0  0  0  0  0  0  0  0  0
  147.6907  139.4958  153.6511 H   0  0  0  0  0  0  0  0  0  0  0  0
  148.8717  139.6124  154.9493 H   0  0  0  0  0  0  0  0  0  0  0  0
  149.0922  140.5476  153.4718 H   0  0  0  0  0  0  0  0  0  0  0  0
  146.8374  140.8906  155.4917 H   0  0  0  0  0  0  0  0  0  0  0  0
  147.5234  142.5330  153.0207 H   0  0  0  0  0  0  0  0  0  0  0  0
  146.1689  141.4488  153.1388 H   0  0  0  0  0  0  0  0  0  0  0  0
  144.2109  142.0996  154.4457 H   0  0  0  0  0  0  0  0  0  0  0  0
  145.1886  142.2261  155.8893 H   0  0  0  0  0  0  0  0  0  0  0  0
  143.1141  143.5940  156.0760 H   0  0  0  0  0  0  0  0  0  0  0  0
  144.5491  144.5958  156.1955 H   0  0  0  0  0  0  0  0  0  0  0  0
  144.1802  145.7752  152.7643 H   0  0  0  0  0  0  0  0  0  0  0  0
  145.1946  145.9187  154.1888 H   0  0  0  0  0  0  0  0  0  0  0  0
  146.2818  144.4342  152.5183 H   0  0  0  0  0  0  0  0  0  0  0  0
  144.8560  143.4237  152.4365 H   0  0  0  0  0  0  0  0  0  0  0  0
  148.3864  143.2089  155.3288 H   0  0  0  0  0  0  0  0  0  0  0  0
  149.7639  143.8013  156.5836 H   0  0  0  0  0  0  0  0  0  0  0  0
  151.4642  144.9905  157.4672 H   0  0  0  0  0  0  0  0  0  0  0  0
  153.2863  145.1862  159.1599 H   0  0  0  0  0  0  0  0  0  0  0  0
  153.8701  143.1793  160.5531 H   0  0  0  0  0  0  0  0  0  0  0  0
  152.5866  141.0565  160.1772 H   0  0  0  0  0  0  0  0  0  0  0  0
  1  2  1  0  0  0  0
  1 20  1  0  0  0  0
  1 21  1  0  0  0  0
  1 22  1  0  0  0  0
  2  3  1  0  0  0  0
  2 10  1  0  0  0  0
  2 23  1  0  0  0  0
  3  4  1  0  0  0  0
  3 24  1  0  0  0  0
  3 25  1  0  0  0  0
  4  9  1  0  0  0  0
  4  5  1  0  0  0  0
  5  6  1  0  0  0  0
  5 26  1  0  0  0  0
  5 27  1  0  0  0  0
  6  7  1  0  0  0  0
  6 28  1  0  0  0  0
  6 29  1  0  0  0  0
  7  8  1  0  0  0  0
  8  9  1  0  0  0  0
  8 30  1  0  0  0  0
  8 31  1  0  0  0  0
  9 32  1  0  0  0  0
  9 33  1  0  0  0  0
 10 11  1  0  0  0  0
 10 34  1  0  0  0  0
 11 12  2  0  0  0  0
 11 13  1  0  0  0  0
 13 14  1  0  0  0  0
 13 35  1  0  0  0  0
 14 19  1  0  0  0  0
 14 15  2  0  0  0  0
 15 16  1  0  0  0  0
 15 36  1  0  0  0  0
 16 17  2  0  0  0  0
 16 37  1  0  0  0  0
 17 18  1  0  0  0  0
 17 38  1  0  0  0  0
 18 19  2  0  0  0  0
 18 39  1  0  0  0  0
M  END
> <s_m_source_file>
AV-unprocessed.smi

> <i_m_source_file_index>
1236

> <i_lp_mmshare_version>
43012

> <i_f3d_flags>
0

> <s_epik_input>
W0NIMl0xW0NIMl1PW0NIMl1bQ0gyXU4xW0NIMl1bQ0BASF0oW0NIM10pW05IXUMoPU8pW05IXWMyW2NIXVtjSF1bY0hdW2NIXW4y

> <s_epik_cmdline>
J2VwaWtfcHl0aG9uJywgJy1waCcsICc3LjAnLCAnLXRuJywgJzgnLCAnLW1hJywgJzIwMCcsICctbWV0YWxfYmluZGluZycsICctaW1hZScsICc8aW5maWxlLm1hZT4nLCAnLW9tYWUnLCAnPG91dGZpbGUubWFlPic=

> <r_epik_Ionization_Penalty>
0.26604

> <r_epik_Ionization_Penalty_Charging>
0

> <r_epik_Ionization_Penalty_Neutral>
0.26604

> <r_epik_State_Penalty>
0.257924

> <r_epik_Charging_Adjusted_Penalty>
0.257924

> <i_epik_Tot_Q>
0

> <i_epik_Tot_abs_Q>
0

> <r_epik_Metal_State_Penalty>
0.257923

> <b_epik_Metal_Only>
0

> <s_lp_Force_Field>
OPLS_2005

> <r_lp_Energy>
27.6221

> <b_lp_Chiralities_Consistent>
1

> <s_lp_Variant>
AV-unprocessed.smi:1236-1

> <Gold.Version>
5.8.1

> <Gold.Id.Protein>
6NUR|6NUR_protein|mol2

> <Gold.PLP.Fitness>
43.8998

> <Gold.PLP.PLP>
-38.1663

> <Gold.PLP.part.hbond>
-1.8940

> <Gold.PLP.part.metal>
0.0000

> <Gold.PLP.part.buried>
-5.1315

> <Gold.PLP.part.nonpolar>
-32.4131

> <Gold.PLP.part.repulsive>
0.5042

> <Gold.PLP.ligand.clash>
0.0000

> <Gold.PLP.ligand.torsion>
0.1264

> <Gold.PLP.Chemscore.Hbond>
1.9920

> <Gold.PLP.Chemscore.CHOScore>
0.0000

> <Gold.PLP.Chemscore.Metal>
0.0000

> <Gold.Chemscore.Hbonds>
donor molecule, donor type, donor heavy atom, donor atom, acceptor molecule, acceptor atom, score
      L1  H    10    34       P1  8028  0.99
      L1  H    13    35       P1  8028  1.00

> <Gold.PLP.Chemscore.Internal.Correction>
0.0103

> <Gold.Rescore>
     Score         DG    S(hbond)    S(metal)    S(lipo)     H(rot)  DE(clash)    DE(int)     intcor
     15.92     -18.32       1.94        0.00      87.49       1.51       0.01       2.40       ----

> <Gold.Chemscore.Fitness>
15.9210

> <Gold.Chemscore.DG>
-18.3233

> <Gold.Chemscore.ZeroCoef>
-5.4800

> <Gold.Chemscore.Hbond>
1.9381

> <Gold.Chemscore.Metal>
0.0000

> <Gold.Chemscore.Lipo>
87.4916

> <Gold.Chemscore.Internal_Hbond>
0.0000

> <Gold.Chemscore.DEClash>
0.0060

> <Gold.Chemscore.DEInternal>
2.3963

> <Gold.Chemscore.Rot>
1.5104

> <Gold.Chemscore.Internal.Correction>
   9.000000E+99

> <Gold.Chemscore.Hbonds>
donor molecule, donor type, donor heavy atom, donor atom, acceptor molecule, acceptor atom, score
      L1  H    10    34       P1  8028  0.91
      L1  H    13    35       P1  8028  0.93

> <Gold.Chemscore.Hbond.Weighted>
-6.4733

> <Gold.Chemscore.Metal.Weighted>
-0.0000

> <Gold.Chemscore.Lipo.Weighted>
-10.2365

> <Gold.Chemscore.Internal_Hbond.Weighted>
0.0000

> <Gold.Chemscore.DEClash.Weighted>
0.0060

> <Gold.Chemscore.DEInternal.Weighted>
2.3963

> <Gold.Chemscore.Rot.Weighted>
3.8665

> <Gold.Chemscore.Internal.Correction.Weighted>
   9.000000E+99

> <Gold.Protein.RotatedTorsions>
[ 6907 6896 6895 6894 ] final   90.43 input  -60.11 | X-H torsion
[ 7974 7965 7964 7962 ] final  151.12 input  175.53 | X-H torsion
[ 8008 7997 7996 7995 ] final   -5.94 input   59.86 | X-H torsion
[ 10167 10162 10161 10158 ] final   56.25 input  -65.29 | X-H torsion
[ 10718 10713 10712 10709 ] final   79.79 input   66.30 | X-H torsion
[ 10763 10752 10751 10750 ] final   11.36 input  -60.55 | X-H torsion
[ 11005 11000 10999 10996 ] final  100.39 input  -57.11 | X-H torsion

> <Gold.Protein.ActiveResidues>
 VAL166  LYS551  ARG553  GLY616  TRP617  ASP618  TYR619  PRO620  LYS621  CYS622 
 ASP623  PHE694  ASN695  SER759  ASP760  ASP761  ALA762  ILE779  LEU786  VAL792 
 PHE793  MET794  SER795  GLU796  ALA797  LYS798  CYS799  TRP800  GLU811  SER814 

> <Gold.Protein.RotatedAtoms>
  152.5444  134.1812  159.8636 H   0  0  0  0  0  0  0  0  0  0  0  0  # atno 6907 bound_to 6896
  151.1815  133.4715  159.2601 H   0  0  0  0  0  0  0  0  0  0  0  0  # atno 6908 bound_to 6896
  151.1174  135.0072  159.8578 H   0  0  0  0  0  0  0  0  0  0  0  0  # atno 6909 bound_to 6896
  144.8315  139.6496  143.6056 H   0  0  0  0  0  0  0  0  0  0  0  0  # atno 7974 bound_to 7965
  154.5988  140.2445  155.7820 H   0  0  0  0  0  0  0  0  0  0  0  0  # atno 8008 bound_to 7997
  156.2297  140.2971  156.0109 H   0  0  0  0  0  0  0  0  0  0  0  0  # atno 8009 bound_to 7997
  155.2247  140.0401  157.2944 H   0  0  0  0  0  0  0  0  0  0  0  0  # atno 8010 bound_to 7997
  140.2107  144.3891  150.6490 H   0  0  0  0  0  0  0  0  0  0  0  0  # atno 10167 bound_to 10162
  157.6787  130.9930  150.1985 H   0  0  0  0  0  0  0  0  0  0  0  0  # atno 10718 bound_to 10713
  153.1934  135.6845  153.8323 H   0  0  0  0  0  0  0  0  0  0  0  0  # atno 10763 bound_to 10752
  153.7614  135.3209  155.3339 H   0  0  0  0  0  0  0  0  0  0  0  0  # atno 10764 bound_to 10752
  154.8130  135.4704  154.0667 H   0  0  0  0  0  0  0  0  0  0  0  0  # atno 10765 bound_to 10752
  139.8771  134.9138  156.4749 H   0  0  0  0  0  0  0  0  0  0  0  0  # atno 11005 bound_to 11000
  146.2618  139.6427  142.9357 LP  0  0  0  0  0  0  0  0  0  0  0  0  # atno 17320 bound_to 7965
  145.4885  141.0438  143.2606 LP  0  0  0  0  0  0  0  0  0  0  0  0  # atno 17321 bound_to 7965
  140.6325  143.2189  151.6465 LP  0  0  0  0  0  0  0  0  0  0  0  0  # atno 17342 bound_to 10162
  139.5181  144.3295  152.0839 LP  0  0  0  0  0  0  0  0  0  0  0  0  # atno 17343 bound_to 10162
  156.2681  130.3718  149.8060 LP  0  0  0  0  0  0  0  0  0  0  0  0  # atno 17370 bound_to 10713
  156.5785  130.8455  151.3376 LP  0  0  0  0  0  0  0  0  0  0  0  0  # atno 17371 bound_to 10713
  140.8769  133.7946  155.9424 LP  0  0  0  0  0  0  0  0  0  0  0  0  # atno 17394 bound_to 11000
  140.8895  134.2513  157.5102 LP  0  0  0  0  0  0  0  0  0  0  0  0  # atno 17395 bound_to 11000

$$$$
