AV-unprocessed.smi:2928|AV-procd|sdf|11236|dock6
  -GOLD-   2272016133D 1   1.00000     0.00000
 Structure written by MMmdl.
 56 59  0  0  0  0  0  0  0  0  3 V2000
  147.3762  141.8856  154.4336 C   0  0  0  0  0  0  0  0  0  0  0  0
  148.4049  141.7705  155.4947 N   0  3  2  0  0  0  0  0  0  0  0  0
  149.7748  141.4802  155.0064 C   0  0  1  0  0  0  0  0  0  0  0  0
  150.7871  141.8204  156.1252 C   0  0  0  0  0  0  0  0  0  0  0  0
  150.4792  141.1367  157.4728 C   0  0  0  0  0  0  0  0  0  0  0  0
  148.9746  141.1566  157.8134 C   0  0  0  0  0  0  0  0  0  0  0  0
  148.0550  140.8537  156.6069 C   0  0  2  0  0  0  0  0  0  0  0  0
  148.0599  139.3759  156.1408 C   0  0  0  0  0  0  0  0  0  0  0  0
  149.3452  138.9379  155.4021 C   0  0  1  0  0  0  0  0  0  0  0  0
  149.0735  137.7123  154.6536 N   0  0  0  0  0  0  0  0  0  0  0  0
  149.5241  136.4918  154.9792 C   0  0  0  0  0  0  0  0  0  0  0  0
  150.2426  136.2678  155.9532 O   0  0  0  0  0  0  0  0  0  0  0  0
  149.1096  135.5652  154.0992 N   0  0  0  0  0  0  0  0  0  0  0  0
  149.4028  134.1722  154.1023 C   0  0  0  0  0  0  0  0  0  0  0  0
  150.3373  133.6249  155.0187 C   0  0  0  0  0  0  0  0  0  0  0  0
  150.5559  132.2349  155.0537 C   0  0  0  0  0  0  0  0  0  0  0  0
  149.8243  131.4093  154.1832 C   0  0  0  0  0  0  0  0  0  0  0  0
  148.9340  131.9586  153.3315 N   0  3  0  0  0  0  0  0  0  0  0  0
  148.6900  133.2899  153.2392 C   0  0  0  0  0  0  0  0  0  0  0  0
  147.7392  133.7234  152.2874 N   0  0  0  0  0  0  0  0  0  0  0  0
  146.6151  134.5588  152.6942 C   0  0  0  0  0  0  0  0  0  0  0  0
  145.6426  134.5126  151.5190 C   0  0  0  0  0  0  0  0  0  0  0  0
  145.8188  133.0880  151.0023 C   0  0  0  0  0  0  0  0  0  0  0  0
  147.3004  132.7896  151.2546 C   0  0  0  0  0  0  0  0  0  0  0  0
  149.8811  140.0374  154.4516 C   0  0  0  0  0  0  0  0  0  0  0  0
  147.2227  140.9473  153.9014 H   0  0  0  0  0  0  0  0  0  0  0  0
  147.6663  142.6428  153.7046 H   0  0  0  0  0  0  0  0  0  0  0  0
  146.4212  142.1905  154.8618 H   0  0  0  0  0  0  0  0  0  0  0  0
  149.9864  142.1625  154.1818 H   0  0  0  0  0  0  0  0  0  0  0  0
  151.8024  141.5807  155.8076 H   0  0  0  0  0  0  0  0  0  0  0  0
  150.7719  142.8999  156.2812 H   0  0  0  0  0  0  0  0  0  0  0  0
  150.8564  140.1177  157.4755 H   0  0  0  0  0  0  0  0  0  0  0  0
  151.0371  141.6341  158.2668 H   0  0  0  0  0  0  0  0  0  0  0  0
  148.7675  140.4686  158.6337 H   0  0  0  0  0  0  0  0  0  0  0  0
  148.7253  142.1499  158.1890 H   0  0  0  0  0  0  0  0  0  0  0  0
  147.0389  141.0899  156.9267 H   0  0  0  0  0  0  0  0  0  0  0  0
  147.8809  138.7171  156.9914 H   0  0  0  0  0  0  0  0  0  0  0  0
  147.2041  139.2288  155.4806 H   0  0  0  0  0  0  0  0  0  0  0  0
  150.1035  138.7000  156.1442 H   0  0  0  0  0  0  0  0  0  0  0  0
  148.4894  137.8001  153.8347 H   0  0  0  0  0  0  0  0  0  0  0  0
  148.6122  135.9058  153.2894 H   0  0  0  0  0  0  0  0  0  0  0  0
  150.8754  134.2513  155.7142 H   0  0  0  0  0  0  0  0  0  0  0  0
  151.2654  131.8087  155.7480 H   0  0  0  0  0  0  0  0  0  0  0  0
  149.9198  130.3337  154.1442 H   0  0  0  0  0  0  0  0  0  0  0  0
  146.1343  134.1480  153.5833 H   0  0  0  0  0  0  0  0  0  0  0  0
  146.9356  135.5777  152.9140 H   0  0  0  0  0  0  0  0  0  0  0  0
  144.6158  134.7403  151.8068 H   0  0  0  0  0  0  0  0  0  0  0  0
  145.9478  135.2268  150.7529 H   0  0  0  0  0  0  0  0  0  0  0  0
  145.2017  132.4073  151.5903 H   0  0  0  0  0  0  0  0  0  0  0  0
  145.5368  132.9765  149.9551 H   0  0  0  0  0  0  0  0  0  0  0  0
  147.8768  132.9730  150.3476 H   0  0  0  0  0  0  0  0  0  0  0  0
  147.4501  131.7497  151.5490 H   0  0  0  0  0  0  0  0  0  0  0  0
  149.3250  139.9943  153.5141 H   0  0  0  0  0  0  0  0  0  0  0  0
  150.9151  139.8215  154.1799 H   0  0  0  0  0  0  0  0  0  0  0  0
  148.4523  142.6919  155.9064 H   0  0  0  0  0  0  0  0  0  0  0  0
  148.4182  131.3328  152.7129 H   0  0  0  0  0  0  0  0  0  0  0  0
  1  2  1  0  0  0  0
  1 26  1  0  0  0  0
  1 27  1  0  0  0  0
  1 28  1  0  0  0  0
  2  7  1  0  0  0  0
  2  3  1  0  0  0  0
  2 55  1  0  0  0  0
  3 25  1  0  0  0  0
  3  4  1  0  0  0  0
  3 29  1  0  0  0  0
  4  5  1  0  0  0  0
  4 30  1  0  0  0  0
  4 31  1  0  0  0  0
  5  6  1  0  0  0  0
  5 32  1  0  0  0  0
  5 33  1  0  0  0  0
  6  7  1  0  0  0  0
  6 34  1  0  0  0  0
  6 35  1  0  0  0  0
  7  8  1  0  0  0  0
  7 36  1  0  0  0  0
  8  9  1  0  0  0  0
  8 37  1  0  0  0  0
  8 38  1  0  0  0  0
  9 10  1  0  0  0  0
  9 25  1  0  0  0  0
  9 39  1  0  0  0  0
 10 11  1  0  0  0  0
 10 40  1  0  0  0  0
 11 12  2  0  0  0  0
 11 13  1  0  0  0  0
 13 14  1  0  0  0  0
 13 41  1  0  0  0  0
 14 19  1  0  0  0  0
 14 15  2  0  0  0  0
 15 16  1  0  0  0  0
 15 42  1  0  0  0  0
 16 17  2  0  0  0  0
 16 43  1  0  0  0  0
 17 18  1  0  0  0  0
 17 44  1  0  0  0  0
 18 19  2  0  0  0  0
 18 56  1  0  0  0  0
 19 20  1  0  0  0  0
 20 24  1  0  0  0  0
 20 21  1  0  0  0  0
 21 22  1  0  0  0  0
 21 45  1  0  0  0  0
 21 46  1  0  0  0  0
 22 23  1  0  0  0  0
 22 47  1  0  0  0  0
 22 48  1  0  0  0  0
 23 24  1  0  0  0  0
 23 49  1  0  0  0  0
 23 50  1  0  0  0  0
 24 51  1  0  0  0  0
 24 52  1  0  0  0  0
 25 53  1  0  0  0  0
 25 54  1  0  0  0  0
M  CHG  1   2   1
M  CHG  1  18   1
M  END
> <s_m_source_file>
AV-unprocessed.smi

> <i_m_source_file_index>
2928

> <i_lp_mmshare_version>
43012

> <i_f3d_flags>
0

> <s_epik_input>
W0NIMl0xW0NIMl1bQ0gyXVtDQEhdKE4oW0NIM10pW0NIXTEyKVtDSDJdW0NASF0oW0NIMl0yKVtOSF1DKD1PKVtOSF1jM1tjSF1bY0hdW2NIXW5jM040W0NIMl1bQ0gyXVtDSDJdW0NIMl00

> <s_epik_cmdline>
J2VwaWtfcHl0aG9uJywgJy1waCcsICc3LjAnLCAnLXRuJywgJzgnLCAnLW1hJywgJzIwMCcsICctbWV0YWxfYmluZGluZycsICctaW1hZScsICc8aW5maWxlLm1hZT4nLCAnLW9tYWUnLCAnPG91dGZpbGUubWFlPic=

> <r_lp_tautomer_probability>
0.999994

> <r_epik_Ionization_Penalty>
1.2404

> <r_epik_Ionization_Penalty_Charging>
1.24038

> <r_epik_Ionization_Penalty_Neutral>
1.86539e-05

> <r_epik_State_Penalty>
1.30821

> <r_epik_Charging_Adjusted_Penalty>
2.54859

> <i_epik_Tot_Q>
2

> <i_epik_Tot_abs_Q>
2

> <r_epik_Metal_State_Penalty>
1.3782

> <b_epik_Metal_Only>
0

> <s_lp_Force_Field>
OPLS_2005

> <r_lp_Energy>
72.136

> <b_lp_Chiralities_Consistent>
1

> <s_lp_Variant>
AV-unprocessed.smi:2928-6

> <Gold.Version>
5.8.1

> <Gold.Id.Protein>
6NUR|6NUR_protein|mol2

> <Gold.PLP.Fitness>
44.0264

> <Gold.PLP.PLP>
-36.4827

> <Gold.PLP.part.hbond>
-2.1649

> <Gold.PLP.part.metal>
0.0000

> <Gold.PLP.part.buried>
-4.2067

> <Gold.PLP.part.nonpolar>
-30.6962

> <Gold.PLP.part.repulsive>
0.6327

> <Gold.PLP.ligand.clash>
0.0000

> <Gold.PLP.ligand.torsion>
0.3284

> <Gold.PLP.Chemscore.Hbond>
2.6080

> <Gold.PLP.Chemscore.CHOScore>
0.0000

> <Gold.PLP.Chemscore.Metal>
0.0000

> <Gold.Chemscore.Hbonds>
donor molecule, donor type, donor heavy atom, donor atom, acceptor molecule, acceptor atom, score
      L1  H     2    55       P1  8028  1.68
      L1  H    13    41       P1  7948  0.63

> <Gold.PLP.Chemscore.Internal.Correction>
0.3766

> <Gold.Rescore>
     Score         DG    S(hbond)    S(metal)    S(lipo)     H(rot)  DE(clash)    DE(int)     intcor
     14.65     -17.85       1.65        0.00      84.56       1.19       0.45       2.76       ----

> <Gold.Chemscore.Fitness>
14.6473

> <Gold.Chemscore.DG>
-17.8533

> <Gold.Chemscore.ZeroCoef>
-5.4800

> <Gold.Chemscore.Hbond>
1.6528

> <Gold.Chemscore.Metal>
0.0000

> <Gold.Chemscore.Lipo>
84.5644

> <Gold.Chemscore.Internal_Hbond>
0.0000

> <Gold.Chemscore.DEClash>
0.4461

> <Gold.Chemscore.DEInternal>
2.7599

> <Gold.Chemscore.Rot>
1.1879

> <Gold.Chemscore.Internal.Correction>
   9.000000E+99

> <Gold.Chemscore.Hbonds>
donor molecule, donor type, donor heavy atom, donor atom, acceptor molecule, acceptor atom, score
      L1  H     2    55       P1  8028  0.78
      L1  H    13    41       P1  7948  0.61

> <Gold.Chemscore.Hbond.Weighted>
-5.5203

> <Gold.Chemscore.Metal.Weighted>
-0.0000

> <Gold.Chemscore.Lipo.Weighted>
-9.8940

> <Gold.Chemscore.Internal_Hbond.Weighted>
0.0000

> <Gold.Chemscore.DEClash.Weighted>
0.4461

> <Gold.Chemscore.DEInternal.Weighted>
2.7599

> <Gold.Chemscore.Rot.Weighted>
3.0410

> <Gold.Chemscore.Internal.Correction.Weighted>
   9.000000E+99

> <Gold.Protein.RotatedTorsions>
[ 6907 6896 6895 6894 ] final  -27.92 input  -60.11 | X-H torsion
[ 7974 7965 7964 7962 ] final -115.80 input  175.53 | X-H torsion
[ 8008 7997 7996 7995 ] final  119.91 input   59.86 | X-H torsion
[ 10167 10162 10161 10158 ] final  -28.29 input  -65.29 | X-H torsion
[ 10718 10713 10712 10709 ] final  175.96 input   66.30 | X-H torsion
[ 10763 10752 10751 10750 ] final  166.14 input  -60.55 | X-H torsion
[ 11005 11000 10999 10996 ] final -124.39 input  -57.11 | X-H torsion

> <Gold.Protein.ActiveResidues>
 VAL166  LYS551  ARG553  GLY616  TRP617  ASP618  TYR619  PRO620  LYS621  CYS622 
 ASP623  PHE694  ASN695  SER759  ASP760  ASP761  ALA762  ILE779  LEU786  VAL792 
 PHE793  MET794  SER795  GLU796  ALA797  LYS798  CYS799  TRP800  GLU811  SER814 

> <Gold.Protein.RotatedAtoms>
  151.1402  135.0175  159.8621 H   0  0  0  0  0  0  0  0  0  0  0  0  # atno 6907 bound_to 6896
  152.5452  134.1508  159.8528 H   0  0  0  0  0  0  0  0  0  0  0  0  # atno 6908 bound_to 6896
  151.1583  133.4816  159.2627 H   0  0  0  0  0  0  0  0  0  0  0  0  # atno 6909 bound_to 6896
  145.1042  140.8571  143.3908 H   0  0  0  0  0  0  0  0  0  0  0  0  # atno 7974 bound_to 7965
  156.2618  140.2842  156.1066 H   0  0  0  0  0  0  0  0  0  0  0  0  # atno 8008 bound_to 7997
  155.1303  140.0393  157.2790 H   0  0  0  0  0  0  0  0  0  0  0  0  # atno 8009 bound_to 7997
  154.6605  140.2565  155.7121 H   0  0  0  0  0  0  0  0  0  0  0  0  # atno 8010 bound_to 7997
  140.7271  143.4022  151.1245 H   0  0  0  0  0  0  0  0  0  0  0  0  # atno 10167 bound_to 10162
  156.9272  130.9959  151.2994 H   0  0  0  0  0  0  0  0  0  0  0  0  # atno 10718 bound_to 10713
  154.3346  135.2754  155.2454 H   0  0  0  0  0  0  0  0  0  0  0  0  # atno 10763 bound_to 10752
  154.4751  135.5873  153.6353 H   0  0  0  0  0  0  0  0  0  0  0  0  # atno 10764 bound_to 10752
  152.9863  135.6098  154.3541 H   0  0  0  0  0  0  0  0  0  0  0  0  # atno 10765 bound_to 10752
  140.9845  134.0626  157.3727 H   0  0  0  0  0  0  0  0  0  0  0  0  # atno 11005 bound_to 11000
  145.0921  139.2883  143.5730 LP  0  0  0  0  0  0  0  0  0  0  0  0  # atno 17320 bound_to 7965
  146.3529  140.0461  142.8639 LP  0  0  0  0  0  0  0  0  0  0  0  0  # atno 17321 bound_to 7965
  139.7644  143.8587  152.3107 LP  0  0  0  0  0  0  0  0  0  0  0  0  # atno 17342 bound_to 10162
  139.8484  144.7176  150.9244 LP  0  0  0  0  0  0  0  0  0  0  0  0  # atno 17343 bound_to 10162
  157.5870  130.8416  149.8603 LP  0  0  0  0  0  0  0  0  0  0  0  0  # atno 17370 bound_to 10713
  156.0463  130.3727  150.1308 LP  0  0  0  0  0  0  0  0  0  0  0  0  # atno 17371 bound_to 10713
  139.8964  135.0146  156.7052 LP  0  0  0  0  0  0  0  0  0  0  0  0  # atno 17394 bound_to 11000
  140.7136  133.9202  155.8100 LP  0  0  0  0  0  0  0  0  0  0  0  0  # atno 17395 bound_to 11000

$$$$
