AV-unprocessed.smi:781|AV-procd|sdf|3713|dock10
  -GOLD-   22720 1133D 1   1.00000     0.00000
 Structure written by MMmdl.
 38 40  0  0  0  0  0  0  0  0  1 V2000
  144.3681  132.2458  150.0575 C   0  0  0  0  0  0  0  0  0  0  0  0
  145.3904  132.5588  151.0958 C   0  0  0  0  0  0  0  0  0  0  0  0
  146.1135  133.6833  151.3793 C   0  0  0  0  0  0  0  0  0  0  0  0
  146.8987  133.2862  152.4940 C   0  0  0  0  0  0  0  0  0  0  0  0
  147.8076  134.1889  153.1025 N   0  0  0  0  0  0  0  0  0  0  0  0
  148.1768  134.2340  154.3937 C   0  0  0  0  0  0  0  0  0  0  0  0
  147.7642  133.4826  155.2775 O   0  0  0  0  0  0  0  0  0  0  0  0
  149.0604  135.2177  154.6122 N   0  0  0  0  0  0  0  0  0  0  0  0
  149.6457  135.5439  155.9131 C   0  0  2  0  0  0  0  0  0  0  0  0
  148.5880  135.8799  156.9968 C   0  0  2  0  0  0  0  0  0  0  0  0
  147.5714  136.9222  156.4840 C   0  0  0  0  0  0  0  0  0  0  0  0
  148.4186  138.2049  156.4049 C   0  0  0  0  0  0  0  0  0  0  0  0
  149.7988  137.7408  156.9163 C   0  0  1  0  0  0  0  0  0  0  0  0
  149.3943  136.7246  157.9780 C   0  0  0  0  0  0  0  0  0  0  0  0
  150.5232  136.8273  155.8972 C   0  0  2  0  0  0  0  0  0  0  0  0
  150.8319  137.4558  154.5194 C   0  0  0  0  0  0  0  0  0  0  0  0
  151.8915  136.7649  153.8920 O   0  0  0  0  0  0  0  0  0  0  0  0
  146.6760  132.0326  152.8579 N   0  0  0  0  0  0  0  0  0  0  0  0
  145.7091  131.5596  151.9627 O   0  0  0  0  0  0  0  0  0  0  0  0
  143.8932  133.1565  149.6926 H   0  0  0  0  0  0  0  0  0  0  0  0
  143.5894  131.5982  150.4606 H   0  0  0  0  0  0  0  0  0  0  0  0
  144.8247  131.7385  149.2078 H   0  0  0  0  0  0  0  0  0  0  0  0
  146.0827  134.6349  150.8697 H   0  0  0  0  0  0  0  0  0  0  0  0
  148.2204  134.8746  152.4880 H   0  0  0  0  0  0  0  0  0  0  0  0
  149.3440  135.7883  153.8295 H   0  0  0  0  0  0  0  0  0  0  0  0
  150.2600  134.7045  156.2452 H   0  0  0  0  0  0  0  0  0  0  0  0
  148.1188  134.9978  157.4338 H   0  0  0  0  0  0  0  0  0  0  0  0
  147.1142  136.6595  155.5304 H   0  0  0  0  0  0  0  0  0  0  0  0
  146.7618  137.0490  157.2041 H   0  0  0  0  0  0  0  0  0  0  0  0
  148.4488  138.6285  155.4023 H   0  0  0  0  0  0  0  0  0  0  0  0
  148.0050  138.9688  157.0645 H   0  0  0  0  0  0  0  0  0  0  0  0
  150.4212  138.5557  157.2869 H   0  0  0  0  0  0  0  0  0  0  0  0
  148.7913  137.1521  158.7813 H   0  0  0  0  0  0  0  0  0  0  0  0
  150.2400  136.1906  158.4154 H   0  0  0  0  0  0  0  0  0  0  0  0
  151.4865  136.5584  156.3354 H   0  0  0  0  0  0  0  0  0  0  0  0
  149.9558  137.3880  153.8739 H   0  0  0  0  0  0  0  0  0  0  0  0
  151.0874  138.5120  154.5940 H   0  0  0  0  0  0  0  0  0  0  0  0
  151.6158  136.5157  153.0232 H   0  0  0  0  0  0  0  0  0  0  0  0
  1  2  1  0  0  0  0
  1 20  1  0  0  0  0
  1 21  1  0  0  0  0
  1 22  1  0  0  0  0
  2 19  1  0  0  0  0
  2  3  2  0  0  0  0
  3  4  1  0  0  0  0
  3 23  1  0  0  0  0
  4  5  1  0  0  0  0
  4 18  2  0  0  0  0
  5  6  1  0  0  0  0
  5 24  1  0  0  0  0
  6  7  2  0  0  0  0
  6  8  1  0  0  0  0
  8  9  1  0  0  0  0
  8 25  1  0  0  0  0
  9 15  1  0  0  0  0
  9 10  1  0  0  0  0
  9 26  1  0  0  0  0
 10 14  1  0  0  0  0
 10 11  1  0  0  0  0
 10 27  1  0  0  0  0
 11 12  1  0  0  0  0
 11 28  1  0  0  0  0
 11 29  1  0  0  0  0
 12 13  1  0  0  0  0
 12 30  1  0  0  0  0
 12 31  1  0  0  0  0
 13 14  1  0  0  0  0
 13 15  1  0  0  0  0
 13 32  1  0  0  0  0
 14 33  1  0  0  0  0
 14 34  1  0  0  0  0
 15 16  1  0  0  0  0
 15 35  1  0  0  0  0
 16 17  1  0  0  0  0
 16 36  1  0  0  0  0
 16 37  1  0  0  0  0
 17 38  1  0  0  0  0
 18 19  1  0  0  0  0
M  END
> <s_m_source_file>
AV-unprocessed.smi

> <i_m_source_file_index>
781

> <i_lp_mmshare_version>
43012

> <i_f3d_flags>
0

> <s_epik_input>
W0NIM11jMVtjSF1jKG5vMSlbTkhdQyg9TylbTkhdW0NASF0oW0NAQEhdMjMpW0NASF0oW0NIMl1bT0hdKVtDQEBIXShbQ0gyXTMpW0NIMl1bQ0gyXTI=

> <s_epik_cmdline>
J2VwaWtfcHl0aG9uJywgJy1waCcsICc3LjAnLCAnLXRuJywgJzgnLCAnLW1hJywgJzIwMCcsICctbWV0YWxfYmluZGluZycsICctaW1hZScsICc8aW5maWxlLm1hZT4nLCAnLW9tYWUnLCAnPG91dGZpbGUubWFlPic=

> <r_lp_tautomer_probability>
1

> <r_epik_Ionization_Penalty>
2.32222e-05

> <r_epik_Ionization_Penalty_Charging>
0

> <r_epik_Ionization_Penalty_Neutral>
2.32222e-05

> <r_epik_State_Penalty>
-0

> <r_epik_Charging_Adjusted_Penalty>
0

> <i_epik_Tot_Q>
0

> <i_epik_Tot_abs_Q>
0

> <r_epik_Metal_State_Penalty>
-0

> <b_epik_Metal_Only>
0

> <s_lp_Force_Field>
OPLS_2005

> <r_lp_Energy>
48.8518

> <b_lp_Chiralities_Consistent>
1

> <s_lp_Variant>
AV-unprocessed.smi:781-7

> <Gold.Version>
5.8.1

> <Gold.Id.Protein>
6NUR|6NUR_protein|mol2

> <Gold.PLP.Fitness>
35.0080

> <Gold.PLP.PLP>
-24.2271

> <Gold.PLP.part.hbond>
-4.0000

> <Gold.PLP.part.metal>
0.0000

> <Gold.PLP.part.buried>
-4.6311

> <Gold.PLP.part.nonpolar>
-16.2901

> <Gold.PLP.part.repulsive>
0.2910

> <Gold.PLP.ligand.clash>
0.0000

> <Gold.PLP.ligand.torsion>
0.4334

> <Gold.PLP.Chemscore.Hbond>
3.8800

> <Gold.PLP.Chemscore.CHOScore>
0.0000

> <Gold.PLP.Chemscore.Metal>
0.0000

> <Gold.Chemscore.Hbonds>
donor molecule, donor type, donor heavy atom, donor atom, acceptor molecule, acceptor atom, score
      L1  H     5    24       P1  7948  1.00
      L1  H     8    25       P1  7948  0.90
      L1  H    17    38       P1  7949  1.00
      P1  H 10752 10764       L1    17  1.00

> <Gold.PLP.Chemscore.Internal.Correction>
0.0078

> <Gold.Rescore>
     Score         DG    S(hbond)    S(metal)    S(lipo)     H(rot)  DE(clash)    DE(int)     intcor
     16.89     -17.46       3.46        0.00      44.32       1.86       0.00       0.57       ----

> <Gold.Chemscore.Fitness>
16.8860

> <Gold.Chemscore.DG>
-17.4551

> <Gold.Chemscore.ZeroCoef>
-5.4800

> <Gold.Chemscore.Hbond>
3.4575

> <Gold.Chemscore.Metal>
0.0000

> <Gold.Chemscore.Lipo>
44.3181

> <Gold.Chemscore.Internal_Hbond>
0.0000

> <Gold.Chemscore.DEClash>
0.0000

> <Gold.Chemscore.DEInternal>
0.5691

> <Gold.Chemscore.Rot>
1.8587

> <Gold.Chemscore.Internal.Correction>
   9.000000E+99

> <Gold.Chemscore.Hbonds>
donor molecule, donor type, donor heavy atom, donor atom, acceptor molecule, acceptor atom, score
      L1  H     5    24       P1  7948  0.55
      L1  H     8    25       P1  7948  0.50
      L1  H    17    38       P1  7949  0.98
      P1  H 10752 10764       L1    17  0.24

> <Gold.Chemscore.Hbond.Weighted>
-11.5482

> <Gold.Chemscore.Metal.Weighted>
-0.0000

> <Gold.Chemscore.Lipo.Weighted>
-5.1852

> <Gold.Chemscore.Internal_Hbond.Weighted>
0.0000

> <Gold.Chemscore.DEClash.Weighted>
0.0000

> <Gold.Chemscore.DEInternal.Weighted>
0.5691

> <Gold.Chemscore.Rot.Weighted>
4.7583

> <Gold.Chemscore.Internal.Correction.Weighted>
   9.000000E+99

> <Gold.Protein.RotatedTorsions>
[ 6907 6896 6895 6894 ] final  -36.00 input  -60.11 | X-H torsion
[ 7974 7965 7964 7962 ] final    9.80 input  175.53 | X-H torsion
[ 8008 7997 7996 7995 ] final   93.09 input   59.86 | X-H torsion
[ 10167 10162 10161 10158 ] final  119.26 input  -65.29 | X-H torsion
[ 10718 10713 10712 10709 ] final  109.69 input   66.30 | X-H torsion
[ 10763 10752 10751 10750 ] final  -84.64 input  -60.55 | X-H torsion
[ 11005 11000 10999 10996 ] final  -12.47 input  -57.11 | X-H torsion

> <Gold.Protein.ActiveResidues>
 VAL166  LYS551  ARG553  GLY616  TRP617  ASP618  TYR619  PRO620  LYS621  CYS622 
 ASP623  PHE694  ASN695  SER759  ASP760  ASP761  ALA762  ILE779  LEU786  VAL792 
 PHE793  MET794  SER795  GLU796  ALA797  LYS798  CYS799  TRP800  GLU811  SER814 

> <Gold.Protein.RotatedAtoms>
  151.0327  134.9551  159.8119 H   0  0  0  0  0  0  0  0  0  0  0  0  # atno 6907 bound_to 6896
  152.5349  134.2759  159.8999 H   0  0  0  0  0  0  0  0  0  0  0  0  # atno 6908 bound_to 6896
  151.2769  133.4186  159.2658 H   0  0  0  0  0  0  0  0  0  0  0  0  # atno 6909 bound_to 6896
  146.2398  139.9729  142.8445 H   0  0  0  0  0  0  0  0  0  0  0  0  # atno 7974 bound_to 7965
  156.0428  140.3317  155.7263 H   0  0  0  0  0  0  0  0  0  0  0  0  # atno 8008 bound_to 7997
  155.5719  140.0628  157.2822 H   0  0  0  0  0  0  0  0  0  0  0  0  # atno 8009 bound_to 7997
  154.4400  140.1859  156.0876 H   0  0  0  0  0  0  0  0  0  0  0  0  # atno 8010 bound_to 7997
  139.6058  144.7069  151.2958 H   0  0  0  0  0  0  0  0  0  0  0  0  # atno 10167 bound_to 10162
  157.6529  131.0918  150.6491 H   0  0  0  0  0  0  0  0  0  0  0  0  # atno 10718 bound_to 10713
  154.6019  135.5513  153.7383 H   0  0  0  0  0  0  0  0  0  0  0  0  # atno 10763 bound_to 10752
  153.0158  135.6368  154.1703 H   0  0  0  0  0  0  0  0  0  0  0  0  # atno 10764 bound_to 10752
  154.1642  135.2895  155.3080 H   0  0  0  0  0  0  0  0  0  0  0  0  # atno 10765 bound_to 10752
  140.7661  133.8476  155.9166 H   0  0  0  0  0  0  0  0  0  0  0  0  # atno 11005 bound_to 11000
  145.1664  140.9699  143.4347 LP  0  0  0  0  0  0  0  0  0  0  0  0  # atno 17320 bound_to 7965
  145.0068  139.3546  143.6140 LP  0  0  0  0  0  0  0  0  0  0  0  0  # atno 17321 bound_to 7965
  140.7283  143.6938  150.7900 LP  0  0  0  0  0  0  0  0  0  0  0  0  # atno 17342 bound_to 10162
  140.0524  143.5237  152.2667 LP  0  0  0  0  0  0  0  0  0  0  0  0  # atno 17343 bound_to 10162
  156.6801  130.4564  149.5630 LP  0  0  0  0  0  0  0  0  0  0  0  0  # atno 17370 bound_to 10713
  156.1935  130.6575  151.1088 LP  0  0  0  0  0  0  0  0  0  0  0  0  # atno 17371 bound_to 10713
  140.9618  134.1646  157.4648 LP  0  0  0  0  0  0  0  0  0  0  0  0  # atno 17394 bound_to 11000
  139.8763  134.9947  156.5708 LP  0  0  0  0  0  0  0  0  0  0  0  0  # atno 17395 bound_to 11000

$$$$
