#       Name:                AV-unprocessed.smi:2757
#       Creating user name   scv26
#       Creation time:       Fri Mar 27 15:06:52 2020


#       File generated by GOLD software.
#

@<TRIPOS>MOLECULE
AV-unprocessed.smi:2757
    35    36     1
SMALL
NO_CHARGES


@<TRIPOS>ATOM
      1 ****        -5.1497   0.3345   0.5125 C.3            1 S1                 0.0000
      2 ****        -3.7081   0.5196   0.4541 N.am           1 S1                 0.0000
      3 ****        -3.0878   1.6912   0.6580 C.2            1 S1                 0.0000
      4 ****        -3.6782   2.7412   0.9140 O.2            1 S1                 0.0000
      5 ****        -1.5906   1.6419   0.5704 C.2            1 S1                 0.0000
      6 ****        -0.8029   2.7870   0.8882 C.2            1 S1                 0.0000
      7 ****         0.4820   2.3654   0.7008 C.2            1 S1                 0.0000
      8 ****         0.4301   1.0480   0.2960 N.pl3          1 S1                 0.0000
      9 ****         1.5390   0.1636  -0.0292 C.3            1 S1                 0.0000
     10 ****         1.5696  -1.0744   0.8903 C.3            1 S1                 0.0000
     11 ****         2.7392  -1.9939   0.5077 C.3            1 S1                 0.0000
     12 ****         2.6788  -2.3687  -0.9829 C.3            1 S1                 0.0000
     13 ****         2.6436  -1.1550  -1.8282 N.4            1 S1                 1.0000
     14 ****         1.5057  -0.2635  -1.5122 C.3            1 S1                 0.0000
     15 ****        -0.8445   0.6055   0.2101 N.2            1 S1                 0.0000
     16 ****        -5.4018  -0.6996   0.2774 H              1 S1                 0.0000
     17 ****        -5.6552   0.9809  -0.2062 H              1 S1                 0.0000
     18 ****        -5.5283   0.5594   1.5103 H              1 S1                 0.0000
     19 ****        -3.1417  -0.2921   0.2543 H              1 S1                 0.0000
     20 ****        -1.1289   3.7662   1.2074 H              1 S1                 0.0000
     21 ****         1.4186   2.8896   0.8221 H              1 S1                 0.0000
     22 ****         2.4573   0.7292   0.1383 H              1 S1                 0.0000
     23 ****         1.6610  -0.7689   1.9331 H              1 S1                 0.0000
     24 ****         0.6345  -1.6303   0.8092 H              1 S1                 0.0000
     25 ****         3.6842  -1.4936   0.7234 H              1 S1                 0.0000
     26 ****         2.7196  -2.8958   1.1204 H              1 S1                 0.0000
     27 ****         3.5461  -2.9696  -1.2576 H              1 S1                 0.0000
     28 ****         1.7939  -2.9731  -1.1867 H              1 S1                 0.0000
     29 ****         3.5023  -0.6415  -1.6897 H              1 S1                 0.0000
     30 ****         0.5758  -0.7837  -1.7469 H              1 S1                 0.0000
     31 ****         1.5530   0.6116  -2.1610 H              1 S1                 0.0000
     32 ****         2.5828  -1.4325  -2.7975 H              1 S1                 0.0000
     33 ****        -4.6760   2.7506   0.9797 LP             1 S1                 0.0000
     34 ****        -3.1598   3.5845   1.0562 LP             1 S1                 0.0000
     35 ****        -1.1567  -0.3038  -0.0648 LP             1 S1                 0.0000
@<TRIPOS>BOND
    1    1    2 1     
    2    1   16 1     
    3    1   17 1     
    4    1   18 1     
    5    2    3 am    
    6    2   19 1     
    7    3    4 2     
    8    3    5 1     
    9    5   15 2     
   10    5    6 1     
   11    6    7 2     
   12    6   20 1     
   13    7    8 1     
   14    7   21 1     
   15    8    9 1     
   16    8   15 1     
   17    9   14 1     
   18    9   10 1     
   19    9   22 1     
   20   10   11 1     
   21   10   23 1     
   22   10   24 1     
   23   11   12 1     
   24   11   25 1     
   25   11   26 1     
   26   12   13 1     
   27   12   27 1     
   28   12   28 1     
   29   13   14 1     
   30   13   29 1     
   31   13   32 1     
   32   14   30 1     
   33   14   31 1     
   34    4   33 1     
   35    4   34 1     
   36   15   35 1     
@<TRIPOS>SUBSTRUCTURE
      1 S1             1
@<TRIPOS>SET
LONE_PAIRS      STATIC     ATOMS    <user>   **** ""
3 33 34 35
DONOR_HYDROGENS      STATIC     ATOMS    <user>   **** ""
3 19 29 32
ATOM$BLUE        STATIC     ATOMS    COLORGROUP SYSTEM
3 33 34 35
ATOM$RED        STATIC     ATOMS    COLORGROUP SYSTEM
3 19 29 32
