AV-unprocessed.smi:1523|AV-procd|sdf|6138|dock8
  -GOLD-   22720 6283D 1   1.00000     0.00000
 Structure written by MMmdl.
 37 38  0  0  0  0  0  0  0  0  1 V2000
  152.3754  143.3623  161.0228 C   0  0  0  0  0  0  0  0  0  0  0  0
  151.7164  143.5739  159.7031 C   0  0  0  0  0  0  0  0  0  0  0  0
  151.8083  142.7119  158.6873 N   0  0  0  0  0  0  0  0  0  0  0  0
  151.1025  143.1349  157.5562 C   0  0  0  0  0  0  0  0  0  0  0  0
  151.0892  142.2850  156.3220 C   0  0  0  0  0  0  0  0  0  0  0  0
  150.6823  140.8330  156.6220 C   0  0  0  0  0  0  0  0  0  0  0  0
  149.3501  140.5333  156.1104 N   0  0  0  0  0  0  0  0  0  0  0  0
  148.9263  140.7674  154.8566 C   0  0  0  0  0  0  0  0  0  0  0  0
  149.6569  141.2759  154.0051 O   0  0  0  0  0  0  0  0  0  0  0  0
  147.6414  140.4024  154.6127 N   0  0  0  0  0  0  0  0  0  0  0  0
  146.6587  139.9409  155.6099 C   0  0  0  0  0  0  0  0  0  0  0  0
  145.6099  141.0478  155.8221 C   0  0  0  0  0  0  0  0  0  0  0  0
  144.9380  141.4235  154.4860 C   0  0  0  0  0  0  0  0  0  0  0  0
  144.0989  142.5438  154.6696 O   0  0  0  0  0  0  0  0  0  0  0  0
  145.9819  141.7244  153.3919 C   0  0  0  0  0  0  0  0  0  0  0  0
  147.0158  140.5867  153.2958 C   0  0  0  0  0  0  0  0  0  0  0  0
  150.4705  144.3406  157.7328 C   0  0  0  0  0  0  0  0  0  0  0  0
  150.7418  144.9896  159.3266 S   0  0  0  0  0  0  0  0  0  0  0  0
  152.4368  142.2978  161.2510 H   0  0  0  0  0  0  0  0  0  0  0  0
  151.8057  143.8547  161.8113 H   0  0  0  0  0  0  0  0  0  0  0  0
  153.3831  143.7775  161.0067 H   0  0  0  0  0  0  0  0  0  0  0  0
  150.4053  142.7129  155.5878 H   0  0  0  0  0  0  0  0  0  0  0  0
  152.0745  142.2975  155.8541 H   0  0  0  0  0  0  0  0  0  0  0  0
  151.3843  140.1448  156.1504 H   0  0  0  0  0  0  0  0  0  0  0  0
  150.7282  140.6360  157.6945 H   0  0  0  0  0  0  0  0  0  0  0  0
  148.6975  140.1172  156.7584 H   0  0  0  0  0  0  0  0  0  0  0  0
  146.1730  139.0371  155.2389 H   0  0  0  0  0  0  0  0  0  0  0  0
  147.0966  139.6562  156.5666 H   0  0  0  0  0  0  0  0  0  0  0  0
  144.8593  140.7190  156.5416 H   0  0  0  0  0  0  0  0  0  0  0  0
  146.0948  141.9240  156.2559 H   0  0  0  0  0  0  0  0  0  0  0  0
  144.3155  140.5901  154.1574 H   0  0  0  0  0  0  0  0  0  0  0  0
  143.2035  142.2760  154.5284 H   0  0  0  0  0  0  0  0  0  0  0  0
  145.4889  141.8654  152.4294 H   0  0  0  0  0  0  0  0  0  0  0  0
  146.4975  142.6597  153.6166 H   0  0  0  0  0  0  0  0  0  0  0  0
  147.7388  140.8091  152.5097 H   0  0  0  0  0  0  0  0  0  0  0  0
  146.5274  139.6595  152.9932 H   0  0  0  0  0  0  0  0  0  0  0  0
  149.8627  144.8839  157.0245 H   0  0  0  0  0  0  0  0  0  0  0  0
  1  2  1  0  0  0  0
  1 19  1  0  0  0  0
  1 20  1  0  0  0  0
  1 21  1  0  0  0  0
  2 18  1  0  0  0  0
  2  3  2  0  0  0  0
  3  4  1  0  0  0  0
  4  5  1  0  0  0  0
  4 17  2  0  0  0  0
  5  6  1  0  0  0  0
  5 22  1  0  0  0  0
  5 23  1  0  0  0  0
  6  7  1  0  0  0  0
  6 24  1  0  0  0  0
  6 25  1  0  0  0  0
  7  8  1  0  0  0  0
  7 26  1  0  0  0  0
  8  9  2  0  0  0  0
  8 10  1  0  0  0  0
 10 16  1  0  0  0  0
 10 11  1  0  0  0  0
 11 12  1  0  0  0  0
 11 27  1  0  0  0  0
 11 28  1  0  0  0  0
 12 13  1  0  0  0  0
 12 29  1  0  0  0  0
 12 30  1  0  0  0  0
 13 14  1  0  0  0  0
 13 15  1  0  0  0  0
 13 31  1  0  0  0  0
 14 32  1  0  0  0  0
 15 16  1  0  0  0  0
 15 33  1  0  0  0  0
 15 34  1  0  0  0  0
 16 35  1  0  0  0  0
 16 36  1  0  0  0  0
 17 18  1  0  0  0  0
 17 37  1  0  0  0  0
M  END
> <s_m_source_file>
AV-unprocessed.smi

> <i_m_source_file_index>
1523

> <i_lp_mmshare_version>
43012

> <i_f3d_flags>
0

> <s_epik_input>
W0NIM11jMW5jKFtjSF1zMSlbQ0gyXVtDSDJdW05IXUMoPU8pTjJbQ0gyXVtDSDJdW0NIXShbT0hdKVtDSDJdW0NIMl0y

> <s_epik_cmdline>
J2VwaWtfcHl0aG9uJywgJy1waCcsICc3LjAnLCAnLXRuJywgJzgnLCAnLW1hJywgJzIwMCcsICctbWV0YWxfYmluZGluZycsICctaW1hZScsICc8aW5maWxlLm1hZT4nLCAnLW9tYWUnLCAnPG91dGZpbGUubWFlPic=

> <r_epik_Ionization_Penalty>
0.00204564

> <r_epik_Ionization_Penalty_Charging>
0

> <r_epik_Ionization_Penalty_Neutral>
0.00204564

> <r_epik_State_Penalty>
0.00135655

> <r_epik_Charging_Adjusted_Penalty>
0.00135655

> <i_epik_Tot_Q>
0

> <i_epik_Tot_abs_Q>
0

> <r_epik_Metal_State_Penalty>
-0

> <b_epik_Metal_Only>
0

> <s_lp_Force_Field>
OPLS_2005

> <r_lp_Energy>
24.1717

> <b_lp_Chiralities_Consistent>
1

> <s_lp_Variant>
AV-unprocessed.smi:1523-1

> <Gold.Version>
5.8.1

> <Gold.Id.Protein>
6NUR|6NUR_protein|mol2

> <Gold.PLP.Fitness>
41.8352

> <Gold.PLP.PLP>
-38.2104

> <Gold.PLP.part.hbond>
-2.0000

> <Gold.PLP.part.metal>
0.0000

> <Gold.PLP.part.buried>
-5.7773

> <Gold.PLP.part.nonpolar>
-31.0292

> <Gold.PLP.part.repulsive>
0.2188

> <Gold.PLP.ligand.clash>
0.0000

> <Gold.PLP.ligand.torsion>
0.4584

> <Gold.PLP.Chemscore.Hbond>
0.5075

> <Gold.PLP.Chemscore.CHOScore>
1.0000

> <Gold.PLP.Chemscore.Metal>
0.0000

> <Gold.Chemscore.Hbonds>
donor molecule, donor type, donor heavy atom, donor atom, acceptor molecule, acceptor atom, score
      P1  H  7989  7998       L1     9  0.31
      P1  H  8011  8017       L1     9  0.75
      L1  C    17    37       P1  8028  0.02

> <Gold.PLP.Chemscore.Internal.Correction>
0.0191

> <Gold.Rescore>
     Score         DG    S(hbond)    S(metal)    S(lipo)     H(rot)  DE(clash)    DE(int)     intcor
     11.13     -13.59       0.76        0.00      88.29       1.86       0.96       1.50       ----

> <Gold.Chemscore.Fitness>
11.1298

> <Gold.Chemscore.DG>
-13.5929

> <Gold.Chemscore.ZeroCoef>
-5.4800

> <Gold.Chemscore.Hbond>
0.7625

> <Gold.Chemscore.Metal>
0.0000

> <Gold.Chemscore.Lipo>
88.2854

> <Gold.Chemscore.Internal_Hbond>
0.0000

> <Gold.Chemscore.DEClash>
0.9606

> <Gold.Chemscore.DEInternal>
1.5025

> <Gold.Chemscore.Rot>
1.8607

> <Gold.Chemscore.Internal.Correction>
   9.000000E+99

> <Gold.Chemscore.Hbonds>
donor molecule, donor type, donor heavy atom, donor atom, acceptor molecule, acceptor atom, score
      P1  H  7989  7998       L1     9  0.29
      P1  H  8011  8017       L1     9  0.71

> <Gold.Chemscore.Hbond.Weighted>
-2.5468

> <Gold.Chemscore.Metal.Weighted>
-0.0000

> <Gold.Chemscore.Lipo.Weighted>
-10.3294

> <Gold.Chemscore.Internal_Hbond.Weighted>
0.0000

> <Gold.Chemscore.DEClash.Weighted>
0.9606

> <Gold.Chemscore.DEInternal.Weighted>
1.5025

> <Gold.Chemscore.Rot.Weighted>
4.7633

> <Gold.Chemscore.Internal.Correction.Weighted>
   9.000000E+99

> <Gold.Protein.RotatedTorsions>
[ 6907 6896 6895 6894 ] final   60.34 input  -60.11 | X-H torsion
[ 7974 7965 7964 7962 ] final  174.59 input  175.53 | X-H torsion
[ 8008 7997 7996 7995 ] final   62.23 input   59.86 | X-H torsion
[ 10167 10162 10161 10158 ] final -104.82 input  -65.29 | X-H torsion
[ 10718 10713 10712 10709 ] final    7.33 input   66.30 | X-H torsion
[ 10763 10752 10751 10750 ] final  130.89 input  -60.55 | X-H torsion
[ 11005 11000 10999 10996 ] final -142.52 input  -57.11 | X-H torsion

> <Gold.Protein.ActiveResidues>
 VAL166  LYS551  ARG553  GLY616  TRP617  ASP618  TYR619  PRO620  LYS621  CYS622 
 ASP623  PHE694  ASN695  SER759  ASP760  ASP761  ALA762  ILE779  LEU786  VAL792 
 PHE793  MET794  SER795  GLU796  ALA797  LYS798  CYS799  TRP800  GLU811  SER814 

> <Gold.Protein.RotatedAtoms>
  152.3994  134.6311  160.0075 H   0  0  0  0  0  0  0  0  0  0  0  0  # atno 6907 bound_to 6896
  151.6521  133.3315  159.3162 H   0  0  0  0  0  0  0  0  0  0  0  0  # atno 6908 bound_to 6896
  150.7896  134.6953  159.6564 H   0  0  0  0  0  0  0  0  0  0  0  0  # atno 6909 bound_to 6896
  144.7218  139.9819  143.6439 H   0  0  0  0  0  0  0  0  0  0  0  0  # atno 7974 bound_to 7965
  155.6110  140.3495  155.4622 H   0  0  0  0  0  0  0  0  0  0  0  0  # atno 8008 bound_to 7997
  156.0154  140.1242  157.0436 H   0  0  0  0  0  0  0  0  0  0  0  0  # atno 8009 bound_to 7997
  154.4296  140.1073  156.5874 H   0  0  0  0  0  0  0  0  0  0  0  0  # atno 8010 bound_to 7997
  140.2052  143.3788  152.1096 H   0  0  0  0  0  0  0  0  0  0  0  0  # atno 10167 bound_to 10162
  156.9354  130.5841  149.5651 H   0  0  0  0  0  0  0  0  0  0  0  0  # atno 10718 bound_to 10713
  153.7654  135.3190  155.3344 H   0  0  0  0  0  0  0  0  0  0  0  0  # atno 10763 bound_to 10752
  154.8215  135.4600  154.0796 H   0  0  0  0  0  0  0  0  0  0  0  0  # atno 10764 bound_to 10752
  153.2040  135.6926  153.8280 H   0  0  0  0  0  0  0  0  0  0  0  0  # atno 10765 bound_to 10752
  140.8217  134.2623  157.4897 H   0  0  0  0  0  0  0  0  0  0  0  0  # atno 11005 bound_to 11000
  146.0480  139.3484  143.0656 LP  0  0  0  0  0  0  0  0  0  0  0  0  # atno 17320 bound_to 7965
  145.8250  140.9660  143.0879 LP  0  0  0  0  0  0  0  0  0  0  0  0  # atno 17321 bound_to 7965
  139.5201  144.7029  151.5441 LP  0  0  0  0  0  0  0  0  0  0  0  0  # atno 17342 bound_to 10162
  140.6362  143.8979  150.6650 LP  0  0  0  0  0  0  0  0  0  0  0  0  # atno 17343 bound_to 10162
  156.0428  130.5508  150.8811 LP  0  0  0  0  0  0  0  0  0  0  0  0  # atno 17370 bound_to 10713
  157.5820  131.0946  150.9256 LP  0  0  0  0  0  0  0  0  0  0  0  0  # atno 17371 bound_to 10713
  139.8708  134.9539  156.4159 LP  0  0  0  0  0  0  0  0  0  0  0  0  # atno 17394 bound_to 11000
  140.9092  133.7724  155.9771 LP  0  0  0  0  0  0  0  0  0  0  0  0  # atno 17395 bound_to 11000

$$$$
