AV-unprocessed.smi:3256|AV-procd|sdf|12466|dock3
  -GOLD-   2272018363D 1   1.00000     0.00000
 Structure written by MMmdl.
 37 38  0  0  0  0  0  0  0  0  2 V2000
  150.8591  140.7366  156.0025 O   0  0  0  0  0  0  0  0  0  0  0  0
  150.1065  141.7104  155.9880 C   0  0  0  0  0  0  0  0  0  0  0  0
  149.0204  141.7867  155.2059 N   0  0  0  0  0  0  0  0  0  0  0  0
  148.5972  140.7569  154.2637 C   0  0  0  0  0  0  0  0  0  0  0  0
  147.1555  140.9928  153.7734 C   0  0  0  0  0  0  0  0  0  0  0  0
  146.4283  139.7239  153.5213 N   0  3  0  0  0  0  0  0  0  0  0  0
  146.9846  138.9743  152.3692 C   0  0  0  0  0  0  0  0  0  0  0  0
  146.1691  137.6958  152.1121 C   0  0  0  0  0  0  0  0  0  0  0  0
  146.1545  136.8957  153.2874 O   0  0  0  0  0  0  0  0  0  0  0  0
  145.5417  137.5685  154.3799 C   0  0  0  0  0  0  0  0  0  0  0  0
  146.3338  138.8444  154.7132 C   0  0  0  0  0  0  0  0  0  0  0  0
  150.2391  142.8133  156.7448 N   0  0  0  0  0  0  0  0  0  0  0  0
  151.2485  143.1300  157.6950 C   0  0  0  0  0  0  0  0  0  0  0  0
  151.6395  144.4454  158.0462 C   0  0  0  0  0  0  0  0  0  0  0  0
  152.6458  144.6195  159.0158 C   0  0  0  0  0  0  0  0  0  0  0  0
  153.2194  143.4760  159.6041 C   0  0  0  0  0  0  0  0  0  0  0  0
  152.8490  142.2174  159.2886 N   0  0  0  0  0  0  0  0  0  0  0  0
  151.8839  142.0581  158.3581 C   0  0  0  0  0  0  0  0  0  0  0  0
  148.4526  142.6200  155.2584 H   0  0  0  0  0  0  0  0  0  0  0  0
  149.2983  140.7756  153.4302 H   0  0  0  0  0  0  0  0  0  0  0  0
  148.6884  139.7718  154.7247 H   0  0  0  0  0  0  0  0  0  0  0  0
  146.6179  141.5557  154.5378 H   0  0  0  0  0  0  0  0  0  0  0  0
  147.1473  141.6110  152.8743 H   0  0  0  0  0  0  0  0  0  0  0  0
  146.9709  139.6008  151.4766 H   0  0  0  0  0  0  0  0  0  0  0  0
  148.0272  138.7197  152.5667 H   0  0  0  0  0  0  0  0  0  0  0  0
  145.1492  137.9378  151.8086 H   0  0  0  0  0  0  0  0  0  0  0  0
  146.6152  137.1222  151.2995 H   0  0  0  0  0  0  0  0  0  0  0  0
  144.5033  137.8052  154.1419 H   0  0  0  0  0  0  0  0  0  0  0  0
  145.5259  136.9006  155.2414 H   0  0  0  0  0  0  0  0  0  0  0  0
  147.3362  138.5801  155.0542 H   0  0  0  0  0  0  0  0  0  0  0  0
  145.8433  139.3647  155.5349 H   0  0  0  0  0  0  0  0  0  0  0  0
  149.5013  143.4974  156.6615 H   0  0  0  0  0  0  0  0  0  0  0  0
  151.1871  145.3206  157.6076 H   0  0  0  0  0  0  0  0  0  0  0  0
  152.9676  145.6089  159.3054 H   0  0  0  0  0  0  0  0  0  0  0  0
  153.9928  143.5752  160.3513 H   0  0  0  0  0  0  0  0  0  0  0  0
  151.6119  141.0371  158.1331 H   0  0  0  0  0  0  0  0  0  0  0  0
  145.4853  139.9777  153.2628 H   0  0  0  0  0  0  0  0  0  0  0  0
  1  2  2  0  0  0  0
  2  3  1  0  0  0  0
  2 12  1  0  0  0  0
  3  4  1  0  0  0  0
  3 19  1  0  0  0  0
  4  5  1  0  0  0  0
  4 20  1  0  0  0  0
  4 21  1  0  0  0  0
  5  6  1  0  0  0  0
  5 22  1  0  0  0  0
  5 23  1  0  0  0  0
  6 11  1  0  0  0  0
  6  7  1  0  0  0  0
  6 37  1  0  0  0  0
  7  8  1  0  0  0  0
  7 24  1  0  0  0  0
  7 25  1  0  0  0  0
  8  9  1  0  0  0  0
  8 26  1  0  0  0  0
  8 27  1  0  0  0  0
  9 10  1  0  0  0  0
 10 11  1  0  0  0  0
 10 28  1  0  0  0  0
 10 29  1  0  0  0  0
 11 30  1  0  0  0  0
 11 31  1  0  0  0  0
 12 13  1  0  0  0  0
 12 32  1  0  0  0  0
 13 18  1  0  0  0  0
 13 14  2  0  0  0  0
 14 15  1  0  0  0  0
 14 33  1  0  0  0  0
 15 16  2  0  0  0  0
 15 34  1  0  0  0  0
 16 17  1  0  0  0  0
 16 35  1  0  0  0  0
 17 18  2  0  0  0  0
 18 36  1  0  0  0  0
M  CHG  1   6   1
M  END
> <s_m_source_file>
AV-unprocessed.smi

> <i_m_source_file_index>
3256

> <i_lp_mmshare_version>
43012

> <i_f3d_flags>
0

> <s_epik_input>
W2NIXTFuW2NIXVtjSF1bY0hdYzFbTkhdQyg9TylbTkhdW0NIMl1bQ0gyXU4yW0NIMl1bQ0gyXU9bQ0gyXVtDSDJdMg==

> <s_epik_cmdline>
J2VwaWtfcHl0aG9uJywgJy1waCcsICc3LjAnLCAnLXRuJywgJzgnLCAnLW1hJywgJzIwMCcsICctbWV0YWxfYmluZGluZycsICctaW1hZScsICc8aW5maWxlLm1hZT4nLCAnLW9tYWUnLCAnPG91dGZpbGUubWFlPic=

> <r_epik_Ionization_Penalty>
0.606681

> <r_epik_Ionization_Penalty_Charging>
0.602531

> <r_epik_Ionization_Penalty_Neutral>
0.00415076

> <r_epik_State_Penalty>
0.607427

> <r_epik_Charging_Adjusted_Penalty>
1.20996

> <i_epik_Tot_Q>
1

> <i_epik_Tot_abs_Q>
1

> <r_epik_Metal_State_Penalty>
0.604583

> <b_epik_Metal_Only>
0

> <s_lp_Force_Field>
OPLS_2005

> <r_lp_Energy>
17.8709

> <b_lp_Chiralities_Consistent>
1

> <s_lp_Variant>
AV-unprocessed.smi:3256-2

> <Gold.Version>
5.8.1

> <Gold.Id.Protein>
6NUR|6NUR_protein|mol2

> <Gold.PLP.Fitness>
46.6381

> <Gold.PLP.PLP>
-36.3444

> <Gold.PLP.part.hbond>
-3.0000

> <Gold.PLP.part.metal>
0.0000

> <Gold.PLP.part.buried>
-5.2566

> <Gold.PLP.part.nonpolar>
-29.0149

> <Gold.PLP.part.repulsive>
0.4081

> <Gold.PLP.ligand.clash>
0.0000

> <Gold.PLP.ligand.torsion>
0.4777

> <Gold.PLP.Chemscore.Hbond>
3.7441

> <Gold.PLP.Chemscore.CHOScore>
0.0000

> <Gold.PLP.Chemscore.Metal>
0.0000

> <Gold.Chemscore.Hbonds>
donor molecule, donor type, donor heavy atom, donor atom, acceptor molecule, acceptor atom, score
      L1  H     3    19       P1  8028  0.46
      L1  H     6    37       P1 10175  2.00
      L1  H    12    32       P1  8028  0.88

> <Gold.PLP.Chemscore.Internal.Correction>
0.0167

> <Gold.Rescore>
     Score         DG    S(hbond)    S(metal)    S(lipo)     H(rot)  DE(clash)    DE(int)     intcor
     19.96     -21.73       2.87        0.00      90.75       1.54       0.05       1.72       ----

> <Gold.Chemscore.Fitness>
19.9648

> <Gold.Chemscore.DG>
-21.7312

> <Gold.Chemscore.ZeroCoef>
-5.4800

> <Gold.Chemscore.Hbond>
2.8706

> <Gold.Chemscore.Metal>
0.0000

> <Gold.Chemscore.Lipo>
90.7467

> <Gold.Chemscore.Internal_Hbond>
0.0000

> <Gold.Chemscore.DEClash>
0.0456

> <Gold.Chemscore.DEInternal>
1.7208

> <Gold.Chemscore.Rot>
1.5445

> <Gold.Chemscore.Internal.Correction>
   9.000000E+99

> <Gold.Chemscore.Hbonds>
donor molecule, donor type, donor heavy atom, donor atom, acceptor molecule, acceptor atom, score
      L1  H     3    19       P1  8028  0.47
      L1  H     6    37       P1 10175  0.93
      L1  H    12    32       P1  8028  0.86

> <Gold.Chemscore.Hbond.Weighted>
-9.5879

> <Gold.Chemscore.Metal.Weighted>
-0.0000

> <Gold.Chemscore.Lipo.Weighted>
-10.6174

> <Gold.Chemscore.Internal_Hbond.Weighted>
0.0000

> <Gold.Chemscore.DEClash.Weighted>
0.0456

> <Gold.Chemscore.DEInternal.Weighted>
1.7208

> <Gold.Chemscore.Rot.Weighted>
3.9540

> <Gold.Chemscore.Internal.Correction.Weighted>
   9.000000E+99

> <Gold.Protein.RotatedTorsions>
[ 6907 6896 6895 6894 ] final  114.62 input  -60.11 | X-H torsion
[ 7974 7965 7964 7962 ] final -157.53 input  175.53 | X-H torsion
[ 8008 7997 7996 7995 ] final -173.11 input   59.86 | X-H torsion
[ 10167 10162 10161 10158 ] final  -44.89 input  -65.29 | X-H torsion
[ 10718 10713 10712 10709 ] final  164.53 input   66.30 | X-H torsion
[ 10763 10752 10751 10750 ] final  124.88 input  -60.55 | X-H torsion
[ 11005 11000 10999 10996 ] final   -5.14 input  -57.11 | X-H torsion

> <Gold.Protein.ActiveResidues>
 VAL166  LYS551  ARG553  GLY616  TRP617  ASP618  TYR619  PRO620  LYS621  CYS622 
 ASP623  PHE694  ASN695  SER759  ASP760  ASP761  ALA762  ILE779  LEU786  VAL792 
 PHE793  MET794  SER795  GLU796  ALA797  LYS798  CYS799  TRP800  GLU811  SER814 

> <Gold.Protein.RotatedAtoms>
  152.4791  133.8211  159.7053 H   0  0  0  0  0  0  0  0  0  0  0  0  # atno 6907 bound_to 6896
  150.8829  133.7338  159.2933 H   0  0  0  0  0  0  0  0  0  0  0  0  # atno 6908 bound_to 6896
  151.4836  135.1057  159.9836 H   0  0  0  0  0  0  0  0  0  0  0  0  # atno 6909 bound_to 6896
  144.7544  140.3957  143.6023 H   0  0  0  0  0  0  0  0  0  0  0  0  # atno 7974 bound_to 7965
  155.9533  140.1130  157.0958 H   0  0  0  0  0  0  0  0  0  0  0  0  # atno 8008 bound_to 7997
  154.4114  140.1196  156.5147 H   0  0  0  0  0  0  0  0  0  0  0  0  # atno 8009 bound_to 7997
  155.6815  140.3473  155.4859 H   0  0  0  0  0  0  0  0  0  0  0  0  # atno 8010 bound_to 7997
  140.6879  143.2907  151.3560 H   0  0  0  0  0  0  0  0  0  0  0  0  # atno 10167 bound_to 10162
  157.0930  131.0423  151.2529 H   0  0  0  0  0  0  0  0  0  0  0  0  # atno 10718 bound_to 10713
  153.6684  135.3334  155.3146 H   0  0  0  0  0  0  0  0  0  0  0  0  # atno 10763 bound_to 10752
  154.8497  135.4380  154.1731 H   0  0  0  0  0  0  0  0  0  0  0  0  # atno 10764 bound_to 10752
  153.2716  135.7001  153.7551 H   0  0  0  0  0  0  0  0  0  0  0  0  # atno 10765 bound_to 10752
  140.6879  133.9096  155.8599 H   0  0  0  0  0  0  0  0  0  0  0  0  # atno 11005 bound_to 11000
  145.6829  139.1622  143.2690 LP  0  0  0  0  0  0  0  0  0  0  0  0  # atno 17320 bound_to 7965
  146.1537  140.6889  142.9310 LP  0  0  0  0  0  0  0  0  0  0  0  0  # atno 17321 bound_to 7965
  139.6254  144.0824  152.2429 LP  0  0  0  0  0  0  0  0  0  0  0  0  # atno 17342 bound_to 10162
  140.0282  144.6101  150.7510 LP  0  0  0  0  0  0  0  0  0  0  0  0  # atno 17343 bound_to 10162
  157.4705  130.7706  149.7319 LP  0  0  0  0  0  0  0  0  0  0  0  0  # atno 17370 bound_to 10713
  155.9893  130.3953  150.3080 LP  0  0  0  0  0  0  0  0  0  0  0  0  # atno 17371 bound_to 10713
  141.0265  134.0816  157.4063 LP  0  0  0  0  0  0  0  0  0  0  0  0  # atno 17394 bound_to 11000
  139.8932  135.0129  156.6886 LP  0  0  0  0  0  0  0  0  0  0  0  0  # atno 17395 bound_to 11000

$$$$
