AV-unprocessed.smi:120|AV-procd|sdf|1138|dock2
  -GOLD-   2262018263D 1   1.00000     0.00000
 Structure written by MMmdl.
 45 48  0  0  0  0  0  0  0  0  1 V2000
  146.9988  131.8782  161.1235 C   0  0  0  0  0  0  0  0  0  0  0  0
  146.5135  132.9431  161.9281 O   0  0  0  0  0  0  0  0  0  0  0  0
  146.9259  134.2245  161.6298 C   0  0  0  0  0  0  0  0  0  0  0  0
  146.4291  135.2603  162.4438 C   0  0  0  0  0  0  0  0  0  0  0  0
  146.8045  136.5944  162.2101 C   0  0  0  0  0  0  0  0  0  0  0  0
  147.6825  136.9044  161.1559 C   0  0  0  0  0  0  0  0  0  0  0  0
  148.1979  135.8898  160.3164 C   0  0  0  0  0  0  0  0  0  0  0  0
  149.1195  136.2156  159.2055 C   0  0  0  0  0  0  0  0  0  0  0  0
  149.7017  135.2694  158.4795 N   0  0  0  0  0  0  0  0  0  0  0  0
  150.4625  136.0061  157.5593 O   0  0  0  0  0  0  0  0  0  0  0  0
  150.2413  137.3124  157.8515 C   0  0  0  0  0  0  0  0  0  0  0  0
  150.9245  138.3586  157.0246 C   0  0  0  0  0  0  0  0  0  0  0  0
  150.5118  139.6923  157.4308 N   0  0  0  0  0  0  0  0  0  0  0  0
  149.1349  140.0195  157.3600 C   0  0  0  0  0  0  0  0  0  0  0  0
  148.2850  139.2106  156.9840 O   0  0  0  0  0  0  0  0  0  0  0  0
  148.8178  141.3875  157.7552 C   0  0  0  0  0  0  0  0  0  0  0  0
  147.5398  141.8027  157.7423 F   0  0  0  0  0  0  0  0  0  0  0  0
  149.7874  142.2481  158.1345 C   0  0  0  0  0  0  0  0  0  0  0  0
  151.1294  141.9054  158.1727 N   0  0  0  0  0  0  0  0  0  0  0  0
  152.2001  142.8916  158.5887 C   0  0  1  0  0  0  0  0  0  0  0  0
  152.1596  144.1443  157.6934 C   0  0  0  0  0  0  0  0  0  0  0  0
  152.1345  145.2745  158.7028 C   0  0  0  0  0  0  0  0  0  0  0  0
  151.4192  144.6280  159.8795 C   0  0  0  0  0  0  0  0  0  0  0  0
  151.9701  143.3175  159.9019 O   0  0  0  0  0  0  0  0  0  0  0  0
  151.5268  140.5983  157.8175 C   0  0  0  0  0  0  0  0  0  0  0  0
  152.7166  140.2732  157.8355 O   0  0  0  0  0  0  0  0  0  0  0  0
  149.4110  137.5033  158.8759 N   0  0  0  0  0  0  0  0  0  0  0  0
  147.8080  134.5522  160.5689 C   0  0  0  0  0  0  0  0  0  0  0  0
  146.5884  130.9366  161.4881 H   0  0  0  0  0  0  0  0  0  0  0  0
  148.0860  131.8040  161.1724 H   0  0  0  0  0  0  0  0  0  0  0  0
  146.6898  131.9915  160.0835 H   0  0  0  0  0  0  0  0  0  0  0  0
  145.7553  135.0295  163.2559 H   0  0  0  0  0  0  0  0  0  0  0  0
  146.4186  137.3822  162.8402 H   0  0  0  0  0  0  0  0  0  0  0  0
  147.9542  137.9373  160.9946 H   0  0  0  0  0  0  0  0  0  0  0  0
  152.0080  138.2707  157.1087 H   0  0  0  0  0  0  0  0  0  0  0  0
  150.6889  138.2426  155.9649 H   0  0  0  0  0  0  0  0  0  0  0  0
  149.4797  143.2434  158.4159 H   0  0  0  0  0  0  0  0  0  0  0  0
  153.1427  142.3424  158.5479 H   0  0  0  0  0  0  0  0  0  0  0  0
  153.0223  144.1790  157.0276 H   0  0  0  0  0  0  0  0  0  0  0  0
  151.2479  144.1508  157.0937 H   0  0  0  0  0  0  0  0  0  0  0  0
  153.1514  145.5471  158.9876 H   0  0  0  0  0  0  0  0  0  0  0  0
  151.6298  146.1676  158.3336 H   0  0  0  0  0  0  0  0  0  0  0  0
  151.5917  145.1522  160.8195 H   0  0  0  0  0  0  0  0  0  0  0  0
  150.3439  144.5816  159.7021 H   0  0  0  0  0  0  0  0  0  0  0  0
  148.2044  133.7753  159.9337 H   0  0  0  0  0  0  0  0  0  0  0  0
  1  2  1  0  0  0  0
  1 29  1  0  0  0  0
  1 30  1  0  0  0  0
  1 31  1  0  0  0  0
  2  3  1  0  0  0  0
  3 28  1  0  0  0  0
  3  4  2  0  0  0  0
  4  5  1  0  0  0  0
  4 32  1  0  0  0  0
  5  6  2  0  0  0  0
  5 33  1  0  0  0  0
  6  7  1  0  0  0  0
  6 34  1  0  0  0  0
  7  8  1  0  0  0  0
  7 28  2  0  0  0  0
  8 27  1  0  0  0  0
  8  9  2  0  0  0  0
  9 10  1  0  0  0  0
 10 11  1  0  0  0  0
 11 12  1  0  0  0  0
 11 27  2  0  0  0  0
 12 13  1  0  0  0  0
 12 35  1  0  0  0  0
 12 36  1  0  0  0  0
 13 25  1  0  0  0  0
 13 14  1  0  0  0  0
 14 15  2  0  0  0  0
 14 16  1  0  0  0  0
 16 17  1  0  0  0  0
 16 18  2  0  0  0  0
 18 19  1  0  0  0  0
 18 37  1  0  0  0  0
 19 20  1  0  0  0  0
 19 25  1  0  0  0  0
 20 24  1  0  0  0  0
 20 21  1  0  0  0  0
 20 38  1  0  0  0  0
 21 22  1  0  0  0  0
 21 39  1  0  0  0  0
 21 40  1  0  0  0  0
 22 23  1  0  0  0  0
 22 41  1  0  0  0  0
 22 42  1  0  0  0  0
 23 24  1  0  0  0  0
 23 43  1  0  0  0  0
 23 44  1  0  0  0  0
 25 26  2  0  0  0  0
 28 45  1  0  0  0  0
M  END
> <s_m_source_file>
AV-unprocessed.smi

> <i_m_source_file_index>
120

> <i_lp_mmshare_version>
43012

> <i_f3d_flags>
0

> <s_epik_input>
W0NIM11PYzFbY0hdW2NIXVtjSF1jKFtjSF0xKS1jMm5vYyhuMilbQ0gyXW4zYyg9TyljKEYpW2NIXW4oYzM9TylbQ0BASF00W0NIMl1bQ0gyXVtDSDJdTzQ=

> <s_epik_cmdline>
J2VwaWtfcHl0aG9uJywgJy1waCcsICc3LjAnLCAnLXRuJywgJzgnLCAnLW1hJywgJzIwMCcsICctbWV0YWxfYmluZGluZycsICctaW1hZScsICc8aW5maWxlLm1hZT4nLCAnLW9tYWUnLCAnPG91dGZpbGUubWFlPic=

> <r_lp_tautomer_probability>
1

> <r_epik_Ionization_Penalty>
4.93314e-09

> <r_epik_Ionization_Penalty_Charging>
4.92654e-09

> <r_epik_Ionization_Penalty_Neutral>
6.60436e-12

> <r_epik_State_Penalty>
-0

> <r_epik_Charging_Adjusted_Penalty>
4.92654e-09

> <i_epik_Tot_Q>
0

> <i_epik_Tot_abs_Q>
0

> <r_epik_Metal_State_Penalty>
-0

> <b_epik_Metal_Only>
0

> <s_epik_Chemistry_Notes>
This compound contains an acetal/aminal-like group ( X-CH(R)-Y where X, Y are N, S, or O) that may be acid/base labile, releasing an aldehyde.

> <s_lp_Force_Field>
OPLS_2005

> <r_lp_Energy>
36.9113

> <b_lp_Chiralities_Consistent>
1

> <s_lp_Variant>
AV-unprocessed.smi:120-2

> <Gold.Version>
5.8.1

> <Gold.Id.Protein>
6NUR|6NUR_protein|mol2

> <Gold.PLP.Fitness>
52.9666

> <Gold.PLP.PLP>
-47.2580

> <Gold.PLP.part.hbond>
-2.5301

> <Gold.PLP.part.metal>
0.0000

> <Gold.PLP.part.buried>
-3.5050

> <Gold.PLP.part.nonpolar>
-39.8687

> <Gold.PLP.part.repulsive>
0.0467

> <Gold.PLP.ligand.clash>
0.0000

> <Gold.PLP.ligand.torsion>
0.0413

> <Gold.PLP.Chemscore.Hbond>
1.9199

> <Gold.PLP.Chemscore.CHOScore>
0.0000

> <Gold.PLP.Chemscore.Metal>
0.0000

> <Gold.Chemscore.Hbonds>
donor molecule, donor type, donor heavy atom, donor atom, acceptor molecule, acceptor atom, score
      P1  H  6896  6908       L1     9  0.95
      P1  H  7997  8009       L1    26  0.96

> <Gold.PLP.Chemscore.Internal.Correction>
0.0315

> <Gold.Rescore>
     Score         DG    S(hbond)    S(metal)    S(lipo)     H(rot)  DE(clash)    DE(int)     intcor
     12.61     -16.44       1.30        0.00     100.07       1.99       0.23       3.61       ----

> <Gold.Chemscore.Fitness>
12.6064

> <Gold.Chemscore.DG>
-16.4414

> <Gold.Chemscore.ZeroCoef>
-5.4800

> <Gold.Chemscore.Hbond>
1.3000

> <Gold.Chemscore.Metal>
0.0000

> <Gold.Chemscore.Lipo>
100.0716

> <Gold.Chemscore.Internal_Hbond>
0.0000

> <Gold.Chemscore.DEClash>
0.2295

> <Gold.Chemscore.DEInternal>
3.6055

> <Gold.Chemscore.Rot>
1.9879

> <Gold.Chemscore.Internal.Correction>
   9.000000E+99

> <Gold.Chemscore.Hbonds>
donor molecule, donor type, donor heavy atom, donor atom, acceptor molecule, acceptor atom, score
      P1  H  6896  6908       L1     9  0.13
      P1  H  7997  8009       L1    26  0.88

> <Gold.Chemscore.Hbond.Weighted>
-4.3420

> <Gold.Chemscore.Metal.Weighted>
-0.0000

> <Gold.Chemscore.Lipo.Weighted>
-11.7084

> <Gold.Chemscore.Internal_Hbond.Weighted>
0.0000

> <Gold.Chemscore.DEClash.Weighted>
0.2295

> <Gold.Chemscore.DEInternal.Weighted>
3.6055

> <Gold.Chemscore.Rot.Weighted>
5.0890

> <Gold.Chemscore.Internal.Correction.Weighted>
   9.000000E+99

> <Gold.Protein.RotatedTorsions>
[ 6907 6896 6895 6894 ] final  178.62 input  -60.11 | X-H torsion
[ 7974 7965 7964 7962 ] final -130.06 input  175.53 | X-H torsion
[ 8008 7997 7996 7995 ] final  166.42 input   59.86 | X-H torsion
[ 10167 10162 10161 10158 ] final   -4.99 input  -65.29 | X-H torsion
[ 10718 10713 10712 10709 ] final -118.62 input   66.30 | X-H torsion
[ 10763 10752 10751 10750 ] final  -54.59 input  -60.55 | X-H torsion
[ 11005 11000 10999 10996 ] final  -21.45 input  -57.11 | X-H torsion

> <Gold.Protein.ActiveResidues>
 VAL166  LYS551  ARG553  GLY616  TRP617  ASP618  TYR619  PRO620  LYS621  CYS622 
 ASP623  PHE694  ASN695  SER759  ASP760  ASP761  ALA762  ILE779  LEU786  VAL792 
 PHE793  MET794  SER795  GLU796  ALA797  LYS798  CYS799  TRP800  GLU811  SER814 

> <Gold.Protein.RotatedAtoms>
  151.6850  133.3311  159.3228 H   0  0  0  0  0  0  0  0  0  0  0  0  # atno 6907 bound_to 6896
  150.7805  134.6748  159.6421 H   0  0  0  0  0  0  0  0  0  0  0  0  # atno 6908 bound_to 6896
  152.3861  134.6518  160.0177 H   0  0  0  0  0  0  0  0  0  0  0  0  # atno 6909 bound_to 6896
  144.9512  140.7346  143.4787 H   0  0  0  0  0  0  0  0  0  0  0  0  # atno 7974 bound_to 7965
  156.1720  140.1644  156.8430 H   0  0  0  0  0  0  0  0  0  0  0  0  # atno 8008 bound_to 7997
  154.5267  140.0766  156.8305 H   0  0  0  0  0  0  0  0  0  0  0  0  # atno 8009 bound_to 7997
  155.3492  140.3389  155.4241 H   0  0  0  0  0  0  0  0  0  0  0  0  # atno 8010 bound_to 7997
  140.6947  143.6360  150.8479 H   0  0  0  0  0  0  0  0  0  0  0  0  # atno 10167 bound_to 10162
  156.1120  130.6256  150.9314 H   0  0  0  0  0  0  0  0  0  0  0  0  # atno 10718 bound_to 10713
  154.1773  135.6449  153.5025 H   0  0  0  0  0  0  0  0  0  0  0  0  # atno 10763 bound_to 10752
  153.0068  135.5397  154.6551 H   0  0  0  0  0  0  0  0  0  0  0  0  # atno 10764 bound_to 10752
  154.5906  135.2934  155.0612 H   0  0  0  0  0  0  0  0  0  0  0  0  # atno 10765 bound_to 10752
  140.8562  133.7821  156.0022 H   0  0  0  0  0  0  0  0  0  0  0  0  # atno 11005 bound_to 11000
  145.2842  139.1907  143.4775 LP  0  0  0  0  0  0  0  0  0  0  0  0  # atno 17320 bound_to 7965
  146.3321  140.2808  142.8610 LP  0  0  0  0  0  0  0  0  0  0  0  0  # atno 17321 bound_to 7965
  140.0077  143.5676  152.2851 LP  0  0  0  0  0  0  0  0  0  0  0  0  # atno 17342 bound_to 10162
  139.6389  144.7653  151.2381 LP  0  0  0  0  0  0  0  0  0  0  0  0  # atno 17343 bound_to 10162
  157.6302  131.0922  150.8456 LP  0  0  0  0  0  0  0  0  0  0  0  0  # atno 17370 bound_to 10713
  156.8566  130.5098  149.5307 LP  0  0  0  0  0  0  0  0  0  0  0  0  # atno 17371 bound_to 10713
  140.8734  134.2699  157.5179 LP  0  0  0  0  0  0  0  0  0  0  0  0  # atno 17394 bound_to 11000
  139.8705  134.9579  156.4282 LP  0  0  0  0  0  0  0  0  0  0  0  0  # atno 17395 bound_to 11000

$$$$
