AV-unprocessed.smi:3030|AV-procd|sdf|11540|dock3
  -GOLD-   2272016483D 1   1.00000     0.00000
 Structure written by MMmdl.
 52 53  0  0  0  0  0  0  0  0  1 V2000
  148.4216  131.4018  160.8686 C   0  0  0  0  0  0  0  0  0  0  0  0
  147.7255  132.4527  159.9969 C   0  0  0  0  0  0  0  0  0  0  0  0
  147.7175  133.7620  160.6333 N   0  0  0  0  0  0  0  0  0  0  0  0
  147.1501  133.9511  161.8889 C   0  0  0  0  0  0  0  0  0  0  0  0
  147.0573  135.1465  162.5026 C   0  0  0  0  0  0  0  0  0  0  0  0
  147.5770  136.3508  161.8237 C   0  0  0  0  0  0  0  0  0  0  0  0
  147.5087  137.4587  162.3561 O   0  0  0  0  0  0  0  0  0  0  0  0
  148.1791  136.1500  160.4787 C   0  0  0  0  0  0  0  0  0  0  0  0
  148.6774  137.3003  159.8447 N   0  0  0  0  0  0  0  0  0  0  0  0
  149.5452  137.4054  158.8217 C   0  0  0  0  0  0  0  0  0  0  0  0
  150.0658  136.4695  158.2156 O   0  0  0  0  0  0  0  0  0  0  0  0
  149.7780  138.6923  158.5277 N   0  0  0  0  0  0  0  0  0  0  0  0
  150.6763  139.1766  157.4810 C   0  0  1  0  0  0  0  0  0  0  0  0
  150.2694  138.5411  156.1334 C   0  0  0  0  0  0  0  0  0  0  0  0
  151.1156  139.0448  154.9493 C   0  0  2  0  0  0  0  0  0  0  0  0
  152.5416  138.4662  154.9509 C   0  0  0  0  0  0  0  0  0  0  0  0
  151.0969  140.5832  154.8957 C   0  0  0  0  0  0  0  0  0  0  0  0
  151.5193  141.2216  156.2288 C   0  0  0  0  0  0  0  0  0  0  0  0
  150.6495  140.7282  157.4094 C   0  0  2  0  0  0  0  0  0  0  0  0
  150.9926  141.4280  158.7594 C   0  0  0  0  0  0  0  0  0  0  0  0
  150.8987  142.9608  158.6664 C   0  0  0  0  0  0  0  0  0  0  0  0
  152.3434  141.0025  159.3641 C   0  0  0  0  0  0  0  0  0  0  0  0
  148.2114  134.8882  159.9780 C   0  0  0  0  0  0  0  0  0  0  0  0
  148.4253  130.4303  160.3745 H   0  0  0  0  0  0  0  0  0  0  0  0
  147.9145  131.2864  161.8269 H   0  0  0  0  0  0  0  0  0  0  0  0
  149.4574  131.6779  161.0676 H   0  0  0  0  0  0  0  0  0  0  0  0
  148.2250  132.5216  159.0298 H   0  0  0  0  0  0  0  0  0  0  0  0
  146.7009  132.1420  159.7896 H   0  0  0  0  0  0  0  0  0  0  0  0
  146.7849  133.0464  162.3533 H   0  0  0  0  0  0  0  0  0  0  0  0
  146.6115  135.2448  163.4816 H   0  0  0  0  0  0  0  0  0  0  0  0
  148.3167  138.1679  160.2149 H   0  0  0  0  0  0  0  0  0  0  0  0
  149.3043  139.3955  159.0756 H   0  0  0  0  0  0  0  0  0  0  0  0
  151.6946  138.8619  157.7119 H   0  0  0  0  0  0  0  0  0  0  0  0
  150.3338  137.4537  156.1946 H   0  0  0  0  0  0  0  0  0  0  0  0
  149.2206  138.7679  155.9350 H   0  0  0  0  0  0  0  0  0  0  0  0
  150.6414  138.6833  154.0359 H   0  0  0  0  0  0  0  0  0  0  0  0
  153.1073  138.7667  155.8323 H   0  0  0  0  0  0  0  0  0  0  0  0
  153.0984  138.7977  154.0741 H   0  0  0  0  0  0  0  0  0  0  0  0
  152.5197  137.3763  154.9306 H   0  0  0  0  0  0  0  0  0  0  0  0
  151.7401  140.9406  154.0910 H   0  0  0  0  0  0  0  0  0  0  0  0
  150.0892  140.9190  154.6477 H   0  0  0  0  0  0  0  0  0  0  0  0
  152.5704  141.0035  156.4159 H   0  0  0  0  0  0  0  0  0  0  0  0
  151.4470  142.3038  156.1285 H   0  0  0  0  0  0  0  0  0  0  0  0
  149.6203  141.0057  157.1744 H   0  0  0  0  0  0  0  0  0  0  0  0
  150.2279  141.1417  159.4813 H   0  0  0  0  0  0  0  0  0  0  0  0
  151.6925  143.3810  158.0492 H   0  0  0  0  0  0  0  0  0  0  0  0
  150.9828  143.4153  159.6539 H   0  0  0  0  0  0  0  0  0  0  0  0
  149.9432  143.2740  158.2449 H   0  0  0  0  0  0  0  0  0  0  0  0
  153.1811  141.2955  158.7318 H   0  0  0  0  0  0  0  0  0  0  0  0
  152.3980  139.9252  159.5180 H   0  0  0  0  0  0  0  0  0  0  0  0
  152.4943  141.4700  160.3373 H   0  0  0  0  0  0  0  0  0  0  0  0
  148.6421  134.6460  159.0200 H   0  0  0  0  0  0  0  0  0  0  0  0
  1  2  1  0  0  0  0
  1 24  1  0  0  0  0
  1 25  1  0  0  0  0
  1 26  1  0  0  0  0
  2  3  1  0  0  0  0
  2 27  1  0  0  0  0
  2 28  1  0  0  0  0
  3 23  1  0  0  0  0
  3  4  1  0  0  0  0
  4  5  2  0  0  0  0
  4 29  1  0  0  0  0
  5  6  1  0  0  0  0
  5 30  1  0  0  0  0
  6  7  2  0  0  0  0
  6  8  1  0  0  0  0
  8  9  1  0  0  0  0
  8 23  2  0  0  0  0
  9 10  1  0  0  0  0
  9 31  1  0  0  0  0
 10 11  2  0  0  0  0
 10 12  1  0  0  0  0
 12 13  1  0  0  0  0
 12 32  1  0  0  0  0
 13 19  1  0  0  0  0
 13 14  1  0  0  0  0
 13 33  1  0  0  0  0
 14 15  1  0  0  0  0
 14 34  1  0  0  0  0
 14 35  1  0  0  0  0
 15 16  1  0  0  0  0
 15 17  1  0  0  0  0
 15 36  1  0  0  0  0
 16 37  1  0  0  0  0
 16 38  1  0  0  0  0
 16 39  1  0  0  0  0
 17 18  1  0  0  0  0
 17 40  1  0  0  0  0
 17 41  1  0  0  0  0
 18 19  1  0  0  0  0
 18 42  1  0  0  0  0
 18 43  1  0  0  0  0
 19 20  1  0  0  0  0
 19 44  1  0  0  0  0
 20 21  1  0  0  0  0
 20 22  1  0  0  0  0
 20 45  1  0  0  0  0
 21 46  1  0  0  0  0
 21 47  1  0  0  0  0
 21 48  1  0  0  0  0
 22 49  1  0  0  0  0
 22 50  1  0  0  0  0
 22 51  1  0  0  0  0
 23 52  1  0  0  0  0
M  END
> <s_m_source_file>
AV-unprocessed.smi

> <i_m_source_file_index>
3030

> <i_lp_mmshare_version>
43012

> <i_f3d_flags>
0

> <s_epik_input>
W0NIM11bQ0gyXW4xW2NIXVtjSF1jKD1PKWMoW2NIXTEpW05IXUMoPU8pW05IXVtDQEBIXTJbQ0gyXVtDQEBIXShbQ0gzXSlbQ0gyXVtDSDJdW0NASF0yW0NIXShbQ0gzXSlbQ0gzXQ==

> <s_epik_cmdline>
J2VwaWtfcHl0aG9uJywgJy1waCcsICc3LjAnLCAnLXRuJywgJzgnLCAnLW1hJywgJzIwMCcsICctbWV0YWxfYmluZGluZycsICctaW1hZScsICc8aW5maWxlLm1hZT4nLCAnLW9tYWUnLCAnPG91dGZpbGUubWFlPic=

> <r_lp_tautomer_probability>
1

> <r_epik_Ionization_Penalty>
0.00147933

> <r_epik_Ionization_Penalty_Charging>
0.00145753

> <r_epik_Ionization_Penalty_Neutral>
2.17987e-05

> <r_epik_State_Penalty>
0.00097457

> <r_epik_Charging_Adjusted_Penalty>
0.0024321

> <i_epik_Tot_Q>
0

> <i_epik_Tot_abs_Q>
0

> <r_epik_Metal_State_Penalty>
-0

> <b_epik_Metal_Only>
0

> <s_lp_Force_Field>
OPLS_2005

> <r_lp_Energy>
11.4945

> <b_lp_Chiralities_Consistent>
1

> <s_lp_Variant>
AV-unprocessed.smi:3030-8

> <Gold.Version>
5.8.1

> <Gold.Id.Protein>
6NUR|6NUR_protein|mol2

> <Gold.PLP.Fitness>
47.7893

> <Gold.PLP.PLP>
-41.3207

> <Gold.PLP.part.hbond>
-3.0000

> <Gold.PLP.part.metal>
0.0000

> <Gold.PLP.part.buried>
-0.7951

> <Gold.PLP.part.nonpolar>
-37.3256

> <Gold.PLP.part.repulsive>
0.7877

> <Gold.PLP.ligand.clash>
0.0000

> <Gold.PLP.ligand.torsion>
0.1522

> <Gold.PLP.Chemscore.Hbond>
2.2320

> <Gold.PLP.Chemscore.CHOScore>
0.0000

> <Gold.PLP.Chemscore.Metal>
0.0000

> <Gold.Chemscore.Hbonds>
donor molecule, donor type, donor heavy atom, donor atom, acceptor molecule, acceptor atom, score
      P1  H  6896  6909       L1    11  0.25
      P1  H  6931  6943       L1     7  0.72
      P1  H  6934  6947       L1     7  0.37

> <Gold.PLP.Chemscore.Internal.Correction>
0.0771

> <Gold.Rescore>
     Score         DG    S(hbond)    S(metal)    S(lipo)     H(rot)  DE(clash)    DE(int)     intcor
     17.44     -20.05       1.90        0.00      98.02       1.27       1.54       1.07       ----

> <Gold.Chemscore.Fitness>
17.4437

> <Gold.Chemscore.DG>
-20.0499

> <Gold.Chemscore.ZeroCoef>
-5.4800

> <Gold.Chemscore.Hbond>
1.9008

> <Gold.Chemscore.Metal>
0.0000

> <Gold.Chemscore.Lipo>
98.0220

> <Gold.Chemscore.Internal_Hbond>
0.0000

> <Gold.Chemscore.DEClash>
1.5379

> <Gold.Chemscore.DEInternal>
1.0683

> <Gold.Chemscore.Rot>
1.2685

> <Gold.Chemscore.Internal.Correction>
   9.000000E+99

> <Gold.Chemscore.Hbonds>
donor molecule, donor type, donor heavy atom, donor atom, acceptor molecule, acceptor atom, score
      P1  H  6896  6909       L1    11  0.21
      P1  H  6931  6943       L1     7  0.36
      P1  H  6934  6947       L1     7  0.31

> <Gold.Chemscore.Hbond.Weighted>
-6.3488

> <Gold.Chemscore.Metal.Weighted>
-0.0000

> <Gold.Chemscore.Lipo.Weighted>
-11.4686

> <Gold.Chemscore.Internal_Hbond.Weighted>
0.0000

> <Gold.Chemscore.DEClash.Weighted>
1.5379

> <Gold.Chemscore.DEInternal.Weighted>
1.0683

> <Gold.Chemscore.Rot.Weighted>
3.2474

> <Gold.Chemscore.Internal.Correction.Weighted>
   9.000000E+99

> <Gold.Protein.RotatedTorsions>
[ 6907 6896 6895 6894 ] final   61.43 input  -60.11 | X-H torsion
[ 7974 7965 7964 7962 ] final -112.17 input  175.53 | X-H torsion
[ 8008 7997 7996 7995 ] final   77.49 input   59.86 | X-H torsion
[ 10167 10162 10161 10158 ] final  162.65 input  -65.29 | X-H torsion
[ 10718 10713 10712 10709 ] final   83.45 input   66.30 | X-H torsion
[ 10763 10752 10751 10750 ] final  -25.52 input  -60.55 | X-H torsion
[ 11005 11000 10999 10996 ] final -111.53 input  -57.11 | X-H torsion

> <Gold.Protein.ActiveResidues>
 VAL166  LYS551  ARG553  GLY616  TRP617  ASP618  TYR619  PRO620  LYS621  CYS622 
 ASP623  PHE694  ASN695  SER759  ASP760  ASP761  ALA762  ILE779  LEU786  VAL792 
 PHE793  MET794  SER795  GLU796  ALA797  LYS798  CYS799  TRP800  GLU811  SER814 

> <Gold.Protein.RotatedAtoms>
  152.4088  134.6161  160.0038 H   0  0  0  0  0  0  0  0  0  0  0  0  # atno 6907 bound_to 6896
  151.6344  133.3324  159.3124 H   0  0  0  0  0  0  0  0  0  0  0  0  # atno 6908 bound_to 6896
  150.7980  134.7095  159.6640 H   0  0  0  0  0  0  0  0  0  0  0  0  # atno 6909 bound_to 6896
  145.1472  140.8809  143.3668 H   0  0  0  0  0  0  0  0  0  0  0  0  # atno 7974 bound_to 7965
  155.8423  140.3461  155.5640 H   0  0  0  0  0  0  0  0  0  0  0  0  # atno 8008 bound_to 7997
  155.8127  140.0901  157.1914 H   0  0  0  0  0  0  0  0  0  0  0  0  # atno 8009 bound_to 7997
  154.4005  140.1445  156.3393 H   0  0  0  0  0  0  0  0  0  0  0  0  # atno 8010 bound_to 7997
  139.4863  144.4416  151.8944 H   0  0  0  0  0  0  0  0  0  0  0  0  # atno 10167 bound_to 10162
  157.6879  131.0091  150.2525 H   0  0  0  0  0  0  0  0  0  0  0  0  # atno 10718 bound_to 10713
  153.7012  135.6956  153.5062 H   0  0  0  0  0  0  0  0  0  0  0  0  # atno 10763 bound_to 10752
  153.2341  135.4328  155.0626 H   0  0  0  0  0  0  0  0  0  0  0  0  # atno 10764 bound_to 10752
  154.8344  135.3491  154.6551 H   0  0  0  0  0  0  0  0  0  0  0  0  # atno 10765 bound_to 10752
  141.0729  133.9350  157.2449 H   0  0  0  0  0  0  0  0  0  0  0  0  # atno 11005 bound_to 11000
  145.0469  139.3213  143.5948 LP  0  0  0  0  0  0  0  0  0  0  0  0  # atno 17320 bound_to 7965
  146.3499  139.9864  142.8690 LP  0  0  0  0  0  0  0  0  0  0  0  0  # atno 17321 bound_to 7965
  140.3868  144.2666  150.5903 LP  0  0  0  0  0  0  0  0  0  0  0  0  # atno 17342 bound_to 10162
  140.5183  143.2272  151.8429 LP  0  0  0  0  0  0  0  0  0  0  0  0  # atno 17343 bound_to 10162
  156.3119  130.3773  149.7653 LP  0  0  0  0  0  0  0  0  0  0  0  0  # atno 17370 bound_to 10713
  156.5251  130.8232  151.3217 LP  0  0  0  0  0  0  0  0  0  0  0  0  # atno 17371 bound_to 10713
  139.9541  135.0169  156.9079 LP  0  0  0  0  0  0  0  0  0  0  0  0  # atno 17394 bound_to 11000
  140.5636  134.0511  155.7407 LP  0  0  0  0  0  0  0  0  0  0  0  0  # atno 17395 bound_to 11000

$$$$
