AV-unprocessed.smi:1053|AV-procd|sdf|4619|dock4
  -GOLD-   22720 3123D 1   1.00000     0.00000
 Structure written by MMmdl.
 38 39  0  0  0  0  0  0  0  0  2 V2000
  148.2641  136.6300  155.0887 C   0  0  0  0  0  0  0  0  0  0  0  0
  147.4841  137.7723  154.4223 C   0  0  0  0  0  0  0  0  0  0  0  0
  148.3334  138.6045  153.5280 N   0  3  1  0  0  0  0  0  0  0  0  0
  147.6183  139.7706  152.9547 C   0  0  0  0  0  0  0  0  0  0  0  0
  147.4891  140.9069  153.9859 C   0  0  0  0  0  0  0  0  0  0  0  0
  148.7802  141.2660  154.4635 O   0  0  0  0  0  0  0  0  0  0  0  0
  149.4387  140.1902  155.1240 C   0  0  2  0  0  0  0  0  0  0  0  0
  150.7725  140.7287  155.6715 C   0  0  0  0  0  0  0  0  0  0  0  0
  150.6019  141.8814  156.5470 N   0  0  0  0  0  0  0  0  0  0  0  0
  151.2775  142.0818  157.7371 C   0  0  0  0  0  0  0  0  0  0  0  0
  152.1180  141.1315  158.1617 N   0  0  0  0  0  0  0  0  0  0  0  0
  152.7651  141.3589  159.3249 C   0  0  0  0  0  0  0  0  0  0  0  0
  152.5711  142.5432  160.0623 C   0  0  0  0  0  0  0  0  0  0  0  0
  151.6603  143.4771  159.5195 C   0  0  0  0  0  0  0  0  0  0  0  0
  151.3498  144.7988  160.2061 C   0  0  0  0  0  0  0  0  0  0  0  0
  150.0368  144.9004  160.4132 F   0  0  0  0  0  0  0  0  0  0  0  0
  151.9726  144.8982  161.3812 F   0  0  0  0  0  0  0  0  0  0  0  0
  151.7440  145.8100  159.4318 F   0  0  0  0  0  0  0  0  0  0  0  0
  151.0179  143.2368  158.3524 N   0  0  0  0  0  0  0  0  0  0  0  0
  149.6285  139.0344  154.1148 C   0  0  0  0  0  0  0  0  0  0  0  0
  147.5862  135.9727  155.6335 H   0  0  0  0  0  0  0  0  0  0  0  0
  148.9980  136.9968  155.8057 H   0  0  0  0  0  0  0  0  0  0  0  0
  148.7867  136.0233  154.3486 H   0  0  0  0  0  0  0  0  0  0  0  0
  146.6872  137.3237  153.8278 H   0  0  0  0  0  0  0  0  0  0  0  0
  146.9915  138.3836  155.1780 H   0  0  0  0  0  0  0  0  0  0  0  0
  148.1831  140.1297  152.0934 H   0  0  0  0  0  0  0  0  0  0  0  0
  146.6385  139.4759  152.5767 H   0  0  0  0  0  0  0  0  0  0  0  0
  147.0323  141.7814  153.5225 H   0  0  0  0  0  0  0  0  0  0  0  0
  146.8445  140.6182  154.8175 H   0  0  0  0  0  0  0  0  0  0  0  0
  148.8186  139.8655  155.9598 H   0  0  0  0  0  0  0  0  0  0  0  0
  151.2893  139.9468  156.2282 H   0  0  0  0  0  0  0  0  0  0  0  0
  151.4309  141.0044  154.8466 H   0  0  0  0  0  0  0  0  0  0  0  0
  149.9866  142.6214  156.2407 H   0  0  0  0  0  0  0  0  0  0  0  0
  153.4435  140.5920  159.6683 H   0  0  0  0  0  0  0  0  0  0  0  0
  153.0935  142.7171  160.9915 H   0  0  0  0  0  0  0  0  0  0  0  0
  150.1439  138.1925  154.5747 H   0  0  0  0  0  0  0  0  0  0  0  0
  150.2728  139.3701  153.3011 H   0  0  0  0  0  0  0  0  0  0  0  0
  148.5572  138.0056  152.7459 H   0  0  0  0  0  0  0  0  0  0  0  0
  1  2  1  0  0  0  0
  1 21  1  0  0  0  0
  1 22  1  0  0  0  0
  1 23  1  0  0  0  0
  2  3  1  0  0  0  0
  2 24  1  0  0  0  0
  2 25  1  0  0  0  0
  3 20  1  0  0  0  0
  3  4  1  0  0  0  0
  3 38  1  0  0  0  0
  4  5  1  0  0  0  0
  4 26  1  0  0  0  0
  4 27  1  0  0  0  0
  5  6  1  0  0  0  0
  5 28  1  0  0  0  0
  5 29  1  0  0  0  0
  6  7  1  0  0  0  0
  7  8  1  0  0  0  0
  7 20  1  0  0  0  0
  7 30  1  0  0  0  0
  8  9  1  0  0  0  0
  8 31  1  0  0  0  0
  8 32  1  0  0  0  0
  9 10  1  0  0  0  0
  9 33  1  0  0  0  0
 10 19  1  0  0  0  0
 10 11  2  0  0  0  0
 11 12  1  0  0  0  0
 12 13  2  0  0  0  0
 12 34  1  0  0  0  0
 13 14  1  0  0  0  0
 13 35  1  0  0  0  0
 14 15  1  0  0  0  0
 14 19  2  0  0  0  0
 15 16  1  0  0  0  0
 15 17  1  0  0  0  0
 15 18  1  0  0  0  0
 20 36  1  0  0  0  0
 20 37  1  0  0  0  0
M  CHG  1   3   1
M  END
> <s_m_source_file>
AV-unprocessed.smi

> <i_m_source_file_index>
1053

> <i_lp_mmshare_version>
43012

> <i_f3d_flags>
0

> <s_epik_input>
W0NIM11bQ0gyXU4xW0NIMl1bQ0gyXU9bQ0BIXShbQ0gyXTEpW0NIMl1bTkhdYzJuW2NIXVtjSF1jKG4yKUMoRikoRilG

> <s_epik_cmdline>
J2VwaWtfcHl0aG9uJywgJy1waCcsICc3LjAnLCAnLXRuJywgJzgnLCAnLW1hJywgJzIwMCcsICctbWV0YWxfYmluZGluZycsICctaW1hZScsICc8aW5maWxlLm1hZT4nLCAnLW9tYWUnLCAnPG91dGZpbGUubWFlPic=

> <r_lp_tautomer_probability>
1

> <r_epik_Ionization_Penalty>
0.178506

> <r_epik_Ionization_Penalty_Charging>
0.178504

> <r_epik_Ionization_Penalty_Neutral>
2.47619e-06

> <r_epik_State_Penalty>
0.167974

> <r_epik_Charging_Adjusted_Penalty>
0.346478

> <i_epik_Tot_Q>
1

> <i_epik_Tot_abs_Q>
1

> <r_epik_Metal_State_Penalty>
0.167974

> <b_epik_Metal_Only>
0

> <s_lp_Force_Field>
OPLS_2005

> <r_lp_Energy>
12.8268

> <b_lp_Chiralities_Consistent>
1

> <s_lp_Variant>
AV-unprocessed.smi:1053-3

> <Gold.Version>
5.8.1

> <Gold.Id.Protein>
6NUR|6NUR_protein|mol2

> <Gold.PLP.Fitness>
42.9360

> <Gold.PLP.PLP>
-37.3160

> <Gold.PLP.part.hbond>
-1.9653

> <Gold.PLP.part.metal>
0.0000

> <Gold.PLP.part.buried>
-0.3454

> <Gold.PLP.part.nonpolar>
-34.7619

> <Gold.PLP.part.repulsive>
0.3346

> <Gold.PLP.ligand.clash>
0.0000

> <Gold.PLP.ligand.torsion>
0.2167

> <Gold.PLP.Chemscore.Hbond>
2.0000

> <Gold.PLP.Chemscore.CHOScore>
0.0000

> <Gold.PLP.Chemscore.Metal>
0.0000

> <Gold.Chemscore.Hbonds>
donor molecule, donor type, donor heavy atom, donor atom, acceptor molecule, acceptor atom, score
      L1  H     3    38       P1  7948  2.00

> <Gold.PLP.Chemscore.Internal.Correction>
0.0533

> <Gold.Rescore>
     Score         DG    S(hbond)    S(metal)    S(lipo)     H(rot)  DE(clash)    DE(int)     intcor
     12.56     -14.21       0.98        0.00      80.66       1.55       1.51       0.15       ----

> <Gold.Chemscore.Fitness>
12.5598

> <Gold.Chemscore.DG>
-14.2128

> <Gold.Chemscore.ZeroCoef>
-5.4800

> <Gold.Chemscore.Hbond>
0.9810

> <Gold.Chemscore.Metal>
0.0000

> <Gold.Chemscore.Lipo>
80.6559

> <Gold.Chemscore.Internal_Hbond>
0.0000

> <Gold.Chemscore.DEClash>
1.5064

> <Gold.Chemscore.DEInternal>
0.1467

> <Gold.Chemscore.Rot>
1.5549

> <Gold.Chemscore.Internal.Correction>
   9.000000E+99

> <Gold.Chemscore.Hbonds>
donor molecule, donor type, donor heavy atom, donor atom, acceptor molecule, acceptor atom, score
      L1  H     3    38       P1  7948  0.95
      L1  H     9    33       P1  8028  0.05

> <Gold.Chemscore.Hbond.Weighted>
-3.2766

> <Gold.Chemscore.Metal.Weighted>
-0.0000

> <Gold.Chemscore.Lipo.Weighted>
-9.4367

> <Gold.Chemscore.Internal_Hbond.Weighted>
0.0000

> <Gold.Chemscore.DEClash.Weighted>
1.5064

> <Gold.Chemscore.DEInternal.Weighted>
0.1467

> <Gold.Chemscore.Rot.Weighted>
3.9806

> <Gold.Chemscore.Internal.Correction.Weighted>
   9.000000E+99

> <Gold.Protein.RotatedTorsions>
[ 6907 6896 6895 6894 ] final -152.42 input  -60.11 | X-H torsion
[ 7974 7965 7964 7962 ] final  -61.92 input  175.53 | X-H torsion
[ 8008 7997 7996 7995 ] final  -69.25 input   59.86 | X-H torsion
[ 10167 10162 10161 10158 ] final  119.83 input  -65.29 | X-H torsion
[ 10718 10713 10712 10709 ] final   89.63 input   66.30 | X-H torsion
[ 10763 10752 10751 10750 ] final  144.09 input  -60.55 | X-H torsion
[ 11005 11000 10999 10996 ] final  -76.16 input  -57.11 | X-H torsion

> <Gold.Protein.ActiveResidues>
 VAL166  LYS551  ARG553  GLY616  TRP617  ASP618  TYR619  PRO620  LYS621  CYS622 
 ASP623  PHE694  ASN695  SER759  ASP760  ASP761  ALA762  ILE779  LEU786  VAL792 
 PHE793  MET794  SER795  GLU796  ALA797  LYS798  CYS799  TRP800  GLU811  SER814 

> <Gold.Protein.RotatedAtoms>
  151.2275  133.4468  159.2602 H   0  0  0  0  0  0  0  0  0  0  0  0  # atno 6907 bound_to 6896
  151.0826  134.9868  159.8374 H   0  0  0  0  0  0  0  0  0  0  0  0  # atno 6908 bound_to 6896
  152.5426  134.2213  159.8841 H   0  0  0  0  0  0  0  0  0  0  0  0  # atno 6909 bound_to 6896
  145.7977  140.8673  143.0248 H   0  0  0  0  0  0  0  0  0  0  0  0  # atno 7974 bound_to 7965
  154.4925  140.0857  156.7626 H   0  0  0  0  0  0  0  0  0  0  0  0  # atno 8008 bound_to 7997
  155.4195  140.3445  155.4252 H   0  0  0  0  0  0  0  0  0  0  0  0  # atno 8009 bound_to 7997
  156.1350  140.1512  156.8996 H   0  0  0  0  0  0  0  0  0  0  0  0  # atno 8010 bound_to 7997
  139.6021  144.7059  151.3038 H   0  0  0  0  0  0  0  0  0  0  0  0  # atno 10167 bound_to 10162
  157.6956  131.0340  150.3456 H   0  0  0  0  0  0  0  0  0  0  0  0  # atno 10718 bound_to 10713
  153.9831  135.2939  155.3418 H   0  0  0  0  0  0  0  0  0  0  0  0  # atno 10763 bound_to 10752
  154.7257  135.5089  153.8886 H   0  0  0  0  0  0  0  0  0  0  0  0  # atno 10764 bound_to 10752
  153.0845  135.6689  154.0092 H   0  0  0  0  0  0  0  0  0  0  0  0  # atno 10765 bound_to 10752
  141.1651  133.6973  156.7627 H   0  0  0  0  0  0  0  0  0  0  0  0  # atno 11005 bound_to 11000
  144.6773  140.0214  143.7483 LP  0  0  0  0  0  0  0  0  0  0  0  0  # atno 17320 bound_to 7965
  145.9911  139.3016  143.0984 LP  0  0  0  0  0  0  0  0  0  0  0  0  # atno 17321 bound_to 7965
  140.7257  143.7009  150.7845 LP  0  0  0  0  0  0  0  0  0  0  0  0  # atno 17342 bound_to 10162
  140.0588  143.5176  152.2638 LP  0  0  0  0  0  0  0  0  0  0  0  0  # atno 17343 bound_to 10162
  156.3911  130.3898  149.7029 LP  0  0  0  0  0  0  0  0  0  0  0  0  # atno 17370 bound_to 10713
  156.4379  130.7847  151.2868 LP  0  0  0  0  0  0  0  0  0  0  0  0  # atno 17371 bound_to 10713
  140.2522  134.8532  157.3678 LP  0  0  0  0  0  0  0  0  0  0  0  0  # atno 17394 bound_to 11000
  140.1692  134.4631  155.7843 LP  0  0  0  0  0  0  0  0  0  0  0  0  # atno 17395 bound_to 11000

$$$$
