#       Name:                AV-unprocessed.smi:2856
#       Creating user name   scv26
#       Creation time:       Fri Mar 27 15:44:56 2020


#       File generated by GOLD software.
#

@<TRIPOS>MOLECULE
AV-unprocessed.smi:2856
    42    43     1
SMALL
NO_CHARGES


@<TRIPOS>ATOM
      1 ****        -3.1226   0.7605  -2.7521 C.3            1 S1                 0.0000
      2 ****        -2.0756  -0.7129  -2.6079 S.3            1 S1                 0.0000
      3 ****        -2.4604  -1.2471  -0.9095 C.3            1 S1                 0.0000
      4 ****        -2.0003  -2.7000  -0.6792 C.3            1 S1                 0.0000
      5 ****        -2.3518  -3.1839   0.7366 C.3            1 S1                 0.0000
      6 ****        -1.7674  -2.2494   1.8065 C.3            1 S1                 0.0000
      7 ****        -2.2186  -0.7955   1.5840 C.3            1 S1                 0.0000
      8 ****        -1.8837  -0.2906   0.1638 C.3            1 S1                 0.0000
      9 ****        -0.4383  -0.1264   0.0010 N.am           1 S1                 0.0000
     10 ****         0.2621   0.9677   0.3325 C.2            1 S1                 0.0000
     11 ****        -0.2446   1.9780   0.8210 O.2            1 S1                 0.0000
     12 ****         1.5698   0.8077   0.0674 N.am           1 S1                 0.0000
     13 ****         2.6167   1.7382   0.2904 C.2            1 S1                 0.0000
     14 ****         3.9666   1.3990   0.0074 C.2            1 S1                 0.0000
     15 ****         4.6479   2.5314   0.3561 C.2            1 S1                 0.0000
     16 ****         6.0933   2.8933   0.3351 C.3            1 S1                 0.0000
     17 ****         3.7863   3.4832   0.8066 O.3            1 S1                 0.0000
     18 ****         2.4852   2.9685   0.7623 N.2            1 S1                 0.0000
     19 ****        -3.0774   1.1519  -3.7684 H              1 S1                 0.0000
     20 ****        -2.7866   1.5424  -2.0719 H              1 S1                 0.0000
     21 ****        -4.1601   0.5175  -2.5227 H              1 S1                 0.0000
     22 ****        -3.5480  -1.2345  -0.8239 H              1 S1                 0.0000
     23 ****        -2.4661  -3.3576  -1.4138 H              1 S1                 0.0000
     24 ****        -0.9239  -2.7804  -0.8360 H              1 S1                 0.0000
     25 ****        -3.4358  -3.2324   0.8471 H              1 S1                 0.0000
     26 ****        -1.9806  -4.1982   0.8857 H              1 S1                 0.0000
     27 ****        -2.0740  -2.5843   2.7977 H              1 S1                 0.0000
     28 ****        -0.6784  -2.3057   1.7867 H              1 S1                 0.0000
     29 ****        -3.2963  -0.7316   1.7392 H              1 S1                 0.0000
     30 ****        -1.7688  -0.1460   2.3359 H              1 S1                 0.0000
     31 ****        -2.3585   0.6833   0.0392 H              1 S1                 0.0000
     32 ****         0.0613  -0.9072  -0.3988 H              1 S1                 0.0000
     33 ****         1.8479  -0.0790  -0.3260 H              1 S1                 0.0000
     34 ****         4.3723   0.4772  -0.3823 H              1 S1                 0.0000
     35 ****         6.7056   2.0373   0.0506 H              1 S1                 0.0000
     36 ****         6.4210   3.2310   1.3185 H              1 S1                 0.0000
     37 ****         6.2808   3.6956  -0.3785 H              1 S1                 0.0000
     38 ****        -1.2296   2.0115   0.9903 LP             1 S1                 0.0000
     39 ****         0.3289   2.7650   1.0484 LP             1 S1                 0.0000
     40 ****         3.8472   4.2944   0.2251 LP             1 S1                 0.0000
     41 ****         4.0189   3.7293   1.7475 LP             1 S1                 0.0000
     42 ****         1.6393   3.4301   1.0293 LP             1 S1                 0.0000
@<TRIPOS>BOND
    1    1    2 1     
    2    1   19 1     
    3    1   20 1     
    4    1   21 1     
    5    2    3 1     
    6    3    8 1     
    7    3    4 1     
    8    3   22 1     
    9    4    5 1     
   10    4   23 1     
   11    4   24 1     
   12    5    6 1     
   13    5   25 1     
   14    5   26 1     
   15    6    7 1     
   16    6   27 1     
   17    6   28 1     
   18    7    8 1     
   19    7   29 1     
   20    7   30 1     
   21    8    9 1     
   22    8   31 1     
   23    9   10 am    
   24    9   32 1     
   25   10   11 2     
   26   10   12 am    
   27   12   13 1     
   28   12   33 1     
   29   13   18 2     
   30   13   14 1     
   31   14   15 2     
   32   14   34 1     
   33   15   16 1     
   34   15   17 1     
   35   16   35 1     
   36   16   36 1     
   37   16   37 1     
   38   17   18 1     
   39   11   38 1     
   40   11   39 1     
   41   17   40 1     
   42   17   41 1     
   43   18   42 1     
@<TRIPOS>SUBSTRUCTURE
      1 S1             1
@<TRIPOS>SET
LONE_PAIRS      STATIC     ATOMS    <user>   **** ""
5 38 39 40 41 42
DONOR_HYDROGENS      STATIC     ATOMS    <user>   **** ""
2 32 33
ATOM$BLUE        STATIC     ATOMS    COLORGROUP SYSTEM
5 38 39 40 41 42
ATOM$RED        STATIC     ATOMS    COLORGROUP SYSTEM
2 32 33
