AV-unprocessed.smi:1803|AV-procd|sdf|7288|dock1
  -GOLD-   22720 8543D 1   1.00000     0.00000
 Structure written by MMmdl.
 35 37  0  0  0  0  0  0  0  0  3 V2000
  146.6180  133.4435  154.8322 O   0  0  0  0  0  0  0  0  0  0  0  0
  147.4795  134.0471  154.1942 C   0  0  0  0  0  0  0  0  0  0  0  0
  148.7946  134.0521  154.5337 N   0  5  0  0  0  0  0  0  0  0  0  0
  149.5031  132.9209  154.7080 C   0  0  0  0  0  0  0  0  0  0  0  0
  150.5431  132.8446  155.5543 N   0  0  0  0  0  0  0  0  0  0  0  0
  151.1262  131.5855  155.5900 N   0  0  0  0  0  0  0  0  0  0  0  0
  150.5173  130.7441  154.7546 C   0  0  0  0  0  0  0  0  0  0  0  0
  149.1717  131.4118  153.8546 S   0  0  0  0  0  0  0  0  0  0  0  0
  147.1121  134.7322  153.0944 N   0  0  0  0  0  0  0  0  0  0  0  0
  145.7632  134.7980  152.5410 C   0  0  1  0  0  0  0  0  0  0  0  0
  145.5997  135.8933  151.4790 C   0  0  0  0  0  0  0  0  0  0  0  0
  144.5617  135.3383  150.4876 C   0  0  0  0  0  0  0  0  0  0  0  0
  144.1980  133.9921  150.9829 N   0  3  1  0  0  0  0  0  0  0  0  0
  143.6833  133.0316  149.9738 C   0  0  0  0  0  0  0  0  0  0  0  0
  144.8021  132.4005  149.1279 C   0  0  0  0  0  0  0  0  0  0  0  0
  145.8760  131.7798  150.0270 C   0  0  0  0  0  0  0  0  0  0  0  0
  146.4396  132.8509  150.9664 C   0  0  0  0  0  0  0  0  0  0  0  0
  145.3247  133.5155  151.8148 C   0  0  1  0  0  0  0  0  0  0  0  0
  150.8612  129.7242  154.6693 H   0  0  0  0  0  0  0  0  0  0  0  0
  147.8373  135.2186  152.5876 H   0  0  0  0  0  0  0  0  0  0  0  0
  145.0547  135.0045  153.3460 H   0  0  0  0  0  0  0  0  0  0  0  0
  145.2817  136.8370  151.9234 H   0  0  0  0  0  0  0  0  0  0  0  0
  146.5414  136.0769  150.9590 H   0  0  0  0  0  0  0  0  0  0  0  0
  143.6739  135.9685  150.4306 H   0  0  0  0  0  0  0  0  0  0  0  0
  144.9953  135.2827  149.4884 H   0  0  0  0  0  0  0  0  0  0  0  0
  143.1507  132.2430  150.5066 H   0  0  0  0  0  0  0  0  0  0  0  0
  142.9485  133.5245  149.3362 H   0  0  0  0  0  0  0  0  0  0  0  0
  144.3833  131.6388  148.4696 H   0  0  0  0  0  0  0  0  0  0  0  0
  145.2538  133.1513  148.4787 H   0  0  0  0  0  0  0  0  0  0  0  0
  145.4513  130.9599  150.6076 H   0  0  0  0  0  0  0  0  0  0  0  0
  146.6756  131.3544  149.4201 H   0  0  0  0  0  0  0  0  0  0  0  0
  147.1907  132.4025  151.6176 H   0  0  0  0  0  0  0  0  0  0  0  0
  146.9618  133.6026  150.3733 H   0  0  0  0  0  0  0  0  0  0  0  0
  144.9479  132.7841  152.5312 H   0  0  0  0  0  0  0  0  0  0  0  0
  143.4405  134.1536  151.6312 H   0  0  0  0  0  0  0  0  0  0  0  0
  1  2  2  0  0  0  0
  2  3  1  0  0  0  0
  2  9  1  0  0  0  0
  3  4  1  0  0  0  0
  4  8  1  0  0  0  0
  4  5  2  0  0  0  0
  5  6  1  0  0  0  0
  6  7  2  0  0  0  0
  7  8  1  0  0  0  0
  7 19  1  0  0  0  0
  9 10  1  0  0  0  0
  9 20  1  0  0  0  0
 10 18  1  0  0  0  0
 10 11  1  0  0  0  0
 10 21  1  0  0  0  0
 11 12  1  0  0  0  0
 11 22  1  0  0  0  0
 11 23  1  0  0  0  0
 12 13  1  0  0  0  0
 12 24  1  0  0  0  0
 12 25  1  0  0  0  0
 13 18  1  0  0  0  0
 13 14  1  0  0  0  0
 13 35  1  0  0  0  0
 14 15  1  0  0  0  0
 14 26  1  0  0  0  0
 14 27  1  0  0  0  0
 15 16  1  0  0  0  0
 15 28  1  0  0  0  0
 15 29  1  0  0  0  0
 16 17  1  0  0  0  0
 16 30  1  0  0  0  0
 16 31  1  0  0  0  0
 17 18  1  0  0  0  0
 17 32  1  0  0  0  0
 17 33  1  0  0  0  0
 18 34  1  0  0  0  0
M  CHG  1   3  -1
M  CHG  1  13   1
M  END
> <s_m_source_file>
AV-unprocessed.smi

> <i_m_source_file_index>
1803

> <i_lp_mmshare_version>
43012

> <i_f3d_flags>
0

> <s_epik_input>
czFbY0hdbm5jMVtOSF1DKD1PKVtOSF1bQ0BIXShbQ0gyXVtDSDJdMilbQ0BASF0oTjIzKVtDSDJdW0NIMl1bQ0gyXVtDSDJdMw==

> <s_epik_cmdline>
J2VwaWtfcHl0aG9uJywgJy1waCcsICc3LjAnLCAnLXRuJywgJzgnLCAnLW1hJywgJzIwMCcsICctbWV0YWxfYmluZGluZycsICctaW1hZScsICc8aW5maWxlLm1hZT4nLCAnLW9tYWUnLCAnPG91dGZpbGUubWFlPic=

> <r_lp_tautomer_probability>
1

> <r_epik_Ionization_Penalty>
3.78828

> <r_epik_Ionization_Penalty_Charging>
3.7591

> <r_epik_Ionization_Penalty_Neutral>
0.0291838

> <r_epik_State_Penalty>
3.757

> <r_epik_Charging_Adjusted_Penalty>
7.51609

> <i_epik_Tot_Q>
0

> <i_epik_Tot_abs_Q>
2

> <r_epik_Metal_State_Penalty>
0.558016

> <b_epik_Metal_Only>
1

> <s_lp_Force_Field>
OPLS_2005

> <r_lp_Energy>
30.1197

> <b_lp_Chiralities_Consistent>
1

> <s_lp_Variant>
AV-unprocessed.smi:1803-10

> <Gold.Version>
5.8.1

> <Gold.Id.Protein>
6NUR|6NUR_protein|mol2

> <Gold.PLP.Fitness>
31.3654

> <Gold.PLP.PLP>
-30.0535

> <Gold.PLP.part.hbond>
-1.0000

> <Gold.PLP.part.metal>
0.0000

> <Gold.PLP.part.buried>
-2.8398

> <Gold.PLP.part.nonpolar>
-25.6759

> <Gold.PLP.part.repulsive>
0.1707

> <Gold.PLP.ligand.clash>
0.0000

> <Gold.PLP.ligand.torsion>
0.8459

> <Gold.PLP.Chemscore.Hbond>
1.0000

> <Gold.PLP.Chemscore.CHOScore>
0.0000

> <Gold.PLP.Chemscore.Metal>
0.0000

> <Gold.Chemscore.Hbonds>
donor molecule, donor type, donor heavy atom, donor atom, acceptor molecule, acceptor atom, score
      L1  H     9    20       P1  7948  1.00

> <Gold.PLP.Chemscore.Internal.Correction>
0.0038

> <Gold.Rescore>
     Score         DG    S(hbond)    S(metal)    S(lipo)     H(rot)  DE(clash)    DE(int)     intcor
     14.42     -15.29       1.00        0.00      77.24       1.00       0.02       0.85       ----

> <Gold.Chemscore.Fitness>
14.4166

> <Gold.Chemscore.DG>
-15.2909

> <Gold.Chemscore.ZeroCoef>
-5.4800

> <Gold.Chemscore.Hbond>
0.9983

> <Gold.Chemscore.Metal>
0.0000

> <Gold.Chemscore.Lipo>
77.2355

> <Gold.Chemscore.Internal_Hbond>
0.0000

> <Gold.Chemscore.DEClash>
0.0194

> <Gold.Chemscore.DEInternal>
0.8549

> <Gold.Chemscore.Rot>
1.0000

> <Gold.Chemscore.Internal.Correction>
   9.000000E+99

> <Gold.Chemscore.Hbonds>
donor molecule, donor type, donor heavy atom, donor atom, acceptor molecule, acceptor atom, score
      L1  H     9    20       P1  7948  0.99

> <Gold.Chemscore.Hbond.Weighted>
-3.3343

> <Gold.Chemscore.Metal.Weighted>
-0.0000

> <Gold.Chemscore.Lipo.Weighted>
-9.0365

> <Gold.Chemscore.Internal_Hbond.Weighted>
0.0000

> <Gold.Chemscore.DEClash.Weighted>
0.0194

> <Gold.Chemscore.DEInternal.Weighted>
0.8549

> <Gold.Chemscore.Rot.Weighted>
2.5600

> <Gold.Chemscore.Internal.Correction.Weighted>
   9.000000E+99

> <Gold.Protein.RotatedTorsions>
[ 6907 6896 6895 6894 ] final  -39.60 input  -60.11 | X-H torsion
[ 7974 7965 7964 7962 ] final  -88.14 input  175.53 | X-H torsion
[ 8008 7997 7996 7995 ] final   35.27 input   59.86 | X-H torsion
[ 10167 10162 10161 10158 ] final -102.12 input  -65.29 | X-H torsion
[ 10718 10713 10712 10709 ] final  130.32 input   66.30 | X-H torsion
[ 10763 10752 10751 10750 ] final -178.14 input  -60.55 | X-H torsion
[ 11005 11000 10999 10996 ] final   28.40 input  -57.11 | X-H torsion

> <Gold.Protein.ActiveResidues>
 VAL166  LYS551  ARG553  GLY616  TRP617  ASP618  TYR619  PRO620  LYS621  CYS622 
 ASP623  PHE694  ASN695  SER759  ASP760  ASP761  ALA762  ILE779  LEU786  VAL792 
 PHE793  MET794  SER795  GLU796  ALA797  LYS798  CYS799  TRP800  GLU811  SER814 

> <Gold.Protein.RotatedAtoms>
  150.9884  134.9224  159.7884 H   0  0  0  0  0  0  0  0  0  0  0  0  # atno 6907 bound_to 6896
  152.5243  134.3315  159.9194 H   0  0  0  0  0  0  0  0  0  0  0  0  # atno 6908 bound_to 6896
  151.3321  133.3955  159.2698 H   0  0  0  0  0  0  0  0  0  0  0  0  # atno 6909 bound_to 6896
  145.4571  140.9561  143.1990 H   0  0  0  0  0  0  0  0  0  0  0  0  # atno 7974 bound_to 7965
  155.1683  140.3289  155.4397 H   0  0  0  0  0  0  0  0  0  0  0  0  # atno 8008 bound_to 7997
  156.2519  140.1948  156.6738 H   0  0  0  0  0  0  0  0  0  0  0  0  # atno 8009 bound_to 7997
  154.6356  140.0577  156.9770 H   0  0  0  0  0  0  0  0  0  0  0  0  # atno 8010 bound_to 7997
  140.2340  143.3586  152.0861 H   0  0  0  0  0  0  0  0  0  0  0  0  # atno 10167 bound_to 10162
  157.5073  131.1096  150.9343 H   0  0  0  0  0  0  0  0  0  0  0  0  # atno 10718 bound_to 10713
  154.5514  135.2813  155.1005 H   0  0  0  0  0  0  0  0  0  0  0  0  # atno 10763 bound_to 10752
  154.2450  135.6350  153.5224 H   0  0  0  0  0  0  0  0  0  0  0  0  # atno 10764 bound_to 10752
  153.0004  135.5569  154.6081 H   0  0  0  0  0  0  0  0  0  0  0  0  # atno 10765 bound_to 10752
  140.3160  134.2596  155.7725 H   0  0  0  0  0  0  0  0  0  0  0  0  # atno 11005 bound_to 11000
  144.8026  139.6112  143.7065 LP  0  0  0  0  0  0  0  0  0  0  0  0  # atno 17320 bound_to 7965
  146.2472  139.6123  142.9451 LP  0  0  0  0  0  0  0  0  0  0  0  0  # atno 17321 bound_to 7965
  139.5100  144.6876  151.5845 LP  0  0  0  0  0  0  0  0  0  0  0  0  # atno 17342 bound_to 10162
  140.6163  143.9342  150.6491 LP  0  0  0  0  0  0  0  0  0  0  0  0  # atno 17343 bound_to 10162
  156.9994  130.5594  149.5310 LP  0  0  0  0  0  0  0  0  0  0  0  0  # atno 17370 bound_to 10713
  156.0266  130.5360  150.8424 LP  0  0  0  0  0  0  0  0  0  0  0  0  # atno 17371 bound_to 10713
  141.2097  133.7740  156.9977 LP  0  0  0  0  0  0  0  0  0  0  0  0  # atno 17394 bound_to 11000
  140.0983  134.9551  157.1883 LP  0  0  0  0  0  0  0  0  0  0  0  0  # atno 17395 bound_to 11000

$$$$
