AV-unprocessed.smi:1972|AV-procd|sdf|7974|dock2
  -GOLD-   2272010143D 1   1.00000     0.00000
 Structure written by MMmdl.
 44 45  0  0  0  0  0  0  0  0  1 V2000
  152.8257  143.0265  161.9271 C   0  0  0  0  0  0  0  0  0  0  0  0
  152.4380  143.8137  160.3424 S   0  0  0  0  0  0  0  0  0  0  0  0
  153.1188  142.5654  159.2121 C   0  0  0  0  0  0  0  0  0  0  0  0
  152.3344  141.2414  159.2598 C   0  0  0  0  0  0  0  0  0  0  0  0
  152.4059  140.4385  157.9562 C   0  0  0  0  0  0  0  0  0  0  0  0
  153.1404  139.4542  157.8695 O   0  0  0  0  0  0  0  0  0  0  0  0
  151.6431  140.8807  156.9440 N   0  0  0  0  0  0  0  0  0  0  0  0
  151.5440  140.2677  155.6219 C   0  0  0  0  0  0  0  0  0  0  0  0
  151.2239  138.7791  155.6399 C   0  0  0  0  0  0  0  0  0  0  0  0
  150.8024  138.1636  156.8349 C   0  0  0  0  0  0  0  0  0  0  0  0
  150.5204  136.7843  156.8358 C   0  0  0  0  0  0  0  0  0  0  0  0
  150.6766  136.0463  155.6383 C   0  0  0  0  0  0  0  0  0  0  0  0
  150.4007  134.6611  155.6128 N   0  0  0  0  0  0  0  0  0  0  0  0
  150.1734  133.9828  156.8877 C   0  0  0  0  0  0  0  0  0  0  0  0
  150.1875  132.4577  156.6938 C   0  0  0  0  0  0  0  0  0  0  0  0
  149.2420  132.0921  155.6941 O   0  0  0  0  0  0  0  0  0  0  0  0
  149.5481  132.6717  154.4291 C   0  0  1  0  0  0  0  0  0  0  0  0
  148.5386  132.1480  153.4025 C   0  0  0  0  0  0  0  0  0  0  0  0
  149.5062  134.2076  154.5504 C   0  0  0  0  0  0  0  0  0  0  0  0
  151.0843  136.6412  154.4900 N   0  0  0  0  0  0  0  0  0  0  0  0
  151.3528  137.9639  154.4947 C   0  0  0  0  0  0  0  0  0  0  0  0
  152.4805  143.6500  162.7518 H   0  0  0  0  0  0  0  0  0  0  0  0
  153.9016  142.8832  162.0281 H   0  0  0  0  0  0  0  0  0  0  0  0
  152.3358  142.0552  161.9990 H   0  0  0  0  0  0  0  0  0  0  0  0
  153.0819  142.9702  158.2005 H   0  0  0  0  0  0  0  0  0  0  0  0
  154.1730  142.4064  159.4428 H   0  0  0  0  0  0  0  0  0  0  0  0
  152.6820  140.6348  160.0976 H   0  0  0  0  0  0  0  0  0  0  0  0
  151.2828  141.4556  159.4524 H   0  0  0  0  0  0  0  0  0  0  0  0
  151.0755  141.7000  157.1065 H   0  0  0  0  0  0  0  0  0  0  0  0
  150.8005  140.7785  155.0082 H   0  0  0  0  0  0  0  0  0  0  0  0
  152.5014  140.4176  155.1223 H   0  0  0  0  0  0  0  0  0  0  0  0
  150.6892  138.7399  157.7414 H   0  0  0  0  0  0  0  0  0  0  0  0
  150.1763  136.3169  157.7460 H   0  0  0  0  0  0  0  0  0  0  0  0
  150.9441  134.2608  157.6078 H   0  0  0  0  0  0  0  0  0  0  0  0
  149.2129  134.2984  157.2975 H   0  0  0  0  0  0  0  0  0  0  0  0
  151.1832  132.1103  156.4130 H   0  0  0  0  0  0  0  0  0  0  0  0
  149.9287  131.9587  157.6276 H   0  0  0  0  0  0  0  0  0  0  0  0
  150.5474  132.3554  154.1239 H   0  0  0  0  0  0  0  0  0  0  0  0
  148.7404  132.5547  152.4113 H   0  0  0  0  0  0  0  0  0  0  0  0
  147.5192  132.4217  153.6760 H   0  0  0  0  0  0  0  0  0  0  0  0
  148.5844  131.0610  153.3311 H   0  0  0  0  0  0  0  0  0  0  0  0
  148.4930  134.5385  154.7826 H   0  0  0  0  0  0  0  0  0  0  0  0
  149.7684  134.6447  153.5881 H   0  0  0  0  0  0  0  0  0  0  0  0
  151.6834  138.3728  153.5520 H   0  0  0  0  0  0  0  0  0  0  0  0
  1  2  1  0  0  0  0
  1 22  1  0  0  0  0
  1 23  1  0  0  0  0
  1 24  1  0  0  0  0
  2  3  1  0  0  0  0
  3  4  1  0  0  0  0
  3 25  1  0  0  0  0
  3 26  1  0  0  0  0
  4  5  1  0  0  0  0
  4 27  1  0  0  0  0
  4 28  1  0  0  0  0
  5  6  2  0  0  0  0
  5  7  1  0  0  0  0
  7  8  1  0  0  0  0
  7 29  1  0  0  0  0
  8  9  1  0  0  0  0
  8 30  1  0  0  0  0
  8 31  1  0  0  0  0
  9 21  1  0  0  0  0
  9 10  2  0  0  0  0
 10 11  1  0  0  0  0
 10 32  1  0  0  0  0
 11 12  2  0  0  0  0
 11 33  1  0  0  0  0
 12 13  1  0  0  0  0
 12 20  1  0  0  0  0
 13 19  1  0  0  0  0
 13 14  1  0  0  0  0
 14 15  1  0  0  0  0
 14 34  1  0  0  0  0
 14 35  1  0  0  0  0
 15 16  1  0  0  0  0
 15 36  1  0  0  0  0
 15 37  1  0  0  0  0
 16 17  1  0  0  0  0
 17 18  1  0  0  0  0
 17 19  1  0  0  0  0
 17 38  1  0  0  0  0
 18 39  1  0  0  0  0
 18 40  1  0  0  0  0
 18 41  1  0  0  0  0
 19 42  1  0  0  0  0
 19 43  1  0  0  0  0
 20 21  2  0  0  0  0
 21 44  1  0  0  0  0
M  END
> <s_m_source_file>
AV-unprocessed.smi

> <i_m_source_file_index>
1972

> <i_lp_mmshare_version>
43012

> <i_f3d_flags>
0

> <s_epik_input>
W0NIM11TW0NIMl1bQ0gyXUMoPU8pW05IXVtDSDJdYzFbY0hdW2NIXWMobltjSF0xKU4yW0NIMl1bQ0gyXU9bQ0BASF0oW0NIM10pW0NIMl0y

> <s_epik_cmdline>
J2VwaWtfcHl0aG9uJywgJy1waCcsICc3LjAnLCAnLXRuJywgJzgnLCAnLW1hJywgJzIwMCcsICctbWV0YWxfYmluZGluZycsICctaW1hZScsICc8aW5maWxlLm1hZT4nLCAnLW9tYWUnLCAnPG91dGZpbGUubWFlPic=

> <r_lp_tautomer_probability>
1

> <r_epik_Ionization_Penalty>
0.00559088

> <r_epik_Ionization_Penalty_Charging>
0

> <r_epik_Ionization_Penalty_Neutral>
0.00559088

> <r_epik_State_Penalty>
0.00409544

> <r_epik_Charging_Adjusted_Penalty>
0.00409544

> <i_epik_Tot_Q>
0

> <i_epik_Tot_abs_Q>
0

> <r_epik_Metal_State_Penalty>
-0

> <b_epik_Metal_Only>
0

> <s_lp_Force_Field>
OPLS_2005

> <r_lp_Energy>
17.6906

> <b_lp_Chiralities_Consistent>
1

> <s_lp_Variant>
AV-unprocessed.smi:1972-1

> <Gold.Version>
5.8.1

> <Gold.Id.Protein>
6NUR|6NUR_protein|mol2

> <Gold.PLP.Fitness>
42.3626

> <Gold.PLP.PLP>
-37.6838

> <Gold.PLP.part.hbond>
-1.9862

> <Gold.PLP.part.metal>
0.0000

> <Gold.PLP.part.buried>
-3.2323

> <Gold.PLP.part.nonpolar>
-33.2585

> <Gold.PLP.part.repulsive>
0.9816

> <Gold.PLP.ligand.clash>
0.0000

> <Gold.PLP.ligand.torsion>
0.7329

> <Gold.PLP.Chemscore.Hbond>
1.9000

> <Gold.PLP.Chemscore.CHOScore>
0.0000

> <Gold.PLP.Chemscore.Metal>
0.0000

> <Gold.Chemscore.Hbonds>
donor molecule, donor type, donor heavy atom, donor atom, acceptor molecule, acceptor atom, score
      P1  H  7997  8010       L1     6  1.00
      P1  H 10752 10765       L1    20  0.66

> <Gold.PLP.Chemscore.Internal.Correction>
0.4446

> <Gold.Rescore>
     Score         DG    S(hbond)    S(metal)    S(lipo)     H(rot)  DE(clash)    DE(int)     intcor
     16.40     -17.63       1.62        0.00      95.69       1.75       0.50       0.74       ----

> <Gold.Chemscore.Fitness>
16.3977

> <Gold.Chemscore.DG>
-17.6314

> <Gold.Chemscore.ZeroCoef>
-5.4800

> <Gold.Chemscore.Hbond>
1.6244

> <Gold.Chemscore.Metal>
0.0000

> <Gold.Chemscore.Lipo>
95.6879

> <Gold.Chemscore.Internal_Hbond>
0.0000

> <Gold.Chemscore.DEClash>
0.4965

> <Gold.Chemscore.DEInternal>
0.7372

> <Gold.Chemscore.Rot>
1.7460

> <Gold.Chemscore.Internal.Correction>
   9.000000E+99

> <Gold.Chemscore.Hbonds>
donor molecule, donor type, donor heavy atom, donor atom, acceptor molecule, acceptor atom, score
      P1  H  7997  8010       L1     6  0.35
      P1  H 10752 10765       L1    20  0.06

> <Gold.Chemscore.Hbond.Weighted>
-5.4255

> <Gold.Chemscore.Metal.Weighted>
-0.0000

> <Gold.Chemscore.Lipo.Weighted>
-11.1955

> <Gold.Chemscore.Internal_Hbond.Weighted>
0.0000

> <Gold.Chemscore.DEClash.Weighted>
0.4965

> <Gold.Chemscore.DEInternal.Weighted>
0.7372

> <Gold.Chemscore.Rot.Weighted>
4.4697

> <Gold.Chemscore.Internal.Correction.Weighted>
   9.000000E+99

> <Gold.Protein.RotatedTorsions>
[ 6907 6896 6895 6894 ] final   37.51 input  -60.11 | X-H torsion
[ 7974 7965 7964 7962 ] final -140.98 input  175.53 | X-H torsion
[ 8008 7997 7996 7995 ] final   50.06 input   59.86 | X-H torsion
[ 10167 10162 10161 10158 ] final -173.85 input  -65.29 | X-H torsion
[ 10718 10713 10712 10709 ] final  -92.25 input   66.30 | X-H torsion
[ 10763 10752 10751 10750 ] final  166.13 input  -60.55 | X-H torsion
[ 11005 11000 10999 10996 ] final  -53.89 input  -57.11 | X-H torsion

> <Gold.Protein.ActiveResidues>
 VAL166  LYS551  ARG553  GLY616  TRP617  ASP618  TYR619  PRO620  LYS621  CYS622 
 ASP623  PHE694  ASN695  SER759  ASP760  ASP761  ALA762  ILE779  LEU786  VAL792 
 PHE793  MET794  SER795  GLU796  ALA797  LYS798  CYS799  TRP800  GLU811  SER814 

> <Gold.Protein.RotatedAtoms>
  152.1441  134.9039  160.0551 H   0  0  0  0  0  0  0  0  0  0  0  0  # atno 6907 bound_to 6896
  152.0096  133.3851  159.4222 H   0  0  0  0  0  0  0  0  0  0  0  0  # atno 6908 bound_to 6896
  150.6868  134.3667  159.5018 H   0  0  0  0  0  0  0  0  0  0  0  0  # atno 6909 bound_to 6896
  144.8555  140.6135  143.5362 H   0  0  0  0  0  0  0  0  0  0  0  0  # atno 7974 bound_to 7965
  155.4125  140.3443  155.4265 H   0  0  0  0  0  0  0  0  0  0  0  0  # atno 8008 bound_to 7997
  156.1440  140.1551  156.8907 H   0  0  0  0  0  0  0  0  0  0  0  0  # atno 8009 bound_to 7997
  154.4995  140.0818  156.7749 H   0  0  0  0  0  0  0  0  0  0  0  0  # atno 8010 bound_to 7997
  139.5666  144.1741  152.1321 H   0  0  0  0  0  0  0  0  0  0  0  0  # atno 10167 bound_to 10162
  156.0000  130.4979  150.5596 H   0  0  0  0  0  0  0  0  0  0  0  0  # atno 10718 bound_to 10713
  154.3344  135.2754  155.2455 H   0  0  0  0  0  0  0  0  0  0  0  0  # atno 10763 bound_to 10752
  154.4753  135.5872  153.6354 H   0  0  0  0  0  0  0  0  0  0  0  0  # atno 10764 bound_to 10752
  152.9863  135.6098  154.3539 H   0  0  0  0  0  0  0  0  0  0  0  0  # atno 10765 bound_to 10752
  141.0998  133.6619  156.4239 H   0  0  0  0  0  0  0  0  0  0  0  0  # atno 11005 bound_to 11000
  145.4415  139.1535  143.3968 LP  0  0  0  0  0  0  0  0  0  0  0  0  # atno 17320 bound_to 7965
  146.2819  140.4536  142.8773 LP  0  0  0  0  0  0  0  0  0  0  0  0  # atno 17321 bound_to 7965
  140.1265  144.5326  150.6829 LP  0  0  0  0  0  0  0  0  0  0  0  0  # atno 17342 bound_to 10162
  140.6949  143.2398  151.5027 LP  0  0  0  0  0  0  0  0  0  0  0  0  # atno 17343 bound_to 10162
  157.3508  131.0733  151.1715 LP  0  0  0  0  0  0  0  0  0  0  0  0  # atno 17370 bound_to 10713
  157.2532  130.6624  149.5941 LP  0  0  0  0  0  0  0  0  0  0  0  0  # atno 17371 bound_to 10713
  140.5049  134.6450  157.5262 LP  0  0  0  0  0  0  0  0  0  0  0  0  # atno 17394 bound_to 11000
  139.9846  134.7082  155.9796 LP  0  0  0  0  0  0  0  0  0  0  0  0  # atno 17395 bound_to 11000

$$$$
