AV-unprocessed.smi:1470|AV-procd|sdf|5960|dock6
  -GOLD-   22720 6 43D 1   1.00000     0.00000
 Structure written by MMmdl.
 42 43  0  0  0  0  0  0  0  0  1 V2000
  145.2068  135.4184  150.9857 C   0  0  0  0  0  0  0  0  0  0  0  0
  145.9087  136.6356  150.8080 O   0  0  0  0  0  0  0  0  0  0  0  0
  145.8998  137.4468  151.9711 C   0  0  0  0  0  0  0  0  0  0  0  0
  146.7375  138.7118  151.7310 C   0  0  0  0  0  0  0  0  0  0  0  0
  147.9900  138.6813  152.4789 N   0  0  0  0  0  0  0  0  0  0  0  0
  148.2818  139.4629  153.5282 C   0  0  0  0  0  0  0  0  0  0  0  0
  147.5027  140.2927  153.9966 O   0  0  0  0  0  0  0  0  0  0  0  0
  149.5117  139.2010  154.0024 N   0  0  0  0  0  0  0  0  0  0  0  0
  150.2023  139.8562  155.0568 C   0  0  0  0  0  0  0  0  0  0  0  0
  149.5373  140.8833  155.7535 C   0  0  0  0  0  0  0  0  0  0  0  0
  150.1940  141.5296  156.8178 C   0  0  0  0  0  0  0  0  0  0  0  0
  151.5033  141.1246  157.1685 C   0  0  0  0  0  0  0  0  0  0  0  0
  152.1810  141.7582  158.2331 N   0  0  0  0  0  0  0  0  0  0  0  0
  151.7471  143.1068  158.6085 C   0  0  0  0  0  0  0  0  0  0  0  0
  152.7963  143.8040  159.4912 C   0  0  0  0  0  0  0  0  0  0  0  0
  153.1561  142.9393  160.7080 C   0  0  0  0  0  0  0  0  0  0  0  0
  153.6100  141.5469  160.2457 C   0  0  0  0  0  0  0  0  0  0  0  0
  152.5468  140.8863  159.3514 C   0  0  0  0  0  0  0  0  0  0  0  0
  152.1350  140.1220  156.5099 N   0  0  0  0  0  0  0  0  0  0  0  0
  151.5037  139.5070  155.4878 C   0  0  0  0  0  0  0  0  0  0  0  0
  145.2467  134.8361  150.0652 H   0  0  0  0  0  0  0  0  0  0  0  0
  144.1581  135.5989  151.2251 H   0  0  0  0  0  0  0  0  0  0  0  0
  145.6507  134.8199  151.7823 H   0  0  0  0  0  0  0  0  0  0  0  0
  144.8723  137.7315  152.2029 H   0  0  0  0  0  0  0  0  0  0  0  0
  146.2849  136.8928  152.8290 H   0  0  0  0  0  0  0  0  0  0  0  0
  146.9175  138.8599  150.6649 H   0  0  0  0  0  0  0  0  0  0  0  0
  146.1773  139.5830  152.0708 H   0  0  0  0  0  0  0  0  0  0  0  0
  148.6891  138.0232  152.1673 H   0  0  0  0  0  0  0  0  0  0  0  0
  149.9950  138.4194  153.5851 H   0  0  0  0  0  0  0  0  0  0  0  0
  148.5348  141.1767  155.4780 H   0  0  0  0  0  0  0  0  0  0  0  0
  149.6841  142.3119  157.3601 H   0  0  0  0  0  0  0  0  0  0  0  0
  151.5780  143.7102  157.7156 H   0  0  0  0  0  0  0  0  0  0  0  0
  150.7964  143.0418  159.1400 H   0  0  0  0  0  0  0  0  0  0  0  0
  153.6949  143.9989  158.9041 H   0  0  0  0  0  0  0  0  0  0  0  0
  152.4225  144.7748  159.8175 H   0  0  0  0  0  0  0  0  0  0  0  0
  153.9422  143.4179  161.2929 H   0  0  0  0  0  0  0  0  0  0  0  0
  152.2895  142.8459  161.3635 H   0  0  0  0  0  0  0  0  0  0  0  0
  154.5471  141.6331  159.6939 H   0  0  0  0  0  0  0  0  0  0  0  0
  153.8161  140.9145  161.1095 H   0  0  0  0  0  0  0  0  0  0  0  0
  151.6496  140.6774  159.9354 H   0  0  0  0  0  0  0  0  0  0  0  0
  152.9238  139.9243  159.0071 H   0  0  0  0  0  0  0  0  0  0  0  0
  152.0594  138.7025  155.0317 H   0  0  0  0  0  0  0  0  0  0  0  0
  1  2  1  0  0  0  0
  1 21  1  0  0  0  0
  1 22  1  0  0  0  0
  1 23  1  0  0  0  0
  2  3  1  0  0  0  0
  3  4  1  0  0  0  0
  3 24  1  0  0  0  0
  3 25  1  0  0  0  0
  4  5  1  0  0  0  0
  4 26  1  0  0  0  0
  4 27  1  0  0  0  0
  5  6  1  0  0  0  0
  5 28  1  0  0  0  0
  6  7  2  0  0  0  0
  6  8  1  0  0  0  0
  8  9  1  0  0  0  0
  8 29  1  0  0  0  0
  9 20  1  0  0  0  0
  9 10  2  0  0  0  0
 10 11  1  0  0  0  0
 10 30  1  0  0  0  0
 11 12  2  0  0  0  0
 11 31  1  0  0  0  0
 12 13  1  0  0  0  0
 12 19  1  0  0  0  0
 13 18  1  0  0  0  0
 13 14  1  0  0  0  0
 14 15  1  0  0  0  0
 14 32  1  0  0  0  0
 14 33  1  0  0  0  0
 15 16  1  0  0  0  0
 15 34  1  0  0  0  0
 15 35  1  0  0  0  0
 16 17  1  0  0  0  0
 16 36  1  0  0  0  0
 16 37  1  0  0  0  0
 17 18  1  0  0  0  0
 17 38  1  0  0  0  0
 17 39  1  0  0  0  0
 18 40  1  0  0  0  0
 18 41  1  0  0  0  0
 19 20  2  0  0  0  0
 20 42  1  0  0  0  0
M  END
> <s_m_source_file>
AV-unprocessed.smi

> <i_m_source_file_index>
1470

> <i_lp_mmshare_version>
43012

> <i_f3d_flags>
0

> <s_epik_input>
W0NIM11PW0NIMl1bQ0gyXVtOSF1DKD1PKVtOSF1jMVtjSF1bY0hdYyhuW2NIXTEpTjJbQ0gyXVtDSDJdW0NIMl1bQ0gyXVtDSDJdMg==

> <s_epik_cmdline>
J2VwaWtfcHl0aG9uJywgJy1waCcsICc3LjAnLCAnLXRuJywgJzgnLCAnLW1hJywgJzIwMCcsICctbWV0YWxfYmluZGluZycsICctaW1hZScsICc8aW5maWxlLm1hZT4nLCAnLW9tYWUnLCAnPG91dGZpbGUubWFlPic=

> <r_lp_tautomer_probability>
1

> <r_epik_Ionization_Penalty>
0.104129

> <r_epik_Ionization_Penalty_Charging>
0

> <r_epik_Ionization_Penalty_Neutral>
0.104129

> <r_epik_State_Penalty>
0.0879167

> <r_epik_Charging_Adjusted_Penalty>
0.0879167

> <i_epik_Tot_Q>
0

> <i_epik_Tot_abs_Q>
0

> <r_epik_Metal_State_Penalty>
0.0753231

> <b_epik_Metal_Only>
0

> <s_lp_Force_Field>
OPLS_2005

> <r_lp_Energy>
19.434

> <b_lp_Chiralities_Consistent>
1

> <s_lp_Variant>
AV-unprocessed.smi:1470-1

> <Gold.Version>
5.8.1

> <Gold.Id.Protein>
6NUR|6NUR_protein|mol2

> <Gold.PLP.Fitness>
44.2785

> <Gold.PLP.PLP>
-40.8554

> <Gold.PLP.part.hbond>
-3.4334

> <Gold.PLP.part.metal>
0.0000

> <Gold.PLP.part.buried>
-1.3499

> <Gold.PLP.part.nonpolar>
-37.0692

> <Gold.PLP.part.repulsive>
1.3794

> <Gold.PLP.ligand.clash>
0.0000

> <Gold.PLP.ligand.torsion>
0.7091

> <Gold.PLP.Chemscore.Hbond>
1.4653

> <Gold.PLP.Chemscore.CHOScore>
0.0000

> <Gold.PLP.Chemscore.Metal>
0.0000

> <Gold.Chemscore.Hbonds>
donor molecule, donor type, donor heavy atom, donor atom, acceptor molecule, acceptor atom, score
      L1  H     5    28       P1  7948  0.86
      P1  H  7997  8008       L1    19  0.59

> <Gold.PLP.Chemscore.Internal.Correction>
0.4456

> <Gold.Rescore>
     Score         DG    S(hbond)    S(metal)    S(lipo)     H(rot)  DE(clash)    DE(int)     intcor
     15.25     -18.63       1.58        0.00     102.50       1.61       1.37       2.02       ----

> <Gold.Chemscore.Fitness>
15.2460

> <Gold.Chemscore.DG>
-18.6313

> <Gold.Chemscore.ZeroCoef>
-5.4800

> <Gold.Chemscore.Hbond>
1.5800

> <Gold.Chemscore.Metal>
0.0000

> <Gold.Chemscore.Lipo>
102.4951

> <Gold.Chemscore.Internal_Hbond>
0.0000

> <Gold.Chemscore.DEClash>
1.3692

> <Gold.Chemscore.DEInternal>
2.0161

> <Gold.Chemscore.Rot>
1.6086

> <Gold.Chemscore.Internal.Correction>
   9.000000E+99

> <Gold.Chemscore.Hbonds>
donor molecule, donor type, donor heavy atom, donor atom, acceptor molecule, acceptor atom, score
      L1  H     5    28       P1  7948  0.85
      P1  H  7997  8008       L1    19  0.52

> <Gold.Chemscore.Hbond.Weighted>
-5.2773

> <Gold.Chemscore.Metal.Weighted>
-0.0000

> <Gold.Chemscore.Lipo.Weighted>
-11.9919

> <Gold.Chemscore.Internal_Hbond.Weighted>
0.0000

> <Gold.Chemscore.DEClash.Weighted>
1.3692

> <Gold.Chemscore.DEInternal.Weighted>
2.0161

> <Gold.Chemscore.Rot.Weighted>
4.1179

> <Gold.Chemscore.Internal.Correction.Weighted>
   9.000000E+99

> <Gold.Protein.RotatedTorsions>
[ 6907 6896 6895 6894 ] final  -58.40 input  -60.11 | X-H torsion
[ 7974 7965 7964 7962 ] final   97.01 input  175.53 | X-H torsion
[ 8008 7997 7996 7995 ] final  -47.87 input   59.86 | X-H torsion
[ 10167 10162 10161 10158 ] final   -8.57 input  -65.29 | X-H torsion
[ 10718 10713 10712 10709 ] final  -40.17 input   66.30 | X-H torsion
[ 10763 10752 10751 10750 ] final  175.01 input  -60.55 | X-H torsion
[ 11005 11000 10999 10996 ] final   58.69 input  -57.11 | X-H torsion

> <Gold.Protein.ActiveResidues>
 VAL166  LYS551  ARG553  GLY616  TRP617  ASP618  TYR619  PRO620  LYS621  CYS622 
 ASP623  PHE694  ASN695  SER759  ASP760  ASP761  ALA762  ILE779  LEU786  VAL792 
 PHE793  MET794  SER795  GLU796  ALA797  LYS798  CYS799  TRP800  GLU811  SER814 

> <Gold.Protein.RotatedAtoms>
  150.8010  134.7103  159.6599 H   0  0  0  0  0  0  0  0  0  0  0  0  # atno 6907 bound_to 6896
  152.4127  134.6093  160.0031 H   0  0  0  0  0  0  0  0  0  0  0  0  # atno 6908 bound_to 6896
  151.6332  133.3293  159.3149 H   0  0  0  0  0  0  0  0  0  0  0  0  # atno 6909 bound_to 6896
  145.4312  139.2310  143.3143 H   0  0  0  0  0  0  0  0  0  0  0  0  # atno 7974 bound_to 7965
  154.4022  140.1335  156.4246 H   0  0  0  0  0  0  0  0  0  0  0  0  # atno 8008 bound_to 7997
  155.7610  140.3486  155.5178 H   0  0  0  0  0  0  0  0  0  0  0  0  # atno 8009 bound_to 7997
  155.8859  140.0995  157.1443 H   0  0  0  0  0  0  0  0  0  0  0  0  # atno 8010 bound_to 7997
  140.7063  143.5953  150.8852 H   0  0  0  0  0  0  0  0  0  0  0  0  # atno 10167 bound_to 10162
  156.2843  130.4221  149.8304 H   0  0  0  0  0  0  0  0  0  0  0  0  # atno 10718 bound_to 10713
  154.4617  135.2768  155.1708 H   0  0  0  0  0  0  0  0  0  0  0  0  # atno 10763 bound_to 10752
  154.3493  135.6153  153.5638 H   0  0  0  0  0  0  0  0  0  0  0  0  # atno 10764 bound_to 10752
  152.9855  135.5807  154.4981 H   0  0  0  0  0  0  0  0  0  0  0  0  # atno 10765 bound_to 10752
  140.0359  134.5944  155.9445 H   0  0  0  0  0  0  0  0  0  0  0  0  # atno 11005 bound_to 11000
  146.2606  140.5049  142.8855 LP  0  0  0  0  0  0  0  0  0  0  0  0  # atno 17320 bound_to 7965
  144.8181  140.6503  143.6371 LP  0  0  0  0  0  0  0  0  0  0  0  0  # atno 17321 bound_to 7965
  139.9678  143.6090  152.2983 LP  0  0  0  0  0  0  0  0  0  0  0  0  # atno 17342 bound_to 10162
  139.6666  144.7662  151.1861 LP  0  0  0  0  0  0  0  0  0  0  0  0  # atno 17343 bound_to 10162
  156.5740  130.8437  151.3364 LP  0  0  0  0  0  0  0  0  0  0  0  0  # atno 17370 bound_to 10713
  157.7324  130.9714  150.1925 LP  0  0  0  0  0  0  0  0  0  0  0  0  # atno 17371 bound_to 10713
  141.1857  133.6555  156.5208 LP  0  0  0  0  0  0  0  0  0  0  0  0  # atno 17394 bound_to 11000
  140.4148  134.7240  157.4857 LP  0  0  0  0  0  0  0  0  0  0  0  0  # atno 17395 bound_to 11000

$$$$
