AV-unprocessed.smi:1032|AV-procd|sdf|4483|dock6
  -GOLD-   22720 2463D 1   1.00000     0.00000
 Structure written by MMmdl.
 46 47  0  0  0  0  0  0  0  0  2 V2000
  151.1729  142.9035  157.6722 C   0  0  0  0  0  0  0  0  0  0  0  0
  150.5426  141.6134  157.1294 C   0  0  2  0  0  0  0  0  0  0  0  0
  150.4313  141.6332  155.5956 C   0  0  0  0  0  0  0  0  0  0  0  0
  149.7706  140.3491  155.0654 C   0  0  0  0  0  0  0  0  0  0  0  0
  148.4345  140.1390  155.6796 N   0  3  1  0  0  0  0  0  0  0  0  0
  147.7139  138.9824  155.0869 C   0  0  0  0  0  0  0  0  0  0  0  0
  147.4400  139.1701  153.5808 C   0  0  1  0  0  0  0  0  0  0  0  0
  148.5466  138.6329  152.8823 O   0  0  0  0  0  0  0  0  0  0  0  0
  146.1658  138.4239  153.1378 C   0  0  0  0  0  0  0  0  0  0  0  0
  146.4824  137.1689  152.4636 N   0  0  0  0  0  0  0  0  0  0  0  0
  145.5769  136.3129  151.9683 C   0  0  0  0  0  0  0  0  0  0  0  0
  144.3641  136.5171  152.0087 O   0  0  0  0  0  0  0  0  0  0  0  0
  146.1736  135.2357  151.4280 N   0  0  0  0  0  0  0  0  0  0  0  0
  145.5885  134.0846  150.8308 C   0  0  0  0  0  0  0  0  0  0  0  0
  146.4528  133.0280  150.4754 C   0  0  0  0  0  0  0  0  0  0  0  0
  145.9059  131.8667  149.8943 C   0  0  0  0  0  0  0  0  0  0  0  0
  144.5869  131.7048  149.6610 N   0  0  0  0  0  0  0  0  0  0  0  0
  143.7591  132.7121  150.0099 C   0  0  0  0  0  0  0  0  0  0  0  0
  144.2018  133.9144  150.5972 C   0  0  0  0  0  0  0  0  0  0  0  0
  148.5197  140.0803  157.1631 C   0  0  0  0  0  0  0  0  0  0  0  0
  149.1510  141.3612  157.7334 C   0  0  0  0  0  0  0  0  0  0  0  0
  150.5719  143.7775  157.4189 H   0  0  0  0  0  0  0  0  0  0  0  0
  152.1714  143.0557  157.2610 H   0  0  0  0  0  0  0  0  0  0  0  0
  151.2668  142.8677  158.7579 H   0  0  0  0  0  0  0  0  0  0  0  0
  151.1917  140.7835  157.4130 H   0  0  0  0  0  0  0  0  0  0  0  0
  149.8491  142.4992  155.2774 H   0  0  0  0  0  0  0  0  0  0  0  0
  151.4202  141.7466  155.1501 H   0  0  0  0  0  0  0  0  0  0  0  0
  149.6702  140.4233  153.9818 H   0  0  0  0  0  0  0  0  0  0  0  0
  150.4060  139.4852  155.2675 H   0  0  0  0  0  0  0  0  0  0  0  0
  148.2968  138.0696  155.2216 H   0  0  0  0  0  0  0  0  0  0  0  0
  146.7821  138.8259  155.6327 H   0  0  0  0  0  0  0  0  0  0  0  0
  147.3437  140.2288  153.3405 H   0  0  0  0  0  0  0  0  0  0  0  0
  148.9752  139.3300  152.4084 H   0  0  0  0  0  0  0  0  0  0  0  0
  145.4775  138.2744  153.9719 H   0  0  0  0  0  0  0  0  0  0  0  0
  145.6265  139.0300  152.4093 H   0  0  0  0  0  0  0  0  0  0  0  0
  147.4595  136.9290  152.3807 H   0  0  0  0  0  0  0  0  0  0  0  0
  147.1827  135.2501  151.4233 H   0  0  0  0  0  0  0  0  0  0  0  0
  147.5177  133.1015  150.6412 H   0  0  0  0  0  0  0  0  0  0  0  0
  146.5463  131.0444  149.6113 H   0  0  0  0  0  0  0  0  0  0  0  0
  142.7079  132.5537  149.8201 H   0  0  0  0  0  0  0  0  0  0  0  0
  143.4709  134.6624  150.8595 H   0  0  0  0  0  0  0  0  0  0  0  0
  147.5285  139.9522  157.5965 H   0  0  0  0  0  0  0  0  0  0  0  0
  149.1076  139.2107  157.4612 H   0  0  0  0  0  0  0  0  0  0  0  0
  149.2237  141.2812  158.8186 H   0  0  0  0  0  0  0  0  0  0  0  0
  148.4979  142.2112  157.5296 H   0  0  0  0  0  0  0  0  0  0  0  0
  147.8882  140.9567  155.4471 H   0  0  0  0  0  0  0  0  0  0  0  0
  1  2  1  0  0  0  0
  1 22  1  0  0  0  0
  1 23  1  0  0  0  0
  1 24  1  0  0  0  0
  2 21  1  0  0  0  0
  2  3  1  0  0  0  0
  2 25  1  0  0  0  0
  3  4  1  0  0  0  0
  3 26  1  0  0  0  0
  3 27  1  0  0  0  0
  4  5  1  0  0  0  0
  4 28  1  0  0  0  0
  4 29  1  0  0  0  0
  5  6  1  0  0  0  0
  5 20  1  0  0  0  0
  5 46  1  0  0  0  0
  6  7  1  0  0  0  0
  6 30  1  0  0  0  0
  6 31  1  0  0  0  0
  7  8  1  0  0  0  0
  7  9  1  0  0  0  0
  7 32  1  0  0  0  0
  8 33  1  0  0  0  0
  9 10  1  0  0  0  0
  9 34  1  0  0  0  0
  9 35  1  0  0  0  0
 10 11  1  0  0  0  0
 10 36  1  0  0  0  0
 11 12  2  0  0  0  0
 11 13  1  0  0  0  0
 13 14  1  0  0  0  0
 13 37  1  0  0  0  0
 14 19  1  0  0  0  0
 14 15  2  0  0  0  0
 15 16  1  0  0  0  0
 15 38  1  0  0  0  0
 16 17  2  0  0  0  0
 16 39  1  0  0  0  0
 17 18  1  0  0  0  0
 18 19  2  0  0  0  0
 18 40  1  0  0  0  0
 19 41  1  0  0  0  0
 20 21  1  0  0  0  0
 20 42  1  0  0  0  0
 20 43  1  0  0  0  0
 21 44  1  0  0  0  0
 21 45  1  0  0  0  0
M  CHG  1   5   1
M  END
> <s_m_source_file>
AV-unprocessed.smi

> <i_m_source_file_index>
1032

> <i_lp_mmshare_version>
43012

> <i_f3d_flags>
0

> <s_epik_input>
W0NIM11bQ0hdMVtDSDJdW0NIMl1OKFtDSDJdW0NIMl0xKVtDSDJdW0NASF0oW09IXSlbQ0gyXVtOSF1DKD1PKVtOSF1jMltjSF1bY0hdbltjSF1bY0hdMg==

> <s_epik_cmdline>
J2VwaWtfcHl0aG9uJywgJy1waCcsICc3LjAnLCAnLXRuJywgJzgnLCAnLW1hJywgJzIwMCcsICctbWV0YWxfYmluZGluZycsICctaW1hZScsICc8aW5maWxlLm1hZT4nLCAnLW9tYWUnLCAnPG91dGZpbGUubWFlPic=

> <r_epik_Ionization_Penalty>
0.11743

> <r_epik_Ionization_Penalty_Charging>
0.00147689

> <r_epik_Ionization_Penalty_Neutral>
0.115954

> <r_epik_State_Penalty>
0.105552

> <r_epik_Charging_Adjusted_Penalty>
0.107029

> <i_epik_Tot_Q>
1

> <i_epik_Tot_abs_Q>
1

> <r_epik_Metal_State_Penalty>
0.0881315

> <b_epik_Metal_Only>
0

> <s_lp_Force_Field>
OPLS_2005

> <r_lp_Energy>
24.2585

> <b_lp_Chiralities_Consistent>
1

> <s_lp_Variant>
AV-unprocessed.smi:1032-2

> <Gold.Version>
5.8.1

> <Gold.Id.Protein>
6NUR|6NUR_protein|mol2

> <Gold.PLP.Fitness>
49.1575

> <Gold.PLP.PLP>
-35.9378

> <Gold.PLP.part.hbond>
-4.7610

> <Gold.PLP.part.metal>
0.0000

> <Gold.PLP.part.buried>
-5.6286

> <Gold.PLP.part.nonpolar>
-26.8793

> <Gold.PLP.part.repulsive>
0.9733

> <Gold.PLP.ligand.clash>
0.0000

> <Gold.PLP.ligand.torsion>
0.9987

> <Gold.PLP.Chemscore.Hbond>
3.1885

> <Gold.PLP.Chemscore.CHOScore>
1.8555

> <Gold.PLP.Chemscore.Metal>
0.0000

> <Gold.Chemscore.Hbonds>
donor molecule, donor type, donor heavy atom, donor atom, acceptor molecule, acceptor atom, score
      L1  H     8    33       P1  7957  1.00
      L1  H    10    36       P1  7948  1.00
      L1  H    13    37       P1  7948  1.00
      P1  H 10785 10796       L1    17  0.19
      L1  C    16    39       P1 10747  0.90
      L1  C    18    40       P1 10186  0.89
      L1  C    18    40       P1 10952  0.06

> <Gold.PLP.Chemscore.Internal.Correction>
0.0852

> <Gold.Rescore>
     Score         DG    S(hbond)    S(metal)    S(lipo)     H(rot)  DE(clash)    DE(int)     intcor
     16.54     -19.77       2.88        0.00      89.98       2.29       0.38       2.84       ----

> <Gold.Chemscore.Fitness>
16.5423

> <Gold.Chemscore.DG>
-19.7677

> <Gold.Chemscore.ZeroCoef>
-5.4800

> <Gold.Chemscore.Hbond>
2.8784

> <Gold.Chemscore.Metal>
0.0000

> <Gold.Chemscore.Lipo>
89.9790

> <Gold.Chemscore.Internal_Hbond>
0.0000

> <Gold.Chemscore.DEClash>
0.3840

> <Gold.Chemscore.DEInternal>
2.8414

> <Gold.Chemscore.Rot>
2.2865

> <Gold.Chemscore.Internal.Correction>
   9.000000E+99

> <Gold.Chemscore.Hbonds>
donor molecule, donor type, donor heavy atom, donor atom, acceptor molecule, acceptor atom, score
      L1  H     8    33       P1  7957  0.94
      L1  H    10    36       P1  7948  1.00
      L1  H    13    37       P1  7948  0.79
      P1  H 10785 10796       L1    17  0.09

> <Gold.Chemscore.Hbond.Weighted>
-9.6137

> <Gold.Chemscore.Metal.Weighted>
-0.0000

> <Gold.Chemscore.Lipo.Weighted>
-10.5275

> <Gold.Chemscore.Internal_Hbond.Weighted>
0.0000

> <Gold.Chemscore.DEClash.Weighted>
0.3840

> <Gold.Chemscore.DEInternal.Weighted>
2.8414

> <Gold.Chemscore.Rot.Weighted>
5.8536

> <Gold.Chemscore.Internal.Correction.Weighted>
   9.000000E+99

> <Gold.Protein.RotatedTorsions>
[ 6907 6896 6895 6894 ] final  143.06 input  -60.11 | X-H torsion
[ 7974 7965 7964 7962 ] final  -66.12 input  175.53 | X-H torsion
[ 8008 7997 7996 7995 ] final  172.52 input   59.86 | X-H torsion
[ 10167 10162 10161 10158 ] final  112.07 input  -65.29 | X-H torsion
[ 10718 10713 10712 10709 ] final  -12.21 input   66.30 | X-H torsion
[ 10763 10752 10751 10750 ] final  102.71 input  -60.55 | X-H torsion
[ 11005 11000 10999 10996 ] final -112.35 input  -57.11 | X-H torsion

> <Gold.Protein.ActiveResidues>
 VAL166  LYS551  ARG553  GLY616  TRP617  ASP618  TYR619  PRO620  LYS621  CYS622 
 ASP623  PHE694  ASN695  SER759  ASP760  ASP761  ALA762  ILE779  LEU786  VAL792 
 PHE793  MET794  SER795  GLU796  ALA797  LYS798  CYS799  TRP800  GLU811  SER814 

> <Gold.Protein.RotatedAtoms>
  152.2110  133.4911  159.5109 H   0  0  0  0  0  0  0  0  0  0  0  0  # atno 6907 bound_to 6896
  150.6990  134.1467  159.4134 H   0  0  0  0  0  0  0  0  0  0  0  0  # atno 6908 bound_to 6896
  151.9387  135.0223  160.0585 H   0  0  0  0  0  0  0  0  0  0  0  0  # atno 6909 bound_to 6896
  145.7457  140.8932  143.0506 H   0  0  0  0  0  0  0  0  0  0  0  0  # atno 7974 bound_to 7965
  156.1166  140.1483  156.9264 H   0  0  0  0  0  0  0  0  0  0  0  0  # atno 8008 bound_to 7997
  154.4805  140.0881  156.7407 H   0  0  0  0  0  0  0  0  0  0  0  0  # atno 8009 bound_to 7997
  155.4503  140.3434  155.4302 H   0  0  0  0  0  0  0  0  0  0  0  0  # atno 8010 bound_to 7997
  139.6563  144.7129  151.1950 H   0  0  0  0  0  0  0  0  0  0  0  0  # atno 10167 bound_to 10162
  156.6479  130.4946  149.6072 H   0  0  0  0  0  0  0  0  0  0  0  0  # atno 10718 bound_to 10713
  153.3431  135.4001  155.1588 H   0  0  0  0  0  0  0  0  0  0  0  0  # atno 10763 bound_to 10752
  154.8647  135.3638  154.5319 H   0  0  0  0  0  0  0  0  0  0  0  0  # atno 10764 bound_to 10752
  153.5765  135.7077  153.5541 H   0  0  0  0  0  0  0  0  0  0  0  0  # atno 10765 bound_to 10752
  141.0680  133.9427  157.2540 H   0  0  0  0  0  0  0  0  0  0  0  0  # atno 11005 bound_to 11000
  144.6860  139.9522  143.7478 LP  0  0  0  0  0  0  0  0  0  0  0  0  # atno 17320 bound_to 7965
  146.0405  139.3417  143.0700 LP  0  0  0  0  0  0  0  0  0  0  0  0  # atno 17321 bound_to 7965
  140.7561  143.6066  150.8646 LP  0  0  0  0  0  0  0  0  0  0  0  0  # atno 17342 bound_to 10162
  139.9719  143.6047  152.2971 LP  0  0  0  0  0  0  0  0  0  0  0  0  # atno 17343 bound_to 10162
  156.2107  130.6677  151.1266 LP  0  0  0  0  0  0  0  0  0  0  0  0  # atno 17370 bound_to 10713
  157.7150  131.0714  150.6360 LP  0  0  0  0  0  0  0  0  0  0  0  0  # atno 17371 bound_to 10713
  139.9495  135.0178  156.8953 LP  0  0  0  0  0  0  0  0  0  0  0  0  # atno 17394 bound_to 11000
  140.5733  134.0423  155.7438 LP  0  0  0  0  0  0  0  0  0  0  0  0  # atno 17395 bound_to 11000

$$$$
