#       Name:                AV-unprocessed.smi:147
#       Creating user name   scv26
#       Creation time:       Thu Mar 26 18:36:16 2020


#       File generated by GOLD software.
#

@<TRIPOS>MOLECULE
AV-unprocessed.smi:147
    64    66     1
SMALL
NO_CHARGES


@<TRIPOS>ATOM
      1 ****        -8.1314  -1.4620   2.3701 C.3            1 S1                 0.0000
      2 ****        -6.9937  -1.9973   1.4851 C.3            1 S1                 0.0000
      3 ****        -7.0312  -3.5316   1.3972 C.3            1 S1                 0.0000
      4 ****        -5.6303  -1.5200   2.0015 C.2            1 S1                 0.0000
      5 ****        -5.2644  -1.8056   3.1423 O.2            1 S1                 0.0000
      6 ****        -4.8863  -0.7965   1.1507 N.am           1 S1                 0.0000
      7 ****        -3.5600  -0.2672   1.4414 C.3            1 S1                 0.0000
      8 ****        -2.4810  -1.3572   1.3046 C.3            1 S1                 0.0000
      9 ****        -1.1326  -0.8434   1.5482 N.pl3          1 S1                 0.0000
     10 ****        -0.7316  -0.6122   2.9309 C.3            1 S1                 0.0000
     11 ****        -0.4123  -0.2752   0.5377 C.ar           1 S1                 0.0000
     12 ****        -1.0091  -0.1022  -0.6731 N.ar           1 S1                 0.0000
     13 ****        -0.3503   0.4547  -1.6918 C.ar           1 S1                 0.0000
     14 ****         0.9044   0.9007  -1.7261 N.ar           1 S1                 0.0000
     15 ****         1.5237   0.7223  -0.5251 C.ar           1 S1                 0.0000
     16 ****         0.9467   0.1552   0.6497 C.ar           1 S1                 0.0000
     17 ****         1.8935   0.1537   1.6700 N.2            1 S1                 0.0000
     18 ****         2.9538   0.6938   1.1362 C.2            1 S1                 0.0000
     19 ****         2.8291   1.0367  -0.1895 N.pl3          1 S1                 0.0000
     20 ****         3.8191   1.6724  -1.0087 C.3            1 S1                 0.0000
     21 ****         4.0440   1.2350  -2.4577 C.3            1 S1                 0.0000
     22 ****         5.5446   1.5776  -2.3224 C.3            1 S1                 0.0000
     23 ****         6.5125   0.5681  -2.9605 C.3            1 S1                 0.0000
     24 ****         7.8175   0.7087  -2.4376 O.3            1 S1                 0.0000
     25 ****         5.9361   3.0027  -2.7619 C.3            1 S1                 0.0000
     26 ****         5.7286   3.1913  -4.1471 O.3            1 S1                 0.0000
     27 ****         5.3116   1.3982  -0.8058 C.3            1 S1                 0.0000
     28 ****        -8.1051  -0.3736   2.4353 H              1 S1                 0.0000
     29 ****        -8.0723  -1.8584   3.3846 H              1 S1                 0.0000
     30 ****        -9.1039  -1.7409   1.9640 H              1 S1                 0.0000
     31 ****        -7.1383  -1.6002   0.4790 H              1 S1                 0.0000
     32 ****        -6.2263  -3.9128   0.7674 H              1 S1                 0.0000
     33 ****        -7.9722  -3.8735   0.9658 H              1 S1                 0.0000
     34 ****        -6.9320  -3.9932   2.3805 H              1 S1                 0.0000
     35 ****        -5.2621  -0.6071   0.2329 H              1 S1                 0.0000
     36 ****        -3.3657   0.5466   0.7425 H              1 S1                 0.0000
     37 ****        -3.5431   0.1720   2.4401 H              1 S1                 0.0000
     38 ****        -2.6732  -2.1536   2.0244 H              1 S1                 0.0000
     39 ****        -2.5399  -1.8338   0.3252 H              1 S1                 0.0000
     40 ****         0.1347  -1.2230   3.1854 H              1 S1                 0.0000
     41 ****        -1.5343  -0.8752   3.6203 H              1 S1                 0.0000
     42 ****        -0.4855   0.4371   3.0969 H              1 S1                 0.0000
     43 ****        -0.9076   0.5546  -2.6115 H              1 S1                 0.0000
     44 ****         3.8640   0.8482   1.6974 H              1 S1                 0.0000
     45 ****         3.6113   2.7424  -0.9573 H              1 S1                 0.0000
     46 ****         3.8603   0.1686  -2.6017 H              1 S1                 0.0000
     47 ****         3.4970   1.8249  -3.1937 H              1 S1                 0.0000
     48 ****         6.1868  -0.4546  -2.7680 H              1 S1                 0.0000
     49 ****         6.5503   0.6768  -4.0446 H              1 S1                 0.0000
     50 ****         8.3770   0.0708  -2.8536 H              1 S1                 0.0000
     51 ****         5.3488   3.7532  -2.2329 H              1 S1                 0.0000
     52 ****         6.9793   3.2193  -2.5311 H              1 S1                 0.0000
     53 ****         5.9695   4.0778  -4.3687 H              1 S1                 0.0000
     54 ****         5.8231   2.1251  -0.1743 H              1 S1                 0.0000
     55 ****         5.5076   0.3795  -0.4652 H              1 S1                 0.0000
     56 ****        -5.8568  -2.3505   3.7357 LP             1 S1                 0.0000
     57 ****        -4.3749  -1.4925   3.4752 LP             1 S1                 0.0000
     58 ****        -1.9560  -0.3969  -0.8016 LP             1 S1                 0.0000
     59 ****         1.3359   1.3128  -2.5286 LP             1 S1                 0.0000
     60 ****         1.7849  -0.1858   2.6043 LP             1 S1                 0.0000
     61 ****         7.8039   0.5527  -1.4499 LP             1 S1                 0.0000
     62 ****         8.1586   1.6299  -2.6248 LP             1 S1                 0.0000
     63 ****         4.7653   3.0385  -4.3677 LP             1 S1                 0.0000
     64 ****         6.2948   2.5489  -4.6634 LP             1 S1                 0.0000
@<TRIPOS>BOND
    1    1    2 1     
    2    1   28 1     
    3    1   29 1     
    4    1   30 1     
    5    2    3 1     
    6    2    4 1     
    7    2   31 1     
    8    3   32 1     
    9    3   33 1     
   10    3   34 1     
   11    4    5 2     
   12    4    6 am    
   13    6    7 1     
   14    6   35 1     
   15    7    8 1     
   16    7   36 1     
   17    7   37 1     
   18    8    9 1     
   19    8   38 1     
   20    8   39 1     
   21    9   10 1     
   22    9   11 1     
   23   10   40 1     
   24   10   41 1     
   25   10   42 1     
   26   11   16 ar    
   27   11   12 ar    
   28   12   13 ar    
   29   13   14 ar    
   30   13   43 1     
   31   14   15 ar    
   32   15   19 1     
   33   15   16 ar    
   34   16   17 1     
   35   17   18 2     
   36   18   19 1     
   37   18   44 1     
   38   19   20 1     
   39   20   27 1     
   40   20   21 1     
   41   20   45 1     
   42   21   22 1     
   43   21   46 1     
   44   21   47 1     
   45   22   23 1     
   46   22   25 1     
   47   22   27 1     
   48   23   24 1     
   49   23   48 1     
   50   23   49 1     
   51   24   50 1     
   52   25   26 1     
   53   25   51 1     
   54   25   52 1     
   55   26   53 1     
   56   27   54 1     
   57   27   55 1     
   58    5   56 1     
   59    5   57 1     
   60   12   58 1     
   61   14   59 1     
   62   17   60 1     
   63   24   61 1     
   64   24   62 1     
   65   26   63 1     
   66   26   64 1     
@<TRIPOS>SUBSTRUCTURE
      1 S1             1
@<TRIPOS>SET
LONE_PAIRS      STATIC     ATOMS    <user>   **** ""
9 56 57 58 59 60 61 62 63 64
DONOR_HYDROGENS      STATIC     ATOMS    <user>   **** ""
3 35 50 53
ATOM$BLUE        STATIC     ATOMS    COLORGROUP SYSTEM
9 56 57 58 59 60 61 62 63 64
ATOM$RED        STATIC     ATOMS    COLORGROUP SYSTEM
3 35 50 53
