AV-unprocessed.smi:1775|AV-procd|sdf|7172|dock2
  -GOLD-   22720 8413D 1   1.00000     0.00000
 Structure written by MMmdl.
 37 39  0  0  0  0  0  0  0  0  2 V2000
  146.3505  137.0451  153.9106 O   0  0  0  0  0  0  0  0  0  0  0  0
  145.6984  138.0140  153.5219 C   0  0  0  0  0  0  0  0  0  0  0  0
  146.1215  139.2908  153.5023 N   0  0  0  0  0  0  0  0  0  0  0  0
  147.3735  139.8181  153.8602 C   0  0  0  0  0  0  0  0  0  0  0  0
  148.4665  139.0721  154.1819 C   0  0  0  0  0  0  0  0  0  0  0  0
  149.7468  139.6745  154.5314 C   0  0  0  0  0  0  0  0  0  0  0  0
  150.9553  138.8782  154.9908 C   0  0  0  0  0  0  0  0  0  0  0  0
  150.6769  138.1727  156.0872 F   0  0  0  0  0  0  0  0  0  0  0  0
  151.3627  138.0362  154.0408 F   0  0  0  0  0  0  0  0  0  0  0  0
  151.9616  139.7043  155.2729 F   0  0  0  0  0  0  0  0  0  0  0  0
  149.7018  141.0550  154.5021 C   0  0  0  0  0  0  0  0  0  0  0  0
  148.6744  141.8658  154.1674 N   0  5  0  0  0  0  0  0  0  0  0  0
  147.4826  141.2915  153.8392 C   0  0  0  0  0  0  0  0  0  0  0  0
  146.5041  141.9713  153.5272 O   0  0  0  0  0  0  0  0  0  0  0  0
  144.4367  137.9272  153.0729 N   0  0  0  0  0  0  0  0  0  0  0  0
  143.6259  136.7161  152.9644 C   0  0  0  0  0  0  0  0  0  0  0  0
  143.8650  135.9316  151.6830 C   0  0  0  0  0  0  0  0  0  0  0  0
  143.9934  134.4269  151.6979 C   0  0  0  0  0  0  0  0  0  0  0  0
  145.2007  135.2878  151.4001 C   0  0  0  0  0  0  0  0  0  0  0  0
  142.1393  136.9479  153.1912 C   0  0  0  0  0  0  0  0  0  0  0  0
  141.5353  136.8411  154.5704 C   0  0  0  0  0  0  0  0  0  0  0  0
  141.2078  135.8048  153.5184 C   0  0  0  0  0  0  0  0  0  0  0  0
  145.4412  139.9857  153.2319 H   0  0  0  0  0  0  0  0  0  0  0  0
  148.4234  137.9953  154.1664 H   0  0  0  0  0  0  0  0  0  0  0  0
  150.6310  141.5884  154.7955 H   0  0  0  0  0  0  0  0  0  0  0  0
  143.9916  138.7854  152.7821 H   0  0  0  0  0  0  0  0  0  0  0  0
  143.9723  136.0867  153.7854 H   0  0  0  0  0  0  0  0  0  0  0  0
  143.3506  136.3436  150.8167 H   0  0  0  0  0  0  0  0  0  0  0  0
  143.9677  133.9206  152.6606 H   0  0  0  0  0  0  0  0  0  0  0  0
  143.5499  133.8775  150.8700 H   0  0  0  0  0  0  0  0  0  0  0  0
  145.5617  135.3132  150.3739 H   0  0  0  0  0  0  0  0  0  0  0  0
  145.9695  135.3582  152.1669 H   0  0  0  0  0  0  0  0  0  0  0  0
  141.7149  137.7194  152.5514 H   0  0  0  0  0  0  0  0  0  0  0  0
  142.1877  136.5392  155.3873 H   0  0  0  0  0  0  0  0  0  0  0  0
  140.7591  137.5568  154.8335 H   0  0  0  0  0  0  0  0  0  0  0  0
  140.2119  135.8291  153.0808 H   0  0  0  0  0  0  0  0  0  0  0  0
  141.6387  134.8135  153.6428 H   0  0  0  0  0  0  0  0  0  0  0  0
  1  2  2  0  0  0  0
  2  3  1  0  0  0  0
  2 15  1  0  0  0  0
  3  4  1  0  0  0  0
  3 23  1  0  0  0  0
  4 13  1  0  0  0  0
  4  5  2  0  0  0  0
  5  6  1  0  0  0  0
  5 24  1  0  0  0  0
  6  7  1  0  0  0  0
  6 11  2  0  0  0  0
  7  8  1  0  0  0  0
  7  9  1  0  0  0  0
  7 10  1  0  0  0  0
 11 12  1  0  0  0  0
 11 25  1  0  0  0  0
 12 13  1  0  0  0  0
 13 14  2  0  0  0  0
 15 16  1  0  0  0  0
 15 26  1  0  0  0  0
 16 17  1  0  0  0  0
 16 20  1  0  0  0  0
 16 27  1  0  0  0  0
 17 19  1  0  0  0  0
 17 18  1  0  0  0  0
 17 28  1  0  0  0  0
 18 19  1  0  0  0  0
 18 29  1  0  0  0  0
 18 30  1  0  0  0  0
 19 31  1  0  0  0  0
 19 32  1  0  0  0  0
 20 22  1  0  0  0  0
 20 21  1  0  0  0  0
 20 33  1  0  0  0  0
 21 22  1  0  0  0  0
 21 34  1  0  0  0  0
 21 35  1  0  0  0  0
 22 36  1  0  0  0  0
 22 37  1  0  0  0  0
M  CHG  1  12  -1
M  END
> <s_m_source_file>
AV-unprocessed.smi

> <i_m_source_file_index>
1775

> <i_lp_mmshare_version>
43012

> <i_f3d_flags>
0

> <s_epik_input>
W0NIMl0xW0NIMl1bQ0hdMVtDSF0oW0NIXTJbQ0gyXVtDSDJdMilbTkhdQyg9TylbTkhdYzNbY0hdYyhDKEYpKEYpRilbY0hdW25IXWMzPU8=

> <s_epik_cmdline>
J2VwaWtfcHl0aG9uJywgJy1waCcsICc3LjAnLCAnLXRuJywgJzgnLCAnLW1hJywgJzIwMCcsICctbWV0YWxfYmluZGluZycsICctaW1hZScsICc8aW5maWxlLm1hZT4nLCAnLW9tYWUnLCAnPG91dGZpbGUubWFlPic=

> <r_lp_tautomer_probability>
1

> <r_epik_Ionization_Penalty>
3.19177

> <r_epik_Ionization_Penalty_Charging>
0.180322

> <r_epik_Ionization_Penalty_Neutral>
3.01145

> <r_epik_State_Penalty>
3.00772

> <r_epik_Charging_Adjusted_Penalty>
3.18804

> <i_epik_Tot_Q>
-1

> <i_epik_Tot_abs_Q>
1

> <r_epik_Metal_State_Penalty>
0.454354

> <b_epik_Metal_Only>
1

> <s_lp_Force_Field>
OPLS_2005

> <r_lp_Energy>
38.3623

> <b_lp_Chiralities_Consistent>
1

> <s_lp_Variant>
AV-unprocessed.smi:1775-2

> <Gold.Version>
5.8.1

> <Gold.Id.Protein>
6NUR|6NUR_protein|mol2

> <Gold.PLP.Fitness>
43.5313

> <Gold.PLP.PLP>
-38.1923

> <Gold.PLP.part.hbond>
-3.0000

> <Gold.PLP.part.metal>
0.0000

> <Gold.PLP.part.buried>
-3.6033

> <Gold.PLP.part.nonpolar>
-31.0790

> <Gold.PLP.part.repulsive>
0.4948

> <Gold.PLP.ligand.clash>
0.2456

> <Gold.PLP.ligand.torsion>
1.5478

> <Gold.PLP.Chemscore.Hbond>
2.1463

> <Gold.PLP.Chemscore.CHOScore>
0.0000

> <Gold.PLP.Chemscore.Metal>
0.0000

> <Gold.Chemscore.Hbonds>
donor molecule, donor type, donor heavy atom, donor atom, acceptor molecule, acceptor atom, score
      L1  H     3    23       P1 10175  1.00
      L1  H    15    26       P1 10175  1.00
      P1  H  8011  8017       L1    12  0.12

> <Gold.PLP.Chemscore.Internal.Correction>
2.2413

> <Gold.Rescore>
     Score         DG    S(hbond)    S(metal)    S(lipo)     H(rot)  DE(clash)    DE(int)     intcor
     13.04     -15.89       1.98        0.00      65.09       1.49       0.13       2.73       ----

> <Gold.Chemscore.Fitness>
13.0406

> <Gold.Chemscore.DG>
-15.8948

> <Gold.Chemscore.ZeroCoef>
-5.4800

> <Gold.Chemscore.Hbond>
1.9775

> <Gold.Chemscore.Metal>
0.0000

> <Gold.Chemscore.Lipo>
65.0870

> <Gold.Chemscore.Internal_Hbond>
0.0000

> <Gold.Chemscore.DEClash>
0.1257

> <Gold.Chemscore.DEInternal>
2.7285

> <Gold.Chemscore.Rot>
1.4864

> <Gold.Chemscore.Internal.Correction>
   9.000000E+99

> <Gold.Chemscore.Hbonds>
donor molecule, donor type, donor heavy atom, donor atom, acceptor molecule, acceptor atom, score
      L1  H     3    23       P1 10175  0.93
      L1  H    15    26       P1 10175  1.00

> <Gold.Chemscore.Hbond.Weighted>
-6.6048

> <Gold.Chemscore.Metal.Weighted>
-0.0000

> <Gold.Chemscore.Lipo.Weighted>
-7.6152

> <Gold.Chemscore.Internal_Hbond.Weighted>
0.0000

> <Gold.Chemscore.DEClash.Weighted>
0.1257

> <Gold.Chemscore.DEInternal.Weighted>
2.7285

> <Gold.Chemscore.Rot.Weighted>
3.8052

> <Gold.Chemscore.Internal.Correction.Weighted>
   9.000000E+99

> <Gold.Protein.RotatedTorsions>
[ 6907 6896 6895 6894 ] final   23.73 input  -60.11 | X-H torsion
[ 7974 7965 7964 7962 ] final   29.82 input  175.53 | X-H torsion
[ 8008 7997 7996 7995 ] final  108.35 input   59.86 | X-H torsion
[ 10167 10162 10161 10158 ] final   42.22 input  -65.29 | X-H torsion
[ 10718 10713 10712 10709 ] final  -90.60 input   66.30 | X-H torsion
[ 10763 10752 10751 10750 ] final -100.82 input  -60.55 | X-H torsion
[ 11005 11000 10999 10996 ] final  -22.57 input  -57.11 | X-H torsion

> <Gold.Protein.ActiveResidues>
 VAL166  LYS551  ARG553  GLY616  TRP617  ASP618  TYR619  PRO620  LYS621  CYS622 
 ASP623  PHE694  ASN695  SER759  ASP760  ASP761  ALA762  ILE779  LEU786  VAL792 
 PHE793  MET794  SER795  GLU796  ALA797  LYS798  CYS799  TRP800  GLU811  SER814 

> <Gold.Protein.RotatedAtoms>
  151.9469  135.0187  160.0539 H   0  0  0  0  0  0  0  0  0  0  0  0  # atno 6907 bound_to 6896
  152.1988  133.4821  159.5055 H   0  0  0  0  0  0  0  0  0  0  0  0  # atno 6908 bound_to 6896
  150.6950  134.1535  159.4192 H   0  0  0  0  0  0  0  0  0  0  0  0  # atno 6909 bound_to 6896
  146.1648  139.6870  142.9008 H   0  0  0  0  0  0  0  0  0  0  0  0  # atno 7974 bound_to 7965
  156.1896  140.3078  155.9306 H   0  0  0  0  0  0  0  0  0  0  0  0  # atno 8008 bound_to 7997
  155.3204  140.0455  157.3056 H   0  0  0  0  0  0  0  0  0  0  0  0  # atno 8009 bound_to 7997
  154.5436  140.2269  155.8609 H   0  0  0  0  0  0  0  0  0  0  0  0  # atno 8010 bound_to 7997
  140.3565  144.2283  150.6141 H   0  0  0  0  0  0  0  0  0  0  0  0  # atno 10167 bound_to 10162
  155.9988  130.4916  150.5348 H   0  0  0  0  0  0  0  0  0  0  0  0  # atno 10718 bound_to 10713
  154.7609  135.4921  153.9463 H   0  0  0  0  0  0  0  0  0  0  0  0  # atno 10763 bound_to 10752
  153.1250  135.6740  153.9279 H   0  0  0  0  0  0  0  0  0  0  0  0  # atno 10764 bound_to 10752
  153.8999  135.3111  155.3427 H   0  0  0  0  0  0  0  0  0  0  0  0  # atno 10765 bound_to 10752
  140.8669  133.7748  156.0140 H   0  0  0  0  0  0  0  0  0  0  0  0  # atno 11005 bound_to 11000
  145.4494  141.0427  143.2813 LP  0  0  0  0  0  0  0  0  0  0  0  0  # atno 17320 bound_to 7965
  144.8078  139.6019  143.7043 LP  0  0  0  0  0  0  0  0  0  0  0  0  # atno 17321 bound_to 7965
  140.5168  143.2276  151.8450 LP  0  0  0  0  0  0  0  0  0  0  0  0  # atno 17342 bound_to 10162
  139.4819  144.4884  151.9217 LP  0  0  0  0  0  0  0  0  0  0  0  0  # atno 17343 bound_to 10162
  157.3292  131.0696  151.1873 LP  0  0  0  0  0  0  0  0  0  0  0  0  # atno 17370 bound_to 10713
  157.2760  130.6727  149.6042 LP  0  0  0  0  0  0  0  0  0  0  0  0  # atno 17371 bound_to 10713
  140.8618  134.2831  157.5231 LP  0  0  0  0  0  0  0  0  0  0  0  0  # atno 17394 bound_to 11000
  139.8710  134.9522  156.4108 LP  0  0  0  0  0  0  0  0  0  0  0  0  # atno 17395 bound_to 11000

$$$$
