AV-unprocessed.smi:2235|AV-procd|sdf|9044|dock6
  -GOLD-   2272012253D 1   1.00000     0.00000
 Structure written by MMmdl.
 36 37  0  0  0  0  0  0  0  0  1 V2000
  152.7920  140.1562  157.7400 O   0  0  0  0  0  0  0  0  0  0  0  0
  151.6499  140.5985  157.8641 C   0  0  0  0  0  0  0  0  0  0  0  0
  150.4479  139.7232  157.5079 C   0  0  0  0  0  0  0  0  0  0  0  0
  149.6759  140.3086  156.4267 N   0  0  0  0  0  0  0  0  0  0  0  0
  149.3258  139.7418  155.2192 C   0  0  0  0  0  0  0  0  0  0  0  0
  148.6002  140.6680  154.5245 C   0  0  0  0  0  0  0  0  0  0  0  0
  147.9847  140.5494  153.1577 C   0  0  0  0  0  0  0  0  0  0  0  0
  147.1235  139.2853  153.0329 C   0  0  0  0  0  0  0  0  0  0  0  0
  147.3560  138.6667  151.7858 O   0  0  0  0  0  0  0  0  0  0  0  0
  148.5605  141.7854  155.4062 C   0  0  0  0  0  0  0  0  0  0  0  0
  149.2037  141.5685  156.5419 N   0  0  0  0  0  0  0  0  0  0  0  0
  151.3791  141.8376  158.3023 N   0  0  0  0  0  0  0  0  0  0  0  0
  152.3795  142.8266  158.6934 C   0  0  0  0  0  0  0  0  0  0  0  0
  152.3041  143.1022  160.2057 C   0  0  0  0  0  0  0  0  0  0  0  0
  151.6800  144.4904  160.3473 C   0  0  0  0  0  0  0  0  0  0  0  0
  152.1551  145.2388  159.1061 C   0  0  0  0  0  0  0  0  0  0  0  0
  152.1433  144.1841  157.9979 C   0  0  0  0  0  0  0  0  0  0  0  0
  150.7815  138.7238  157.2235 H   0  0  0  0  0  0  0  0  0  0  0  0
  149.7997  139.6085  158.3778 H   0  0  0  0  0  0  0  0  0  0  0  0
  149.6190  138.7356  154.9577 H   0  0  0  0  0  0  0  0  0  0  0  0
  147.3726  141.4254  152.9397 H   0  0  0  0  0  0  0  0  0  0  0  0
  148.7607  140.5320  152.3912 H   0  0  0  0  0  0  0  0  0  0  0  0
  147.3590  138.5780  153.8287 H   0  0  0  0  0  0  0  0  0  0  0  0
  146.0640  139.5301  153.1152 H   0  0  0  0  0  0  0  0  0  0  0  0
  147.9870  139.1825  151.3073 H   0  0  0  0  0  0  0  0  0  0  0  0
  148.0854  142.7433  155.2542 H   0  0  0  0  0  0  0  0  0  0  0  0
  150.4100  142.1129  158.3753 H   0  0  0  0  0  0  0  0  0  0  0  0
  153.3747  142.4471  158.4544 H   0  0  0  0  0  0  0  0  0  0  0  0
  151.7497  142.3430  160.7591 H   0  0  0  0  0  0  0  0  0  0  0  0
  153.3144  143.1224  160.6169 H   0  0  0  0  0  0  0  0  0  0  0  0
  150.5922  144.4086  160.3339 H   0  0  0  0  0  0  0  0  0  0  0  0
  151.9668  144.9875  161.2745 H   0  0  0  0  0  0  0  0  0  0  0  0
  151.5316  146.1015  158.8705 H   0  0  0  0  0  0  0  0  0  0  0  0
  153.1738  145.5963  159.2621 H   0  0  0  0  0  0  0  0  0  0  0  0
  152.8946  144.3893  157.2348 H   0  0  0  0  0  0  0  0  0  0  0  0
  151.1711  144.2005  157.5025 H   0  0  0  0  0  0  0  0  0  0  0  0
  1  2  2  0  0  0  0
  2  3  1  0  0  0  0
  2 12  1  0  0  0  0
  3  4  1  0  0  0  0
  3 18  1  0  0  0  0
  3 19  1  0  0  0  0
  4 11  1  0  0  0  0
  4  5  1  0  0  0  0
  5  6  2  0  0  0  0
  5 20  1  0  0  0  0
  6  7  1  0  0  0  0
  6 10  1  0  0  0  0
  7  8  1  0  0  0  0
  7 21  1  0  0  0  0
  7 22  1  0  0  0  0
  8  9  1  0  0  0  0
  8 23  1  0  0  0  0
  8 24  1  0  0  0  0
  9 25  1  0  0  0  0
 10 11  2  0  0  0  0
 10 26  1  0  0  0  0
 12 13  1  0  0  0  0
 12 27  1  0  0  0  0
 13 17  1  0  0  0  0
 13 14  1  0  0  0  0
 13 28  1  0  0  0  0
 14 15  1  0  0  0  0
 14 29  1  0  0  0  0
 14 30  1  0  0  0  0
 15 16  1  0  0  0  0
 15 31  1  0  0  0  0
 15 32  1  0  0  0  0
 16 17  1  0  0  0  0
 16 33  1  0  0  0  0
 16 34  1  0  0  0  0
 17 35  1  0  0  0  0
 17 36  1  0  0  0  0
M  END
> <s_m_source_file>
AV-unprocessed.smi

> <i_m_source_file_index>
2235

> <i_lp_mmshare_version>
43012

> <i_f3d_flags>
0

> <s_epik_input>
W0NIMl0xW0NIMl1bQ0gyXVtDSDJdW0NIXTFbTkhdQyg9TylbQ0gyXW4yW2NIXWMoW2NIXW4yKVtDSDJdW0NIMl1bT0hd

> <s_epik_cmdline>
J2VwaWtfcHl0aG9uJywgJy1waCcsICc3LjAnLCAnLXRuJywgJzgnLCAnLW1hJywgJzIwMCcsICctbWV0YWxfYmluZGluZycsICctaW1hZScsICc8aW5maWxlLm1hZT4nLCAnLW9tYWUnLCAnPG91dGZpbGUubWFlPic=

> <r_lp_tautomer_probability>
1

> <r_epik_Ionization_Penalty>
3.35381e-05

> <r_epik_Ionization_Penalty_Charging>
0

> <r_epik_Ionization_Penalty_Neutral>
3.35381e-05

> <r_epik_State_Penalty>
-0

> <r_epik_Charging_Adjusted_Penalty>
0

> <i_epik_Tot_Q>
0

> <i_epik_Tot_abs_Q>
0

> <r_epik_Metal_State_Penalty>
-0

> <b_epik_Metal_Only>
0

> <s_lp_Force_Field>
OPLS_2005

> <r_lp_Energy>
18.0157

> <b_lp_Chiralities_Consistent>
1

> <s_lp_Variant>
AV-unprocessed.smi:2235-1

> <Gold.Version>
5.8.1

> <Gold.Id.Protein>
6NUR|6NUR_protein|mol2

> <Gold.PLP.Fitness>
43.6795

> <Gold.PLP.PLP>
-35.6200

> <Gold.PLP.part.hbond>
-3.7129

> <Gold.PLP.part.metal>
0.0000

> <Gold.PLP.part.buried>
1.2226

> <Gold.PLP.part.nonpolar>
-33.0454

> <Gold.PLP.part.repulsive>
0.1827

> <Gold.PLP.ligand.clash>
0.0000

> <Gold.PLP.ligand.torsion>
0.4610

> <Gold.PLP.Chemscore.Hbond>
2.0000

> <Gold.PLP.Chemscore.CHOScore>
0.9797

> <Gold.PLP.Chemscore.Metal>
0.0000

> <Gold.Chemscore.Hbonds>
donor molecule, donor type, donor heavy atom, donor atom, acceptor molecule, acceptor atom, score
      L1  H     9    25       P1  7957  1.00
      P1  H  7997  8009       L1     1  1.00
      L1  C    10    26       P1  8028  0.99

> <Gold.PLP.Chemscore.Internal.Correction>
0.0423

> <Gold.Rescore>
     Score         DG    S(hbond)    S(metal)    S(lipo)     H(rot)  DE(clash)    DE(int)     intcor
     14.68     -17.17       1.93        0.00      98.62       2.46       1.99       0.49       ----

> <Gold.Chemscore.Fitness>
14.6799

> <Gold.Chemscore.DG>
-17.1667

> <Gold.Chemscore.ZeroCoef>
-5.4800

> <Gold.Chemscore.Hbond>
1.9284

> <Gold.Chemscore.Metal>
0.0000

> <Gold.Chemscore.Lipo>
98.6217

> <Gold.Chemscore.Internal_Hbond>
0.0000

> <Gold.Chemscore.DEClash>
1.9936

> <Gold.Chemscore.DEInternal>
0.4932

> <Gold.Chemscore.Rot>
2.4581

> <Gold.Chemscore.Internal.Correction>
   9.000000E+99

> <Gold.Chemscore.Hbonds>
donor molecule, donor type, donor heavy atom, donor atom, acceptor molecule, acceptor atom, score
      L1  H     9    25       P1  7957  0.73
      P1  H  7997  8009       L1     1  0.95

> <Gold.Chemscore.Hbond.Weighted>
-6.4408

> <Gold.Chemscore.Metal.Weighted>
-0.0000

> <Gold.Chemscore.Lipo.Weighted>
-11.5387

> <Gold.Chemscore.Internal_Hbond.Weighted>
0.0000

> <Gold.Chemscore.DEClash.Weighted>
1.9936

> <Gold.Chemscore.DEInternal.Weighted>
0.4932

> <Gold.Chemscore.Rot.Weighted>
6.2928

> <Gold.Chemscore.Internal.Correction.Weighted>
   9.000000E+99

> <Gold.Protein.RotatedTorsions>
[ 6907 6896 6895 6894 ] final  -13.90 input  -60.11 | X-H torsion
[ 7974 7965 7964 7962 ] final -122.70 input  175.53 | X-H torsion
[ 8008 7997 7996 7995 ] final  170.40 input   59.86 | X-H torsion
[ 10167 10162 10161 10158 ] final -109.81 input  -65.29 | X-H torsion
[ 10718 10713 10712 10709 ] final -151.42 input   66.30 | X-H torsion
[ 10763 10752 10751 10750 ] final  175.45 input  -60.55 | X-H torsion
[ 11005 11000 10999 10996 ] final   30.95 input  -57.11 | X-H torsion

> <Gold.Protein.ActiveResidues>
 VAL166  LYS551  ARG553  GLY616  TRP617  ASP618  TYR619  PRO620  LYS621  CYS622 
 ASP623  PHE694  ASN695  SER759  ASP760  ASP761  ALA762  ILE779  LEU786  VAL792 
 PHE793  MET794  SER795  GLU796  ALA797  LYS798  CYS799  TRP800  GLU811  SER814 

> <Gold.Protein.RotatedAtoms>
  151.3478  135.0878  159.9392 H   0  0  0  0  0  0  0  0  0  0  0  0  # atno 6907 bound_to 6896
  152.5195  133.9383  159.7624 H   0  0  0  0  0  0  0  0  0  0  0  0  # atno 6908 bound_to 6896
  150.9752  133.6248  159.2761 H   0  0  0  0  0  0  0  0  0  0  0  0  # atno 6909 bound_to 6896
  145.0267  140.8033  143.4348 H   0  0  0  0  0  0  0  0  0  0  0  0  # atno 7974 bound_to 7965
  156.1369  140.1539  156.8981 H   0  0  0  0  0  0  0  0  0  0  0  0  # atno 8008 bound_to 7997
  154.4954  140.0839  156.7725 H   0  0  0  0  0  0  0  0  0  0  0  0  # atno 8009 bound_to 7997
  155.4152  140.3420  155.4269 H   0  0  0  0  0  0  0  0  0  0  0  0  # atno 8010 bound_to 7997
  140.1513  143.4197  152.1493 H   0  0  0  0  0  0  0  0  0  0  0  0  # atno 10167 bound_to 10162
  156.4590  130.8204  151.2435 H   0  0  0  0  0  0  0  0  0  0  0  0  # atno 10718 bound_to 10713
  154.4677  135.2770  155.1666 H   0  0  0  0  0  0  0  0  0  0  0  0  # atno 10763 bound_to 10752
  154.3427  135.6166  153.5608 H   0  0  0  0  0  0  0  0  0  0  0  0  # atno 10764 bound_to 10752
  152.9861  135.5792  154.5052 H   0  0  0  0  0  0  0  0  0  0  0  0  # atno 10765 bound_to 10752
  140.2890  134.2886  155.7781 H   0  0  0  0  0  0  0  0  0  0  0  0  # atno 11005 bound_to 11000
  145.1825  139.2344  143.5285 LP  0  0  0  0  0  0  0  0  0  0  0  0  # atno 17320 bound_to 7965
  146.3493  140.1602  142.8591 LP  0  0  0  0  0  0  0  0  0  0  0  0  # atno 17321 bound_to 7965
  139.5425  144.7269  151.4689 LP  0  0  0  0  0  0  0  0  0  0  0  0  # atno 17342 bound_to 10162
  140.6701  143.8313  150.6989 LP  0  0  0  0  0  0  0  0  0  0  0  0  # atno 17343 bound_to 10162
  157.7499  131.0113  150.3341 LP  0  0  0  0  0  0  0  0  0  0  0  0  # atno 17370 bound_to 10713
  156.3737  130.3868  149.7156 LP  0  0  0  0  0  0  0  0  0  0  0  0  # atno 17371 bound_to 10713
  141.2149  133.7573  156.9596 LP  0  0  0  0  0  0  0  0  0  0  0  0  # atno 17394 bound_to 11000
  140.1213  134.9415  157.2207 LP  0  0  0  0  0  0  0  0  0  0  0  0  # atno 17395 bound_to 11000

$$$$
