#       Name:                AV-unprocessed.smi:1599
#       Creating user name   scv26
#       Creation time:       Fri Mar 27 07:06:53 2020


#       File generated by GOLD software.
#

@<TRIPOS>MOLECULE
AV-unprocessed.smi:1599
    46    47     1
SMALL
NO_CHARGES


@<TRIPOS>ATOM
      1 ****        -2.8146  -1.7188   0.7561 C.3            1 S1                 0.0000
      2 ****        -2.2148  -1.0544  -0.4953 C.3            1 S1                 0.0000
      3 ****        -0.7570  -1.0625  -0.4034 N.am           1 S1                 0.0000
      4 ****        -0.0132  -0.1229   0.1976 C.2            1 S1                 0.0000
      5 ****        -0.4868   0.8592   0.7695 O.2            1 S1                 0.0000
      6 ****         1.2975  -0.3968   0.0924 N.am           1 S1                 0.0000
      7 ****         2.3790   0.3724   0.5913 C.2            1 S1                 0.0000
      8 ****         3.7491   0.0310   0.4499 C.2            1 S1                 0.0000
      9 ****         4.5303   0.9395   1.0143 N.2            1 S1                 0.0000
     10 ****         3.6811   1.8672   1.5233 N.pl3          1 S1                 0.0000
     11 ****         4.2139   3.0256   2.2228 C.3            1 S1                 0.0000
     12 ****         4.1552   2.8823   3.7493 C.2            1 S1                 0.0000
     13 ****         4.4860   3.9638   4.4593 N.am           1 S1                 0.0000
     14 ****         3.8229   1.8271   4.2878 O.2            1 S1                 0.0000
     15 ****         2.3582   1.5517   1.2807 C.2            1 S1                 0.0000
     16 ****        -2.6414  -1.7623  -1.7952 C.3            1 S1                 0.0000
     17 ****        -4.1440  -1.7301  -2.0804 C.3            1 S1                 0.0000
     18 ****        -4.2282  -1.8458  -3.5951 C.3            1 S1                 0.0000
     19 ****        -2.7992  -1.5733  -4.0719 C.3            1 S1                 0.0000
     20 ****        -2.1148  -1.0863  -2.9271 O.3            1 S1                 0.0000
     21 ****        -3.9040  -1.6896   0.7374 H              1 S1                 0.0000
     22 ****        -2.4944  -1.2094   1.6656 H              1 S1                 0.0000
     23 ****        -2.5106  -2.7630   0.8355 H              1 S1                 0.0000
     24 ****        -2.5640  -0.0213  -0.5419 H              1 S1                 0.0000
     25 ****        -0.2805  -1.8317  -0.8509 H              1 S1                 0.0000
     26 ****         1.5481  -1.2410  -0.4011 H              1 S1                 0.0000
     27 ****         4.1941  -0.8259  -0.0339 H              1 S1                 0.0000
     28 ****         5.2471   3.1906   1.9133 H              1 S1                 0.0000
     29 ****         3.6427   3.9031   1.9171 H              1 S1                 0.0000
     30 ****         4.4652   3.9321   5.4682 H              1 S1                 0.0000
     31 ****         4.7551   4.8123   3.9825 H              1 S1                 0.0000
     32 ****         1.5487   2.1828   1.6160 H              1 S1                 0.0000
     33 ****        -2.2842  -2.7942  -1.8042 H              1 S1                 0.0000
     34 ****        -4.6864  -2.5238  -1.5660 H              1 S1                 0.0000
     35 ****        -4.5680  -0.7757  -1.7656 H              1 S1                 0.0000
     36 ****        -4.5544  -2.8391  -3.9053 H              1 S1                 0.0000
     37 ****        -4.9329  -1.1188  -4.0001 H              1 S1                 0.0000
     38 ****        -2.3240  -2.4960  -4.4079 H              1 S1                 0.0000
     39 ****        -2.7599  -0.8529  -4.8891 H              1 S1                 0.0000
     40 ****        -1.4778   0.9886   0.8030 LP             1 S1                 0.0000
     41 ****         0.1196   1.5275   1.2004 LP             1 S1                 0.0000
     42 ****         5.5295   0.9413   1.0562 LP             1 S1                 0.0000
     43 ****         3.5822   1.0342   3.7280 LP             1 S1                 0.0000
     44 ****         3.7935   1.7624   5.2852 LP             1 S1                 0.0000
     45 ****        -1.1356  -1.2714  -3.0103 LP             1 S1                 0.0000
     46 ****        -2.2611  -0.1014  -2.8352 LP             1 S1                 0.0000
@<TRIPOS>BOND
    1    1    2 1     
    2    1   21 1     
    3    1   22 1     
    4    1   23 1     
    5    2    3 1     
    6    2   16 1     
    7    2   24 1     
    8    3    4 am    
    9    3   25 1     
   10    4    5 2     
   11    4    6 am    
   12    6    7 1     
   13    6   26 1     
   14    7   15 2     
   15    7    8 1     
   16    8    9 2     
   17    8   27 1     
   18    9   10 1     
   19   10   11 1     
   20   10   15 1     
   21   11   12 1     
   22   11   28 1     
   23   11   29 1     
   24   12   13 am    
   25   12   14 2     
   26   13   30 1     
   27   13   31 1     
   28   15   32 1     
   29   16   20 1     
   30   16   17 1     
   31   16   33 1     
   32   17   18 1     
   33   17   34 1     
   34   17   35 1     
   35   18   19 1     
   36   18   36 1     
   37   18   37 1     
   38   19   20 1     
   39   19   38 1     
   40   19   39 1     
   41    5   40 1     
   42    5   41 1     
   43    9   42 1     
   44   14   43 1     
   45   14   44 1     
   46   20   45 1     
   47   20   46 1     
@<TRIPOS>SUBSTRUCTURE
      1 S1             1
@<TRIPOS>SET
LONE_PAIRS      STATIC     ATOMS    <user>   **** ""
7 40 41 42 43 44 45 46
DONOR_HYDROGENS      STATIC     ATOMS    <user>   **** ""
4 25 26 30 31
ATOM$BLUE        STATIC     ATOMS    COLORGROUP SYSTEM
7 40 41 42 43 44 45 46
ATOM$RED        STATIC     ATOMS    COLORGROUP SYSTEM
4 25 26 30 31
