#       Name:                AV-unprocessed.smi:3164
#       Creating user name   scv26
#       Creation time:       Fri Mar 27 17:51:01 2020


#       File generated by GOLD software.
#

@<TRIPOS>MOLECULE
AV-unprocessed.smi:3164
    43    44     1
SMALL
NO_CHARGES


@<TRIPOS>ATOM
      1 ****        -3.0758   3.9071   1.3844 C.3            1 S1                 0.0000
      2 ****        -3.4044   3.0324   0.2349 N.4            1 S1                 1.0000
      3 ****        -2.9965   3.5914  -1.0757 C.3            1 S1                 0.0000
      4 ****        -1.4900   3.3938  -1.3248 C.3            1 S1                 0.0000
      5 ****        -1.1632   2.0143  -1.2042 O.3            1 S1                 0.0000
      6 ****        -1.4215   1.5039   0.1002 C.3            1 S1                 0.0000
      7 ****        -0.9605   0.0388   0.1389 C.3            1 S1                 0.0000
      8 ****         0.5080  -0.0695   0.0206 N.4            1 S1                 1.0000
      9 ****         1.0129  -1.4548   0.0822 C.3            1 S1                 0.0000
     10 ****         2.5414  -1.4934  -0.0511 C.3            1 S1                 0.0000
     11 ****         3.0864  -2.9064   0.0306 C.ar           1 S1                 0.0000
     12 ****         3.4531  -3.6087  -1.1373 C.ar           1 S1                 0.0000
     13 ****         3.9457  -4.9214  -1.0028 C.ar           1 S1                 0.0000
     14 ****         4.0504  -5.4775   0.2867 C.ar           1 S1                 0.0000
     15 ****         3.6568  -4.6936   1.3894 C.ar           1 S1                 0.0000
     16 ****         3.1825  -3.4343   1.2714 N.ar           1 S1                 0.0000
     17 ****        -2.9336   1.6346   0.3912 C.3            1 S1                 0.0000
     18 ****        -2.0004   4.0363   1.5054 H              1 S1                 0.0000
     19 ****        -3.4733   3.4880   2.3092 H              1 S1                 0.0000
     20 ****        -3.5219   4.8935   1.2531 H              1 S1                 0.0000
     21 ****        -3.5599   3.0788  -1.8566 H              1 S1                 0.0000
     22 ****        -3.2670   4.6460  -1.1418 H              1 S1                 0.0000
     23 ****        -1.2315   3.7290  -2.3293 H              1 S1                 0.0000
     24 ****        -0.8903   3.9861  -0.6322 H              1 S1                 0.0000
     25 ****        -0.8509   2.0725   0.8366 H              1 S1                 0.0000
     26 ****        -1.2655  -0.4169   1.0820 H              1 S1                 0.0000
     27 ****        -1.4371  -0.5298  -0.6610 H              1 S1                 0.0000
     28 ****         0.7909   0.3359  -0.8608 H              1 S1                 0.0000
     29 ****         0.7088  -1.9035   1.0291 H              1 S1                 0.0000
     30 ****         0.5550  -2.0417  -0.7154 H              1 S1                 0.0000
     31 ****         2.8461  -1.0451  -0.9978 H              1 S1                 0.0000
     32 ****         3.0019  -0.8932   0.7353 H              1 S1                 0.0000
     33 ****         3.3607  -3.1567  -2.1139 H              1 S1                 0.0000
     34 ****         4.2378  -5.4913  -1.8725 H              1 S1                 0.0000
     35 ****         4.4240  -6.4809   0.4277 H              1 S1                 0.0000
     36 ****         3.7239  -5.0886   2.3923 H              1 S1                 0.0000
     37 ****        -3.1714   1.2686   1.3909 H              1 S1                 0.0000
     38 ****        -3.4933   1.0099  -0.3067 H              1 S1                 0.0000
     39 ****         0.9340   0.4570   0.7703 H              1 S1                 0.0000
     40 ****        -4.4140   2.9906   0.2207 H              1 S1                 0.0000
     41 ****        -0.1913   1.8960  -1.4080 LP             1 S1                 0.0000
     42 ****        -1.7076   1.4969  -1.8645 LP             1 S1                 0.0000
     43 ****         2.9105  -2.9086   2.0774 LP             1 S1                 0.0000
@<TRIPOS>BOND
    1    1    2 1     
    2    1   18 1     
    3    1   19 1     
    4    1   20 1     
    5    2   17 1     
    6    2    3 1     
    7    2   40 1     
    8    3    4 1     
    9    3   21 1     
   10    3   22 1     
   11    4    5 1     
   12    4   23 1     
   13    4   24 1     
   14    5    6 1     
   15    6    7 1     
   16    6   17 1     
   17    6   25 1     
   18    7    8 1     
   19    7   26 1     
   20    7   27 1     
   21    8    9 1     
   22    8   28 1     
   23    8   39 1     
   24    9   10 1     
   25    9   29 1     
   26    9   30 1     
   27   10   11 1     
   28   10   31 1     
   29   10   32 1     
   30   11   16 ar    
   31   11   12 ar    
   32   12   13 ar    
   33   12   33 1     
   34   13   14 ar    
   35   13   34 1     
   36   14   15 ar    
   37   14   35 1     
   38   15   16 ar    
   39   15   36 1     
   40   17   37 1     
   41   17   38 1     
   42    5   41 1     
   43    5   42 1     
   44   16   43 1     
@<TRIPOS>SUBSTRUCTURE
      1 S1             1
@<TRIPOS>SET
LONE_PAIRS      STATIC     ATOMS    <user>   **** ""
3 41 42 43
DONOR_HYDROGENS      STATIC     ATOMS    <user>   **** ""
3 40 28 39
ATOM$BLUE        STATIC     ATOMS    COLORGROUP SYSTEM
3 41 42 43
ATOM$RED        STATIC     ATOMS    COLORGROUP SYSTEM
3 40 28 39
