#       Name:                AV-unprocessed.smi:3183
#       Creating user name   scv26
#       Creation time:       Fri Mar 27 17:59:22 2020


#       File generated by GOLD software.
#

@<TRIPOS>MOLECULE
AV-unprocessed.smi:3183
    44    45     1
SMALL
NO_CHARGES


@<TRIPOS>ATOM
      1 ****        -3.9356   3.6842   0.2058 C.3            1 S1                 0.0000
      2 ****        -3.1703   2.3518   0.1502 C.3            1 S1                 0.0000
      3 ****        -2.8332   1.9454  -1.2976 C.3            1 S1                 0.0000
      4 ****        -2.1465   0.5718  -1.3486 C.3            1 S1                 0.0000
      5 ****        -0.8837   0.5303  -0.4696 C.3            1 S1                 0.0000
      6 ****        -0.2843  -0.8217  -0.5249 N.4            1 S1                 1.0000
      7 ****         1.1084  -0.9174  -0.0390 C.3            1 S1                 0.0000
      8 ****         1.6736  -2.3272  -0.2660 C.3            1 S1                 0.0000
      9 ****         3.0867  -2.5059   0.1999 C.2            1 S1                 0.0000
     10 ****         3.9442  -1.6463   0.8313 C.2            1 S1                 0.0000
     11 ****         5.1343  -2.4053   1.0041 C.2            1 S1                 0.0000
     12 ****         5.0277  -3.6309   0.5224 N.2            1 S1                 0.0000
     13 ****         3.7725  -3.6953   0.0303 N.pl3          1 S1                 0.0000
     14 ****         3.3164  -4.9257  -0.5873 C.3            1 S1                 0.0000
     15 ****        -1.2274   0.9444   0.9794 C.3            1 S1                 0.0000
     16 ****        -1.9126   2.3257   1.0561 C.3            1 S1                 0.0000
     17 ****        -0.9151   3.4708   0.7865 C.3            1 S1                 0.0000
     18 ****        -3.3680   4.4971  -0.2477 H              1 S1                 0.0000
     19 ****        -4.1630   3.9656   1.2345 H              1 S1                 0.0000
     20 ****        -4.8820   3.6107  -0.3306 H              1 S1                 0.0000
     21 ****        -3.8527   1.5946   0.5404 H              1 S1                 0.0000
     22 ****        -3.7450   1.9145  -1.8952 H              1 S1                 0.0000
     23 ****        -2.1925   2.6961  -1.7613 H              1 S1                 0.0000
     24 ****        -2.8509  -0.1938  -1.0196 H              1 S1                 0.0000
     25 ****        -1.8916   0.3315  -2.3816 H              1 S1                 0.0000
     26 ****        -0.1604   1.2323  -0.8868 H              1 S1                 0.0000
     27 ****        -0.8655  -1.4594   0.0003 H              1 S1                 0.0000
     28 ****         1.7233  -0.1842  -0.5628 H              1 S1                 0.0000
     29 ****         1.1437  -0.6744   1.0229 H              1 S1                 0.0000
     30 ****         1.0391  -3.0533   0.2438 H              1 S1                 0.0000
     31 ****         1.6183  -2.5683  -1.3283 H              1 S1                 0.0000
     32 ****         3.7545  -0.6252   1.1274 H              1 S1                 0.0000
     33 ****         6.0653  -2.1040   1.4611 H              1 S1                 0.0000
     34 ****         2.3550  -5.2176  -0.1641 H              1 S1                 0.0000
     35 ****         4.0324  -5.7311  -0.4165 H              1 S1                 0.0000
     36 ****         3.2034  -4.7754  -1.6612 H              1 S1                 0.0000
     37 ****        -1.8889   0.1960   1.4183 H              1 S1                 0.0000
     38 ****        -0.3330   0.9545   1.6022 H              1 S1                 0.0000
     39 ****        -2.2510   2.4534   2.0853 H              1 S1                 0.0000
     40 ****        -0.5598   3.4759  -0.2433 H              1 S1                 0.0000
     41 ****        -0.0419   3.3859   1.4337 H              1 S1                 0.0000
     42 ****        -1.3616   4.4447   0.9861 H              1 S1                 0.0000
     43 ****        -0.2841  -1.1128  -1.4921 H              1 S1                 0.0000
     44 ****         5.7222  -4.3505   0.5224 LP             1 S1                 0.0000
@<TRIPOS>BOND
    1    1    2 1     
    2    1   18 1     
    3    1   19 1     
    4    1   20 1     
    5    2   16 1     
    6    2    3 1     
    7    2   21 1     
    8    3    4 1     
    9    3   22 1     
   10    3   23 1     
   11    4    5 1     
   12    4   24 1     
   13    4   25 1     
   14    5    6 1     
   15    5   15 1     
   16    5   26 1     
   17    6    7 1     
   18    6   27 1     
   19    6   43 1     
   20    7    8 1     
   21    7   28 1     
   22    7   29 1     
   23    8    9 1     
   24    8   30 1     
   25    8   31 1     
   26    9   13 1     
   27    9   10 2     
   28   10   11 1     
   29   10   32 1     
   30   11   12 2     
   31   11   33 1     
   32   12   13 1     
   33   13   14 1     
   34   14   34 1     
   35   14   35 1     
   36   14   36 1     
   37   15   16 1     
   38   15   37 1     
   39   15   38 1     
   40   16   17 1     
   41   16   39 1     
   42   17   40 1     
   43   17   41 1     
   44   17   42 1     
   45   12   44 1     
@<TRIPOS>SUBSTRUCTURE
      1 S1             1
@<TRIPOS>SET
LONE_PAIRS      STATIC     ATOMS    <user>   **** ""
1 44
DONOR_HYDROGENS      STATIC     ATOMS    <user>   **** ""
2 27 43
ATOM$BLUE        STATIC     ATOMS    COLORGROUP SYSTEM
1 44
ATOM$RED        STATIC     ATOMS    COLORGROUP SYSTEM
2 27 43
