AV-unprocessed.smi:79|AV-procd|sdf|781|dock4
  -GOLD-   2262017143D 1   1.00000     0.00000
 Structure written by MMmdl.
 56 59  0  0  0  0  0  0  0  0  2 V2000
  148.4414  126.7865  151.7801 C   0  0  0  0  0  0  0  0  0  0  0  0
  148.0536  128.2059  152.2149 C   0  0  2  0  0  0  0  0  0  0  0  0
  148.0047  128.2278  153.6275 O   0  0  0  0  0  0  0  0  0  0  0  0
  146.6810  128.6209  151.6464 C   0  0  0  0  0  0  0  0  0  0  0  0
  146.4865  130.0936  151.6091 N   0  3  2  0  0  0  0  0  0  0  0  0
  146.2712  130.6653  152.9608 C   0  0  0  0  0  0  0  0  0  0  0  0
  146.1715  132.1964  152.8998 C   0  0  0  0  0  0  0  0  0  0  0  0
  145.1510  132.6206  151.9457 N   0  0  0  0  0  0  0  0  0  0  0  0
  144.9479  133.9564  151.9977 C   0  0  0  0  0  0  0  0  0  0  0  0
  145.9694  134.8106  151.7256 N   0  0  0  0  0  0  0  0  0  0  0  0
  145.7594  136.1303  151.7611 C   0  0  0  0  0  0  0  0  0  0  0  0
  144.6313  136.7892  152.0368 N   0  0  0  0  0  0  0  0  0  0  0  0
  143.6075  135.9301  152.3109 C   0  0  0  0  0  0  0  0  0  0  0  0
  143.6810  134.5101  152.3156 C   0  0  0  0  0  0  0  0  0  0  0  0
  142.4439  133.9668  152.6347 N   0  0  0  0  0  0  0  0  0  0  0  0
  141.6780  135.0101  152.8085 C   0  0  0  0  0  0  0  0  0  0  0  0
  142.2967  136.2295  152.6399 N   0  0  0  0  0  0  0  0  0  0  0  0
  141.6852  137.5441  152.7633 C   0  0  0  0  0  0  0  0  0  0  0  0
  140.7469  137.6849  153.9760 C   0  0  0  0  0  0  0  0  0  0  0  0
  139.4751  136.8529  153.7141 C   0  0  0  0  0  0  0  0  0  0  0  0
  138.6831  136.6947  154.8746 O   0  0  0  0  0  0  0  0  0  0  0  0
  141.4222  137.4850  155.3404 C   0  0  0  0  0  0  0  0  0  0  0  0
  140.9288  138.7492  155.8361 O   0  0  0  0  0  0  0  0  0  0  0  0
  140.5217  139.1113  154.4980 C   0  0  0  0  0  0  0  0  0  0  0  0
  145.3083  132.0639  150.5968 C   0  0  2  0  0  0  0  0  0  0  0  0
  144.1600  132.4624  149.6472 C   0  0  0  0  0  0  0  0  0  0  0  0
  145.4221  130.5262  150.6663 C   0  0  0  0  0  0  0  0  0  0  0  0
  148.5158  126.7173  150.6944 H   0  0  0  0  0  0  0  0  0  0  0  0
  147.7052  126.0525  152.1100 H   0  0  0  0  0  0  0  0  0  0  0  0
  149.4084  126.4977  152.1938 H   0  0  0  0  0  0  0  0  0  0  0  0
  148.8376  128.8872  151.8868 H   0  0  0  0  0  0  0  0  0  0  0  0
  147.9285  129.1229  153.9202 H   0  0  0  0  0  0  0  0  0  0  0  0
  146.5485  128.2200  150.6402 H   0  0  0  0  0  0  0  0  0  0  0  0
  145.9025  128.1618  152.2584 H   0  0  0  0  0  0  0  0  0  0  0  0
  145.3595  130.2475  153.3912 H   0  0  0  0  0  0  0  0  0  0  0  0
  147.0936  130.3843  153.6198 H   0  0  0  0  0  0  0  0  0  0  0  0
  145.9381  132.5893  153.8905 H   0  0  0  0  0  0  0  0  0  0  0  0
  147.1374  132.6136  152.6108 H   0  0  0  0  0  0  0  0  0  0  0  0
  146.6166  136.7469  151.5334 H   0  0  0  0  0  0  0  0  0  0  0  0
  140.6325  134.9158  153.0633 H   0  0  0  0  0  0  0  0  0  0  0  0
  142.4781  138.2919  152.8049 H   0  0  0  0  0  0  0  0  0  0  0  0
  141.1441  137.7425  151.8372 H   0  0  0  0  0  0  0  0  0  0  0  0
  138.8456  137.3235  152.9589 H   0  0  0  0  0  0  0  0  0  0  0  0
  139.7301  135.8605  153.3411 H   0  0  0  0  0  0  0  0  0  0  0  0
  138.9079  135.8726  155.2827 H   0  0  0  0  0  0  0  0  0  0  0  0
  141.0475  136.6337  155.9097 H   0  0  0  0  0  0  0  0  0  0  0  0
  142.5122  137.4680  155.2976 H   0  0  0  0  0  0  0  0  0  0  0  0
  141.1904  139.8563  154.0659 H   0  0  0  0  0  0  0  0  0  0  0  0
  139.4851  139.4468  154.4501 H   0  0  0  0  0  0  0  0  0  0  0  0
  146.2408  132.4514  150.1829 H   0  0  0  0  0  0  0  0  0  0  0  0
  144.2823  131.9943  148.6700 H   0  0  0  0  0  0  0  0  0  0  0  0
  144.1228  133.5390  149.4796 H   0  0  0  0  0  0  0  0  0  0  0  0
  143.1925  132.1526  150.0438 H   0  0  0  0  0  0  0  0  0  0  0  0
  145.6215  130.1393  149.6680 H   0  0  0  0  0  0  0  0  0  0  0  0
  144.4698  130.0985  150.9849 H   0  0  0  0  0  0  0  0  0  0  0  0
  147.3542  130.4888  151.2764 H   0  0  0  0  0  0  0  0  0  0  0  0
  1  2  1  0  0  0  0
  1 28  1  0  0  0  0
  1 29  1  0  0  0  0
  1 30  1  0  0  0  0
  2  3  1  0  0  0  0
  2  4  1  0  0  0  0
  2 31  1  0  0  0  0
  3 32  1  0  0  0  0
  4  5  1  0  0  0  0
  4 33  1  0  0  0  0
  4 34  1  0  0  0  0
  5 27  1  0  0  0  0
  5  6  1  0  0  0  0
  5 56  1  0  0  0  0
  6  7  1  0  0  0  0
  6 35  1  0  0  0  0
  6 36  1  0  0  0  0
  7  8  1  0  0  0  0
  7 37  1  0  0  0  0
  7 38  1  0  0  0  0
  8  9  1  0  0  0  0
  8 25  1  0  0  0  0
  9 14  1  0  0  0  0
  9 10  2  0  0  0  0
 10 11  1  0  0  0  0
 11 12  2  0  0  0  0
 11 39  1  0  0  0  0
 12 13  1  0  0  0  0
 13 17  1  0  0  0  0
 13 14  2  0  0  0  0
 14 15  1  0  0  0  0
 15 16  2  0  0  0  0
 16 17  1  0  0  0  0
 16 40  1  0  0  0  0
 17 18  1  0  0  0  0
 18 19  1  0  0  0  0
 18 41  1  0  0  0  0
 18 42  1  0  0  0  0
 19 24  1  0  0  0  0
 19 20  1  0  0  0  0
 19 22  1  0  0  0  0
 20 21  1  0  0  0  0
 20 43  1  0  0  0  0
 20 44  1  0  0  0  0
 21 45  1  0  0  0  0
 22 23  1  0  0  0  0
 22 46  1  0  0  0  0
 22 47  1  0  0  0  0
 23 24  1  0  0  0  0
 24 48  1  0  0  0  0
 24 49  1  0  0  0  0
 25 26  1  0  0  0  0
 25 27  1  0  0  0  0
 25 50  1  0  0  0  0
 26 51  1  0  0  0  0
 26 52  1  0  0  0  0
 26 53  1  0  0  0  0
 27 54  1  0  0  0  0
 27 55  1  0  0  0  0
M  CHG  1   5   1
M  END
> <s_m_source_file>
AV-unprocessed.smi

> <i_m_source_file_index>
79

> <i_lp_mmshare_version>
43012

> <i_f3d_flags>
0

> <s_epik_input>
W0NIM11bQ0BIXShbT0hdKVtDSDJdTjFbQ0gyXVtDSDJdTihbQ0BASF0oW0NIM10pW0NIMl0xKWMobltjSF1uMiljKGMyMyluW2NIXW4zW0NIMl1DNChbQ0gyXVtPSF0pW0NIMl1PW0NIMl00

> <s_epik_cmdline>
J2VwaWtfcHl0aG9uJywgJy1waCcsICc3LjAnLCAnLXRuJywgJzgnLCAnLW1hJywgJzIwMCcsICctbWV0YWxfYmluZGluZycsICctaW1hZScsICc8aW5maWxlLm1hZT4nLCAnLW9tYWUnLCAnPG91dGZpbGUubWFlPic=

> <r_lp_tautomer_probability>
1

> <r_epik_Ionization_Penalty>
0.00515943

> <r_epik_Ionization_Penalty_Charging>
0.00509693

> <r_epik_Ionization_Penalty_Neutral>
6.25007e-05

> <r_epik_State_Penalty>
-0

> <r_epik_Charging_Adjusted_Penalty>
0.00509693

> <i_epik_Tot_Q>
1

> <i_epik_Tot_abs_Q>
1

> <r_epik_Metal_State_Penalty>
-0

> <b_epik_Metal_Only>
0

> <s_lp_Force_Field>
OPLS_2005

> <r_lp_Energy>
51.6894

> <b_lp_Chiralities_Consistent>
1

> <s_lp_Variant>
AV-unprocessed.smi:79-5

> <Gold.Version>
5.8.1

> <Gold.Id.Protein>
6NUR|6NUR_protein|mol2

> <Gold.PLP.Fitness>
46.9577

> <Gold.PLP.PLP>
-39.6311

> <Gold.PLP.part.hbond>
-2.0000

> <Gold.PLP.part.metal>
0.0000

> <Gold.PLP.part.buried>
-8.9074

> <Gold.PLP.part.nonpolar>
-32.4384

> <Gold.PLP.part.repulsive>
2.9530

> <Gold.PLP.ligand.clash>
0.0000

> <Gold.PLP.ligand.torsion>
1.0411

> <Gold.PLP.Chemscore.Hbond>
2.0000

> <Gold.PLP.Chemscore.CHOScore>
0.8992

> <Gold.PLP.Chemscore.Metal>
0.0000

> <Gold.Chemscore.Hbonds>
donor molecule, donor type, donor heavy atom, donor atom, acceptor molecule, acceptor atom, score
      L1  H     5    56       P1 10747  1.00
      L1  C    11    39       P1  7948  0.97
      L1  C    16    40       P1 10187  0.13

> <Gold.PLP.Chemscore.Internal.Correction>
0.7111

> <Gold.Rescore>
     Score         DG    S(hbond)    S(metal)    S(lipo)     H(rot)  DE(clash)    DE(int)     intcor
      7.55     -13.08       1.87        0.00      92.88       3.72       3.02       2.51       ----

> <Gold.Chemscore.Fitness>
7.5494

> <Gold.Chemscore.DG>
-13.0773

> <Gold.Chemscore.ZeroCoef>
-5.4800

> <Gold.Chemscore.Hbond>
1.8743

> <Gold.Chemscore.Metal>
0.0000

> <Gold.Chemscore.Lipo>
92.8804

> <Gold.Chemscore.Internal_Hbond>
0.0000

> <Gold.Chemscore.DEClash>
3.0150

> <Gold.Chemscore.DEInternal>
2.5128

> <Gold.Chemscore.Rot>
3.7226

> <Gold.Chemscore.Internal.Correction>
   9.000000E+99

> <Gold.Chemscore.Hbonds>
donor molecule, donor type, donor heavy atom, donor atom, acceptor molecule, acceptor atom, score
      L1  H     5    56       P1 10747  0.99

> <Gold.Chemscore.Hbond.Weighted>
-6.2600

> <Gold.Chemscore.Metal.Weighted>
-0.0000

> <Gold.Chemscore.Lipo.Weighted>
-10.8670

> <Gold.Chemscore.Internal_Hbond.Weighted>
0.0000

> <Gold.Chemscore.DEClash.Weighted>
3.0150

> <Gold.Chemscore.DEInternal.Weighted>
2.5128

> <Gold.Chemscore.Rot.Weighted>
9.5298

> <Gold.Chemscore.Internal.Correction.Weighted>
   9.000000E+99

> <Gold.Protein.RotatedTorsions>
[ 6907 6896 6895 6894 ] final   87.28 input  -60.11 | X-H torsion
[ 7974 7965 7964 7962 ] final  -55.35 input  175.53 | X-H torsion
[ 8008 7997 7996 7995 ] final   38.33 input   59.86 | X-H torsion
[ 10167 10162 10161 10158 ] final   36.00 input  -65.29 | X-H torsion
[ 10718 10713 10712 10709 ] final -176.40 input   66.30 | X-H torsion
[ 10763 10752 10751 10750 ] final   85.85 input  -60.55 | X-H torsion
[ 11005 11000 10999 10996 ] final  -14.56 input  -57.11 | X-H torsion

> <Gold.Protein.ActiveResidues>
 VAL166  LYS551  ARG553  GLY616  TRP617  ASP618  TYR619  PRO620  LYS621  CYS622 
 ASP623  PHE694  ASN695  SER759  ASP760  ASP761  ALA762  ILE779  LEU786  VAL792 
 PHE793  MET794  SER795  GLU796  ALA797  LYS798  CYS799  TRP800  GLU811  SER814 

> <Gold.Protein.RotatedAtoms>
  152.5408  134.2300  159.8820 H   0  0  0  0  0  0  0  0  0  0  0  0  # atno 6907 bound_to 6896
  151.2273  133.4463  159.2610 H   0  0  0  0  0  0  0  0  0  0  0  0  # atno 6908 bound_to 6896
  151.0749  134.9835  159.8383 H   0  0  0  0  0  0  0  0  0  0  0  0  # atno 6909 bound_to 6896
  145.8751  140.8187  142.9868 H   0  0  0  0  0  0  0  0  0  0  0  0  # atno 7974 bound_to 7965
  155.2184  140.3329  155.4319 H   0  0  0  0  0  0  0  0  0  0  0  0  # atno 8008 bound_to 7997
  156.2343  140.1865  156.7208 H   0  0  0  0  0  0  0  0  0  0  0  0  # atno 8009 bound_to 7997
  154.6032  140.0620  156.9381 H   0  0  0  0  0  0  0  0  0  0  0  0  # atno 8010 bound_to 7997
  140.4169  144.1515  150.6144 H   0  0  0  0  0  0  0  0  0  0  0  0  # atno 10167 bound_to 10162
  156.8142  130.9597  151.3114 H   0  0  0  0  0  0  0  0  0  0  0  0  # atno 10718 bound_to 10713
  153.1514  135.4602  154.9641 H   0  0  0  0  0  0  0  0  0  0  0  0  # atno 10763 bound_to 10752
  154.7827  135.3194  154.7956 H   0  0  0  0  0  0  0  0  0  0  0  0  # atno 10764 bound_to 10752
  153.8461  135.6926  153.4852 H   0  0  0  0  0  0  0  0  0  0  0  0  # atno 10765 bound_to 10752
  140.7877  133.8312  155.9350 H   0  0  0  0  0  0  0  0  0  0  0  0  # atno 11005 bound_to 11000
  144.6726  140.1299  143.7444 LP  0  0  0  0  0  0  0  0  0  0  0  0  # atno 17320 bound_to 7965
  145.9090  139.2475  143.1449 LP  0  0  0  0  0  0  0  0  0  0  0  0  # atno 17321 bound_to 7965
  140.4577  143.2461  151.9263 LP  0  0  0  0  0  0  0  0  0  0  0  0  # atno 17342 bound_to 10162
  139.4782  144.5499  151.8401 LP  0  0  0  0  0  0  0  0  0  0  0  0  # atno 17343 bound_to 10162
  157.6490  130.8869  149.9596 LP  0  0  0  0  0  0  0  0  0  0  0  0  # atno 17370 bound_to 10713
  156.1027  130.3654  150.0189 LP  0  0  0  0  0  0  0  0  0  0  0  0  # atno 17371 bound_to 10713
  140.9420  134.1888  157.4790 LP  0  0  0  0  0  0  0  0  0  0  0  0  # atno 17394 bound_to 11000
  139.8735  134.9875  156.5373 LP  0  0  0  0  0  0  0  0  0  0  0  0  # atno 17395 bound_to 11000

$$$$
