AV-unprocessed.smi:2069|AV-procd|sdf|8437|dock8
  -GOLD-   2272011133D 1   1.00000     0.00000
 Structure written by MMmdl.
 38 39  0  0  0  0  0  0  0  0  3 V2000
  146.8708  133.9500  162.4977 C   0  0  0  0  0  0  0  0  0  0  0  0
  147.2967  135.0275  161.5605 C   0  0  0  0  0  0  0  0  0  0  0  0
  147.1939  136.3252  161.8575 N   0  0  0  0  0  0  0  0  0  0  0  0
  147.6516  137.1348  160.8278 N   0  0  0  0  0  0  0  0  0  0  0  0
  148.0808  136.4409  159.7643 C   0  0  0  0  0  0  0  0  0  0  0  0
  148.5630  137.0381  158.6618 N   0  5  0  0  0  0  0  0  0  0  0  0
  149.3239  136.3362  157.7922 C   0  0  0  0  0  0  0  0  0  0  0  0
  150.2395  135.5614  158.0784 O   0  0  0  0  0  0  0  0  0  0  0  0
  149.0064  136.5461  156.5084 N   0  0  0  0  0  0  0  0  0  0  0  0
  149.6645  135.9189  155.3681 C   0  0  0  0  0  0  0  0  0  0  0  0
  149.0103  134.5664  154.9812 C   0  0  2  0  0  0  0  0  0  0  0  0
  150.1018  133.5218  154.6452 C   0  0  0  0  0  0  0  0  0  0  0  0
  148.0284  134.6887  153.8520 N   0  3  0  0  0  0  0  0  0  0  0  0
  147.6145  133.3692  153.2986 C   0  0  0  0  0  0  0  0  0  0  0  0
  146.6523  133.5351  152.1111 C   0  0  0  0  0  0  0  0  0  0  0  0
  145.5146  134.2777  152.5203 O   0  0  0  0  0  0  0  0  0  0  0  0
  145.8765  135.5835  152.9411 C   0  0  0  0  0  0  0  0  0  0  0  0
  146.8172  135.5018  154.1552 C   0  0  0  0  0  0  0  0  0  0  0  0
  147.9703  134.6933  159.9742 S   0  0  0  0  0  0  0  0  0  0  0  0
  145.7867  133.8403  162.4699 H   0  0  0  0  0  0  0  0  0  0  0  0
  147.1744  134.1930  163.5162 H   0  0  0  0  0  0  0  0  0  0  0  0
  147.3266  133.0008  162.2156 H   0  0  0  0  0  0  0  0  0  0  0  0
  148.2506  137.1865  156.3133 H   0  0  0  0  0  0  0  0  0  0  0  0
  149.5962  136.6360  154.5498 H   0  0  0  0  0  0  0  0  0  0  0  0
  150.7224  135.7744  155.5939 H   0  0  0  0  0  0  0  0  0  0  0  0
  148.4614  134.2157  155.8570 H   0  0  0  0  0  0  0  0  0  0  0  0
  150.8391  133.4293  155.4423 H   0  0  0  0  0  0  0  0  0  0  0  0
  150.6386  133.7925  153.7356 H   0  0  0  0  0  0  0  0  0  0  0  0
  149.6985  132.5201  154.5099 H   0  0  0  0  0  0  0  0  0  0  0  0
  148.4733  132.7988  152.9517 H   0  0  0  0  0  0  0  0  0  0  0  0
  147.1350  132.7797  154.0816 H   0  0  0  0  0  0  0  0  0  0  0  0
  147.1467  134.0281  151.2724 H   0  0  0  0  0  0  0  0  0  0  0  0
  146.3242  132.5578  151.7567 H   0  0  0  0  0  0  0  0  0  0  0  0
  146.3467  136.1273  152.1199 H   0  0  0  0  0  0  0  0  0  0  0  0
  144.9716  136.1306  153.2057 H   0  0  0  0  0  0  0  0  0  0  0  0
  146.2920  135.0721  155.0097 H   0  0  0  0  0  0  0  0  0  0  0  0
  147.0884  136.5240  154.4153 H   0  0  0  0  0  0  0  0  0  0  0  0
  148.5106  135.1786  153.1120 H   0  0  0  0  0  0  0  0  0  0  0  0
  1  2  1  0  0  0  0
  1 20  1  0  0  0  0
  1 21  1  0  0  0  0
  1 22  1  0  0  0  0
  2 19  1  0  0  0  0
  2  3  2  0  0  0  0
  3  4  1  0  0  0  0
  4  5  2  0  0  0  0
  5  6  1  0  0  0  0
  5 19  1  0  0  0  0
  6  7  1  0  0  0  0
  7  8  2  0  0  0  0
  7  9  1  0  0  0  0
  9 10  1  0  0  0  0
  9 23  1  0  0  0  0
 10 11  1  0  0  0  0
 10 24  1  0  0  0  0
 10 25  1  0  0  0  0
 11 12  1  0  0  0  0
 11 13  1  0  0  0  0
 11 26  1  0  0  0  0
 12 27  1  0  0  0  0
 12 28  1  0  0  0  0
 12 29  1  0  0  0  0
 13 18  1  0  0  0  0
 13 14  1  0  0  0  0
 13 38  1  0  0  0  0
 14 15  1  0  0  0  0
 14 30  1  0  0  0  0
 14 31  1  0  0  0  0
 15 16  1  0  0  0  0
 15 32  1  0  0  0  0
 15 33  1  0  0  0  0
 16 17  1  0  0  0  0
 17 18  1  0  0  0  0
 17 34  1  0  0  0  0
 17 35  1  0  0  0  0
 18 36  1  0  0  0  0
 18 37  1  0  0  0  0
M  CHG  1   6  -1
M  CHG  1  13   1
M  END
> <s_m_source_file>
AV-unprocessed.smi

> <i_m_source_file_index>
2069

> <i_lp_mmshare_version>
43012

> <i_f3d_flags>
0

> <s_epik_input>
W0NIM11jMW5uYyhzMSlbTkhdQyg9TylbTkhdW0NIMl1bQ0BIXShbQ0gzXSlOMltDSDJdW0NIMl1PW0NIMl1bQ0gyXTI=

> <s_epik_cmdline>
J2VwaWtfcHl0aG9uJywgJy1waCcsICc3LjAnLCAnLXRuJywgJzgnLCAnLW1hJywgJzIwMCcsICctbWV0YWxfYmluZGluZycsICctaW1hZScsICc8aW5maWxlLm1hZT4nLCAnLW9tYWUnLCAnPG91dGZpbGUubWFlPic=

> <r_lp_tautomer_probability>
1

> <r_epik_Ionization_Penalty>
3.53072

> <r_epik_Ionization_Penalty_Charging>
3.4216

> <r_epik_Ionization_Penalty_Neutral>
0.109115

> <r_epik_State_Penalty>
3.61496

> <r_epik_Charging_Adjusted_Penalty>
7.03656

> <i_epik_Tot_Q>
0

> <i_epik_Tot_abs_Q>
2

> <r_epik_Metal_State_Penalty>
1.13918

> <b_epik_Metal_Only>
1

> <s_lp_Force_Field>
OPLS_2005

> <r_lp_Energy>
13.5119

> <b_lp_Chiralities_Consistent>
1

> <s_lp_Variant>
AV-unprocessed.smi:2069-7

> <Gold.Version>
5.8.1

> <Gold.Id.Protein>
6NUR|6NUR_protein|mol2

> <Gold.PLP.Fitness>
37.2895

> <Gold.PLP.PLP>
-26.1276

> <Gold.PLP.part.hbond>
-4.0000

> <Gold.PLP.part.metal>
0.0000

> <Gold.PLP.part.buried>
-3.8634

> <Gold.PLP.part.nonpolar>
-17.9959

> <Gold.PLP.part.repulsive>
0.0884

> <Gold.PLP.ligand.clash>
0.0000

> <Gold.PLP.ligand.torsion>
1.3050

> <Gold.PLP.Chemscore.Hbond>
4.5682

> <Gold.PLP.Chemscore.CHOScore>
0.0000

> <Gold.PLP.Chemscore.Metal>
0.0000

> <Gold.Chemscore.Hbonds>
donor molecule, donor type, donor heavy atom, donor atom, acceptor molecule, acceptor atom, score
      L1  H    13    38       P1  7948  2.00
      P1  H  6896  6907       L1     8  0.78
      P1  H  6931  6943       L1     4  0.73
      P1  H  6934  6947       L1     4  0.94

> <Gold.PLP.Chemscore.Internal.Correction>
0.0674

> <Gold.Rescore>
     Score         DG    S(hbond)    S(metal)    S(lipo)     H(rot)  DE(clash)    DE(int)     intcor
     16.92     -18.26       3.46        0.00      45.80       1.62       0.00       1.34       ----

> <Gold.Chemscore.Fitness>
16.9221

> <Gold.Chemscore.DG>
-18.2630

> <Gold.Chemscore.ZeroCoef>
-5.4800

> <Gold.Chemscore.Hbond>
3.4641

> <Gold.Chemscore.Metal>
0.0000

> <Gold.Chemscore.Lipo>
45.7954

> <Gold.Chemscore.Internal_Hbond>
0.0000

> <Gold.Chemscore.DEClash>
0.0009

> <Gold.Chemscore.DEInternal>
1.3400

> <Gold.Chemscore.Rot>
1.6192

> <Gold.Chemscore.Internal.Correction>
   9.000000E+99

> <Gold.Chemscore.Hbonds>
donor molecule, donor type, donor heavy atom, donor atom, acceptor molecule, acceptor atom, score
      L1  H    13    38       P1  7948  0.85
      P1  H  6896  6907       L1     8  0.78
      P1  H  6931  6943       L1     4  0.15
      P1  H  6934  6947       L1     4  0.85

> <Gold.Chemscore.Hbond.Weighted>
-11.5702

> <Gold.Chemscore.Metal.Weighted>
-0.0000

> <Gold.Chemscore.Lipo.Weighted>
-5.3581

> <Gold.Chemscore.Internal_Hbond.Weighted>
0.0000

> <Gold.Chemscore.DEClash.Weighted>
0.0009

> <Gold.Chemscore.DEInternal.Weighted>
1.3400

> <Gold.Chemscore.Rot.Weighted>
4.1452

> <Gold.Chemscore.Internal.Correction.Weighted>
   9.000000E+99

> <Gold.Protein.RotatedTorsions>
[ 6907 6896 6895 6894 ] final  -70.46 input  -60.11 | X-H torsion
[ 7974 7965 7964 7962 ] final  120.29 input  175.53 | X-H torsion
[ 8008 7997 7996 7995 ] final -129.80 input   59.86 | X-H torsion
[ 10167 10162 10161 10158 ] final  149.90 input  -65.29 | X-H torsion
[ 10718 10713 10712 10709 ] final   47.75 input   66.30 | X-H torsion
[ 10763 10752 10751 10750 ] final   32.06 input  -60.55 | X-H torsion
[ 11005 11000 10999 10996 ] final -170.46 input  -57.11 | X-H torsion

> <Gold.Protein.ActiveResidues>
 VAL166  LYS551  ARG553  GLY616  TRP617  ASP618  TYR619  PRO620  LYS621  CYS622 
 ASP623  PHE694  ASN695  SER759  ASP760  ASP761  ALA762  ILE779  LEU786  VAL792 
 PHE793  MET794  SER795  GLU796  ALA797  LYS798  CYS799  TRP800  GLU811  SER814 

> <Gold.Protein.RotatedAtoms>
  150.7256  134.5449  159.5765 H   0  0  0  0  0  0  0  0  0  0  0  0  # atno 6907 bound_to 6896
  152.2950  134.7674  160.0379 H   0  0  0  0  0  0  0  0  0  0  0  0  # atno 6908 bound_to 6896
  151.8274  133.3368  159.3639 H   0  0  0  0  0  0  0  0  0  0  0  0  # atno 6909 bound_to 6896
  145.1329  139.3316  143.4656 H   0  0  0  0  0  0  0  0  0  0  0  0  # atno 7974 bound_to 7965
  155.2852  140.0446  157.3019 H   0  0  0  0  0  0  0  0  0  0  0  0  # atno 8008 bound_to 7997
  154.5573  140.2335  155.8358 H   0  0  0  0  0  0  0  0  0  0  0  0  # atno 8009 bound_to 7997
  156.2018  140.3023  155.9550 H   0  0  0  0  0  0  0  0  0  0  0  0  # atno 8010 bound_to 7997
  139.4856  144.5565  151.7308 H   0  0  0  0  0  0  0  0  0  0  0  0  # atno 10167 bound_to 10162
  157.4617  130.8200  149.7893 H   0  0  0  0  0  0  0  0  0  0  0  0  # atno 10718 bound_to 10713
  153.0282  135.6423  154.1295 H   0  0  0  0  0  0  0  0  0  0  0  0  # atno 10763 bound_to 10752
  154.1021  135.2859  155.3251 H   0  0  0  0  0  0  0  0  0  0  0  0  # atno 10764 bound_to 10752
  154.6391  135.5466  153.7831 H   0  0  0  0  0  0  0  0  0  0  0  0  # atno 10765 bound_to 10752
  140.5192  134.5725  157.5043 H   0  0  0  0  0  0  0  0  0  0  0  0  # atno 11005 bound_to 11000
  146.3512  140.1335  142.8596 LP  0  0  0  0  0  0  0  0  0  0  0  0  # atno 17320 bound_to 7965
  145.0616  140.9091  143.4935 LP  0  0  0  0  0  0  0  0  0  0  0  0  # atno 17321 bound_to 7965
  140.5127  144.1000  150.6000 LP  0  0  0  0  0  0  0  0  0  0  0  0  # atno 17342 bound_to 10162
  140.3931  143.2742  152.0037 LP  0  0  0  0  0  0  0  0  0  0  0  0  # atno 17343 bound_to 10162
  156.0031  130.3869  150.2529 LP  0  0  0  0  0  0  0  0  0  0  0  0  # atno 17370 bound_to 10713
  157.0707  131.0116  151.3191 LP  0  0  0  0  0  0  0  0  0  0  0  0  # atno 17371 bound_to 10713
  139.9615  134.7445  156.0227 LP  0  0  0  0  0  0  0  0  0  0  0  0  # atno 17394 bound_to 11000
  141.1343  133.6579  156.3550 LP  0  0  0  0  0  0  0  0  0  0  0  0  # atno 17395 bound_to 11000

$$$$
