AV-unprocessed.smi:2700|AV-procd|sdf|10427|dock1
  -GOLD-   2272014463D 1   1.00000     0.00000
 Structure written by MMmdl.
 21 22  0  0  0  0  0  0  0  0  3 V2000
  151.0945  140.4118  155.3092 O   0  0  0  0  0  0  0  0  0  0  0  0
  151.9565  139.9085  156.0621 C   0  0  0  0  0  0  0  0  0  0  0  0
  152.8608  139.1182  155.7139 O   0  5  0  0  0  0  0  0  0  0  0  0
  151.8736  140.2595  157.5486 C   0  0  0  0  0  0  0  0  0  0  0  0
  151.8084  141.7227  157.8644 C   0  0  0  0  0  0  0  0  0  0  0  0
  152.5840  142.2731  158.9092 C   0  0  0  0  0  0  0  0  0  0  0  0
  152.5175  143.6565  159.1745 C   0  0  0  0  0  0  0  0  0  0  0  0
  151.6771  144.4658  158.3839 C   0  0  0  0  0  0  0  0  0  0  0  0
  150.9523  143.9092  157.3893 N   0  3  0  0  0  0  0  0  0  0  0  0
  150.9899  142.5887  157.1068 C   0  0  0  0  0  0  0  0  0  0  0  0
  151.1101  139.2723  158.4121 C   0  0  0  0  0  0  0  0  0  0  0  0
  152.6141  139.3241  158.4867 C   0  0  0  0  0  0  0  0  0  0  0  0
  153.2293  141.6383  159.4992 H   0  0  0  0  0  0  0  0  0  0  0  0
  153.1064  144.0893  159.9698 H   0  0  0  0  0  0  0  0  0  0  0  0
  151.5665  145.5325  158.5130 H   0  0  0  0  0  0  0  0  0  0  0  0
  150.3717  142.2640  156.2825 H   0  0  0  0  0  0  0  0  0  0  0  0
  150.5573  139.6599  159.2654 H   0  0  0  0  0  0  0  0  0  0  0  0
  150.6776  138.3910  157.9414 H   0  0  0  0  0  0  0  0  0  0  0  0
  153.1517  138.4770  158.0640 H   0  0  0  0  0  0  0  0  0  0  0  0
  153.0512  139.7452  159.3900 H   0  0  0  0  0  0  0  0  0  0  0  0
  150.3537  144.5116  156.8240 H   0  0  0  0  0  0  0  0  0  0  0  0
  1  2  2  0  0  0  0
  2  3  1  0  0  0  0
  2  4  1  0  0  0  0
  4 12  1  0  0  0  0
  4  5  1  0  0  0  0
  4 11  1  0  0  0  0
  5 10  1  0  0  0  0
  5  6  2  0  0  0  0
  6  7  1  0  0  0  0
  6 13  1  0  0  0  0
  7  8  2  0  0  0  0
  7 14  1  0  0  0  0
  8  9  1  0  0  0  0
  8 15  1  0  0  0  0
  9 10  2  0  0  0  0
  9 21  1  0  0  0  0
 10 16  1  0  0  0  0
 11 12  1  0  0  0  0
 11 17  1  0  0  0  0
 11 18  1  0  0  0  0
 12 19  1  0  0  0  0
 12 20  1  0  0  0  0
M  CHG  1   3  -1
M  CHG  1   9   1
M  END
> <s_m_source_file>
AV-unprocessed.smi

> <i_m_source_file_index>
2700

> <i_lp_mmshare_version>
43012

> <i_f3d_flags>
0

> <s_epik_input>
Tz1DKFtPSF0pQzEoW0NIMl1bQ0gyXTEpYzJbY0hdW2NIXVtjSF1uW2NIXTI=

> <s_epik_cmdline>
J2VwaWtfcHl0aG9uJywgJy1waCcsICc3LjAnLCAnLXRuJywgJzgnLCAnLW1hJywgJzIwMCcsICctbWV0YWxfYmluZGluZycsICctaW1hZScsICc8aW5maWxlLm1hZT4nLCAnLW9tYWUnLCAnPG91dGZpbGUubWFlPic=

> <r_epik_Ionization_Penalty>
1.51613

> <r_epik_Ionization_Penalty_Charging>
1.51613

> <r_epik_Ionization_Penalty_Neutral>
0

> <r_epik_State_Penalty>
1.60739

> <r_epik_Charging_Adjusted_Penalty>
3.12352

> <i_epik_Tot_Q>
0

> <i_epik_Tot_abs_Q>
2

> <r_epik_Metal_State_Penalty>
5.65951

> <b_epik_Metal_Only>
0

> <s_lp_Force_Field>
OPLS_2005

> <r_lp_Energy>
9.09534

> <b_lp_Chiralities_Consistent>
1

> <s_lp_Variant>
AV-unprocessed.smi:2700-2

> <Gold.Version>
5.8.1

> <Gold.Id.Protein>
6NUR|6NUR_protein|mol2

> <Gold.PLP.Fitness>
42.0874

> <Gold.PLP.PLP>
-27.8777

> <Gold.PLP.part.hbond>
-3.0000

> <Gold.PLP.part.metal>
0.0000

> <Gold.PLP.part.buried>
-4.6947

> <Gold.PLP.part.nonpolar>
-20.7333

> <Gold.PLP.part.repulsive>
0.0459

> <Gold.PLP.ligand.clash>
0.0000

> <Gold.PLP.ligand.torsion>
1.2039

> <Gold.PLP.Chemscore.Hbond>
4.9920

> <Gold.PLP.Chemscore.CHOScore>
0.0000

> <Gold.PLP.Chemscore.Metal>
0.0000

> <Gold.Chemscore.Hbonds>
donor molecule, donor type, donor heavy atom, donor atom, acceptor molecule, acceptor atom, score
      L1  H     9    21       P1  8028  2.00
      P1  H  7989  7998       L1     1  0.99
      P1  H  7997  8009       L1     3  2.00

> <Gold.PLP.Chemscore.Internal.Correction>
1.6416

> <Gold.Rescore>
     Score         DG    S(hbond)    S(metal)    S(lipo)     H(rot)  DE(clash)    DE(int)     intcor
     16.15     -18.67       2.73        0.00      65.28       1.40       0.02       2.50       ----

> <Gold.Chemscore.Fitness>
16.1528

> <Gold.Chemscore.DG>
-18.6706

> <Gold.Chemscore.ZeroCoef>
-5.4800

> <Gold.Chemscore.Hbond>
2.7342

> <Gold.Chemscore.Metal>
0.0000

> <Gold.Chemscore.Lipo>
65.2806

> <Gold.Chemscore.Internal_Hbond>
0.0000

> <Gold.Chemscore.DEClash>
0.0202

> <Gold.Chemscore.DEInternal>
2.4976

> <Gold.Chemscore.Rot>
1.3982

> <Gold.Chemscore.Internal.Correction>
   9.000000E+99

> <Gold.Chemscore.Hbonds>
donor molecule, donor type, donor heavy atom, donor atom, acceptor molecule, acceptor atom, score
      L1  H     9    21       P1  8028  0.85
      P1  H  7989  7998       L1     1  0.88
      P1  H  7997  8009       L1     3  0.34

> <Gold.Chemscore.Hbond.Weighted>
-9.1322

> <Gold.Chemscore.Metal.Weighted>
-0.0000

> <Gold.Chemscore.Lipo.Weighted>
-7.6378

> <Gold.Chemscore.Internal_Hbond.Weighted>
0.0000

> <Gold.Chemscore.DEClash.Weighted>
0.0202

> <Gold.Chemscore.DEInternal.Weighted>
2.4976

> <Gold.Chemscore.Rot.Weighted>
3.5795

> <Gold.Chemscore.Internal.Correction.Weighted>
   9.000000E+99

> <Gold.Protein.RotatedTorsions>
[ 6907 6896 6895 6894 ] final  -51.23 input  -60.11 | X-H torsion
[ 7974 7965 7964 7962 ] final   61.98 input  175.53 | X-H torsion
[ 8008 7997 7996 7995 ] final -141.14 input   59.86 | X-H torsion
[ 10167 10162 10161 10158 ] final    0.55 input  -65.29 | X-H torsion
[ 10718 10713 10712 10709 ] final -169.29 input   66.30 | X-H torsion
[ 10763 10752 10751 10750 ] final  143.99 input  -60.55 | X-H torsion
[ 11005 11000 10999 10996 ] final  -29.55 input  -57.11 | X-H torsion

> <Gold.Protein.ActiveResidues>
 VAL166  LYS551  ARG553  GLY616  TRP617  ASP618  TYR619  PRO620  LYS621  CYS622 
 ASP623  PHE694  ASN695  SER759  ASP760  ASP761  ALA762  ILE779  LEU786  VAL792 
 PHE793  MET794  SER795  GLU796  ALA797  LYS798  CYS799  TRP800  GLU811  SER814 

> <Gold.Protein.RotatedAtoms>
  150.8631  134.7988  159.7097 H   0  0  0  0  0  0  0  0  0  0  0  0  # atno 6907 bound_to 6896
  152.4662  134.5067  159.9751 H   0  0  0  0  0  0  0  0  0  0  0  0  # atno 6908 bound_to 6896
  151.5168  133.3436  159.2930 H   0  0  0  0  0  0  0  0  0  0  0  0  # atno 6909 bound_to 6896
  145.8786  139.3427  143.0719 H   0  0  0  0  0  0  0  0  0  0  0  0  # atno 7974 bound_to 7965
  155.4729  140.0554  157.2977 H   0  0  0  0  0  0  0  0  0  0  0  0  # atno 8008 bound_to 7997
  154.4691  140.2032  155.9995 H   0  0  0  0  0  0  0  0  0  0  0  0  # atno 8009 bound_to 7997
  156.1025  140.3217  155.7966 H   0  0  0  0  0  0  0  0  0  0  0  0  # atno 8010 bound_to 7997
  140.6723  143.7013  150.7949 H   0  0  0  0  0  0  0  0  0  0  0  0  # atno 10167 bound_to 10162
  156.7093  130.9227  151.3087 H   0  0  0  0  0  0  0  0  0  0  0  0  # atno 10718 bound_to 10713
  153.9815  135.2941  155.3420 H   0  0  0  0  0  0  0  0  0  0  0  0  # atno 10763 bound_to 10752
  154.7266  135.5086  153.8899 H   0  0  0  0  0  0  0  0  0  0  0  0  # atno 10764 bound_to 10752
  153.0852  135.6691  154.0078 H   0  0  0  0  0  0  0  0  0  0  0  0  # atno 10765 bound_to 10752
  140.9306  133.7340  156.0931 H   0  0  0  0  0  0  0  0  0  0  0  0  # atno 11005 bound_to 11000
  145.9050  140.9217  143.0483 LP  0  0  0  0  0  0  0  0  0  0  0  0  # atno 17320 bound_to 7965
  144.6727  140.1084  143.7457 LP  0  0  0  0  0  0  0  0  0  0  0  0  # atno 17321 bound_to 7965
  140.0701  143.5070  152.2584 LP  0  0  0  0  0  0  0  0  0  0  0  0  # atno 17342 bound_to 10162
  139.5998  144.7579  151.3199 LP  0  0  0  0  0  0  0  0  0  0  0  0  # atno 17343 bound_to 10162
  157.6942  130.9265  150.0598 LP  0  0  0  0  0  0  0  0  0  0  0  0  # atno 17370 bound_to 10713
  156.1672  130.3645  149.9215 LP  0  0  0  0  0  0  0  0  0  0  0  0  # atno 17371 bound_to 10713
  140.7867  134.3663  157.5474 LP  0  0  0  0  0  0  0  0  0  0  0  0  # atno 17394 bound_to 11000
  139.8795  134.9115  156.3039 LP  0  0  0  0  0  0  0  0  0  0  0  0  # atno 17395 bound_to 11000

$$$$
