#       Name:                AV-unprocessed.smi:1670
#       Creating user name   scv26
#       Creation time:       Fri Mar 27 07:43:06 2020


#       File generated by GOLD software.
#

@<TRIPOS>MOLECULE
AV-unprocessed.smi:1670
    46    47     1
SMALL
NO_CHARGES


@<TRIPOS>ATOM
      1 ****        -3.6333  -2.0639  -1.5708 C.3            1 S1                 0.0000
      2 ****        -3.0298  -1.2483  -0.4193 C.3            1 S1                 0.0000
      3 ****        -3.3951  -1.8559   0.9517 C.3            1 S1                 0.0000
      4 ****        -2.9484  -1.0352   2.0642 N.pl3          1 S1                 0.0000
      5 ****        -3.4873   0.1465   2.5275 C.2            1 S1                 0.0000
      6 ****        -2.7196   0.5584   3.5788 C.2            1 S1                 0.0000
      7 ****        -1.7234  -0.4518   3.6859 C.2            1 S1                 0.0000
      8 ****        -1.8652  -1.4065   2.7810 N.2            1 S1                 0.0000
      9 ****        -1.5786  -1.1842  -0.5896 N.am           1 S1                 0.0000
     10 ****        -0.8201  -0.0926  -0.4109 C.2            1 S1                 0.0000
     11 ****        -1.2628   1.0173  -0.1136 O.2            1 S1                 0.0000
     12 ****         0.4819  -0.3606  -0.5804 N.am           1 S1                 0.0000
     13 ****         1.5658   0.6041  -0.4222 C.3            1 S1                 0.0000
     14 ****         1.7844   1.3937  -1.7281 C.3            1 S1                 0.0000
     15 ****         2.9645   2.3734  -1.6040 C.3            1 S1                 0.0000
     16 ****         4.2601   1.6758  -1.1473 C.3            1 S1                 0.0000
     17 ****         4.7573   0.8496  -2.1816 O.3            1 S1                 0.0000
     18 ****         4.0371   0.8447   0.1305 C.3            1 S1                 0.0000
     19 ****         2.8536  -0.1293  -0.0066 C.3            1 S1                 0.0000
     20 ****        -4.7200  -2.1084  -1.4921 H              1 S1                 0.0000
     21 ****        -3.2580  -3.0879  -1.5728 H              1 S1                 0.0000
     22 ****        -3.3923  -1.6183  -2.5367 H              1 S1                 0.0000
     23 ****        -3.4553  -0.2448  -0.4790 H              1 S1                 0.0000
     24 ****        -4.4771  -1.9651   1.0346 H              1 S1                 0.0000
     25 ****        -2.9742  -2.8581   1.0517 H              1 S1                 0.0000
     26 ****        -4.3578   0.5937   2.0708 H              1 S1                 0.0000
     27 ****        -2.8484   1.4474   4.1780 H              1 S1                 0.0000
     28 ****        -0.9072  -0.5195   4.3897 H              1 S1                 0.0000
     29 ****        -1.1138  -2.0470  -0.8306 H              1 S1                 0.0000
     30 ****         0.7459  -1.3048  -0.8207 H              1 S1                 0.0000
     31 ****         1.3057   1.3043   0.3742 H              1 S1                 0.0000
     32 ****         1.9692   0.7024  -2.5515 H              1 S1                 0.0000
     33 ****         0.8811   1.9462  -1.9890 H              1 S1                 0.0000
     34 ****         3.1249   2.8886  -2.5517 H              1 S1                 0.0000
     35 ****         2.7040   3.1464  -0.8798 H              1 S1                 0.0000
     36 ****         5.0218   2.4311  -0.9515 H              1 S1                 0.0000
     37 ****         4.9287   1.3874  -2.9396 H              1 S1                 0.0000
     38 ****         4.9445   0.2981   0.3900 H              1 S1                 0.0000
     39 ****         3.8421   1.5209   0.9638 H              1 S1                 0.0000
     40 ****         2.6982  -0.6492   0.9395 H              1 S1                 0.0000
     41 ****         3.0974  -0.8971  -0.7426 H              1 S1                 0.0000
     42 ****        -1.2978  -2.2204   2.6557 LP             1 S1                 0.0000
     43 ****        -2.2467   1.1465   0.0098 LP             1 S1                 0.0000
     44 ****        -0.6384   1.7894   0.0044 LP             1 S1                 0.0000
     45 ****         4.0794   0.1508  -2.4103 LP             1 S1                 0.0000
     46 ****         5.6035   0.4081  -1.8831 LP             1 S1                 0.0000
@<TRIPOS>BOND
    1    1    2 1     
    2    1   20 1     
    3    1   21 1     
    4    1   22 1     
    5    2    3 1     
    6    2    9 1     
    7    2   23 1     
    8    3    4 1     
    9    3   24 1     
   10    3   25 1     
   11    4    8 1     
   12    4    5 1     
   13    5    6 2     
   14    5   26 1     
   15    6    7 1     
   16    6   27 1     
   17    7    8 2     
   18    7   28 1     
   19    9   10 am    
   20    9   29 1     
   21   10   11 2     
   22   10   12 am    
   23   12   13 1     
   24   12   30 1     
   25   13   19 1     
   26   13   14 1     
   27   13   31 1     
   28   14   15 1     
   29   14   32 1     
   30   14   33 1     
   31   15   16 1     
   32   15   34 1     
   33   15   35 1     
   34   16   17 1     
   35   16   18 1     
   36   16   36 1     
   37   17   37 1     
   38   18   19 1     
   39   18   38 1     
   40   18   39 1     
   41   19   40 1     
   42   19   41 1     
   43    8   42 1     
   44   11   43 1     
   45   11   44 1     
   46   17   45 1     
   47   17   46 1     
@<TRIPOS>SUBSTRUCTURE
      1 S1             1
@<TRIPOS>SET
LONE_PAIRS      STATIC     ATOMS    <user>   **** ""
5 42 43 44 45 46
DONOR_HYDROGENS      STATIC     ATOMS    <user>   **** ""
3 29 30 37
ATOM$BLUE        STATIC     ATOMS    COLORGROUP SYSTEM
5 42 43 44 45 46
ATOM$RED        STATIC     ATOMS    COLORGROUP SYSTEM
3 29 30 37
