AV-unprocessed.smi:1219|AV-procd|sdf|5112|dock9
  -GOLD-   22720 4173D 1   1.00000     0.00000
 Structure written by MMmdl.
 43 44  0  0  0  0  0  0  0  0  2 V2000
  150.5037  134.7766  156.0484 O   0  0  0  0  0  0  0  0  0  0  0  0
  149.9319  135.1410  155.0208 C   0  0  0  0  0  0  0  0  0  0  0  0
  149.1491  134.3354  154.2887 N   0  0  0  0  0  0  0  0  0  0  0  0
  148.8937  132.9275  154.5756 C   0  0  0  0  0  0  0  0  0  0  0  0
  147.5906  132.4248  153.9189 C   0  0  2  0  0  0  0  0  0  0  0  0
  147.5448  131.0160  154.0349 O   0  0  0  0  0  0  0  0  0  0  0  0
  147.5570  132.7538  152.4120 C   0  0  0  0  0  0  0  0  0  0  0  0
  146.1838  132.7205  151.8453 N   0  3  0  0  0  0  0  0  0  0  0  0
  145.8132  131.3686  151.3513 C   0  0  0  0  0  0  0  0  0  0  0  0
  144.3422  131.3222  150.9055 C   0  0  0  0  0  0  0  0  0  0  0  0
  144.0566  132.3871  149.8391 C   0  0  0  0  0  0  0  0  0  0  0  0
  144.4772  133.7693  150.3548 C   0  0  0  0  0  0  0  0  0  0  0  0
  145.9456  133.7647  150.8125 C   0  0  0  0  0  0  0  0  0  0  0  0
  150.0008  136.3724  154.4852 N   0  0  0  0  0  0  0  0  0  0  0  0
  150.7416  137.4914  154.9508 C   0  0  0  0  0  0  0  0  0  0  0  0
  150.0747  138.7335  154.8522 C   0  0  0  0  0  0  0  0  0  0  0  0
  150.7260  139.9057  155.2828 C   0  0  0  0  0  0  0  0  0  0  0  0
  152.0285  139.8054  155.8028 C   0  0  0  0  0  0  0  0  0  0  0  0
  152.6198  138.5304  155.8682 C   0  0  0  0  0  0  0  0  0  0  0  0
  151.9977  137.4057  155.4557 N   0  0  0  0  0  0  0  0  0  0  0  0
  148.7183  134.7166  153.4591 H   0  0  0  0  0  0  0  0  0  0  0  0
  149.7423  132.3843  154.1592 H   0  0  0  0  0  0  0  0  0  0  0  0
  148.9098  132.7292  155.6491 H   0  0  0  0  0  0  0  0  0  0  0  0
  146.7306  132.8608  154.4267 H   0  0  0  0  0  0  0  0  0  0  0  0
  147.4324  130.6467  153.1706 H   0  0  0  0  0  0  0  0  0  0  0  0
  147.9972  133.7337  152.2212 H   0  0  0  0  0  0  0  0  0  0  0  0
  148.1888  132.0329  151.8900 H   0  0  0  0  0  0  0  0  0  0  0  0
  146.4680  131.0906  150.5237 H   0  0  0  0  0  0  0  0  0  0  0  0
  145.9683  130.6317  152.1402 H   0  0  0  0  0  0  0  0  0  0  0  0
  144.1013  130.3323  150.5169 H   0  0  0  0  0  0  0  0  0  0  0  0
  143.6934  131.4825  151.7677 H   0  0  0  0  0  0  0  0  0  0  0  0
  144.6035  132.1513  148.9251 H   0  0  0  0  0  0  0  0  0  0  0  0
  142.9976  132.3867  149.5790 H   0  0  0  0  0  0  0  0  0  0  0  0
  144.3320  134.5169  149.5745 H   0  0  0  0  0  0  0  0  0  0  0  0
  143.8351  134.0618  151.1868 H   0  0  0  0  0  0  0  0  0  0  0  0
  146.1950  134.7507  151.2025 H   0  0  0  0  0  0  0  0  0  0  0  0
  146.6020  133.5891  149.9586 H   0  0  0  0  0  0  0  0  0  0  0  0
  149.4757  136.5237  153.6369 H   0  0  0  0  0  0  0  0  0  0  0  0
  149.0740  138.7931  154.4493 H   0  0  0  0  0  0  0  0  0  0  0  0
  150.2344  140.8648  155.2139 H   0  0  0  0  0  0  0  0  0  0  0  0
  152.5604  140.6818  156.1426 H   0  0  0  0  0  0  0  0  0  0  0  0
  153.6188  138.4096  156.2604 H   0  0  0  0  0  0  0  0  0  0  0  0
  145.5607  132.9178  152.6162 H   0  0  0  0  0  0  0  0  0  0  0  0
  1  2  2  0  0  0  0
  2  3  1  0  0  0  0
  2 14  1  0  0  0  0
  3  4  1  0  0  0  0
  3 21  1  0  0  0  0
  4  5  1  0  0  0  0
  4 22  1  0  0  0  0
  4 23  1  0  0  0  0
  5  6  1  0  0  0  0
  5  7  1  0  0  0  0
  5 24  1  0  0  0  0
  6 25  1  0  0  0  0
  7  8  1  0  0  0  0
  7 26  1  0  0  0  0
  7 27  1  0  0  0  0
  8 13  1  0  0  0  0
  8  9  1  0  0  0  0
  8 43  1  0  0  0  0
  9 10  1  0  0  0  0
  9 28  1  0  0  0  0
  9 29  1  0  0  0  0
 10 11  1  0  0  0  0
 10 30  1  0  0  0  0
 10 31  1  0  0  0  0
 11 12  1  0  0  0  0
 11 32  1  0  0  0  0
 11 33  1  0  0  0  0
 12 13  1  0  0  0  0
 12 34  1  0  0  0  0
 12 35  1  0  0  0  0
 13 36  1  0  0  0  0
 13 37  1  0  0  0  0
 14 15  1  0  0  0  0
 14 38  1  0  0  0  0
 15 20  1  0  0  0  0
 15 16  2  0  0  0  0
 16 17  1  0  0  0  0
 16 39  1  0  0  0  0
 17 18  2  0  0  0  0
 17 40  1  0  0  0  0
 18 19  1  0  0  0  0
 18 41  1  0  0  0  0
 19 20  2  0  0  0  0
 19 42  1  0  0  0  0
M  CHG  1   8   1
M  END
> <s_m_source_file>
AV-unprocessed.smi

> <i_m_source_file_index>
1219

> <i_lp_mmshare_version>
43012

> <i_f3d_flags>
0

> <s_epik_input>
bjFbY0hdW2NIXVtjSF1bY0hdYzFbTkhdQyg9TylbTkhdW0NIMl1bQ0BIXShbT0hdKVtDSDJdTjJbQ0gyXVtDSDJdW0NIMl1bQ0gyXVtDSDJdMg==

> <s_epik_cmdline>
J2VwaWtfcHl0aG9uJywgJy1waCcsICc3LjAnLCAnLXRuJywgJzgnLCAnLW1hJywgJzIwMCcsICctbWV0YWxfYmluZGluZycsICctaW1hZScsICc8aW5maWxlLm1hZT4nLCAnLW9tYWUnLCAnPG91dGZpbGUubWFlPic=

> <r_epik_Ionization_Penalty>
0.00510026

> <r_epik_Ionization_Penalty_Charging>
0.00506051

> <r_epik_Ionization_Penalty_Neutral>
3.97538e-05

> <r_epik_State_Penalty>
0.00368188

> <r_epik_Charging_Adjusted_Penalty>
0.0087424

> <i_epik_Tot_Q>
1

> <i_epik_Tot_abs_Q>
1

> <r_epik_Metal_State_Penalty>
-0

> <b_epik_Metal_Only>
0

> <s_lp_Force_Field>
OPLS_2005

> <r_lp_Energy>
20.5821

> <b_lp_Chiralities_Consistent>
1

> <s_lp_Variant>
AV-unprocessed.smi:1219-1

> <Gold.Version>
5.8.1

> <Gold.Id.Protein>
6NUR|6NUR_protein|mol2

> <Gold.PLP.Fitness>
45.1481

> <Gold.PLP.PLP>
-39.6697

> <Gold.PLP.part.hbond>
-4.1469

> <Gold.PLP.part.metal>
0.0000

> <Gold.PLP.part.buried>
-0.5082

> <Gold.PLP.part.nonpolar>
-34.6753

> <Gold.PLP.part.repulsive>
0.2125

> <Gold.PLP.ligand.clash>
0.0000

> <Gold.PLP.ligand.torsion>
1.1371

> <Gold.PLP.Chemscore.Hbond>
2.5732

> <Gold.PLP.Chemscore.CHOScore>
0.0000

> <Gold.PLP.Chemscore.Metal>
0.0000

> <Gold.Chemscore.Hbonds>
donor molecule, donor type, donor heavy atom, donor atom, acceptor molecule, acceptor atom, score
      L1  H     3    21       P1  7948  0.55
      L1  H    14    38       P1  7948  1.00
      P1  H 10752 10765       L1    20  0.45

> <Gold.PLP.Chemscore.Internal.Correction>
0.0330

> <Gold.Rescore>
     Score         DG    S(hbond)    S(metal)    S(lipo)     H(rot)  DE(clash)    DE(int)     intcor
     11.32     -14.27       1.32        0.00      90.22       2.41       0.51       2.43       ----

> <Gold.Chemscore.Fitness>
11.3246

> <Gold.Chemscore.DG>
-14.2705

> <Gold.Chemscore.ZeroCoef>
-5.4800

> <Gold.Chemscore.Hbond>
1.3163

> <Gold.Chemscore.Metal>
0.0000

> <Gold.Chemscore.Lipo>
90.2166

> <Gold.Chemscore.Internal_Hbond>
0.0000

> <Gold.Chemscore.DEClash>
0.5144

> <Gold.Chemscore.DEInternal>
2.4315

> <Gold.Chemscore.Rot>
2.4067

> <Gold.Chemscore.Internal.Correction>
   9.000000E+99

> <Gold.Chemscore.Hbonds>
donor molecule, donor type, donor heavy atom, donor atom, acceptor molecule, acceptor atom, score
      L1  H     3    21       P1  7948  0.24
      L1  H    14    38       P1  7948  0.77
      P1  H 10752 10765       L1    20  0.27

> <Gold.Chemscore.Hbond.Weighted>
-4.3964

> <Gold.Chemscore.Metal.Weighted>
-0.0000

> <Gold.Chemscore.Lipo.Weighted>
-10.5553

> <Gold.Chemscore.Internal_Hbond.Weighted>
0.0000

> <Gold.Chemscore.DEClash.Weighted>
0.5144

> <Gold.Chemscore.DEInternal.Weighted>
2.4315

> <Gold.Chemscore.Rot.Weighted>
6.1612

> <Gold.Chemscore.Internal.Correction.Weighted>
   9.000000E+99

> <Gold.Protein.RotatedTorsions>
[ 6907 6896 6895 6894 ] final -147.60 input  -60.11 | X-H torsion
[ 7974 7965 7964 7962 ] final  -21.23 input  175.53 | X-H torsion
[ 8008 7997 7996 7995 ] final  -67.37 input   59.86 | X-H torsion
[ 10167 10162 10161 10158 ] final  -51.79 input  -65.29 | X-H torsion
[ 10718 10713 10712 10709 ] final -151.95 input   66.30 | X-H torsion
[ 10763 10752 10751 10750 ] final  174.91 input  -60.55 | X-H torsion
[ 11005 11000 10999 10996 ] final   14.52 input  -57.11 | X-H torsion

> <Gold.Protein.ActiveResidues>
 VAL166  LYS551  ARG553  GLY616  TRP617  ASP618  TYR619  PRO620  LYS621  CYS622 
 ASP623  PHE694  ASN695  SER759  ASP760  ASP761  ALA762  ILE779  LEU786  VAL792 
 PHE793  MET794  SER795  GLU796  ALA797  LYS798  CYS799  TRP800  GLU811  SER814 

> <Gold.Protein.RotatedAtoms>
  151.1579  133.4864  159.2594 H   0  0  0  0  0  0  0  0  0  0  0  0  # atno 6907 bound_to 6896
  151.1485  135.0215  159.8667 H   0  0  0  0  0  0  0  0  0  0  0  0  # atno 6908 bound_to 6896
  152.5463  134.1466  159.8554 H   0  0  0  0  0  0  0  0  0  0  0  0  # atno 6909 bound_to 6896
  146.1745  140.4312  142.8519 H   0  0  0  0  0  0  0  0  0  0  0  0  # atno 7974 bound_to 7965
  154.4795  140.0894  156.7343 H   0  0  0  0  0  0  0  0  0  0  0  0  # atno 8008 bound_to 7997
  155.4507  140.3457  155.4282 H   0  0  0  0  0  0  0  0  0  0  0  0  # atno 8009 bound_to 7997
  156.1169  140.1463  156.9248 H   0  0  0  0  0  0  0  0  0  0  0  0  # atno 8010 bound_to 7997
  140.6570  143.2607  151.4555 H   0  0  0  0  0  0  0  0  0  0  0  0  # atno 10167 bound_to 10162
  156.4660  130.8236  151.2466 H   0  0  0  0  0  0  0  0  0  0  0  0  # atno 10718 bound_to 10713
  154.4604  135.2767  155.1717 H   0  0  0  0  0  0  0  0  0  0  0  0  # atno 10763 bound_to 10752
  154.3507  135.6150  153.5645 H   0  0  0  0  0  0  0  0  0  0  0  0  # atno 10764 bound_to 10752
  152.9854  135.5810  154.4966 H   0  0  0  0  0  0  0  0  0  0  0  0  # atno 10765 bound_to 10752
  140.4686  134.1054  155.7728 H   0  0  0  0  0  0  0  0  0  0  0  0  # atno 11005 bound_to 11000
  144.8214  140.6556  143.6350 LP  0  0  0  0  0  0  0  0  0  0  0  0  # atno 17320 bound_to 7965
  145.4251  139.1558  143.4053 LP  0  0  0  0  0  0  0  0  0  0  0  0  # atno 17321 bound_to 7965
  139.5795  144.1742  152.1949 LP  0  0  0  0  0  0  0  0  0  0  0  0  # atno 17342 bound_to 10162
  140.1063  144.5496  150.6955 LP  0  0  0  0  0  0  0  0  0  0  0  0  # atno 17343 bound_to 10162
  157.7495  131.0092  150.3257 LP  0  0  0  0  0  0  0  0  0  0  0  0  # atno 17370 bound_to 10713
  156.3668  130.3856  149.7207 LP  0  0  0  0  0  0  0  0  0  0  0  0  # atno 17371 bound_to 10713
  141.1587  133.8833  157.1906 LP  0  0  0  0  0  0  0  0  0  0  0  0  # atno 17394 bound_to 11000
  139.9899  135.0068  156.9951 LP  0  0  0  0  0  0  0  0  0  0  0  0  # atno 17395 bound_to 11000

$$$$
