AV-unprocessed.smi:2357|AV-procd|sdf|9402|dock2
  -GOLD-   2272013 33D 1   1.00000     0.00000
 Structure written by MMmdl.
 37 38  0  0  0  0  0  0  0  0  1 V2000
  152.2779  143.9503  160.9621 C   0  0  0  0  0  0  0  0  0  0  0  0
  152.0759  143.1006  159.7212 C   0  0  0  0  0  0  0  0  0  0  0  0
  151.2072  143.5631  158.6590 C   0  0  0  0  0  0  0  0  0  0  0  0
  151.0399  142.7997  157.5689 C   0  0  0  0  0  0  0  0  0  0  0  0
  151.6841  141.5585  157.4233 N   0  0  0  0  0  0  0  0  0  0  0  0
  151.4275  140.8178  156.1764 C   0  0  0  0  0  0  0  0  0  0  0  0
  149.9626  140.3883  156.0062 C   0  0  0  0  0  0  0  0  0  0  0  0
  149.5168  139.3978  156.5878 O   0  0  0  0  0  0  0  0  0  0  0  0
  149.2207  141.1550  155.1930 N   0  0  0  0  0  0  0  0  0  0  0  0
  147.8144  140.9295  154.8788 C   0  0  0  0  0  0  0  0  0  0  0  0
  146.9403  142.1318  155.2741 C   0  0  1  0  0  0  0  0  0  0  0  0
  146.4800  142.9735  154.0880 C   0  0  0  0  0  0  0  0  0  0  0  0
  145.2911  143.6988  154.6776 C   0  0  0  0  0  0  0  0  0  0  0  0
  144.6896  142.6478  155.6116 C   0  0  0  0  0  0  0  0  0  0  0  0
  145.7232  141.6999  155.8722 O   0  0  0  0  0  0  0  0  0  0  0  0
  152.5218  141.0612  158.3825 C   0  0  0  0  0  0  0  0  0  0  0  0
  153.0899  139.9760  158.2461 O   0  0  0  0  0  0  0  0  0  0  0  0
  152.6968  141.9054  159.5754 C   0  0  0  0  0  0  0  0  0  0  0  0
  153.5692  141.3852  160.5786 C   0  0  0  0  0  0  0  0  0  0  0  0
  154.2806  140.9852  161.3998 N   0  0  0  0  0  0  0  0  0  0  0  0
  151.6888  144.8666  160.9128 H   0  0  0  0  0  0  0  0  0  0  0  0
  153.3272  144.2282  161.0663 H   0  0  0  0  0  0  0  0  0  0  0  0
  151.9752  143.4019  161.8546 H   0  0  0  0  0  0  0  0  0  0  0  0
  150.7004  144.5140  158.7361 H   0  0  0  0  0  0  0  0  0  0  0  0
  150.4115  143.0922  156.7401 H   0  0  0  0  0  0  0  0  0  0  0  0
  151.7214  141.4107  155.3085 H   0  0  0  0  0  0  0  0  0  0  0  0
  152.0567  139.9272  156.1366 H   0  0  0  0  0  0  0  0  0  0  0  0
  149.6630  141.9490  154.7530 H   0  0  0  0  0  0  0  0  0  0  0  0
  147.7064  140.7184  153.8137 H   0  0  0  0  0  0  0  0  0  0  0  0
  147.4829  140.0351  155.4068 H   0  0  0  0  0  0  0  0  0  0  0  0
  147.4637  142.7745  155.9841 H   0  0  0  0  0  0  0  0  0  0  0  0
  147.2531  143.6480  153.7187 H   0  0  0  0  0  0  0  0  0  0  0  0
  146.1583  142.3347  153.2641 H   0  0  0  0  0  0  0  0  0  0  0  0
  145.6319  144.5595  155.2548 H   0  0  0  0  0  0  0  0  0  0  0  0
  144.5876  144.0525  153.9232 H   0  0  0  0  0  0  0  0  0  0  0  0
  144.3256  143.0928  156.5380 H   0  0  0  0  0  0  0  0  0  0  0  0
  143.8564  142.1321  155.1337 H   0  0  0  0  0  0  0  0  0  0  0  0
  1  2  1  0  0  0  0
  1 21  1  0  0  0  0
  1 22  1  0  0  0  0
  1 23  1  0  0  0  0
  2 18  2  0  0  0  0
  2  3  1  0  0  0  0
  3  4  2  0  0  0  0
  3 24  1  0  0  0  0
  4  5  1  0  0  0  0
  4 25  1  0  0  0  0
  5  6  1  0  0  0  0
  5 16  1  0  0  0  0
  6  7  1  0  0  0  0
  6 26  1  0  0  0  0
  6 27  1  0  0  0  0
  7  8  2  0  0  0  0
  7  9  1  0  0  0  0
  9 10  1  0  0  0  0
  9 28  1  0  0  0  0
 10 11  1  0  0  0  0
 10 29  1  0  0  0  0
 10 30  1  0  0  0  0
 11 15  1  0  0  0  0
 11 12  1  0  0  0  0
 11 31  1  0  0  0  0
 12 13  1  0  0  0  0
 12 32  1  0  0  0  0
 12 33  1  0  0  0  0
 13 14  1  0  0  0  0
 13 34  1  0  0  0  0
 13 35  1  0  0  0  0
 14 15  1  0  0  0  0
 14 36  1  0  0  0  0
 14 37  1  0  0  0  0
 16 17  2  0  0  0  0
 16 18  1  0  0  0  0
 18 19  1  0  0  0  0
 19 20  3  0  0  0  0
M  END
> <s_m_source_file>
AV-unprocessed.smi

> <i_m_source_file_index>
2357

> <i_lp_mmshare_version>
43012

> <i_f3d_flags>
0

> <s_epik_input>
W0NIM11jMVtjSF1bY0hdbihjKD1PKWMxQyNOKVtDSDJdQyg9TylbTkhdW0NIMl1bQ0BASF0yW0NIMl1bQ0gyXVtDSDJdTzI=

> <s_epik_cmdline>
J2VwaWtfcHl0aG9uJywgJy1waCcsICc3LjAnLCAnLXRuJywgJzgnLCAnLW1hJywgJzIwMCcsICctbWV0YWxfYmluZGluZycsICctaW1hZScsICc8aW5maWxlLm1hZT4nLCAnLW9tYWUnLCAnPG91dGZpbGUubWFlPic=

> <r_lp_tautomer_probability>
1

> <r_epik_Ionization_Penalty>
2.71597e-08

> <r_epik_Ionization_Penalty_Charging>
3.00645e-10

> <r_epik_Ionization_Penalty_Neutral>
2.6859e-08

> <r_epik_State_Penalty>
-0

> <r_epik_Charging_Adjusted_Penalty>
3.00645e-10

> <i_epik_Tot_Q>
0

> <i_epik_Tot_abs_Q>
0

> <r_epik_Metal_State_Penalty>
-0

> <b_epik_Metal_Only>
0

> <s_lp_Force_Field>
OPLS_2005

> <r_lp_Energy>
27.3149

> <b_lp_Chiralities_Consistent>
1

> <s_lp_Variant>
AV-unprocessed.smi:2357-2

> <Gold.Version>
5.8.1

> <Gold.Id.Protein>
6NUR|6NUR_protein|mol2

> <Gold.PLP.Fitness>
44.7939

> <Gold.PLP.PLP>
-40.5815

> <Gold.PLP.part.hbond>
-1.6043

> <Gold.PLP.part.metal>
0.0000

> <Gold.PLP.part.buried>
-6.7705

> <Gold.PLP.part.nonpolar>
-31.5009

> <Gold.PLP.part.repulsive>
0.2244

> <Gold.PLP.ligand.clash>
0.0000

> <Gold.PLP.ligand.torsion>
0.9051

> <Gold.PLP.Chemscore.Hbond>
1.0000

> <Gold.PLP.Chemscore.CHOScore>
1.0000

> <Gold.PLP.Chemscore.Metal>
0.0000

> <Gold.Chemscore.Hbonds>
donor molecule, donor type, donor heavy atom, donor atom, acceptor molecule, acceptor atom, score
      P1  H  7997  8009       L1    17  1.00
      L1  C     4    25       P1  8028  1.00

> <Gold.PLP.Chemscore.Internal.Correction>
0.0227

> <Gold.Rescore>
     Score         DG    S(hbond)    S(metal)    S(lipo)     H(rot)  DE(clash)    DE(int)     intcor
     13.29     -14.13       0.92        0.00      86.08       1.76       0.11       0.73       ----

> <Gold.Chemscore.Fitness>
13.2857

> <Gold.Chemscore.DG>
-14.1287

> <Gold.Chemscore.ZeroCoef>
-5.4800

> <Gold.Chemscore.Hbond>
0.9213

> <Gold.Chemscore.Metal>
0.0000

> <Gold.Chemscore.Lipo>
86.0804

> <Gold.Chemscore.Internal_Hbond>
0.0000

> <Gold.Chemscore.DEClash>
0.1088

> <Gold.Chemscore.DEInternal>
0.7343

> <Gold.Chemscore.Rot>
1.7577

> <Gold.Chemscore.Internal.Correction>
   9.000000E+99

> <Gold.Chemscore.Hbonds>
donor molecule, donor type, donor heavy atom, donor atom, acceptor molecule, acceptor atom, score
      P1  H  7997  8009       L1    17  0.83

> <Gold.Chemscore.Hbond.Weighted>
-3.0771

> <Gold.Chemscore.Metal.Weighted>
-0.0000

> <Gold.Chemscore.Lipo.Weighted>
-10.0714

> <Gold.Chemscore.Internal_Hbond.Weighted>
0.0000

> <Gold.Chemscore.DEClash.Weighted>
0.1088

> <Gold.Chemscore.DEInternal.Weighted>
0.7343

> <Gold.Chemscore.Rot.Weighted>
4.4998

> <Gold.Chemscore.Internal.Correction.Weighted>
   9.000000E+99

> <Gold.Protein.RotatedTorsions>
[ 6907 6896 6895 6894 ] final  162.97 input  -60.11 | X-H torsion
[ 7974 7965 7964 7962 ] final  139.27 input  175.53 | X-H torsion
[ 8008 7997 7996 7995 ] final  153.83 input   59.86 | X-H torsion
[ 10167 10162 10161 10158 ] final   75.50 input  -65.29 | X-H torsion
[ 10718 10713 10712 10709 ] final -117.78 input   66.30 | X-H torsion
[ 10763 10752 10751 10750 ] final -153.40 input  -60.55 | X-H torsion
[ 11005 11000 10999 10996 ] final  -89.63 input  -57.11 | X-H torsion

> <Gold.Protein.ActiveResidues>
 VAL166  LYS551  ARG553  GLY616  TRP617  ASP618  TYR619  PRO620  LYS621  CYS622 
 ASP623  PHE694  ASN695  SER759  ASP760  ASP761  ALA762  ILE779  LEU786  VAL792 
 PHE793  MET794  SER795  GLU796  ALA797  LYS798  CYS799  TRP800  GLU811  SER814 

> <Gold.Protein.RotatedAtoms>
  151.9323  133.3614  159.3934 H   0  0  0  0  0  0  0  0  0  0  0  0  # atno 6907 bound_to 6896
  150.7015  134.4525  159.5352 H   0  0  0  0  0  0  0  0  0  0  0  0  # atno 6908 bound_to 6896
  152.2167  134.8451  160.0541 H   0  0  0  0  0  0  0  0  0  0  0  0  # atno 6909 bound_to 6896
  144.9294  139.5066  143.5625 H   0  0  0  0  0  0  0  0  0  0  0  0  # atno 7974 bound_to 7965
  156.2562  140.1983  156.6552 H   0  0  0  0  0  0  0  0  0  0  0  0  # atno 8008 bound_to 7997
  154.6506  140.0572  156.9976 H   0  0  0  0  0  0  0  0  0  0  0  0  # atno 8009 bound_to 7997
  155.1424  140.3244  155.4452 H   0  0  0  0  0  0  0  0  0  0  0  0  # atno 8010 bound_to 7997
  140.0023  144.5677  150.7727 H   0  0  0  0  0  0  0  0  0  0  0  0  # atno 10167 bound_to 10162
  156.1059  130.6209  150.9208 H   0  0  0  0  0  0  0  0  0  0  0  0  # atno 10718 bound_to 10713
  154.7930  135.3214  154.7732 H   0  0  0  0  0  0  0  0  0  0  0  0  # atno 10763 bound_to 10752
  153.8417  135.6870  153.4806 H   0  0  0  0  0  0  0  0  0  0  0  0  # atno 10764 bound_to 10752
  153.1609  135.4661  154.9711 H   0  0  0  0  0  0  0  0  0  0  0  0  # atno 10765 bound_to 10752
  141.1581  133.7642  156.9623 H   0  0  0  0  0  0  0  0  0  0  0  0  # atno 11005 bound_to 11000
  146.3240  139.8233  142.8922 LP  0  0  0  0  0  0  0  0  0  0  0  0  # atno 17320 bound_to 7965
  145.3166  141.0233  143.3524 LP  0  0  0  0  0  0  0  0  0  0  0  0  # atno 17321 bound_to 7965
  140.7414  143.2817  151.3579 LP  0  0  0  0  0  0  0  0  0  0  0  0  # atno 17342 bound_to 10162
  139.6263  144.0808  152.2437 LP  0  0  0  0  0  0  0  0  0  0  0  0  # atno 17343 bound_to 10162
  157.6235  131.0927  150.8577 LP  0  0  0  0  0  0  0  0  0  0  0  0  # atno 17370 bound_to 10713
  156.8697  130.5141  149.5297 LP  0  0  0  0  0  0  0  0  0  0  0  0  # atno 17371 bound_to 10713
  140.1185  134.9432  157.2169 LP  0  0  0  0  0  0  0  0  0  0  0  0  # atno 17394 bound_to 11000
  140.3102  134.3032  155.7268 LP  0  0  0  0  0  0  0  0  0  0  0  0  # atno 17395 bound_to 11000

$$$$
