AV-unprocessed.smi:148|AV-procd|sdf|1210|dock6
  -GOLD-   2262018383D 1   1.00000     0.00000
 Structure written by MMmdl.
 63 67  0  0  0  0  0  0  0  0  1 V2000
  141.4252  134.0113  153.9740 O   0  0  0  0  0  0  0  0  0  0  0  0
  142.1421  134.6121  152.9142 C   0  0  0  0  0  0  0  0  0  0  0  0
  143.6662  134.3916  153.0570 C   0  0  2  0  0  0  0  0  0  0  0  0
  144.2727  135.5534  153.8875 C   0  0  0  0  0  0  0  0  0  0  0  0
  144.0450  135.4396  155.3156 N   0  0  0  0  0  0  0  0  0  0  0  0
  143.2255  136.2363  156.0838 C   0  0  0  0  0  0  0  0  0  0  0  0
  143.1547  135.9083  157.3446 N   0  0  0  0  0  0  0  0  0  0  0  0
  144.0060  134.8166  157.4537 C   0  0  0  0  0  0  0  0  0  0  0  0
  144.3636  133.9496  158.5172 C   0  0  0  0  0  0  0  0  0  0  0  0
  143.8026  134.0602  159.7416 N   0  0  0  0  0  0  0  0  0  0  0  0
  142.3429  134.0620  159.6505 C   0  0  0  0  0  0  0  0  0  0  0  0
  141.6998  133.9236  161.0361 C   0  0  0  0  0  0  0  0  0  0  0  0
  142.2154  135.0214  161.9721 C   0  0  0  0  0  0  0  0  0  0  0  0
  143.7481  134.9784  162.0384 C   0  0  0  0  0  0  0  0  0  0  0  0
  144.3924  135.0809  160.6293 C   0  0  1  0  0  0  0  0  0  0  0  0
  145.9608  135.0419  160.6562 C   0  0  2  0  0  0  0  0  0  0  0  0
  146.5505  133.8771  161.4865 C   0  0  0  0  0  0  0  0  0  0  0  0
  147.4955  134.4946  162.5263 C   0  0  0  0  0  0  0  0  0  0  0  0
  147.0966  135.9661  162.6186 C   0  0  0  0  0  0  0  0  0  0  0  0
  146.6775  136.3028  161.1889 C   0  0  2  0  0  0  0  0  0  0  0  0
  145.9426  137.5057  161.0894 O   0  0  0  0  0  0  0  0  0  0  0  0
  145.2588  132.9587  158.2634 N   0  0  0  0  0  0  0  0  0  0  0  0
  145.7592  132.8163  157.0320 C   0  0  0  0  0  0  0  0  0  0  0  0
  145.4934  133.5295  155.9347 N   0  0  0  0  0  0  0  0  0  0  0  0
  144.6010  134.5279  156.1956 C   0  0  0  0  0  0  0  0  0  0  0  0
  144.3662  134.1397  151.6865 C   0  0  2  0  0  0  0  0  0  0  0  0
  143.8579  132.9224  150.9284 C   0  0  0  0  0  0  0  0  0  0  0  0
  144.9814  132.6692  149.9346 C   0  0  0  0  0  0  0  0  0  0  0  0
  146.1627  132.9235  150.6772 O   0  0  0  0  0  0  0  0  0  0  0  0
  145.8728  133.8254  151.7411 C   0  0  0  0  0  0  0  0  0  0  0  0
  141.6585  133.0964  154.0157 H   0  0  0  0  0  0  0  0  0  0  0  0
  141.7842  134.1942  151.9729 H   0  0  0  0  0  0  0  0  0  0  0  0
  141.8986  135.6739  152.8835 H   0  0  0  0  0  0  0  0  0  0  0  0
  143.7791  133.4812  153.6470 H   0  0  0  0  0  0  0  0  0  0  0  0
  145.3460  135.6234  153.7097 H   0  0  0  0  0  0  0  0  0  0  0  0
  143.8477  136.5050  153.5663 H   0  0  0  0  0  0  0  0  0  0  0  0
  142.6571  137.0570  155.6708 H   0  0  0  0  0  0  0  0  0  0  0  0
  142.0093  134.9888  159.1817 H   0  0  0  0  0  0  0  0  0  0  0  0
  142.0098  133.2430  159.0110 H   0  0  0  0  0  0  0  0  0  0  0  0
  140.6142  133.9793  160.9525 H   0  0  0  0  0  0  0  0  0  0  0  0
  141.9321  132.9429  161.4533 H   0  0  0  0  0  0  0  0  0  0  0  0
  141.8885  135.9978  161.6127 H   0  0  0  0  0  0  0  0  0  0  0  0
  141.7919  134.8960  162.9688 H   0  0  0  0  0  0  0  0  0  0  0  0
  144.0842  135.7897  162.6814 H   0  0  0  0  0  0  0  0  0  0  0  0
  144.0509  134.0547  162.5309 H   0  0  0  0  0  0  0  0  0  0  0  0
  144.1006  136.0470  160.2146 H   0  0  0  0  0  0  0  0  0  0  0  0
  146.3104  134.9344  159.6291 H   0  0  0  0  0  0  0  0  0  0  0  0
  145.7706  133.2999  161.9823 H   0  0  0  0  0  0  0  0  0  0  0  0
  147.0912  133.1764  160.8496 H   0  0  0  0  0  0  0  0  0  0  0  0
  147.4433  133.9885  163.4904 H   0  0  0  0  0  0  0  0  0  0  0  0
  148.5240  134.4185  162.1707 H   0  0  0  0  0  0  0  0  0  0  0  0
  146.2596  136.0809  163.3075 H   0  0  0  0  0  0  0  0  0  0  0  0
  147.9104  136.5976  162.9766 H   0  0  0  0  0  0  0  0  0  0  0  0
  147.5893  136.4436  160.6061 H   0  0  0  0  0  0  0  0  0  0  0  0
  145.2457  137.3805  160.4635 H   0  0  0  0  0  0  0  0  0  0  0  0
  146.4650  132.0087  156.9050 H   0  0  0  0  0  0  0  0  0  0  0  0
  144.2224  135.0126  151.0477 H   0  0  0  0  0  0  0  0  0  0  0  0
  143.7546  132.0674  151.5981 H   0  0  0  0  0  0  0  0  0  0  0  0
  142.9000  133.0913  150.4354 H   0  0  0  0  0  0  0  0  0  0  0  0
  144.9701  131.6566  149.5308 H   0  0  0  0  0  0  0  0  0  0  0  0
  144.9240  133.3726  149.1028 H   0  0  0  0  0  0  0  0  0  0  0  0
  146.4823  134.7222  151.6362 H   0  0  0  0  0  0  0  0  0  0  0  0
  146.1467  133.3367  152.6765 H   0  0  0  0  0  0  0  0  0  0  0  0
  1  2  1  0  0  0  0
  1 31  1  0  0  0  0
  2  3  1  0  0  0  0
  2 32  1  0  0  0  0
  2 33  1  0  0  0  0
  3  4  1  0  0  0  0
  3 26  1  0  0  0  0
  3 34  1  0  0  0  0
  4  5  1  0  0  0  0
  4 35  1  0  0  0  0
  4 36  1  0  0  0  0
  5 25  1  0  0  0  0
  5  6  1  0  0  0  0
  6  7  2  0  0  0  0
  6 37  1  0  0  0  0
  7  8  1  0  0  0  0
  8 25  2  0  0  0  0
  8  9  1  0  0  0  0
  9 10  1  0  0  0  0
  9 22  2  0  0  0  0
 10 15  1  0  0  0  0
 10 11  1  0  0  0  0
 11 12  1  0  0  0  0
 11 38  1  0  0  0  0
 11 39  1  0  0  0  0
 12 13  1  0  0  0  0
 12 40  1  0  0  0  0
 12 41  1  0  0  0  0
 13 14  1  0  0  0  0
 13 42  1  0  0  0  0
 13 43  1  0  0  0  0
 14 15  1  0  0  0  0
 14 44  1  0  0  0  0
 14 45  1  0  0  0  0
 15 16  1  0  0  0  0
 15 46  1  0  0  0  0
 16 20  1  0  0  0  0
 16 17  1  0  0  0  0
 16 47  1  0  0  0  0
 17 18  1  0  0  0  0
 17 48  1  0  0  0  0
 17 49  1  0  0  0  0
 18 19  1  0  0  0  0
 18 50  1  0  0  0  0
 18 51  1  0  0  0  0
 19 20  1  0  0  0  0
 19 52  1  0  0  0  0
 19 53  1  0  0  0  0
 20 21  1  0  0  0  0
 20 54  1  0  0  0  0
 21 55  1  0  0  0  0
 22 23  1  0  0  0  0
 23 24  2  0  0  0  0
 23 56  1  0  0  0  0
 24 25  1  0  0  0  0
 26 30  1  0  0  0  0
 26 27  1  0  0  0  0
 26 57  1  0  0  0  0
 27 28  1  0  0  0  0
 27 58  1  0  0  0  0
 27 59  1  0  0  0  0
 28 29  1  0  0  0  0
 28 60  1  0  0  0  0
 28 61  1  0  0  0  0
 29 30  1  0  0  0  0
 30 62  1  0  0  0  0
 30 63  1  0  0  0  0
M  END
> <s_m_source_file>
AV-unprocessed.smi

> <i_m_source_file_index>
148

> <i_lp_mmshare_version>
43012

> <i_f3d_flags>
0

> <s_epik_input>
W0NIMl0xT1tDSDJdW0NIMl1bQ0BIXTFbQ0BIXShbQ0gyXVtPSF0pW0NIMl1uKFtjSF1uMiljKGMyMyluW2NIXW5jM040W0NIMl1bQ0gyXVtDSDJdW0NIMl1bQ0BIXTRbQ0BASF01W0NIMl1bQ0gyXVtDSDJdW0NASF01W09IXQ==

> <s_epik_cmdline>
J2VwaWtfcHl0aG9uJywgJy1waCcsICc3LjAnLCAnLXRuJywgJzgnLCAnLW1hJywgJzIwMCcsICctbWV0YWxfYmluZGluZycsICctaW1hZScsICc8aW5maWxlLm1hZT4nLCAnLW9tYWUnLCAnPG91dGZpbGUubWFlPic=

> <r_lp_tautomer_probability>
1

> <r_epik_Ionization_Penalty>
0.00556303

> <r_epik_Ionization_Penalty_Charging>
0

> <r_epik_Ionization_Penalty_Neutral>
0.00556303

> <r_epik_State_Penalty>
0.00401767

> <r_epik_Charging_Adjusted_Penalty>
0.00401767

> <i_epik_Tot_Q>
0

> <i_epik_Tot_abs_Q>
0

> <r_epik_Metal_State_Penalty>
-0

> <b_epik_Metal_Only>
0

> <s_lp_Force_Field>
OPLS_2005

> <r_lp_Energy>
71.2164

> <b_lp_Chiralities_Consistent>
1

> <s_lp_Variant>
AV-unprocessed.smi:148-9

> <Gold.Version>
5.8.1

> <Gold.Id.Protein>
6NUR|6NUR_protein|mol2

> <Gold.PLP.Fitness>
44.8142

> <Gold.PLP.PLP>
-38.2438

> <Gold.PLP.part.hbond>
-3.6304

> <Gold.PLP.part.metal>
0.0000

> <Gold.PLP.part.buried>
-7.6458

> <Gold.PLP.part.nonpolar>
-27.1213

> <Gold.PLP.part.repulsive>
0.3122

> <Gold.PLP.ligand.clash>
0.0000

> <Gold.PLP.ligand.torsion>
1.3137

> <Gold.PLP.Chemscore.Hbond>
2.9277

> <Gold.PLP.Chemscore.CHOScore>
0.0000

> <Gold.PLP.Chemscore.Metal>
0.0000

> <Gold.Chemscore.Hbonds>
donor molecule, donor type, donor heavy atom, donor atom, acceptor molecule, acceptor atom, score
      L1  H     1    31       P1 10957  1.00
      P1  H  6934  6947       L1    21  1.00
      P1  H 11000 11005       L1     1  0.86

> <Gold.PLP.Chemscore.Internal.Correction>
0.4146

> <Gold.Rescore>
     Score         DG    S(hbond)    S(metal)    S(lipo)     H(rot)  DE(clash)    DE(int)     intcor
     14.28     -16.36       2.32        0.00      99.32       3.32       0.00       2.07       ----

> <Gold.Chemscore.Fitness>
14.2831

> <Gold.Chemscore.DG>
-16.3590

> <Gold.Chemscore.ZeroCoef>
-5.4800

> <Gold.Chemscore.Hbond>
2.3230

> <Gold.Chemscore.Metal>
0.0000

> <Gold.Chemscore.Lipo>
99.3194

> <Gold.Chemscore.Internal_Hbond>
0.0000

> <Gold.Chemscore.DEClash>
0.0033

> <Gold.Chemscore.DEInternal>
2.0727

> <Gold.Chemscore.Rot>
3.3203

> <Gold.Chemscore.Internal.Correction>
   9.000000E+99

> <Gold.Chemscore.Hbonds>
donor molecule, donor type, donor heavy atom, donor atom, acceptor molecule, acceptor atom, score
      L1  H     1    31       P1 10957  0.93
      P1  H  6934  6947       L1    21  0.75
      P1  H 11000 11005       L1     1  0.27

> <Gold.Chemscore.Hbond.Weighted>
-7.7587

> <Gold.Chemscore.Metal.Weighted>
-0.0000

> <Gold.Chemscore.Lipo.Weighted>
-11.6204

> <Gold.Chemscore.Internal_Hbond.Weighted>
0.0000

> <Gold.Chemscore.DEClash.Weighted>
0.0033

> <Gold.Chemscore.DEInternal.Weighted>
2.0727

> <Gold.Chemscore.Rot.Weighted>
8.5000

> <Gold.Chemscore.Internal.Correction.Weighted>
   9.000000E+99

> <Gold.Protein.RotatedTorsions>
[ 6907 6896 6895 6894 ] final   77.04 input  -60.11 | X-H torsion
[ 7974 7965 7964 7962 ] final  -68.52 input  175.53 | X-H torsion
[ 8008 7997 7996 7995 ] final    6.73 input   59.86 | X-H torsion
[ 10167 10162 10161 10158 ] final   77.04 input  -65.29 | X-H torsion
[ 10718 10713 10712 10709 ] final  125.39 input   66.30 | X-H torsion
[ 10763 10752 10751 10750 ] final  -48.94 input  -60.55 | X-H torsion
[ 11005 11000 10999 10996 ] final   28.03 input  -57.11 | X-H torsion

> <Gold.Protein.ActiveResidues>
 VAL166  LYS551  ARG553  GLY616  TRP617  ASP618  TYR619  PRO620  LYS621  CYS622 
 ASP623  PHE694  ASN695  SER759  ASP760  ASP761  ALA762  ILE779  LEU786  VAL792 
 PHE793  MET794  SER795  GLU796  ALA797  LYS798  CYS799  TRP800  GLU811  SER814 

> <Gold.Protein.RotatedAtoms>
  152.5100  134.3877  159.9372 H   0  0  0  0  0  0  0  0  0  0  0  0  # atno 6907 bound_to 6896
  151.3836  133.3806  159.2720 H   0  0  0  0  0  0  0  0  0  0  0  0  # atno 6908 bound_to 6896
  150.9486  134.8908  159.7716 H   0  0  0  0  0  0  0  0  0  0  0  0  # atno 6909 bound_to 6896
  145.7154  140.9061  143.0658 H   0  0  0  0  0  0  0  0  0  0  0  0  # atno 7974 bound_to 7965
  154.7447  140.2755  155.6343 H   0  0  0  0  0  0  0  0  0  0  0  0  # atno 8008 bound_to 7997
  156.2882  140.2690  156.2110 H   0  0  0  0  0  0  0  0  0  0  0  0  # atno 8009 bound_to 7997
  155.0213  140.0371  157.2428 H   0  0  0  0  0  0  0  0  0  0  0  0  # atno 8010 bound_to 7997
  139.9858  144.5793  150.7860 H   0  0  0  0  0  0  0  0  0  0  0  0  # atno 10167 bound_to 10162
  157.5507  131.1094  150.8707 H   0  0  0  0  0  0  0  0  0  0  0  0  # atno 10718 bound_to 10713
  154.0860  135.6584  153.4845 H   0  0  0  0  0  0  0  0  0  0  0  0  # atno 10763 bound_to 10752
  153.0339  135.5191  154.7427 H   0  0  0  0  0  0  0  0  0  0  0  0  # atno 10764 bound_to 10752
  154.6537  135.3005  154.9923 H   0  0  0  0  0  0  0  0  0  0  0  0  # atno 10765 bound_to 10752
  140.3199  134.2555  155.7719 H   0  0  0  0  0  0  0  0  0  0  0  0  # atno 11005 bound_to 11000
  144.6930  139.9131  143.7464 LP  0  0  0  0  0  0  0  0  0  0  0  0  # atno 17320 bound_to 7965
  146.0674  139.3664  143.0544 LP  0  0  0  0  0  0  0  0  0  0  0  0  # atno 17321 bound_to 7965
  140.7472  143.2903  151.3348 LP  0  0  0  0  0  0  0  0  0  0  0  0  # atno 17342 bound_to 10162
  139.6376  144.0601  152.2528 LP  0  0  0  0  0  0  0  0  0  0  0  0  # atno 17343 bound_to 10162
  156.9233  130.5323  149.5279 LP  0  0  0  0  0  0  0  0  0  0  0  0  # atno 17370 bound_to 10713
  156.0574  130.5633  150.9121 LP  0  0  0  0  0  0  0  0  0  0  0  0  # atno 17371 bound_to 10713
  141.2089  133.7765  157.0031 LP  0  0  0  0  0  0  0  0  0  0  0  0  # atno 17394 bound_to 11000
  140.0951  134.9569  157.1836 LP  0  0  0  0  0  0  0  0  0  0  0  0  # atno 17395 bound_to 11000

$$$$
