AV-unprocessed.smi:1717|AV-procd|sdf|6921|dock4
  -GOLD-   22720 8123D 1   1.00000     0.00000
 Structure written by MMmdl.
 40 41  0  0  0  0  0  0  0  0  3 V2000
  152.1615  140.6145  157.6237 C   0  0  0  0  0  0  0  0  0  0  0  0
  152.4811  139.7793  156.4718 N   0  5  0  0  0  0  0  0  0  0  0  0
  151.5848  139.4731  155.4958 C   0  0  0  0  0  0  0  0  0  0  0  0
  150.7772  140.1856  154.8904 O   0  0  0  0  0  0  0  0  0  0  0  0
  151.6636  137.9892  155.1183 C   0  0  0  0  0  0  0  0  0  0  0  0
  150.4162  137.2928  155.5202 N   0  3  2  0  0  0  0  0  0  0  0  0
  150.4745  135.8334  155.2540 C   0  0  0  0  0  0  0  0  0  0  0  0
  149.2383  135.1151  155.8230 C   0  0  0  0  0  0  0  0  0  0  0  0
  147.9222  135.7138  155.2879 C   0  0  2  0  0  0  0  0  0  0  0  0
  147.7082  135.3922  153.8770 N   0  0  0  0  0  0  0  0  0  0  0  0
  146.6425  134.7443  153.3843 C   0  0  0  0  0  0  0  0  0  0  0  0
  145.7245  134.3162  154.0835 O   0  0  0  0  0  0  0  0  0  0  0  0
  146.7123  134.6329  152.0480 N   0  0  0  0  0  0  0  0  0  0  0  0
  145.7671  134.0171  151.1896 C   0  0  0  0  0  0  0  0  0  0  0  0
  145.9279  132.8906  150.3302 C   0  0  0  0  0  0  0  0  0  0  0  0
  144.8047  132.6187  149.6807 N   0  0  0  0  0  0  0  0  0  0  0  0
  143.9329  133.5569  150.1139 N   0  0  0  0  0  0  0  0  0  0  0  0
  144.4774  134.4284  151.0310 C   0  0  0  0  0  0  0  0  0  0  0  0
  147.9186  137.2375  155.5009 C   0  0  0  0  0  0  0  0  0  0  0  0
  149.1888  137.9046  154.9431 C   0  0  0  0  0  0  0  0  0  0  0  0
  142.9812  133.5888  149.7771 H   0  0  0  0  0  0  0  0  0  0  0  0
  153.0150  140.7267  158.2921 H   0  0  0  0  0  0  0  0  0  0  0  0
  151.3501  140.2033  158.2250 H   0  0  0  0  0  0  0  0  0  0  0  0
  151.8617  141.6224  157.3350 H   0  0  0  0  0  0  0  0  0  0  0  0
  151.8674  137.8293  154.0572 H   0  0  0  0  0  0  0  0  0  0  0  0
  152.5137  137.5723  155.6599 H   0  0  0  0  0  0  0  0  0  0  0  0
  150.5563  135.6600  154.1798 H   0  0  0  0  0  0  0  0  0  0  0  0
  151.3703  135.4117  155.7112 H   0  0  0  0  0  0  0  0  0  0  0  0
  149.2932  134.0475  155.6071 H   0  0  0  0  0  0  0  0  0  0  0  0
  149.2501  135.2009  156.9104 H   0  0  0  0  0  0  0  0  0  0  0  0
  147.0894  135.2937  155.8552 H   0  0  0  0  0  0  0  0  0  0  0  0
  148.4118  135.7086  153.2261 H   0  0  0  0  0  0  0  0  0  0  0  0
  147.5165  135.0418  151.5959 H   0  0  0  0  0  0  0  0  0  0  0  0
  146.7944  132.2716  150.1521 H   0  0  0  0  0  0  0  0  0  0  0  0
  143.9153  135.2369  151.4746 H   0  0  0  0  0  0  0  0  0  0  0  0
  147.0314  137.6822  155.0483 H   0  0  0  0  0  0  0  0  0  0  0  0
  147.8500  137.4482  156.5690 H   0  0  0  0  0  0  0  0  0  0  0  0
  149.1537  138.9699  155.1713 H   0  0  0  0  0  0  0  0  0  0  0  0
  149.2160  137.8203  153.8557 H   0  0  0  0  0  0  0  0  0  0  0  0
  150.3554  137.3984  156.5230 H   0  0  0  0  0  0  0  0  0  0  0  0
  1  2  1  0  0  0  0
  1 22  1  0  0  0  0
  1 23  1  0  0  0  0
  1 24  1  0  0  0  0
  2  3  1  0  0  0  0
  3  4  2  0  0  0  0
  3  5  1  0  0  0  0
  5  6  1  0  0  0  0
  5 25  1  0  0  0  0
  5 26  1  0  0  0  0
  6 20  1  0  0  0  0
  6  7  1  0  0  0  0
  6 40  1  0  0  0  0
  7  8  1  0  0  0  0
  7 27  1  0  0  0  0
  7 28  1  0  0  0  0
  8  9  1  0  0  0  0
  8 29  1  0  0  0  0
  8 30  1  0  0  0  0
  9 10  1  0  0  0  0
  9 19  1  0  0  0  0
  9 31  1  0  0  0  0
 10 11  1  0  0  0  0
 10 32  1  0  0  0  0
 11 12  2  0  0  0  0
 11 13  1  0  0  0  0
 13 14  1  0  0  0  0
 13 33  1  0  0  0  0
 14 18  2  0  0  0  0
 14 15  1  0  0  0  0
 15 16  2  0  0  0  0
 15 34  1  0  0  0  0
 16 17  1  0  0  0  0
 17 21  1  0  0  0  0
 17 18  1  0  0  0  0
 18 35  1  0  0  0  0
 19 20  1  0  0  0  0
 19 36  1  0  0  0  0
 19 37  1  0  0  0  0
 20 38  1  0  0  0  0
 20 39  1  0  0  0  0
M  CHG  1   2  -1
M  CHG  1   6   1
M  END
> <s_m_source_file>
AV-unprocessed.smi

> <i_m_source_file_index>
1717

> <i_lp_mmshare_version>
43012

> <i_f3d_flags>
0

> <s_epik_input>
W0NIM11bTkhdQyg9TylbQ0gyXU4xW0NIMl1bQ0gyXVtDSF0oW0NIMl1bQ0gyXTEpW05IXUMoPU8pW05IXWMyW2NIXW5bbkhdW2NIXTI=

> <s_epik_cmdline>
J2VwaWtfcHl0aG9uJywgJy1waCcsICc3LjAnLCAnLXRuJywgJzgnLCAnLW1hJywgJzIwMCcsICctbWV0YWxfYmluZGluZycsICctaW1hZScsICc8aW5maWxlLm1hZT4nLCAnLW9tYWUnLCAnPG91dGZpbGUubWFlPic=

> <r_lp_tautomer_probability>
0.5

> <r_epik_Ionization_Penalty>
6.1395

> <r_epik_Ionization_Penalty_Charging>
6.13946

> <r_epik_Ionization_Penalty_Neutral>
4.21226e-05

> <r_epik_State_Penalty>
6.9595

> <r_epik_Charging_Adjusted_Penalty>
13.099

> <i_epik_Tot_Q>
0

> <i_epik_Tot_abs_Q>
2

> <r_epik_Metal_State_Penalty>
2.89141

> <b_epik_Metal_Only>
1

> <s_lp_Force_Field>
OPLS_2005

> <r_lp_Energy>
13.1948

> <b_lp_Chiralities_Consistent>
1

> <s_lp_Variant>
AV-unprocessed.smi:1717-5

> <Gold.Version>
5.8.1

> <Gold.Id.Protein>
6NUR|6NUR_protein|mol2

> <Gold.PLP.Fitness>
43.2249

> <Gold.PLP.PLP>
-25.8494

> <Gold.PLP.part.hbond>
-4.8193

> <Gold.PLP.part.metal>
0.0000

> <Gold.PLP.part.buried>
-5.5748

> <Gold.PLP.part.nonpolar>
-16.4217

> <Gold.PLP.part.repulsive>
0.4199

> <Gold.PLP.ligand.clash>
0.0000

> <Gold.PLP.ligand.torsion>
1.0326

> <Gold.PLP.Chemscore.Hbond>
5.7083

> <Gold.PLP.Chemscore.CHOScore>
0.7537

> <Gold.PLP.Chemscore.Metal>
0.0000

> <Gold.Chemscore.Hbonds>
donor molecule, donor type, donor heavy atom, donor atom, acceptor molecule, acceptor atom, score
      L1  H    10    32       P1  7948  1.00
      L1  H    13    33       P1  7948  0.90
      L1  H    17    21       P1 10186  0.70
      P1  H  7989  7998       L1     4  1.00
      P1  H  7997  8008       L1     2  2.00
      L1  C    15    34       P1 10747  0.84

> <Gold.PLP.Chemscore.Internal.Correction>
0.0549

> <Gold.Rescore>
     Score         DG    S(hbond)    S(metal)    S(lipo)     H(rot)  DE(clash)    DE(int)     intcor
     18.73     -21.38       4.65        0.00      41.58       1.75       0.03       2.62       ----

> <Gold.Chemscore.Fitness>
18.7259

> <Gold.Chemscore.DG>
-21.3801

> <Gold.Chemscore.ZeroCoef>
-5.4800

> <Gold.Chemscore.Hbond>
4.6489

> <Gold.Chemscore.Metal>
0.0000

> <Gold.Chemscore.Lipo>
41.5760

> <Gold.Chemscore.Internal_Hbond>
0.0000

> <Gold.Chemscore.DEClash>
0.0348

> <Gold.Chemscore.DEInternal>
2.6194

> <Gold.Chemscore.Rot>
1.7546

> <Gold.Chemscore.Internal.Correction>
   9.000000E+99

> <Gold.Chemscore.Hbonds>
donor molecule, donor type, donor heavy atom, donor atom, acceptor molecule, acceptor atom, score
      L1  H    10    32       P1  7948  0.93
      L1  H    13    33       P1  7948  0.62
      L1  H    17    21       P1 10186  0.68
      P1  H  7989  7998       L1     4  0.60
      P1  H  7997  8008       L1     2  0.26

> <Gold.Chemscore.Hbond.Weighted>
-15.5274

> <Gold.Chemscore.Metal.Weighted>
-0.0000

> <Gold.Chemscore.Lipo.Weighted>
-4.8644

> <Gold.Chemscore.Internal_Hbond.Weighted>
0.0000

> <Gold.Chemscore.DEClash.Weighted>
0.0348

> <Gold.Chemscore.DEInternal.Weighted>
2.6194

> <Gold.Chemscore.Rot.Weighted>
4.4917

> <Gold.Chemscore.Internal.Correction.Weighted>
   9.000000E+99

> <Gold.Protein.RotatedTorsions>
[ 6907 6896 6895 6894 ] final  116.52 input  -60.11 | X-H torsion
[ 7974 7965 7964 7962 ] final -123.16 input  175.53 | X-H torsion
[ 8008 7997 7996 7995 ] final  -41.63 input   59.86 | X-H torsion
[ 10167 10162 10161 10158 ] final -103.90 input  -65.29 | X-H torsion
[ 10718 10713 10712 10709 ] final  -59.05 input   66.30 | X-H torsion
[ 10763 10752 10751 10750 ] final   -4.52 input  -60.55 | X-H torsion
[ 11005 11000 10999 10996 ] final  -78.89 input  -57.11 | X-H torsion

> <Gold.Protein.ActiveResidues>
 VAL166  LYS551  ARG553  GLY616  TRP617  ASP618  TYR619  PRO620  LYS621  CYS622 
 ASP623  PHE694  ASN695  SER759  ASP760  ASP761  ALA762  ILE779  LEU786  VAL792 
 PHE793  MET794  SER795  GLU796  ALA797  LYS798  CYS799  TRP800  GLU811  SER814 

> <Gold.Protein.RotatedAtoms>
  152.4673  133.7950  159.6922 H   0  0  0  0  0  0  0  0  0  0  0  0  # atno 6907 bound_to 6896
  150.8643  133.7587  159.2988 H   0  0  0  0  0  0  0  0  0  0  0  0  # atno 6908 bound_to 6896
  151.5143  135.1069  159.9914 H   0  0  0  0  0  0  0  0  0  0  0  0  # atno 6909 bound_to 6896
  145.0217  140.7994  143.4377 H   0  0  0  0  0  0  0  0  0  0  0  0  # atno 7974 bound_to 7965
  154.4003  140.1494  156.3223 H   0  0  0  0  0  0  0  0  0  0  0  0  # atno 8008 bound_to 7997
  155.8518  140.3457  155.5677 H   0  0  0  0  0  0  0  0  0  0  0  0  # atno 8009 bound_to 7997
  155.7976  140.0865  157.1965 H   0  0  0  0  0  0  0  0  0  0  0  0  # atno 8010 bound_to 7997
  140.2150  143.3718  152.1018 H   0  0  0  0  0  0  0  0  0  0  0  0  # atno 10167 bound_to 10162
  156.1090  130.4177  150.0661 H   0  0  0  0  0  0  0  0  0  0  0  0  # atno 10718 bound_to 10713
  153.3860  135.7000  153.6530 H   0  0  0  0  0  0  0  0  0  0  0  0  # atno 10763 bound_to 10752
  153.5122  135.3629  155.2592 H   0  0  0  0  0  0  0  0  0  0  0  0  # atno 10764 bound_to 10752
  154.8697  135.4137  154.3167 H   0  0  0  0  0  0  0  0  0  0  0  0  # atno 10765 bound_to 10752
  141.1666  133.7082  156.8040 H   0  0  0  0  0  0  0  0  0  0  0  0  # atno 11005 bound_to 11000
  145.1887  139.2313  143.5254 LP  0  0  0  0  0  0  0  0  0  0  0  0  # atno 17320 bound_to 7965
  146.3486  140.1678  142.8590 LP  0  0  0  0  0  0  0  0  0  0  0  0  # atno 17321 bound_to 7965
  139.5165  144.6979  151.5578 LP  0  0  0  0  0  0  0  0  0  0  0  0  # atno 17342 bound_to 10162
  140.6296  143.9101  150.6594 LP  0  0  0  0  0  0  0  0  0  0  0  0  # atno 17343 bound_to 10162
  156.8629  130.9498  151.3616 LP  0  0  0  0  0  0  0  0  0  0  0  0  # atno 17370 bound_to 10713
  157.6270  130.8699  149.9206 LP  0  0  0  0  0  0  0  0  0  0  0  0  # atno 17371 bound_to 10713
  140.2236  134.8739  157.3403 LP  0  0  0  0  0  0  0  0  0  0  0  0  # atno 17394 bound_to 11000
  140.1963  134.4310  155.7687 LP  0  0  0  0  0  0  0  0  0  0  0  0  # atno 17395 bound_to 11000

$$$$
