AV-unprocessed.smi:2238|AV-procd|sdf|9054|dock10
  -GOLD-   2272012263D 1   1.00000     0.00000
 Structure written by MMmdl.
 38 39  0  0  0  0  0  0  0  0  1 V2000
  152.0286  145.0541  158.9719 C   0  0  0  0  0  0  0  0  0  0  0  0
  151.9345  143.5468  158.8526 C   0  0  0  0  0  0  0  0  0  0  0  0
  152.5884  142.7179  159.7852 C   0  0  0  0  0  0  0  0  0  0  0  0
  152.4959  141.3194  159.6669 C   0  0  0  0  0  0  0  0  0  0  0  0
  151.7521  140.7450  158.6179 C   0  0  0  0  0  0  0  0  0  0  0  0
  151.6568  139.0246  158.4944 Cl  0  0  0  0  0  0  0  0  0  0  0  0
  151.0924  141.5621  157.6733 C   0  0  0  0  0  0  0  0  0  0  0  0
  150.3857  140.9284  156.6731 O   0  0  0  0  0  0  0  0  0  0  0  0
  149.7999  141.7195  155.6465 C   0  0  0  0  0  0  0  0  0  0  0  0
  149.0801  140.8107  154.6351 C   0  0  2  0  0  0  0  0  0  0  0  0
  149.6557  141.0487  153.3662 O   0  0  0  0  0  0  0  0  0  0  0  0
  147.5521  141.0419  154.5913 C   0  0  0  0  0  0  0  0  0  0  0  0
  146.8318  139.8812  154.0426 N   0  0  0  0  0  0  0  0  0  0  0  0
  147.1384  139.5182  152.7159 C   0  0  0  0  0  0  0  0  0  0  0  0
  146.5653  138.5133  152.1333 N   0  0  0  0  0  0  0  0  0  0  0  0
  145.6128  137.7629  152.8294 C   0  0  0  0  0  0  0  0  0  0  0  0
  144.9782  136.5991  152.0962 C   0  0  0  0  0  0  0  0  0  0  0  0
  145.2744  138.0770  154.1014 C   0  0  0  0  0  0  0  0  0  0  0  0
  145.9035  139.2085  154.7831 C   0  0  0  0  0  0  0  0  0  0  0  0
  145.6154  139.5307  155.9358 O   0  0  0  0  0  0  0  0  0  0  0  0
  151.1912  142.9712  157.8019 C   0  0  0  0  0  0  0  0  0  0  0  0
  152.4308  145.3513  159.9409 H   0  0  0  0  0  0  0  0  0  0  0  0
  151.0429  145.5071  158.8618 H   0  0  0  0  0  0  0  0  0  0  0  0
  152.6797  145.4537  158.1942 H   0  0  0  0  0  0  0  0  0  0  0  0
  153.1621  143.1494  160.5925 H   0  0  0  0  0  0  0  0  0  0  0  0
  152.9980  140.6859  160.3834 H   0  0  0  0  0  0  0  0  0  0  0  0
  149.1076  142.4550  156.0602 H   0  0  0  0  0  0  0  0  0  0  0  0
  150.5894  142.2638  155.1257 H   0  0  0  0  0  0  0  0  0  0  0  0
  149.2966  139.7754  154.9026 H   0  0  0  0  0  0  0  0  0  0  0  0
  149.2991  140.4253  152.7515 H   0  0  0  0  0  0  0  0  0  0  0  0
  147.1898  141.2405  155.6021 H   0  0  0  0  0  0  0  0  0  0  0  0
  147.3147  141.9548  154.0414 H   0  0  0  0  0  0  0  0  0  0  0  0
  147.8836  140.1420  152.2193 H   0  0  0  0  0  0  0  0  0  0  0  0
  144.5862  135.8607  152.7965 H   0  0  0  0  0  0  0  0  0  0  0  0
  145.7079  136.1022  151.4562 H   0  0  0  0  0  0  0  0  0  0  0  0
  144.1564  136.9502  151.4719 H   0  0  0  0  0  0  0  0  0  0  0  0
  144.5334  137.4912  154.6254 H   0  0  0  0  0  0  0  0  0  0  0  0
  150.7032  143.6336  157.1033 H   0  0  0  0  0  0  0  0  0  0  0  0
  1  2  1  0  0  0  0
  1 22  1  0  0  0  0
  1 23  1  0  0  0  0
  1 24  1  0  0  0  0
  2 21  1  0  0  0  0
  2  3  2  0  0  0  0
  3  4  1  0  0  0  0
  3 25  1  0  0  0  0
  4  5  2  0  0  0  0
  4 26  1  0  0  0  0
  5  6  1  0  0  0  0
  5  7  1  0  0  0  0
  7  8  1  0  0  0  0
  7 21  2  0  0  0  0
  8  9  1  0  0  0  0
  9 10  1  0  0  0  0
  9 27  1  0  0  0  0
  9 28  1  0  0  0  0
 10 11  1  0  0  0  0
 10 12  1  0  0  0  0
 10 29  1  0  0  0  0
 11 30  1  0  0  0  0
 12 13  1  0  0  0  0
 12 31  1  0  0  0  0
 12 32  1  0  0  0  0
 13 19  1  0  0  0  0
 13 14  1  0  0  0  0
 14 15  2  0  0  0  0
 14 33  1  0  0  0  0
 15 16  1  0  0  0  0
 16 17  1  0  0  0  0
 16 18  2  0  0  0  0
 17 34  1  0  0  0  0
 17 35  1  0  0  0  0
 17 36  1  0  0  0  0
 18 19  1  0  0  0  0
 18 37  1  0  0  0  0
 19 20  2  0  0  0  0
 21 38  1  0  0  0  0
M  END
> <s_m_source_file>
AV-unprocessed.smi

> <i_m_source_file_index>
2238

> <i_lp_mmshare_version>
43012

> <i_f3d_flags>
0

> <s_epik_input>
W0NIM11jMVtjSF1bY0hdYyhDbCljKFtjSF0xKU9bQ0gyXVtDQEhdKFtPSF0pW0NIMl1uMltjSF1uYyhbQ0gzXSlbY0hdYzI9Tw==

> <s_epik_cmdline>
J2VwaWtfcHl0aG9uJywgJy1waCcsICc3LjAnLCAnLXRuJywgJzgnLCAnLW1hJywgJzIwMCcsICctbWV0YWxfYmluZGluZycsICctaW1hZScsICc8aW5maWxlLm1hZT4nLCAnLW9tYWUnLCAnPG91dGZpbGUubWFlPic=

> <r_lp_tautomer_probability>
1

> <r_epik_Ionization_Penalty>
1.78029e-05

> <r_epik_Ionization_Penalty_Charging>
3.78421e-08

> <r_epik_Ionization_Penalty_Neutral>
1.7765e-05

> <r_epik_State_Penalty>
-0

> <r_epik_Charging_Adjusted_Penalty>
3.78421e-08

> <i_epik_Tot_Q>
0

> <i_epik_Tot_abs_Q>
0

> <r_epik_Metal_State_Penalty>
-0

> <b_epik_Metal_Only>
0

> <s_lp_Force_Field>
OPLS_2005

> <r_lp_Energy>
23.6885

> <b_lp_Chiralities_Consistent>
1

> <s_lp_Variant>
AV-unprocessed.smi:2238-1

> <Gold.Version>
5.8.1

> <Gold.Id.Protein>
6NUR|6NUR_protein|mol2

> <Gold.PLP.Fitness>
46.7302

> <Gold.PLP.PLP>
-40.1719

> <Gold.PLP.part.hbond>
-2.3121

> <Gold.PLP.part.metal>
0.0000

> <Gold.PLP.part.buried>
-2.9311

> <Gold.PLP.part.nonpolar>
-34.9519

> <Gold.PLP.part.repulsive>
0.4020

> <Gold.PLP.ligand.clash>
0.0000

> <Gold.PLP.ligand.torsion>
0.9821

> <Gold.PLP.Chemscore.Hbond>
1.8320

> <Gold.PLP.Chemscore.CHOScore>
1.0000

> <Gold.PLP.Chemscore.Metal>
0.0000

> <Gold.Chemscore.Hbonds>
donor molecule, donor type, donor heavy atom, donor atom, acceptor molecule, acceptor atom, score
      L1  H    11    30       P1  7957  0.69
      P1  H  7989  7998       L1    11  0.19
      P1  H  8011  8017       L1    11  0.95
      L1  C    14    33       P1  7957  0.94

> <Gold.PLP.Chemscore.Internal.Correction>
0.0265

> <Gold.Rescore>
     Score         DG    S(hbond)    S(metal)    S(lipo)     H(rot)  DE(clash)    DE(int)     intcor
     14.79     -16.01       1.42        0.00     103.43       2.47       0.01       1.21       ----

> <Gold.Chemscore.Fitness>
14.7901

> <Gold.Chemscore.DG>
-16.0096

> <Gold.Chemscore.ZeroCoef>
-5.4800

> <Gold.Chemscore.Hbond>
1.4241

> <Gold.Chemscore.Metal>
0.0000

> <Gold.Chemscore.Lipo>
103.4280

> <Gold.Chemscore.Internal_Hbond>
0.0000

> <Gold.Chemscore.DEClash>
0.0073

> <Gold.Chemscore.DEInternal>
1.2122

> <Gold.Chemscore.Rot>
2.4718

> <Gold.Chemscore.Internal.Correction>
   9.000000E+99

> <Gold.Chemscore.Hbonds>
donor molecule, donor type, donor heavy atom, donor atom, acceptor molecule, acceptor atom, score
      L1  H    11    30       P1  7957  0.68
      P1  H  7989  7998       L1    11  0.12
      P1  H  8011  8017       L1    11  0.21

> <Gold.Chemscore.Hbond.Weighted>
-4.7564

> <Gold.Chemscore.Metal.Weighted>
-0.0000

> <Gold.Chemscore.Lipo.Weighted>
-12.1011

> <Gold.Chemscore.Internal_Hbond.Weighted>
0.0000

> <Gold.Chemscore.DEClash.Weighted>
0.0073

> <Gold.Chemscore.DEInternal.Weighted>
1.2122

> <Gold.Chemscore.Rot.Weighted>
6.3279

> <Gold.Chemscore.Internal.Correction.Weighted>
   9.000000E+99

> <Gold.Protein.RotatedTorsions>
[ 6907 6896 6895 6894 ] final  116.47 input  -60.11 | X-H torsion
[ 7974 7965 7964 7962 ] final  -72.28 input  175.53 | X-H torsion
[ 8008 7997 7996 7995 ] final  -21.76 input   59.86 | X-H torsion
[ 10167 10162 10161 10158 ] final   26.75 input  -65.29 | X-H torsion
[ 10718 10713 10712 10709 ] final -138.19 input   66.30 | X-H torsion
[ 10763 10752 10751 10750 ] final  -83.38 input  -60.55 | X-H torsion
[ 11005 11000 10999 10996 ] final  175.24 input  -57.11 | X-H torsion

> <Gold.Protein.ActiveResidues>
 VAL166  LYS551  ARG553  GLY616  TRP617  ASP618  TYR619  PRO620  LYS621  CYS622 
 ASP623  PHE694  ASN695  SER759  ASP760  ASP761  ALA762  ILE779  LEU786  VAL792 
 PHE793  MET794  SER795  GLU796  ALA797  LYS798  CYS799  TRP800  GLU811  SER814 

> <Gold.Protein.RotatedAtoms>
  152.4676  133.7957  159.6925 H   0  0  0  0  0  0  0  0  0  0  0  0  # atno 6907 bound_to 6896
  150.8648  133.7581  159.2987 H   0  0  0  0  0  0  0  0  0  0  0  0  # atno 6908 bound_to 6896
  151.5135  135.1069  159.9912 H   0  0  0  0  0  0  0  0  0  0  0  0  # atno 6909 bound_to 6896
  145.6672  140.9233  143.0902 H   0  0  0  0  0  0  0  0  0  0  0  0  # atno 7974 bound_to 7965
  154.4686  140.2026  156.0054 H   0  0  0  0  0  0  0  0  0  0  0  0  # atno 8008 bound_to 7997
  156.0970  140.3249  155.7862 H   0  0  0  0  0  0  0  0  0  0  0  0  # atno 8009 bound_to 7997
  155.4861  140.0542  157.2951 H   0  0  0  0  0  0  0  0  0  0  0  0  # atno 8010 bound_to 7997
  140.4997  144.0335  150.6328 H   0  0  0  0  0  0  0  0  0  0  0  0  # atno 10167 bound_to 10162
  156.2966  130.7405  151.1445 H   0  0  0  0  0  0  0  0  0  0  0  0  # atno 10718 bound_to 10713
  154.5871  135.5558  153.7241 H   0  0  0  0  0  0  0  0  0  0  0  0  # atno 10763 bound_to 10752
  153.0102  135.6334  154.1902 H   0  0  0  0  0  0  0  0  0  0  0  0  # atno 10764 bound_to 10752
  154.1843  135.2885  155.3022 H   0  0  0  0  0  0  0  0  0  0  0  0  # atno 10765 bound_to 10752
  140.3601  134.7120  157.4325 H   0  0  0  0  0  0  0  0  0  0  0  0  # atno 11005 bound_to 11000
  144.7069  139.8525  143.7427 LP  0  0  0  0  0  0  0  0  0  0  0  0  # atno 17320 bound_to 7965
  146.1076  139.4077  143.0308 LP  0  0  0  0  0  0  0  0  0  0  0  0  # atno 17321 bound_to 7965
  140.3628  143.2898  152.0365 LP  0  0  0  0  0  0  0  0  0  0  0  0  # atno 17342 bound_to 10162
  139.4869  144.6290  151.7107 LP  0  0  0  0  0  0  0  0  0  0  0  0  # atno 17343 bound_to 10162
  157.7357  131.0570  150.5456 LP  0  0  0  0  0  0  0  0  0  0  0  0  # atno 17370 bound_to 10713
  156.5579  130.4248  149.6077 LP  0  0  0  0  0  0  0  0  0  0  0  0  # atno 17371 bound_to 10713
  140.0634  134.5964  155.8723 LP  0  0  0  0  0  0  0  0  0  0  0  0  # atno 17394 bound_to 11000
  141.1987  133.6602  156.5804 LP  0  0  0  0  0  0  0  0  0  0  0  0  # atno 17395 bound_to 11000

$$$$
