AV-unprocessed.smi:2078|AV-procd|sdf|8467|dock5
  -GOLD-   2272011163D 1   1.00000     0.00000
 Structure written by MMmdl.
 41 42  0  0  0  0  0  0  0  0  3 V2000
  146.3445  134.8706  162.3868 C   0  0  0  0  0  0  0  0  0  0  0  0
  147.2866  135.5550  161.4565 C   0  0  0  0  0  0  0  0  0  0  0  0
  148.2315  135.0912  160.5859 C   0  0  0  0  0  0  0  0  0  0  0  0
  148.7656  136.2816  160.0216 C   0  0  0  0  0  0  0  0  0  0  0  0
  149.7294  136.3501  159.0902 N   0  5  0  0  0  0  0  0  0  0  0  0
  150.6607  137.3290  159.1451 C   0  0  0  0  0  0  0  0  0  0  0  0
  151.5029  137.4910  160.0317 O   0  0  0  0  0  0  0  0  0  0  0  0
  150.6122  138.1777  158.1084 N   0  0  0  0  0  0  0  0  0  0  0  0
  151.4844  139.3294  157.9130 C   0  0  0  0  0  0  0  0  0  0  0  0
  150.6719  140.5954  157.5822 C   0  0  0  0  0  0  0  0  0  0  0  0
  151.3413  141.8335  158.0523 N   0  3  1  0  0  0  0  0  0  0  0  0
  150.7001  143.0579  157.5079 C   0  0  0  0  0  0  0  0  0  0  0  0
  151.4897  144.3180  157.8978 C   0  0  0  0  0  0  0  0  0  0  0  0
  151.6492  144.4174  159.4200 C   0  0  0  0  0  0  0  0  0  0  0  0
  152.2873  143.1324  159.9742 C   0  0  1  0  0  0  0  0  0  0  0  0
  152.4331  143.1925  161.5014 C   0  0  0  0  0  0  0  0  0  0  0  0
  151.4738  141.8986  159.5331 C   0  0  0  0  0  0  0  0  0  0  0  0
  148.1853  137.3710  160.4961 N   0  0  0  0  0  0  0  0  0  0  0  0
  147.2385  136.9139  161.4208 O   0  0  0  0  0  0  0  0  0  0  0  0
  145.4808  134.4849  161.8450 H   0  0  0  0  0  0  0  0  0  0  0  0
  145.9844  135.5555  163.1548 H   0  0  0  0  0  0  0  0  0  0  0  0
  146.8335  134.0332  162.8849 H   0  0  0  0  0  0  0  0  0  0  0  0
  148.5009  134.0649  160.3867 H   0  0  0  0  0  0  0  0  0  0  0  0
  149.9092  138.0081  157.4035 H   0  0  0  0  0  0  0  0  0  0  0  0
  152.1019  139.4647  158.8012 H   0  0  0  0  0  0  0  0  0  0  0  0
  152.1665  139.1011  157.0939 H   0  0  0  0  0  0  0  0  0  0  0  0
  150.5481  140.6387  156.4991 H   0  0  0  0  0  0  0  0  0  0  0  0
  149.6662  140.5427  158.0022 H   0  0  0  0  0  0  0  0  0  0  0  0
  150.6465  142.9945  156.4204 H   0  0  0  0  0  0  0  0  0  0  0  0
  149.6742  143.1263  157.8734 H   0  0  0  0  0  0  0  0  0  0  0  0
  152.4730  144.2955  157.4260 H   0  0  0  0  0  0  0  0  0  0  0  0
  150.9844  145.2064  157.5176 H   0  0  0  0  0  0  0  0  0  0  0  0
  152.2606  145.2845  159.6730 H   0  0  0  0  0  0  0  0  0  0  0  0
  150.6734  144.5783  159.8807 H   0  0  0  0  0  0  0  0  0  0  0  0
  153.2896  143.0436  159.5521 H   0  0  0  0  0  0  0  0  0  0  0  0
  151.4622  143.2818  161.9897 H   0  0  0  0  0  0  0  0  0  0  0  0
  153.0380  144.0474  161.8049 H   0  0  0  0  0  0  0  0  0  0  0  0
  152.9170  142.2942  161.8859 H   0  0  0  0  0  0  0  0  0  0  0  0
  150.4806  141.9203  159.9850 H   0  0  0  0  0  0  0  0  0  0  0  0
  151.9657  141.0002  159.9043 H   0  0  0  0  0  0  0  0  0  0  0  0
  152.2765  141.8126  157.6713 H   0  0  0  0  0  0  0  0  0  0  0  0
  1  2  1  0  0  0  0
  1 20  1  0  0  0  0
  1 21  1  0  0  0  0
  1 22  1  0  0  0  0
  2 19  1  0  0  0  0
  2  3  2  0  0  0  0
  3  4  1  0  0  0  0
  3 23  1  0  0  0  0
  4  5  1  0  0  0  0
  4 18  2  0  0  0  0
  5  6  1  0  0  0  0
  6  7  2  0  0  0  0
  6  8  1  0  0  0  0
  8  9  1  0  0  0  0
  8 24  1  0  0  0  0
  9 10  1  0  0  0  0
  9 25  1  0  0  0  0
  9 26  1  0  0  0  0
 10 11  1  0  0  0  0
 10 27  1  0  0  0  0
 10 28  1  0  0  0  0
 11 17  1  0  0  0  0
 11 12  1  0  0  0  0
 11 41  1  0  0  0  0
 12 13  1  0  0  0  0
 12 29  1  0  0  0  0
 12 30  1  0  0  0  0
 13 14  1  0  0  0  0
 13 31  1  0  0  0  0
 13 32  1  0  0  0  0
 14 15  1  0  0  0  0
 14 33  1  0  0  0  0
 14 34  1  0  0  0  0
 15 16  1  0  0  0  0
 15 17  1  0  0  0  0
 15 35  1  0  0  0  0
 16 36  1  0  0  0  0
 16 37  1  0  0  0  0
 16 38  1  0  0  0  0
 17 39  1  0  0  0  0
 17 40  1  0  0  0  0
 18 19  1  0  0  0  0
M  CHG  1   5  -1
M  CHG  1  11   1
M  END
> <s_m_source_file>
AV-unprocessed.smi

> <i_m_source_file_index>
2078

> <i_lp_mmshare_version>
43012

> <i_f3d_flags>
0

> <s_epik_input>
W0NIM11jMVtjSF1jKG5vMSlbTkhdQyg9TylbTkhdW0NIMl1bQ0gyXU4yW0NIMl1bQ0gyXVtDSDJdW0NAQEhdKFtDSDNdKVtDSDJdMg==

> <s_epik_cmdline>
J2VwaWtfcHl0aG9uJywgJy1waCcsICc3LjAnLCAnLXRuJywgJzgnLCAnLW1hJywgJzIwMCcsICctbWV0YWxfYmluZGluZycsICctaW1hZScsICc8aW5maWxlLm1hZT4nLCAnLW9tYWUnLCAnPG91dGZpbGUubWFlPic=

> <r_epik_Ionization_Penalty>
6.22434

> <r_epik_Ionization_Penalty_Charging>
6.22425

> <r_epik_Ionization_Penalty_Neutral>
9.37855e-05

> <r_epik_State_Penalty>
6.22423

> <r_epik_Charging_Adjusted_Penalty>
12.4485

> <i_epik_Tot_Q>
0

> <i_epik_Tot_abs_Q>
2

> <r_epik_Metal_State_Penalty>
2.16764

> <b_epik_Metal_Only>
1

> <s_lp_Force_Field>
OPLS_2005

> <r_lp_Energy>
3.15807

> <b_lp_Chiralities_Consistent>
1

> <s_lp_Variant>
AV-unprocessed.smi:2078-5

> <Gold.Version>
5.8.1

> <Gold.Id.Protein>
6NUR|6NUR_protein|mol2

> <Gold.PLP.Fitness>
42.8368

> <Gold.PLP.PLP>
-38.7068

> <Gold.PLP.part.hbond>
-5.0743

> <Gold.PLP.part.metal>
0.0000

> <Gold.PLP.part.buried>
-2.8193

> <Gold.PLP.part.nonpolar>
-32.3323

> <Gold.PLP.part.repulsive>
0.1440

> <Gold.PLP.ligand.clash>
0.0000

> <Gold.PLP.ligand.torsion>
1.1752

> <Gold.PLP.Chemscore.Hbond>
2.1480

> <Gold.PLP.Chemscore.CHOScore>
0.0000

> <Gold.PLP.Chemscore.Metal>
0.0000

> <Gold.Chemscore.Hbonds>
donor molecule, donor type, donor heavy atom, donor atom, acceptor molecule, acceptor atom, score
      P1  H  6896  6909       L1     5  1.80
      P1  H  6931  6943       L1    18  0.30

> <Gold.PLP.Chemscore.Internal.Correction>
0.0363

> <Gold.Rescore>
     Score         DG    S(hbond)    S(metal)    S(lipo)     H(rot)  DE(clash)    DE(int)     intcor
     12.56     -13.67       0.01        0.00     103.47       1.54       0.15       0.96       ----

> <Gold.Chemscore.Fitness>
12.5581

> <Gold.Chemscore.DG>
-13.6712

> <Gold.Chemscore.ZeroCoef>
-5.4800

> <Gold.Chemscore.Hbond>
0.0088

> <Gold.Chemscore.Metal>
0.0000

> <Gold.Chemscore.Lipo>
103.4734

> <Gold.Chemscore.Internal_Hbond>
0.0000

> <Gold.Chemscore.DEClash>
0.1488

> <Gold.Chemscore.DEInternal>
0.9643

> <Gold.Chemscore.Rot>
1.5409

> <Gold.Chemscore.Internal.Correction>
   9.000000E+99

> <Gold.Chemscore.Hbonds>
donor molecule, donor type, donor heavy atom, donor atom, acceptor molecule, acceptor atom, score
      P1  H  6896  6909       L1     5  0.05
      P1  H  6931  6943       L1    18  0.01

> <Gold.Chemscore.Hbond.Weighted>
-0.0294

> <Gold.Chemscore.Metal.Weighted>
-0.0000

> <Gold.Chemscore.Lipo.Weighted>
-12.1064

> <Gold.Chemscore.Internal_Hbond.Weighted>
0.0000

> <Gold.Chemscore.DEClash.Weighted>
0.1488

> <Gold.Chemscore.DEInternal.Weighted>
0.9643

> <Gold.Chemscore.Rot.Weighted>
3.9446

> <Gold.Chemscore.Internal.Correction.Weighted>
   9.000000E+99

> <Gold.Protein.RotatedTorsions>
[ 6907 6896 6895 6894 ] final   66.06 input  -60.11 | X-H torsion
[ 7974 7965 7964 7962 ] final  129.90 input  175.53 | X-H torsion
[ 8008 7997 7996 7995 ] final  110.72 input   59.86 | X-H torsion
[ 10167 10162 10161 10158 ] final  -61.14 input  -65.29 | X-H torsion
[ 10718 10713 10712 10709 ] final  -40.30 input   66.30 | X-H torsion
[ 10763 10752 10751 10750 ] final -159.46 input  -60.55 | X-H torsion
[ 11005 11000 10999 10996 ] final  139.89 input  -57.11 | X-H torsion

> <Gold.Protein.ActiveResidues>
 VAL166  LYS551  ARG553  GLY616  TRP617  ASP618  TYR619  PRO620  LYS621  CYS622 
 ASP623  PHE694  ASN695  SER759  ASP760  ASP761  ALA762  ILE779  LEU786  VAL792 
 PHE793  MET794  SER795  GLU796  ALA797  LYS798  CYS799  TRP800  GLU811  SER814 

> <Gold.Protein.RotatedAtoms>
  152.4454  134.5506  159.9865 H   0  0  0  0  0  0  0  0  0  0  0  0  # atno 6907 bound_to 6896
  151.5592  133.3400  159.2976 H   0  0  0  0  0  0  0  0  0  0  0  0  # atno 6908 bound_to 6896
  150.8369  134.7678  159.6963 H   0  0  0  0  0  0  0  0  0  0  0  0  # atno 6909 bound_to 6896
  145.0237  139.4109  143.5185 H   0  0  0  0  0  0  0  0  0  0  0  0  # atno 7974 bound_to 7965
  156.2073  140.3033  155.9655 H   0  0  0  0  0  0  0  0  0  0  0  0  # atno 8008 bound_to 7997
  155.2810  140.0438  157.3032 H   0  0  0  0  0  0  0  0  0  0  0  0  # atno 8009 bound_to 7997
  154.5650  140.2331  155.8285 H   0  0  0  0  0  0  0  0  0  0  0  0  # atno 8010 bound_to 7997
  140.6026  143.2365  151.5895 H   0  0  0  0  0  0  0  0  0  0  0  0  # atno 10167 bound_to 10162
  156.2828  130.4219  149.8319 H   0  0  0  0  0  0  0  0  0  0  0  0  # atno 10718 bound_to 10713
  154.7472  135.3083  154.8622 H   0  0  0  0  0  0  0  0  0  0  0  0  # atno 10763 bound_to 10752
  153.9420  135.6773  153.4748 H   0  0  0  0  0  0  0  0  0  0  0  0  # atno 10764 bound_to 10752
  153.1069  135.4885  154.8893 H   0  0  0  0  0  0  0  0  0  0  0  0  # atno 10765 bound_to 10752
  140.0287  134.9362  157.0620 H   0  0  0  0  0  0  0  0  0  0  0  0  # atno 11005 bound_to 11000
  146.3489  139.9748  142.8702 LP  0  0  0  0  0  0  0  0  0  0  0  0  # atno 17320 bound_to 7965
  145.1862  140.9790  143.4237 LP  0  0  0  0  0  0  0  0  0  0  0  0  # atno 17321 bound_to 7965
  139.5301  144.2940  152.1128 LP  0  0  0  0  0  0  0  0  0  0  0  0  # atno 17342 bound_to 10162
  140.2124  144.4549  150.6380 LP  0  0  0  0  0  0  0  0  0  0  0  0  # atno 17343 bound_to 10162
  156.5760  130.8445  151.3370 LP  0  0  0  0  0  0  0  0  0  0  0  0  # atno 17370 bound_to 10713
  157.7320  130.9708  150.1905 LP  0  0  0  0  0  0  0  0  0  0  0  0  # atno 17371 bound_to 10713
  140.4262  134.1829  155.7166 LP  0  0  0  0  0  0  0  0  0  0  0  0  # atno 17394 bound_to 11000
  141.1818  133.8397  157.1229 LP  0  0  0  0  0  0  0  0  0  0  0  0  # atno 17395 bound_to 11000

$$$$
