#       Name:                AV-unprocessed.smi:2600
#       Creating user name   scv26
#       Creation time:       Fri Mar 27 14:19:34 2020


#       File generated by GOLD software.
#

@<TRIPOS>MOLECULE
AV-unprocessed.smi:2600
    49    50     1
SMALL
NO_CHARGES


@<TRIPOS>ATOM
      1 ****        -3.6910  -0.0580   3.2217 C.3            1 S1                 0.0000
      2 ****        -3.2528  -0.7033   1.8967 C.3            1 S1                 0.0000
      3 ****        -2.1868   0.0803   1.0943 C.3            1 S1                 0.0000
      4 ****        -1.9555  -0.6539  -0.2459 C.3            1 S1                 0.0000
      5 ****        -0.8665   0.2372   1.8952 C.3            1 S1                 0.0000
      6 ****         0.0414   1.1473   1.1822 N.am           1 S1                 0.0000
      7 ****         1.2291   0.8359   0.6063 C.2            1 S1                 0.0000
      8 ****         1.8850   1.6397  -0.0573 O.2            1 S1                 0.0000
      9 ****         1.6475  -0.4229   0.8273 N.am           1 S1                 0.0000
     10 ****         2.8878  -1.0127   0.3288 C.3            1 S1                 0.0000
     11 ****         2.6569  -1.9115  -0.9013 C.3            1 S1                 0.0000
     12 ****         1.9535  -1.2494  -2.0473 C.2            1 S1                 0.0000
     13 ****         0.6991  -1.4681  -2.5437 C.2            1 S1                 0.0000
     14 ****         0.5790  -0.5356  -3.6098 C.2            1 S1                 0.0000
     15 ****         1.6699   0.1919  -3.7715 N.2            1 S1                 0.0000
     16 ****         2.5191  -0.2479  -2.8186 N.pl3          1 S1                 0.0000
     17 ****         3.8342   0.3566  -2.7244 C.3            1 S1                 0.0000
     18 ****        -0.5747   2.4702   1.0607 C.3            1 S1                 0.0000
     19 ****        -1.8638   2.3327   0.2350 C.3            1 S1                 0.0000
     20 ****        -2.7408   1.3780   0.8379 O.3            1 S1                 0.0000
     21 ****        -4.5116  -0.6215   3.6664 H              1 S1                 0.0000
     22 ****        -4.0387   0.9646   3.0738 H              1 S1                 0.0000
     23 ****        -2.8838  -0.0395   3.9530 H              1 S1                 0.0000
     24 ****        -2.8887  -1.7112   2.1004 H              1 S1                 0.0000
     25 ****        -4.1405  -0.8284   1.2754 H              1 S1                 0.0000
     26 ****        -1.5943  -1.6688  -0.0774 H              1 S1                 0.0000
     27 ****        -1.2207  -0.1562  -0.8765 H              1 S1                 0.0000
     28 ****        -2.8788  -0.7244  -0.8214 H              1 S1                 0.0000
     29 ****        -1.0556   0.6739   2.8755 H              1 S1                 0.0000
     30 ****        -0.4407  -0.7453   2.0981 H              1 S1                 0.0000
     31 ****         1.0555  -1.0201   1.3863 H              1 S1                 0.0000
     32 ****         3.6174  -0.2360   0.0962 H              1 S1                 0.0000
     33 ****         3.3288  -1.6037   1.1314 H              1 S1                 0.0000
     34 ****         3.6135  -2.3073  -1.2428 H              1 S1                 0.0000
     35 ****         2.0775  -2.7823  -0.5919 H              1 S1                 0.0000
     36 ****        -0.0297  -2.1819  -2.1899 H              1 S1                 0.0000
     37 ****        -0.2619  -0.3682  -4.2667 H              1 S1                 0.0000
     38 ****         4.5518  -0.3566  -2.3197 H              1 S1                 0.0000
     39 ****         3.7899   1.2282  -2.0713 H              1 S1                 0.0000
     40 ****         4.1767   0.6699  -3.7114 H              1 S1                 0.0000
     41 ****        -0.8053   2.8573   2.0542 H              1 S1                 0.0000
     42 ****         0.0841   3.2060   0.5977 H              1 S1                 0.0000
     43 ****        -2.3792   3.2921   0.1871 H              1 S1                 0.0000
     44 ****        -1.6382   2.0543  -0.7945 H              1 S1                 0.0000
     45 ****         1.5466   2.5710  -0.1916 LP             1 S1                 0.0000
     46 ****         2.7561   1.3610  -0.4618 LP             1 S1                 0.0000
     47 ****         1.8309   0.9092  -4.4493 LP             1 S1                 0.0000
     48 ****        -3.0487   1.7558   1.7111 LP             1 S1                 0.0000
     49 ****        -3.5262   1.2594   0.2305 LP             1 S1                 0.0000
@<TRIPOS>BOND
    1    1    2 1     
    2    1   21 1     
    3    1   22 1     
    4    1   23 1     
    5    2    3 1     
    6    2   24 1     
    7    2   25 1     
    8    3   20 1     
    9    3    4 1     
   10    3    5 1     
   11    4   26 1     
   12    4   27 1     
   13    4   28 1     
   14    5    6 1     
   15    5   29 1     
   16    5   30 1     
   17    6    7 am    
   18    6   18 1     
   19    7    8 2     
   20    7    9 am    
   21    9   10 1     
   22    9   31 1     
   23   10   11 1     
   24   10   32 1     
   25   10   33 1     
   26   11   12 1     
   27   11   34 1     
   28   11   35 1     
   29   12   16 1     
   30   12   13 2     
   31   13   14 1     
   32   13   36 1     
   33   14   15 2     
   34   14   37 1     
   35   15   16 1     
   36   16   17 1     
   37   17   38 1     
   38   17   39 1     
   39   17   40 1     
   40   18   19 1     
   41   18   41 1     
   42   18   42 1     
   43   19   20 1     
   44   19   43 1     
   45   19   44 1     
   46    8   45 1     
   47    8   46 1     
   48   15   47 1     
   49   20   48 1     
   50   20   49 1     
@<TRIPOS>SUBSTRUCTURE
      1 S1             1
@<TRIPOS>SET
LONE_PAIRS      STATIC     ATOMS    <user>   **** ""
5 45 46 47 48 49
DONOR_HYDROGENS      STATIC     ATOMS    <user>   **** ""
1 31
ATOM$BLUE        STATIC     ATOMS    COLORGROUP SYSTEM
5 45 46 47 48 49
ATOM$RED        STATIC     ATOMS    COLORGROUP SYSTEM
1 31
