AV-unprocessed.smi:658|AV-procd|sdf|3233|dock4
  -GOLD-   22720 0173D 1   1.00000     0.00000
 Structure written by MMmdl.
 38 38  0  0  0  0  0  0  0  0  2 V2000
  144.1870  136.1077  151.6853 C   0  0  0  0  0  0  0  0  0  0  0  0
  145.6779  135.7449  151.5865 C   0  0  1  0  0  0  0  0  0  0  0  0
  146.4455  136.6206  152.5022 N   0  3  0  0  0  0  0  0  0  0  0  0
  146.3137  138.0658  152.2322 C   0  0  0  0  0  0  0  0  0  0  0  0
  146.6741  138.8908  153.4729 C   0  0  0  0  0  0  0  0  0  0  0  0
  148.0157  139.6207  153.3203 C   0  0  0  0  0  0  0  0  0  0  0  0
  149.2356  139.0713  154.5897 S   0  0  0  0  0  0  0  0  0  0  0  0
  149.4323  137.4069  154.2052 N   0  0  0  0  0  0  0  0  0  0  0  0
  150.5244  139.7354  154.3424 O   0  0  0  0  0  0  0  0  0  0  0  0
  148.5945  139.1374  155.9113 O   0  0  0  0  0  0  0  0  0  0  0  0
  145.9652  134.2558  151.9084 C   0  0  1  0  0  0  0  0  0  0  0  0
  145.6339  133.8697  153.3624 C   0  0  0  0  0  0  0  0  0  0  0  0
  145.2473  133.3831  150.9852 N   0  0  0  0  0  0  0  0  0  0  0  0
  145.7422  132.3731  150.1834 C   0  0  0  0  0  0  0  0  0  0  0  0
  144.6814  131.8062  149.5377 C   0  0  0  0  0  0  0  0  0  0  0  0
  143.5613  132.5378  150.0206 C   0  0  0  0  0  0  0  0  0  0  0  0
  143.9019  133.4725  150.8933 N   0  0  0  0  0  0  0  0  0  0  0  0
  143.5911  135.5704  150.9479 H   0  0  0  0  0  0  0  0  0  0  0  0
  144.0312  137.1717  151.5039 H   0  0  0  0  0  0  0  0  0  0  0  0
  143.7859  135.8776  152.6730 H   0  0  0  0  0  0  0  0  0  0  0  0
  145.9971  135.9355  150.5601 H   0  0  0  0  0  0  0  0  0  0  0  0
  146.1574  136.4332  153.4520 H   0  0  0  0  0  0  0  0  0  0  0  0
  146.9734  138.3362  151.4063 H   0  0  0  0  0  0  0  0  0  0  0  0
  145.2918  138.2815  151.9177 H   0  0  0  0  0  0  0  0  0  0  0  0
  145.8856  139.6188  153.6679 H   0  0  0  0  0  0  0  0  0  0  0  0
  146.7146  138.2347  154.3433 H   0  0  0  0  0  0  0  0  0  0  0  0
  148.4439  139.4059  152.3408 H   0  0  0  0  0  0  0  0  0  0  0  0
  147.9023  140.7024  153.3974 H   0  0  0  0  0  0  0  0  0  0  0  0
  149.2439  137.1970  153.2251 H   0  0  0  0  0  0  0  0  0  0  0  0
  148.9812  136.7838  154.8750 H   0  0  0  0  0  0  0  0  0  0  0  0
  147.0329  134.0763  151.7656 H   0  0  0  0  0  0  0  0  0  0  0  0
  146.2829  134.3824  154.0719 H   0  0  0  0  0  0  0  0  0  0  0  0
  145.7715  132.7998  153.5232 H   0  0  0  0  0  0  0  0  0  0  0  0
  144.6025  134.1138  153.6184 H   0  0  0  0  0  0  0  0  0  0  0  0
  146.7960  132.1403  150.1412 H   0  0  0  0  0  0  0  0  0  0  0  0
  144.7017  130.9900  148.8307 H   0  0  0  0  0  0  0  0  0  0  0  0
  142.5180  132.4141  149.7700 H   0  0  0  0  0  0  0  0  0  0  0  0
  147.4224  136.3779  152.4111 H   0  0  0  0  0  0  0  0  0  0  0  0
  1  2  1  0  0  0  0
  1 18  1  0  0  0  0
  1 19  1  0  0  0  0
  1 20  1  0  0  0  0
  2  3  1  0  0  0  0
  2 11  1  0  0  0  0
  2 21  1  0  0  0  0
  3  4  1  0  0  0  0
  3 22  1  0  0  0  0
  3 38  1  0  0  0  0
  4  5  1  0  0  0  0
  4 23  1  0  0  0  0
  4 24  1  0  0  0  0
  5  6  1  0  0  0  0
  5 25  1  0  0  0  0
  5 26  1  0  0  0  0
  6  7  1  0  0  0  0
  6 27  1  0  0  0  0
  6 28  1  0  0  0  0
  7  8  1  0  0  0  0
  7  9  2  0  0  0  0
  7 10  2  0  0  0  0
  8 29  1  0  0  0  0
  8 30  1  0  0  0  0
 11 12  1  0  0  0  0
 11 13  1  0  0  0  0
 11 31  1  0  0  0  0
 12 32  1  0  0  0  0
 12 33  1  0  0  0  0
 12 34  1  0  0  0  0
 13 17  1  0  0  0  0
 13 14  1  0  0  0  0
 14 15  2  0  0  0  0
 14 35  1  0  0  0  0
 15 16  1  0  0  0  0
 15 36  1  0  0  0  0
 16 17  2  0  0  0  0
 16 37  1  0  0  0  0
M  CHG  1   3   1
M  END
> <s_m_source_file>
AV-unprocessed.smi

> <i_m_source_file_index>
658

> <i_lp_mmshare_version>
43012

> <i_f3d_flags>
0

> <s_epik_input>
bjFbY0hdW2NIXVtjSF1uMVtDQEBIXShbQ0gzXSlbQ0BIXShbQ0gzXSlbTkhdW0NIMl1bQ0gyXVtDSDJdUyg9TykoPU8pW05IMl0=

> <s_epik_cmdline>
J2VwaWtfcHl0aG9uJywgJy1waCcsICc3LjAnLCAnLXRuJywgJzgnLCAnLW1hJywgJzIwMCcsICctbWV0YWxfYmluZGluZycsICctaW1hZScsICc8aW5maWxlLm1hZT4nLCAnLW9tYWUnLCAnPG91dGZpbGUubWFlPic=

> <r_lp_tautomer_probability>
1

> <r_epik_Ionization_Penalty>
0.00535781

> <r_epik_Ionization_Penalty_Charging>
0.00511015

> <r_epik_Ionization_Penalty_Neutral>
0.000247661

> <r_epik_State_Penalty>
-0

> <r_epik_Charging_Adjusted_Penalty>
0.00511015

> <i_epik_Tot_Q>
1

> <i_epik_Tot_abs_Q>
1

> <r_epik_Metal_State_Penalty>
0.149106

> <b_epik_Metal_Only>
0

> <s_lp_Force_Field>
OPLS_2005

> <r_lp_Energy>
6.97458

> <b_lp_Chiralities_Consistent>
1

> <s_lp_Variant>
AV-unprocessed.smi:658-4

> <Gold.Version>
5.8.1

> <Gold.Id.Protein>
6NUR|6NUR_protein|mol2

> <Gold.PLP.Fitness>
44.4871

> <Gold.PLP.PLP>
-27.1085

> <Gold.PLP.part.hbond>
-3.0000

> <Gold.PLP.part.metal>
0.0000

> <Gold.PLP.part.buried>
-1.3474

> <Gold.PLP.part.nonpolar>
-24.4858

> <Gold.PLP.part.repulsive>
0.3488

> <Gold.PLP.ligand.clash>
0.0000

> <Gold.PLP.ligand.torsion>
1.0036

> <Gold.PLP.Chemscore.Hbond>
4.0000

> <Gold.PLP.Chemscore.CHOScore>
2.3764

> <Gold.PLP.Chemscore.Metal>
0.0000

> <Gold.Chemscore.Hbonds>
donor molecule, donor type, donor heavy atom, donor atom, acceptor molecule, acceptor atom, score
      L1  H     3    38       P1  7948  2.00
      L1  H     8    29       P1  7948  1.00
      P1  H  7989  7998       L1     9  1.00
      L1  C    14    35       P1 10747  1.00
      L1  C    16    37       P1 10186  0.82
      L1  C    16    37       P1 10952  0.64

> <Gold.PLP.Chemscore.Internal.Correction>
0.2565

> <Gold.Rescore>
     Score         DG    S(hbond)    S(metal)    S(lipo)     H(rot)  DE(clash)    DE(int)     intcor
     13.12     -15.74       2.97        0.00      71.53       3.13       0.51       2.11       ----

> <Gold.Chemscore.Fitness>
13.1177

> <Gold.Chemscore.DG>
-15.7364

> <Gold.Chemscore.ZeroCoef>
-5.4800

> <Gold.Chemscore.Hbond>
2.9652

> <Gold.Chemscore.Metal>
0.0000

> <Gold.Chemscore.Lipo>
71.5255

> <Gold.Chemscore.Internal_Hbond>
0.0000

> <Gold.Chemscore.DEClash>
0.5065

> <Gold.Chemscore.DEInternal>
2.1123

> <Gold.Chemscore.Rot>
3.1312

> <Gold.Chemscore.Internal.Correction>
   9.000000E+99

> <Gold.Chemscore.Hbonds>
donor molecule, donor type, donor heavy atom, donor atom, acceptor molecule, acceptor atom, score
      L1  H     3    38       P1  7948  0.99
      L1  H     8    29       P1  7948  0.97
      P1  H  7989  7998       L1     9  1.00

> <Gold.Chemscore.Hbond.Weighted>
-9.9039

> <Gold.Chemscore.Metal.Weighted>
-0.0000

> <Gold.Chemscore.Lipo.Weighted>
-8.3685

> <Gold.Chemscore.Internal_Hbond.Weighted>
0.0000

> <Gold.Chemscore.DEClash.Weighted>
0.5065

> <Gold.Chemscore.DEInternal.Weighted>
2.1123

> <Gold.Chemscore.Rot.Weighted>
8.0160

> <Gold.Chemscore.Internal.Correction.Weighted>
   9.000000E+99

> <Gold.Protein.RotatedTorsions>
[ 6907 6896 6895 6894 ] final   90.34 input  -60.11 | X-H torsion
[ 7974 7965 7964 7962 ] final -137.78 input  175.53 | X-H torsion
[ 8008 7997 7996 7995 ] final -168.11 input   59.86 | X-H torsion
[ 10167 10162 10161 10158 ] final -109.38 input  -65.29 | X-H torsion
[ 10718 10713 10712 10709 ] final -147.14 input   66.30 | X-H torsion
[ 10763 10752 10751 10750 ] final  -29.54 input  -60.55 | X-H torsion
[ 11005 11000 10999 10996 ] final -110.34 input  -57.11 | X-H torsion

> <Gold.Protein.ActiveResidues>
 VAL166  LYS551  ARG553  GLY616  TRP617  ASP618  TYR619  PRO620  LYS621  CYS622 
 ASP623  PHE694  ASN695  SER759  ASP760  ASP761  ALA762  ILE779  LEU786  VAL792 
 PHE793  MET794  SER795  GLU796  ALA797  LYS798  CYS799  TRP800  GLU811  SER814 

> <Gold.Protein.RotatedAtoms>
  152.5444  134.1826  159.8641 H   0  0  0  0  0  0  0  0  0  0  0  0  # atno 6907 bound_to 6896
  151.1828  133.4708  159.2601 H   0  0  0  0  0  0  0  0  0  0  0  0  # atno 6908 bound_to 6896
  151.1161  135.0065  159.8572 H   0  0  0  0  0  0  0  0  0  0  0  0  # atno 6909 bound_to 6896
  144.8813  140.6511  143.5204 H   0  0  0  0  0  0  0  0  0  0  0  0  # atno 7974 bound_to 7965
  155.8869  140.1018  157.1446 H   0  0  0  0  0  0  0  0  0  0  0  0  # atno 8008 bound_to 7997
  154.4011  140.1318  156.4330 H   0  0  0  0  0  0  0  0  0  0  0  0  # atno 8009 bound_to 7997
  155.7579  140.3463  155.5185 H   0  0  0  0  0  0  0  0  0  0  0  0  # atno 8010 bound_to 7997
  140.1559  143.4160  152.1461 H   0  0  0  0  0  0  0  0  0  0  0  0  # atno 10167 bound_to 10162
  156.4037  130.7947  151.2159 H   0  0  0  0  0  0  0  0  0  0  0  0  # atno 10718 bound_to 10713
  153.7663  135.6915  153.4915 H   0  0  0  0  0  0  0  0  0  0  0  0  # atno 10763 bound_to 10752
  153.1904  135.4473  155.0141 H   0  0  0  0  0  0  0  0  0  0  0  0  # atno 10764 bound_to 10752
  154.8134  135.3388  154.7175 H   0  0  0  0  0  0  0  0  0  0  0  0  # atno 10765 bound_to 10752
  141.0797  133.9241  157.2315 H   0  0  0  0  0  0  0  0  0  0  0  0  # atno 11005 bound_to 11000
  145.3949  139.1609  143.4209 LP  0  0  0  0  0  0  0  0  0  0  0  0  # atno 17320 bound_to 7965
  146.2996  140.4042  142.8709 LP  0  0  0  0  0  0  0  0  0  0  0  0  # atno 17321 bound_to 7965
  139.5404  144.7250  151.4754 LP  0  0  0  0  0  0  0  0  0  0  0  0  # atno 17342 bound_to 10162
  140.6673  143.8370  150.6957 LP  0  0  0  0  0  0  0  0  0  0  0  0  # atno 17343 bound_to 10162
  157.7505  131.0279  150.4024 LP  0  0  0  0  0  0  0  0  0  0  0  0  # atno 17370 bound_to 10713
  156.4309  130.3972  149.6761 LP  0  0  0  0  0  0  0  0  0  0  0  0  # atno 17371 bound_to 10713
  139.9610  135.0154  156.9261 LP  0  0  0  0  0  0  0  0  0  0  0  0  # atno 17394 bound_to 11000
  140.5495  134.0641  155.7365 LP  0  0  0  0  0  0  0  0  0  0  0  0  # atno 17395 bound_to 11000

$$$$
