#       Name:                AV-unprocessed.smi:910
#       Creating user name   scv26
#       Creation time:       Fri Mar 27 02:02:27 2020


#       File generated by GOLD software.
#

@<TRIPOS>MOLECULE
AV-unprocessed.smi:910
    53    54     1
SMALL
NO_CHARGES


@<TRIPOS>ATOM
      1 ****        -5.3395   3.4469   1.9469 C.3            1 S1                 0.0000
      2 ****        -3.9155   2.9446   2.0426 C.2            1 S1                 0.0000
      3 ****        -3.6252   1.6284   2.2790 N.pl3          1 S1                 0.0000
      4 ****        -2.2465   1.4884   2.3174 C.2            1 S1                 0.0000
      5 ****        -1.5663   0.4022   2.5169 N.2            1 S1                 0.0000
      6 ****        -0.1804   0.4573   2.5356 C.2            1 S1                 0.0000
      7 ****         0.5487   1.4537   2.5735 O.2            1 S1                 0.0000
      8 ****         0.3292  -0.7823   2.4840 N.am           1 S1                 0.0000
      9 ****         1.7495  -1.1160   2.4430 C.3            1 S1                 0.0000
     10 ****         2.3381  -0.9095   1.0399 C.3            1 S1                 0.0000
     11 ****         1.6675  -1.7727   0.1335 O.3            1 S1                 0.0000
     12 ****         2.0242  -1.5930  -1.2310 C.3            1 S1                 0.0000
     13 ****         3.3201  -2.3731  -1.5362 C.3            1 S1                 0.0000
     14 ****         3.6676  -2.3264  -3.0315 C.3            1 S1                 0.0000
     15 ****         2.5019  -2.8454  -3.8847 C.3            1 S1                 0.0000
     16 ****         1.2127  -2.0631  -3.5911 C.3            1 S1                 0.0000
     17 ****         0.8475  -2.1027  -2.0934 C.3            1 S1                 0.0000
     18 ****        -0.4397  -1.3043  -1.8264 C.3            1 S1                 0.0000
     19 ****        -1.7232   2.7415   2.0946 O.3            1 S1                 0.0000
     20 ****        -2.7645   3.6038   1.9327 C.2            1 S1                 0.0000
     21 ****        -2.4637   5.0639   1.6795 C.3            1 S1                 0.0000
     22 ****        -5.5233   4.2056   2.7080 H              1 S1                 0.0000
     23 ****        -6.0524   2.6346   2.0914 H              1 S1                 0.0000
     24 ****        -5.5174   3.8912   0.9674 H              1 S1                 0.0000
     25 ****        -4.3292   0.9155   2.4028 H              1 S1                 0.0000
     26 ****        -0.3187  -1.5558   2.4468 H              1 S1                 0.0000
     27 ****         2.2944  -0.5166   3.1739 H              1 S1                 0.0000
     28 ****         1.8678  -2.1568   2.7453 H              1 S1                 0.0000
     29 ****         2.2257   0.1320   0.7343 H              1 S1                 0.0000
     30 ****         3.4052  -1.1305   1.0531 H              1 S1                 0.0000
     31 ****         2.1744  -0.5337  -1.4482 H              1 S1                 0.0000
     32 ****         4.1535  -1.9699  -0.9617 H              1 S1                 0.0000
     33 ****         3.2038  -3.4116  -1.2234 H              1 S1                 0.0000
     34 ****         3.9062  -1.3018  -3.3199 H              1 S1                 0.0000
     35 ****         4.5623  -2.9192  -3.2244 H              1 S1                 0.0000
     36 ****         2.7519  -2.7671  -4.9431 H              1 S1                 0.0000
     37 ****         2.3420  -3.9051  -3.6817 H              1 S1                 0.0000
     38 ****         1.3369  -1.0280  -3.9130 H              1 S1                 0.0000
     39 ****         0.3952  -2.4735  -4.1850 H              1 S1                 0.0000
     40 ****         0.6549  -3.1423  -1.8239 H              1 S1                 0.0000
     41 ****        -0.3077  -0.2480  -2.0627 H              1 S1                 0.0000
     42 ****        -0.7424  -1.3740  -0.7812 H              1 S1                 0.0000
     43 ****        -1.2662  -1.6795  -2.4303 H              1 S1                 0.0000
     44 ****        -3.3390   5.5762   1.2795 H              1 S1                 0.0000
     45 ****        -1.6485   5.1626   0.9627 H              1 S1                 0.0000
     46 ****        -2.1698   5.5531   2.6081 H              1 S1                 0.0000
     47 ****        -2.0376  -0.4688   2.6562 LP             1 S1                 0.0000
     48 ****         0.1448   2.3682   2.5951 LP             1 S1                 0.0000
     49 ****         1.5428   1.3457   2.5826 LP             1 S1                 0.0000
     50 ****         0.6840  -1.6144   0.2220 LP             1 S1                 0.0000
     51 ****         1.8774  -2.7165   0.3888 LP             1 S1                 0.0000
     52 ****        -1.1576   2.7325   1.2700 LP             1 S1                 0.0000
     53 ****        -1.1674   3.0223   2.8771 LP             1 S1                 0.0000
@<TRIPOS>BOND
    1    1   22 1     
    2    1   23 1     
    3    1   24 1     
    4    1    2 1     
    5    2    3 1     
    6    2   20 2     
    7    3   25 1     
    8    3    4 1     
    9    4   19 1     
   10    4    5 2     
   11    5    6 1     
   12    6    8 am    
   13    6    7 2     
   14    8    9 1     
   15    8   26 1     
   16    9   10 1     
   17    9   27 1     
   18    9   28 1     
   19   10   11 1     
   20   10   29 1     
   21   10   30 1     
   22   11   12 1     
   23   12   17 1     
   24   12   13 1     
   25   12   31 1     
   26   13   14 1     
   27   13   32 1     
   28   13   33 1     
   29   14   15 1     
   30   14   34 1     
   31   14   35 1     
   32   15   16 1     
   33   15   36 1     
   34   15   37 1     
   35   16   17 1     
   36   16   38 1     
   37   16   39 1     
   38   17   18 1     
   39   17   40 1     
   40   18   41 1     
   41   18   42 1     
   42   18   43 1     
   43   19   20 1     
   44   20   21 1     
   45   21   44 1     
   46   21   45 1     
   47   21   46 1     
   48    5   47 1     
   49    7   48 1     
   50    7   49 1     
   51   11   50 1     
   52   11   51 1     
   53   19   52 1     
   54   19   53 1     
@<TRIPOS>SUBSTRUCTURE
      1 S1             1
@<TRIPOS>SET
LONE_PAIRS      STATIC     ATOMS    <user>   **** ""
7 47 48 49 50 51 52 53
DONOR_HYDROGENS      STATIC     ATOMS    <user>   **** ""
2 25 26
ATOM$BLUE        STATIC     ATOMS    COLORGROUP SYSTEM
7 47 48 49 50 51 52 53
ATOM$RED        STATIC     ATOMS    COLORGROUP SYSTEM
2 25 26
