AV-unprocessed.smi:3202|AV-procd|sdf|12246|dock6
  -GOLD-   2272018 83D 1   1.00000     0.00000
 Structure written by MMmdl.
 43 44  0  0  0  0  0  0  0  0  2 V2000
  146.5442  140.2854  152.6931 C   0  0  0  0  0  0  0  0  0  0  0  0
  147.6046  140.8219  153.6088 C   0  0  0  0  0  0  0  0  0  0  0  0
  148.8038  140.1820  154.0384 C   0  0  0  0  0  0  0  0  0  0  0  0
  149.4083  141.1018  154.8508 C   0  0  0  0  0  0  0  0  0  0  0  0
  150.6813  141.0595  155.6372 C   0  0  0  0  0  0  0  0  0  0  0  0
  150.5420  141.4712  157.1196 C   0  0  1  0  0  0  0  0  0  0  0  0
  151.5261  140.7060  158.0197 C   0  0  0  0  0  0  0  0  0  0  0  0
  150.7757  142.9248  157.2850 N   0  3  0  0  0  0  0  0  0  0  0  0
  150.8507  143.4191  158.6809 C   0  0  2  0  0  0  0  0  0  0  0  0
  149.8711  144.5569  158.9947 C   0  0  0  0  0  0  0  0  0  0  0  0
  150.4889  145.3088  160.1802 C   0  0  0  0  0  0  0  0  0  0  0  0
  151.9126  144.7561  160.3491 C   0  0  0  0  0  0  0  0  0  0  0  0
  152.2388  143.9779  159.0607 C   0  0  0  0  0  0  0  0  0  0  0  0
  153.2538  142.8516  159.3328 C   0  0  0  0  0  0  0  0  0  0  0  0
  152.8114  144.9430  157.9966 C   0  0  0  0  0  0  0  0  0  0  0  0
  148.5702  142.1931  154.8780 N   0  0  0  0  0  0  0  0  0  0  0  0
  147.4704  142.0367  154.1186 N   0  0  0  0  0  0  0  0  0  0  0  0
  148.7347  143.0426  155.3994 H   0  0  0  0  0  0  0  0  0  0  0  0
  146.7187  139.2344  152.4616 H   0  0  0  0  0  0  0  0  0  0  0  0
  146.5256  140.8338  151.7510 H   0  0  0  0  0  0  0  0  0  0  0  0
  145.5552  140.3638  153.1456 H   0  0  0  0  0  0  0  0  0  0  0  0
  149.1625  139.1952  153.7852 H   0  0  0  0  0  0  0  0  0  0  0  0
  151.4004  141.7072  155.1380 H   0  0  0  0  0  0  0  0  0  0  0  0
  151.1045  140.0553  155.5830 H   0  0  0  0  0  0  0  0  0  0  0  0
  149.5331  141.2374  157.4626 H   0  0  0  0  0  0  0  0  0  0  0  0
  151.3507  139.6308  157.9870 H   0  0  0  0  0  0  0  0  0  0  0  0
  151.4261  141.0165  159.0605 H   0  0  0  0  0  0  0  0  0  0  0  0
  152.5595  140.8821  157.7189 H   0  0  0  0  0  0  0  0  0  0  0  0
  151.6742  143.1224  156.8680 H   0  0  0  0  0  0  0  0  0  0  0  0
  150.6307  142.5867  159.3524 H   0  0  0  0  0  0  0  0  0  0  0  0
  149.7871  145.2350  158.1444 H   0  0  0  0  0  0  0  0  0  0  0  0
  148.8705  144.1866  159.2208 H   0  0  0  0  0  0  0  0  0  0  0  0
  150.5086  146.3803  159.9780 H   0  0  0  0  0  0  0  0  0  0  0  0
  149.9086  145.1607  161.0914 H   0  0  0  0  0  0  0  0  0  0  0  0
  152.6374  145.5424  160.5637 H   0  0  0  0  0  0  0  0  0  0  0  0
  151.9220  144.0791  161.2049 H   0  0  0  0  0  0  0  0  0  0  0  0
  154.2025  143.2544  159.6891 H   0  0  0  0  0  0  0  0  0  0  0  0
  153.4590  142.2765  158.4293 H   0  0  0  0  0  0  0  0  0  0  0  0
  152.8904  142.1552  160.0891 H   0  0  0  0  0  0  0  0  0  0  0  0
  153.7448  145.3914  158.3389 H   0  0  0  0  0  0  0  0  0  0  0  0
  152.1265  145.7605  157.7708 H   0  0  0  0  0  0  0  0  0  0  0  0
  153.0300  144.4286  157.0606 H   0  0  0  0  0  0  0  0  0  0  0  0
  150.0730  143.4418  156.7760 H   0  0  0  0  0  0  0  0  0  0  0  0
  1 19  1  0  0  0  0
  1 20  1  0  0  0  0
  1 21  1  0  0  0  0
  1  2  1  0  0  0  0
  2 17  2  0  0  0  0
  2  3  1  0  0  0  0
  3  4  2  0  0  0  0
  3 22  1  0  0  0  0
  4 16  1  0  0  0  0
  4  5  1  0  0  0  0
  5  6  1  0  0  0  0
  5 23  1  0  0  0  0
  5 24  1  0  0  0  0
  6  7  1  0  0  0  0
  6  8  1  0  0  0  0
  6 25  1  0  0  0  0
  7 26  1  0  0  0  0
  7 27  1  0  0  0  0
  7 28  1  0  0  0  0
  8  9  1  0  0  0  0
  8 29  1  0  0  0  0
  8 43  1  0  0  0  0
  9 13  1  0  0  0  0
  9 10  1  0  0  0  0
  9 30  1  0  0  0  0
 10 11  1  0  0  0  0
 10 31  1  0  0  0  0
 10 32  1  0  0  0  0
 11 12  1  0  0  0  0
 11 33  1  0  0  0  0
 11 34  1  0  0  0  0
 12 13  1  0  0  0  0
 12 35  1  0  0  0  0
 12 36  1  0  0  0  0
 13 14  1  0  0  0  0
 13 15  1  0  0  0  0
 14 37  1  0  0  0  0
 14 38  1  0  0  0  0
 14 39  1  0  0  0  0
 15 40  1  0  0  0  0
 15 41  1  0  0  0  0
 15 42  1  0  0  0  0
 16 17  1  0  0  0  0
 16 18  1  0  0  0  0
M  CHG  1   8   1
M  END
> <s_m_source_file>
AV-unprocessed.smi

> <i_m_source_file_index>
3202

> <i_lp_mmshare_version>
43012

> <i_f3d_flags>
0

> <s_epik_input>
W0NIM11jMVtjSF1jKG5bbkhdMSlbQ0gyXVtDQEhdKFtDSDNdKVtOSF1bQ0BASF0oQzIoW0NIM10pW0NIM10pW0NIMl1bQ0gyXVtDSDJdMg==

> <s_epik_cmdline>
J2VwaWtfcHl0aG9uJywgJy1waCcsICc3LjAnLCAnLXRuJywgJzgnLCAnLW1hJywgJzIwMCcsICctbWV0YWxfYmluZGluZycsICctaW1hZScsICc8aW5maWxlLm1hZT4nLCAnLW9tYWUnLCAnPG91dGZpbGUubWFlPic=

> <r_lp_tautomer_probability>
0.5

> <r_epik_Ionization_Penalty>
0.000449684

> <r_epik_Ionization_Penalty_Charging>
0.000404963

> <r_epik_Ionization_Penalty_Neutral>
4.47208e-05

> <r_epik_State_Penalty>
0.41068

> <r_epik_Charging_Adjusted_Penalty>
0.411085

> <i_epik_Tot_Q>
1

> <i_epik_Tot_abs_Q>
1

> <r_epik_Metal_State_Penalty>
0.410687

> <b_epik_Metal_Only>
0

> <s_lp_Force_Field>
OPLS_2005

> <r_lp_Energy>
31.7221

> <b_lp_Chiralities_Consistent>
1

> <s_lp_Variant>
AV-unprocessed.smi:3202-6

> <Gold.Version>
5.8.1

> <Gold.Id.Protein>
6NUR|6NUR_protein|mol2

> <Gold.PLP.Fitness>
44.2025

> <Gold.PLP.PLP>
-37.8312

> <Gold.PLP.part.hbond>
-1.9766

> <Gold.PLP.part.metal>
0.0000

> <Gold.PLP.part.buried>
2.2899

> <Gold.PLP.part.nonpolar>
-37.1614

> <Gold.PLP.part.repulsive>
0.3737

> <Gold.PLP.ligand.clash>
0.0000

> <Gold.PLP.ligand.torsion>
1.2930

> <Gold.PLP.Chemscore.Hbond>
2.9825

> <Gold.PLP.Chemscore.CHOScore>
0.0000

> <Gold.PLP.Chemscore.Metal>
0.0000

> <Gold.Chemscore.Hbonds>
donor molecule, donor type, donor heavy atom, donor atom, acceptor molecule, acceptor atom, score
      L1  H     8    43       P1  8028  1.82
      L1  H    16    18       P1  8028  1.00

> <Gold.PLP.Chemscore.Internal.Correction>
0.0098

> <Gold.Rescore>
     Score         DG    S(hbond)    S(metal)    S(lipo)     H(rot)  DE(clash)    DE(int)     intcor
     20.37     -23.26       1.89        0.00     129.89       1.46       1.56       1.33       ----

> <Gold.Chemscore.Fitness>
20.3735

> <Gold.Chemscore.DG>
-23.2648

> <Gold.Chemscore.ZeroCoef>
-5.4800

> <Gold.Chemscore.Hbond>
1.8934

> <Gold.Chemscore.Metal>
0.0000

> <Gold.Chemscore.Lipo>
129.8930

> <Gold.Chemscore.Internal_Hbond>
0.0000

> <Gold.Chemscore.DEClash>
1.5638

> <Gold.Chemscore.DEInternal>
1.3275

> <Gold.Chemscore.Rot>
1.4596

> <Gold.Chemscore.Internal.Correction>
   9.000000E+99

> <Gold.Chemscore.Hbonds>
donor molecule, donor type, donor heavy atom, donor atom, acceptor molecule, acceptor atom, score
      L1  H     8    43       P1  8028  0.89
      L1  H    16    18       P1  8028  0.98

> <Gold.Chemscore.Hbond.Weighted>
-6.3238

> <Gold.Chemscore.Metal.Weighted>
-0.0000

> <Gold.Chemscore.Lipo.Weighted>
-15.1975

> <Gold.Chemscore.Internal_Hbond.Weighted>
0.0000

> <Gold.Chemscore.DEClash.Weighted>
1.5638

> <Gold.Chemscore.DEInternal.Weighted>
1.3275

> <Gold.Chemscore.Rot.Weighted>
3.7365

> <Gold.Chemscore.Internal.Correction.Weighted>
   9.000000E+99

> <Gold.Protein.RotatedTorsions>
[ 6907 6896 6895 6894 ] final   15.05 input  -60.11 | X-H torsion
[ 7974 7965 7964 7962 ] final -127.13 input  175.53 | X-H torsion
[ 8008 7997 7996 7995 ] final  -22.49 input   59.86 | X-H torsion
[ 10167 10162 10161 10158 ] final   19.76 input  -65.29 | X-H torsion
[ 10718 10713 10712 10709 ] final   91.26 input   66.30 | X-H torsion
[ 10763 10752 10751 10750 ] final  -96.73 input  -60.55 | X-H torsion
[ 11005 11000 10999 10996 ] final  149.29 input  -57.11 | X-H torsion

> <Gold.Protein.ActiveResidues>
 VAL166  LYS551  ARG553  GLY616  TRP617  ASP618  TYR619  PRO620  LYS621  CYS622 
 ASP623  PHE694  ASN695  SER759  ASP760  ASP761  ALA762  ILE779  LEU786  VAL792 
 PHE793  MET794  SER795  GLU796  ALA797  LYS798  CYS799  TRP800  GLU811  SER814 

> <Gold.Protein.RotatedAtoms>
  151.8119  135.0678  160.0413 H   0  0  0  0  0  0  0  0  0  0  0  0  # atno 6907 bound_to 6896
  152.3014  133.5655  159.5629 H   0  0  0  0  0  0  0  0  0  0  0  0  # atno 6908 bound_to 6896
  150.7275  134.0202  159.3741 H   0  0  0  0  0  0  0  0  0  0  0  0  # atno 6909 bound_to 6896
  144.9802  140.7632  143.4617 H   0  0  0  0  0  0  0  0  0  0  0  0  # atno 7974 bound_to 7965
  154.4641  140.2006  156.0166 H   0  0  0  0  0  0  0  0  0  0  0  0  # atno 8008 bound_to 7997
  156.0894  140.3260  155.7767 H   0  0  0  0  0  0  0  0  0  0  0  0  # atno 8009 bound_to 7997
  155.4981  140.0551  157.2934 H   0  0  0  0  0  0  0  0  0  0  0  0  # atno 8010 bound_to 7997
  140.5555  143.9433  150.6606 H   0  0  0  0  0  0  0  0  0  0  0  0  # atno 10167 bound_to 10162
  157.6960  131.0401  150.3702 H   0  0  0  0  0  0  0  0  0  0  0  0  # atno 10718 bound_to 10713
  154.7265  135.5073  153.8895 H   0  0  0  0  0  0  0  0  0  0  0  0  # atno 10763 bound_to 10752
  153.0910  135.6659  153.9863 H   0  0  0  0  0  0  0  0  0  0  0  0  # atno 10764 bound_to 10752
  153.9674  135.3042  155.3409 H   0  0  0  0  0  0  0  0  0  0  0  0  # atno 10765 bound_to 10752
  140.1032  134.8970  157.1827 H   0  0  0  0  0  0  0  0  0  0  0  0  # atno 11005 bound_to 11000
  145.2432  139.2063  143.4981 LP  0  0  0  0  0  0  0  0  0  0  0  0  # atno 17320 bound_to 7965
  146.3406  140.2331  142.8594 LP  0  0  0  0  0  0  0  0  0  0  0  0  # atno 17321 bound_to 7965
  140.2870  143.3350  152.1098 LP  0  0  0  0  0  0  0  0  0  0  0  0  # atno 17342 bound_to 10162
  139.5046  144.6778  151.6084 LP  0  0  0  0  0  0  0  0  0  0  0  0  # atno 17343 bound_to 10162
  156.4128  130.3937  149.6879 LP  0  0  0  0  0  0  0  0  0  0  0  0  # atno 17370 bound_to 10713
  156.4157  130.7744  151.2759 LP  0  0  0  0  0  0  0  0  0  0  0  0  # atno 17371 bound_to 10713
  140.3192  134.2936  155.7250 LP  0  0  0  0  0  0  0  0  0  0  0  0  # atno 17394 bound_to 11000
  141.2111  133.7699  156.9886 LP  0  0  0  0  0  0  0  0  0  0  0  0  # atno 17395 bound_to 11000

$$$$
